lig.pdb
 OpenBabel11021811523D
libRbt.so/2013.1/901 2013/11/27
 10 11  0  0  0  0  0  0  0  0999 V2000
  -30.9341   18.8830  -17.7041 N   0  0  0  0  0  0  0  0  0  0  0  0
  -30.2579   18.1749  -18.6592 C   0  0  0  0  0  0  0  0  0  0  0  0
  -29.7870   17.0270  -18.2338 N   0  0  0  0  0  0  0  0  0  0  0  0
  -30.1798   16.9778  -16.9070 C   0  0  0  0  0  0  0  0  0  0  0  0
  -29.9943   16.0144  -15.8985 C   0  0  0  0  0  0  0  0  0  0  0  0
  -29.3275   14.8714  -16.0900 N   0  0  0  0  0  0  0  0  0  0  0  0
  -30.5179   16.2734  -14.6802 N   0  0  0  0  0  0  0  0  0  0  0  0
  -31.1810   17.4201  -14.4944 C   0  0  0  0  0  0  0  0  0  0  0  0
  -31.4208   18.4001  -15.3648 N   0  0  0  0  0  0  0  0  0  0  0  0
  -30.8886   18.1138  -16.5636 C   0  0  0  0  0  0  0  0  0  0  0  0
  1 10  1  0  0  0  0
  2  3  2  0  0  0  0
  2  1  1  0  0  0  0
  3  4  1  0  0  0  0
  4 10  2  0  0  0  0
  4  5  1  0  0  0  0
  5  7  2  0  0  0  0
  6  5  1  0  0  0  0
  7  8  1  0  0  0  0
  9  8  2  0  0  0  0
 10  9  1  0  0  0  0
M  END
>  <CHROM.1>
-30.42906796,17.17428914,-16.45334905,1.73978580,1.01875071,-1.02938538

>  <Name>
lig.pdb

>  <RI>
0

>  <Rbt.Current_Directory>
/home/itssahil/PROJECTS/Mol_Feturizer/New_Systems/rnas/5uza

>  <Rbt.Executable>
rbdock ($Id: //depot/dev/client3/rdock/2013.1/src/exe/rbdock.cxx#4 $)

>  <Rbt.Library>
libRbt.so (2013.1, Build901 2013/11/27)

>  <Rbt.Parameter_File>
/export/apps/rDock/src/rDock_2013.1_src/data/scripts/dock_solv.prm

>  <Rbt.Receptor>
prm/pocket_docking_3.prm

>  <SCORE>
-33.805

>  <SCORE.INTER>
-33.805

>  <SCORE.INTER.CONST>
1

>  <SCORE.INTER.POLAR>
-3.03763

>  <SCORE.INTER.ROT>
0

>  <SCORE.INTER.SOLV>
12.0613

>  <SCORE.INTER.VDW>
-20.0317

>  <SCORE.INTER.norm>
-3.3805

>  <SCORE.INTRA>
0

>  <SCORE.INTRA.DIHEDRAL>
0

>  <SCORE.INTRA.DIHEDRAL.0>
0

>  <SCORE.INTRA.POLAR>
0

>  <SCORE.INTRA.POLAR.0>
0

>  <SCORE.INTRA.REPUL>
0

>  <SCORE.INTRA.REPUL.0>
0

>  <SCORE.INTRA.SOLV>
0

>  <SCORE.INTRA.SOLV.lig_0>
-14.8845

>  <SCORE.INTRA.VDW>
0

>  <SCORE.INTRA.VDW.0>
0

>  <SCORE.INTRA.norm>
0

>  <SCORE.RESTR>
0

>  <SCORE.RESTR.CAVITY>
0

>  <SCORE.RESTR.norm>
0

>  <SCORE.SYSTEM>
0

>  <SCORE.SYSTEM.CONST>
0

>  <SCORE.SYSTEM.DIHEDRAL>
0

>  <SCORE.SYSTEM.SOLV>
0

>  <SCORE.SYSTEM.norm>
0

>  <SCORE.heavy>
10

>  <SCORE.norm>
-3.3805

>  <RMSD>
0.224

$$$$
lig.pdb
 OpenBabel11021811523D
libRbt.so/2013.1/901 2013/11/27
 10 11  0  0  0  0  0  0  0  0999 V2000
  -30.9262   18.8708  -17.7121 N   0  0  0  0  0  0  0  0  0  0  0  0
  -30.2420   18.1669  -18.6647 C   0  0  0  0  0  0  0  0  0  0  0  0
  -29.7693   17.0199  -18.2388 N   0  0  0  0  0  0  0  0  0  0  0  0
  -30.1696   16.9668  -16.9143 C   0  0  0  0  0  0  0  0  0  0  0  0
  -29.9863   16.0021  -15.9066 C   0  0  0  0  0  0  0  0  0  0  0  0
  -29.3142   14.8619  -16.0965 N   0  0  0  0  0  0  0  0  0  0  0  0
  -30.5177   16.2569  -14.6908 N   0  0  0  0  0  0  0  0  0  0  0  0
  -31.1861   17.4008  -14.5067 C   0  0  0  0  0  0  0  0  0  0  0  0
  -31.4245   18.3816  -15.3766 N   0  0  0  0  0  0  0  0  0  0  0  0
  -30.8844   18.0996  -16.5729 C   0  0  0  0  0  0  0  0  0  0  0  0
  1 10  1  0  0  0  0
  2  3  2  0  0  0  0
  2  1  1  0  0  0  0
  3  4  1  0  0  0  0
  4 10  2  0  0  0  0
  4  5  1  0  0  0  0
  5  7  2  0  0  0  0
  6  5  1  0  0  0  0
  7  8  1  0  0  0  0
  9  8  2  0  0  0  0
 10  9  1  0  0  0  0
M  END
>  <CHROM.1>
-30.42208271,17.16149802,-16.46173834,1.73411984,1.01266083,-1.02266011

>  <Name>
lig.pdb

>  <RI>
0

>  <Rbt.Current_Directory>
/home/itssahil/PROJECTS/Mol_Feturizer/New_Systems/rnas/5uza

>  <Rbt.Executable>
rbdock ($Id: //depot/dev/client3/rdock/2013.1/src/exe/rbdock.cxx#4 $)

>  <Rbt.Library>
libRbt.so (2013.1, Build901 2013/11/27)

>  <Rbt.Parameter_File>
/export/apps/rDock/src/rDock_2013.1_src/data/scripts/dock_solv.prm

>  <Rbt.Receptor>
prm/pocket_docking_3.prm

>  <SCORE>
-33.8325

>  <SCORE.INTER>
-33.8325

>  <SCORE.INTER.CONST>
1

>  <SCORE.INTER.POLAR>
-3.03763

>  <SCORE.INTER.ROT>
0

>  <SCORE.INTER.SOLV>
12.0506

>  <SCORE.INTER.VDW>
-20.0464

>  <SCORE.INTER.norm>
-3.38325

>  <SCORE.INTRA>
0

>  <SCORE.INTRA.DIHEDRAL>
0

>  <SCORE.INTRA.DIHEDRAL.0>
0

>  <SCORE.INTRA.POLAR>
0

>  <SCORE.INTRA.POLAR.0>
0

>  <SCORE.INTRA.REPUL>
0

>  <SCORE.INTRA.REPUL.0>
0

>  <SCORE.INTRA.SOLV>
0

>  <SCORE.INTRA.SOLV.lig_0>
-14.8845

>  <SCORE.INTRA.VDW>
0

>  <SCORE.INTRA.VDW.0>
0

>  <SCORE.INTRA.norm>
0

>  <SCORE.RESTR>
0

>  <SCORE.RESTR.CAVITY>
0

>  <SCORE.RESTR.norm>
0

>  <SCORE.SYSTEM>
0

>  <SCORE.SYSTEM.CONST>
0

>  <SCORE.SYSTEM.DIHEDRAL>
0

>  <SCORE.SYSTEM.SOLV>
0

>  <SCORE.SYSTEM.norm>
0

>  <SCORE.heavy>
10

>  <SCORE.norm>
-3.38325

>  <RMSD>
0.224

$$$$
lig.pdb
 OpenBabel11021811523D
libRbt.so/2013.1/901 2013/11/27
 10 11  0  0  0  0  0  0  0  0999 V2000
  -30.9189   18.8962  -17.7022 N   0  0  0  0  0  0  0  0  0  0  0  0
  -30.2396   18.1925  -18.6584 C   0  0  0  0  0  0  0  0  0  0  0  0
  -29.7722   17.0415  -18.2374 N   0  0  0  0  0  0  0  0  0  0  0  0
  -30.1707   16.9855  -16.9125 C   0  0  0  0  0  0  0  0  0  0  0  0
  -29.9909   16.0162  -15.9087 C   0  0  0  0  0  0  0  0  0  0  0  0
  -29.3249   14.8733  -16.1038 N   0  0  0  0  0  0  0  0  0  0  0  0
  -30.5192   16.2691  -14.6912 N   0  0  0  0  0  0  0  0  0  0  0  0
  -31.1814   17.4157  -14.5018 C   0  0  0  0  0  0  0  0  0  0  0  0
  -31.4162   18.4009  -15.3677 N   0  0  0  0  0  0  0  0  0  0  0  0
  -30.8793   18.1206  -16.5658 C   0  0  0  0  0  0  0  0  0  0  0  0
  1 10  1  0  0  0  0
  2  3  2  0  0  0  0
  2  1  1  0  0  0  0
  3  4  1  0  0  0  0
  4 10  2  0  0  0  0
  4  5  1  0  0  0  0
  5  7  2  0  0  0  0
  6  5  1  0  0  0  0
  7  8  1  0  0  0  0
  9  8  2  0  0  0  0
 10  9  1  0  0  0  0
M  END
>  <CHROM.1>
-30.42159386,17.17980439,-16.45886305,1.73147500,1.01779838,-1.01670834

>  <Name>
lig.pdb

>  <RI>
0

>  <Rbt.Current_Directory>
/home/itssahil/PROJECTS/Mol_Feturizer/New_Systems/rnas/5uza

>  <Rbt.Executable>
rbdock ($Id: //depot/dev/client3/rdock/2013.1/src/exe/rbdock.cxx#4 $)

>  <Rbt.Library>
libRbt.so (2013.1, Build901 2013/11/27)

>  <Rbt.Parameter_File>
/export/apps/rDock/src/rDock_2013.1_src/data/scripts/dock_solv.prm

>  <Rbt.Receptor>
prm/pocket_docking_3.prm

>  <SCORE>
-33.8538

>  <SCORE.INTER>
-33.8538

>  <SCORE.INTER.CONST>
1

>  <SCORE.INTER.POLAR>
-3.03763

>  <SCORE.INTER.ROT>
0

>  <SCORE.INTER.SOLV>
12.0695

>  <SCORE.INTER.VDW>
-20.067

>  <SCORE.INTER.norm>
-3.38538

>  <SCORE.INTRA>
0

>  <SCORE.INTRA.DIHEDRAL>
0

>  <SCORE.INTRA.DIHEDRAL.0>
0

>  <SCORE.INTRA.POLAR>
0

>  <SCORE.INTRA.POLAR.0>
0

>  <SCORE.INTRA.REPUL>
0

>  <SCORE.INTRA.REPUL.0>
0

>  <SCORE.INTRA.SOLV>
0

>  <SCORE.INTRA.SOLV.lig_0>
-14.8845

>  <SCORE.INTRA.VDW>
0

>  <SCORE.INTRA.VDW.0>
0

>  <SCORE.INTRA.norm>
0

>  <SCORE.RESTR>
0

>  <SCORE.RESTR.CAVITY>
0

>  <SCORE.RESTR.norm>
0

>  <SCORE.SYSTEM>
0

>  <SCORE.SYSTEM.CONST>
0

>  <SCORE.SYSTEM.DIHEDRAL>
0

>  <SCORE.SYSTEM.SOLV>
0

>  <SCORE.SYSTEM.norm>
0

>  <SCORE.heavy>
10

>  <SCORE.norm>
-3.38538

>  <RMSD>
0.227

$$$$
lig.pdb
 OpenBabel11021811523D
libRbt.so/2013.1/901 2013/11/27
 10 11  0  0  0  0  0  0  0  0999 V2000
  -31.0519   18.8750  -17.6581 N   0  0  0  0  0  0  0  0  0  0  0  0
  -30.3317   18.1878  -18.5963 C   0  0  0  0  0  0  0  0  0  0  0  0
  -29.8278   17.0598  -18.1560 N   0  0  0  0  0  0  0  0  0  0  0  0
  -30.2446   17.0021  -16.8368 C   0  0  0  0  0  0  0  0  0  0  0  0
  -30.0440   16.0504  -15.8200 C   0  0  0  0  0  0  0  0  0  0  0  0
  -29.3324   14.9317  -15.9927 N   0  0  0  0  0  0  0  0  0  0  0  0
  -30.6005   16.2955  -14.6135 N   0  0  0  0  0  0  0  0  0  0  0  0
  -31.3085   17.4180  -14.4465 C   0  0  0  0  0  0  0  0  0  0  0  0
  -31.5667   18.3848  -15.3264 N   0  0  0  0  0  0  0  0  0  0  0  0
  -31.0009   18.1129  -16.5131 C   0  0  0  0  0  0  0  0  0  0  0  0
  1 10  1  0  0  0  0
  2  3  2  0  0  0  0
  2  1  1  0  0  0  0
  3  4  1  0  0  0  0
  4 10  2  0  0  0  0
  4  5  1  0  0  0  0
  5  7  2  0  0  0  0
  6  5  1  0  0  0  0
  7  8  1  0  0  0  0
  9  8  2  0  0  0  0
 10  9  1  0  0  0  0
M  END
>  <CHROM.1>
-30.50971228,17.19128072,-16.38911561,1.74318731,0.97739500,-1.03694817

>  <Name>
lig.pdb

>  <RI>
9.24451e+06

>  <Rbt.Current_Directory>
/home/itssahil/PROJECTS/Mol_Feturizer/New_Systems/rnas/5uza

>  <Rbt.Executable>
rbdock ($Id: //depot/dev/client3/rdock/2013.1/src/exe/rbdock.cxx#4 $)

>  <Rbt.Library>
libRbt.so (2013.1, Build901 2013/11/27)

>  <Rbt.Parameter_File>
/export/apps/rDock/src/rDock_2013.1_src/data/scripts/dock_solv.prm

>  <Rbt.Receptor>
prm/pocket_docking_4.prm

>  <SCORE>
-33.8233

>  <SCORE.INTER>
-33.8233

>  <SCORE.INTER.CONST>
1

>  <SCORE.INTER.POLAR>
-3.03763

>  <SCORE.INTER.ROT>
0

>  <SCORE.INTER.SOLV>
12.0802

>  <SCORE.INTER.VDW>
-20.0502

>  <SCORE.INTER.norm>
-3.38233

>  <SCORE.INTRA>
0

>  <SCORE.INTRA.DIHEDRAL>
0

>  <SCORE.INTRA.DIHEDRAL.0>
0

>  <SCORE.INTRA.POLAR>
0

>  <SCORE.INTRA.POLAR.0>
0

>  <SCORE.INTRA.REPUL>
0

>  <SCORE.INTRA.REPUL.0>
0

>  <SCORE.INTRA.SOLV>
0

>  <SCORE.INTRA.SOLV.lig_0>
-14.8845

>  <SCORE.INTRA.VDW>
0

>  <SCORE.INTRA.VDW.0>
0

>  <SCORE.INTRA.norm>
0

>  <SCORE.RESTR>
0

>  <SCORE.RESTR.CAVITY>
0

>  <SCORE.RESTR.norm>
0

>  <SCORE.SYSTEM>
0

>  <SCORE.SYSTEM.CONST>
0

>  <SCORE.SYSTEM.DIHEDRAL>
0

>  <SCORE.SYSTEM.SOLV>
0

>  <SCORE.SYSTEM.norm>
0

>  <SCORE.heavy>
10

>  <SCORE.norm>
-3.38233

>  <RMSD>
0.240

$$$$
lig.pdb
 OpenBabel11021811523D
libRbt.so/2013.1/901 2013/11/27
 10 11  0  0  0  0  0  0  0  0999 V2000
  -31.0075   18.9467  -17.6491 N   0  0  0  0  0  0  0  0  0  0  0  0
  -30.3262   18.2509  -18.6096 C   0  0  0  0  0  0  0  0  0  0  0  0
  -29.8498   17.1017  -18.1939 N   0  0  0  0  0  0  0  0  0  0  0  0
  -30.2443   17.0384  -16.8681 C   0  0  0  0  0  0  0  0  0  0  0  0
  -30.0552   16.0668  -15.8681 C   0  0  0  0  0  0  0  0  0  0  0  0
  -29.3820   14.9292  -16.0690 N   0  0  0  0  0  0  0  0  0  0  0  0
  -30.5818   16.3120  -14.6483 N   0  0  0  0  0  0  0  0  0  0  0  0
  -31.2513   17.4535  -14.4531 C   0  0  0  0  0  0  0  0  0  0  0  0
  -31.4950   18.4400  -15.3150 N   0  0  0  0  0  0  0  0  0  0  0  0
  -30.9596   18.1675  -16.5155 C   0  0  0  0  0  0  0  0  0  0  0  0
  1 10  1  0  0  0  0
  2  3  2  0  0  0  0
  2  1  1  0  0  0  0
  3  4  1  0  0  0  0
  4 10  2  0  0  0  0
  4  5  1  0  0  0  0
  5  7  2  0  0  0  0
  6  5  1  0  0  0  0
  7  8  1  0  0  0  0
  9  8  2  0  0  0  0
 10  9  1  0  0  0  0
M  END
>  <CHROM.1>
-30.49523420,17.22942965,-16.41310069,1.74262384,1.01346289,-1.02271893

>  <Name>
lig.pdb

>  <RI>
9.24451e+06

>  <Rbt.Current_Directory>
/home/itssahil/PROJECTS/Mol_Feturizer/New_Systems/rnas/5uza

>  <Rbt.Executable>
rbdock ($Id: //depot/dev/client3/rdock/2013.1/src/exe/rbdock.cxx#4 $)

>  <Rbt.Library>
libRbt.so (2013.1, Build901 2013/11/27)

>  <Rbt.Parameter_File>
/export/apps/rDock/src/rDock_2013.1_src/data/scripts/dock_solv.prm

>  <Rbt.Receptor>
prm/pocket_docking_4.prm

>  <SCORE>
-33.8067

>  <SCORE.INTER>
-33.8067

>  <SCORE.INTER.CONST>
1

>  <SCORE.INTER.POLAR>
-3.03763

>  <SCORE.INTER.ROT>
0

>  <SCORE.INTER.SOLV>
12.1415

>  <SCORE.INTER.VDW>
-20.0595

>  <SCORE.INTER.norm>
-3.38067

>  <SCORE.INTRA>
0

>  <SCORE.INTRA.DIHEDRAL>
0

>  <SCORE.INTRA.DIHEDRAL.0>
0

>  <SCORE.INTRA.POLAR>
0

>  <SCORE.INTRA.POLAR.0>
0

>  <SCORE.INTRA.REPUL>
0

>  <SCORE.INTRA.REPUL.0>
0

>  <SCORE.INTRA.SOLV>
0

>  <SCORE.INTRA.SOLV.lig_0>
-14.8845

>  <SCORE.INTRA.VDW>
0

>  <SCORE.INTRA.VDW.0>
0

>  <SCORE.INTRA.norm>
0

>  <SCORE.RESTR>
0

>  <SCORE.RESTR.CAVITY>
0

>  <SCORE.RESTR.norm>
0

>  <SCORE.SYSTEM>
0

>  <SCORE.SYSTEM.CONST>
0

>  <SCORE.SYSTEM.DIHEDRAL>
0

>  <SCORE.SYSTEM.SOLV>
0

>  <SCORE.SYSTEM.norm>
0

>  <SCORE.heavy>
10

>  <SCORE.norm>
-3.38067

>  <RMSD>
0.252

$$$$
lig.pdb
 OpenBabel11021811523D
libRbt.so/2013.1/901 2013/11/27
 10 11  0  0  0  0  0  0  0  0999 V2000
  -30.8832   18.9028  -17.6934 N   0  0  0  0  0  0  0  0  0  0  0  0
  -30.2165   18.1990  -18.6584 C   0  0  0  0  0  0  0  0  0  0  0  0
  -29.7768   17.0312  -18.2542 N   0  0  0  0  0  0  0  0  0  0  0  0
  -30.1814   16.9633  -16.9317 C   0  0  0  0  0  0  0  0  0  0  0  0
  -30.0273   15.9744  -15.9428 C   0  0  0  0  0  0  0  0  0  0  0  0
  -29.3867   14.8199  -16.1539 N   0  0  0  0  0  0  0  0  0  0  0  0
  -30.5542   16.2200  -14.7233 N   0  0  0  0  0  0  0  0  0  0  0  0
  -31.1910   17.3782  -14.5178 C   0  0  0  0  0  0  0  0  0  0  0  0
  -31.4002   18.3820  -15.3687 N   0  0  0  0  0  0  0  0  0  0  0  0
  -30.8654   18.1086  -16.5694 C   0  0  0  0  0  0  0  0  0  0  0  0
  1 10  1  0  0  0  0
  2  3  2  0  0  0  0
  2  1  1  0  0  0  0
  3  4  1  0  0  0  0
  4 10  2  0  0  0  0
  4  5  1  0  0  0  0
  5  7  2  0  0  0  0
  6  5  1  0  0  0  0
  7  8  1  0  0  0  0
  9  8  2  0  0  0  0
 10  9  1  0  0  0  0
M  END
>  <CHROM.1>
-30.42948961,17.15606020,-16.47589333,1.70197259,1.03492539,-0.97559132

>  <Name>
lig.pdb

>  <RI>
9.24451e+06

>  <Rbt.Current_Directory>
/home/itssahil/PROJECTS/Mol_Feturizer/New_Systems/rnas/5uza

>  <Rbt.Executable>
rbdock ($Id: //depot/dev/client3/rdock/2013.1/src/exe/rbdock.cxx#4 $)

>  <Rbt.Library>
libRbt.so (2013.1, Build901 2013/11/27)

>  <Rbt.Parameter_File>
/export/apps/rDock/src/rDock_2013.1_src/data/scripts/dock_solv.prm

>  <Rbt.Receptor>
prm/pocket_docking_4.prm

>  <SCORE>
-33.796

>  <SCORE.INTER>
-33.796

>  <SCORE.INTER.CONST>
1

>  <SCORE.INTER.POLAR>
-3.03763

>  <SCORE.INTER.ROT>
0

>  <SCORE.INTER.SOLV>
12.1677

>  <SCORE.INTER.VDW>
-20.0612

>  <SCORE.INTER.norm>
-3.3796

>  <SCORE.INTRA>
0

>  <SCORE.INTRA.DIHEDRAL>
0

>  <SCORE.INTRA.DIHEDRAL.0>
0

>  <SCORE.INTRA.POLAR>
0

>  <SCORE.INTRA.POLAR.0>
0

>  <SCORE.INTRA.REPUL>
0

>  <SCORE.INTRA.REPUL.0>
0

>  <SCORE.INTRA.SOLV>
0

>  <SCORE.INTRA.SOLV.lig_0>
-14.8845

>  <SCORE.INTRA.VDW>
0

>  <SCORE.INTRA.VDW.0>
0

>  <SCORE.INTRA.norm>
0

>  <SCORE.RESTR>
0

>  <SCORE.RESTR.CAVITY>
0

>  <SCORE.RESTR.norm>
0

>  <SCORE.SYSTEM>
0

>  <SCORE.SYSTEM.CONST>
0

>  <SCORE.SYSTEM.DIHEDRAL>
0

>  <SCORE.SYSTEM.SOLV>
0

>  <SCORE.SYSTEM.norm>
0

>  <SCORE.heavy>
10

>  <SCORE.norm>
-3.3796

>  <RMSD>
0.268

$$$$
lig.pdb
 OpenBabel11021811523D
libRbt.so/2013.1/901 2013/11/27
 10 11  0  0  0  0  0  0  0  0999 V2000
  -31.0401   18.8994  -17.6489 N   0  0  0  0  0  0  0  0  0  0  0  0
  -30.3332   18.2178  -18.6011 C   0  0  0  0  0  0  0  0  0  0  0  0
  -29.8511   17.0715  -18.1840 N   0  0  0  0  0  0  0  0  0  0  0  0
  -30.2689   16.9950  -16.8661 C   0  0  0  0  0  0  0  0  0  0  0  0
  -30.0866   16.0192  -15.8690 C   0  0  0  0  0  0  0  0  0  0  0  0
  -29.3966   14.8907  -16.0647 N   0  0  0  0  0  0  0  0  0  0  0  0
  -30.6383   16.2503  -14.6575 N   0  0  0  0  0  0  0  0  0  0  0  0
  -31.3245   17.3826  -14.4674 C   0  0  0  0  0  0  0  0  0  0  0  0
  -31.5640   18.3718  -15.3273 N   0  0  0  0  0  0  0  0  0  0  0  0
  -31.0037   18.1134  -16.5196 C   0  0  0  0  0  0  0  0  0  0  0  0
  1 10  1  0  0  0  0
  2  3  2  0  0  0  0
  2  1  1  0  0  0  0
  3  4  1  0  0  0  0
  4 10  2  0  0  0  0
  4  5  1  0  0  0  0
  5  7  2  0  0  0  0
  6  5  1  0  0  0  0
  7  8  1  0  0  0  0
  9  8  2  0  0  0  0
 10  9  1  0  0  0  0
M  END
>  <CHROM.1>
-30.53029387,17.18010832,-16.41456554,1.72531218,0.99389847,-1.00170371

>  <Name>
lig.pdb

>  <RI>
0

>  <Rbt.Current_Directory>
/home/itssahil/PROJECTS/Mol_Feturizer/New_Systems/rnas/5uza

>  <Rbt.Executable>
rbdock ($Id: //depot/dev/client3/rdock/2013.1/src/exe/rbdock.cxx#4 $)

>  <Rbt.Library>
libRbt.so (2013.1, Build901 2013/11/27)

>  <Rbt.Parameter_File>
/export/apps/rDock/src/rDock_2013.1_src/data/scripts/dock_solv.prm

>  <Rbt.Receptor>
prm/pocket_docking_3.prm

>  <SCORE>
-33.8211

>  <SCORE.INTER>
-33.8211

>  <SCORE.INTER.CONST>
1

>  <SCORE.INTER.POLAR>
-3.03763

>  <SCORE.INTER.ROT>
0

>  <SCORE.INTER.SOLV>
12.1797

>  <SCORE.INTER.VDW>
-20.0818

>  <SCORE.INTER.norm>
-3.38211

>  <SCORE.INTRA>
0

>  <SCORE.INTRA.DIHEDRAL>
0

>  <SCORE.INTRA.DIHEDRAL.0>
0

>  <SCORE.INTRA.POLAR>
0

>  <SCORE.INTRA.POLAR.0>
0

>  <SCORE.INTRA.REPUL>
0

>  <SCORE.INTRA.REPUL.0>
0

>  <SCORE.INTRA.SOLV>
0

>  <SCORE.INTRA.SOLV.lig_0>
-14.8845

>  <SCORE.INTRA.VDW>
0

>  <SCORE.INTRA.VDW.0>
0

>  <SCORE.INTRA.norm>
0

>  <SCORE.RESTR>
0

>  <SCORE.RESTR.CAVITY>
0

>  <SCORE.RESTR.norm>
0

>  <SCORE.SYSTEM>
0

>  <SCORE.SYSTEM.CONST>
0

>  <SCORE.SYSTEM.DIHEDRAL>
0

>  <SCORE.SYSTEM.SOLV>
0

>  <SCORE.SYSTEM.norm>
0

>  <SCORE.heavy>
10

>  <SCORE.norm>
-3.38211

>  <RMSD>
0.273

$$$$
lig.pdb
 OpenBabel11021811523D
libRbt.so/2013.1/901 2013/11/27
 10 11  0  0  0  0  0  0  0  0999 V2000
  -31.0153   19.0036  -17.5116 N   0  0  0  0  0  0  0  0  0  0  0  0
  -30.3650   18.3211  -18.5028 C   0  0  0  0  0  0  0  0  0  0  0  0
  -29.8872   17.1606  -18.1217 N   0  0  0  0  0  0  0  0  0  0  0  0
  -30.2473   17.0749  -16.7874 C   0  0  0  0  0  0  0  0  0  0  0  0
  -30.0398   16.0829  -15.8114 C   0  0  0  0  0  0  0  0  0  0  0  0
  -29.3813   14.9443  -16.0515 N   0  0  0  0  0  0  0  0  0  0  0  0
  -30.5322   16.3087  -14.5736 N   0  0  0  0  0  0  0  0  0  0  0  0
  -31.1871   17.4512  -14.3392 C   0  0  0  0  0  0  0  0  0  0  0  0
  -31.4454   18.4559  -15.1755 N   0  0  0  0  0  0  0  0  0  0  0  0
  -30.9439   18.2024  -16.3947 C   0  0  0  0  0  0  0  0  0  0  0  0
  1 10  1  0  0  0  0
  2  3  2  0  0  0  0
  2  1  1  0  0  0  0
  3  4  1  0  0  0  0
  4 10  2  0  0  0  0
  4  5  1  0  0  0  0
  5  7  2  0  0  0  0
  6  5  1  0  0  0  0
  7  8  1  0  0  0  0
  9  8  2  0  0  0  0
 10  9  1  0  0  0  0
M  END
>  <CHROM.1>
-30.48460063,17.25906309,-16.32237794,1.77823706,1.03376023,-1.03405634

>  <Name>
lig.pdb

>  <RI>
1.17775e+07

>  <Rbt.Current_Directory>
/home/itssahil/PROJECTS/Mol_Feturizer/New_Systems/rnas/5uza

>  <Rbt.Executable>
rbdock ($Id: //depot/dev/client3/rdock/2013.1/src/exe/rbdock.cxx#4 $)

>  <Rbt.Library>
libRbt.so (2013.1, Build901 2013/11/27)

>  <Rbt.Parameter_File>
/export/apps/rDock/src/rDock_2013.1_src/data/scripts/dock_solv.prm

>  <Rbt.Receptor>
prm/pocket_docking_8.prm

>  <SCORE>
-33.7847

>  <SCORE.INTER>
-33.7847

>  <SCORE.INTER.CONST>
1

>  <SCORE.INTER.POLAR>
-3.03763

>  <SCORE.INTER.ROT>
0

>  <SCORE.INTER.SOLV>
12.1317

>  <SCORE.INTER.VDW>
-20.0416

>  <SCORE.INTER.norm>
-3.37847

>  <SCORE.INTRA>
0

>  <SCORE.INTRA.DIHEDRAL>
0

>  <SCORE.INTRA.DIHEDRAL.0>
0

>  <SCORE.INTRA.POLAR>
0

>  <SCORE.INTRA.POLAR.0>
0

>  <SCORE.INTRA.REPUL>
0

>  <SCORE.INTRA.REPUL.0>
0

>  <SCORE.INTRA.SOLV>
0

>  <SCORE.INTRA.SOLV.lig_0>
-14.8845

>  <SCORE.INTRA.VDW>
0

>  <SCORE.INTRA.VDW.0>
0

>  <SCORE.INTRA.norm>
0

>  <SCORE.RESTR>
0

>  <SCORE.RESTR.CAVITY>
0

>  <SCORE.RESTR.norm>
0

>  <SCORE.SYSTEM>
0

>  <SCORE.SYSTEM.CONST>
0

>  <SCORE.SYSTEM.DIHEDRAL>
0

>  <SCORE.SYSTEM.SOLV>
0

>  <SCORE.SYSTEM.norm>
0

>  <SCORE.heavy>
10

>  <SCORE.norm>
-3.37847

>  <RMSD>
0.282

$$$$
lig.pdb
 OpenBabel11021811523D
libRbt.so/2013.1/901 2013/11/27
 10 11  0  0  0  0  0  0  0  0999 V2000
  -31.0081   18.9973  -17.5332 N   0  0  0  0  0  0  0  0  0  0  0  0
  -30.3421   18.3107  -18.5110 C   0  0  0  0  0  0  0  0  0  0  0  0
  -29.8684   17.1528  -18.1168 N   0  0  0  0  0  0  0  0  0  0  0  0
  -30.2482   17.0735  -16.7876 C   0  0  0  0  0  0  0  0  0  0  0  0
  -30.0539   16.0869  -15.8034 C   0  0  0  0  0  0  0  0  0  0  0  0
  -29.3904   14.9480  -16.0278 N   0  0  0  0  0  0  0  0  0  0  0  0
  -30.5652   16.3183  -14.5744 N   0  0  0  0  0  0  0  0  0  0  0  0
  -31.2251   17.4611  -14.3557 C   0  0  0  0  0  0  0  0  0  0  0  0
  -31.4723   18.4611  -15.2009 N   0  0  0  0  0  0  0  0  0  0  0  0
  -30.9523   18.2020  -16.4112 C   0  0  0  0  0  0  0  0  0  0  0  0
  1 10  1  0  0  0  0
  2  3  2  0  0  0  0
  2  1  1  0  0  0  0
  3  4  1  0  0  0  0
  4 10  2  0  0  0  0
  4  5  1  0  0  0  0
  5  7  2  0  0  0  0
  6  5  1  0  0  0  0
  7  8  1  0  0  0  0
  9  8  2  0  0  0  0
 10  9  1  0  0  0  0
M  END
>  <CHROM.1>
-30.49274969,17.25972621,-16.32712279,1.75487556,1.02477103,-1.01923481

>  <Name>
lig.pdb

>  <RI>
1.17775e+07

>  <Rbt.Current_Directory>
/home/itssahil/PROJECTS/Mol_Feturizer/New_Systems/rnas/5uza

>  <Rbt.Executable>
rbdock ($Id: //depot/dev/client3/rdock/2013.1/src/exe/rbdock.cxx#4 $)

>  <Rbt.Library>
libRbt.so (2013.1, Build901 2013/11/27)

>  <Rbt.Parameter_File>
/export/apps/rDock/src/rDock_2013.1_src/data/scripts/dock_solv.prm

>  <Rbt.Receptor>
prm/pocket_docking_8.prm

>  <SCORE>
-33.7725

>  <SCORE.INTER>
-33.7725

>  <SCORE.INTER.CONST>
1

>  <SCORE.INTER.POLAR>
-3.03763

>  <SCORE.INTER.ROT>
0

>  <SCORE.INTER.SOLV>
12.1607

>  <SCORE.INTER.VDW>
-20.0432

>  <SCORE.INTER.norm>
-3.37725

>  <SCORE.INTRA>
0

>  <SCORE.INTRA.DIHEDRAL>
0

>  <SCORE.INTRA.DIHEDRAL.0>
0

>  <SCORE.INTRA.POLAR>
0

>  <SCORE.INTRA.POLAR.0>
0

>  <SCORE.INTRA.REPUL>
0

>  <SCORE.INTRA.REPUL.0>
0

>  <SCORE.INTRA.SOLV>
0

>  <SCORE.INTRA.SOLV.lig_0>
-14.8845

>  <SCORE.INTRA.VDW>
0

>  <SCORE.INTRA.VDW.0>
0

>  <SCORE.INTRA.norm>
0

>  <SCORE.RESTR>
0

>  <SCORE.RESTR.CAVITY>
0

>  <SCORE.RESTR.norm>
0

>  <SCORE.SYSTEM>
0

>  <SCORE.SYSTEM.CONST>
0

>  <SCORE.SYSTEM.DIHEDRAL>
0

>  <SCORE.SYSTEM.SOLV>
0

>  <SCORE.SYSTEM.norm>
0

>  <SCORE.heavy>
10

>  <SCORE.norm>
-3.37725

>  <RMSD>
0.283

$$$$
lig.pdb
 OpenBabel11021811523D
libRbt.so/2013.1/901 2013/11/27
 10 11  0  0  0  0  0  0  0  0999 V2000
  -31.0075   18.9989  -17.5524 N   0  0  0  0  0  0  0  0  0  0  0  0
  -30.3304   18.3083  -18.5196 C   0  0  0  0  0  0  0  0  0  0  0  0
  -29.8564   17.1546  -18.1137 N   0  0  0  0  0  0  0  0  0  0  0  0
  -30.2480   17.0825  -16.7875 C   0  0  0  0  0  0  0  0  0  0  0  0
  -30.0593   16.1030  -15.7953 C   0  0  0  0  0  0  0  0  0  0  0  0
  -29.3899   14.9649  -16.0063 N   0  0  0  0  0  0  0  0  0  0  0  0
  -30.5824   16.3405  -14.5724 N   0  0  0  0  0  0  0  0  0  0  0  0
  -31.2481   17.4824  -14.3671 C   0  0  0  0  0  0  0  0  0  0  0  0
  -31.4910   18.4761  -15.2210 N   0  0  0  0  0  0  0  0  0  0  0  0
  -30.9592   18.2110  -16.4248 C   0  0  0  0  0  0  0  0  0  0  0  0
  1 10  1  0  0  0  0
  2  3  2  0  0  0  0
  2  1  1  0  0  0  0
  3  4  1  0  0  0  0
  4 10  2  0  0  0  0
  4  5  1  0  0  0  0
  5  7  2  0  0  0  0
  6  5  1  0  0  0  0
  7  8  1  0  0  0  0
  9  8  2  0  0  0  0
 10  9  1  0  0  0  0
M  END
>  <CHROM.1>
-30.49726791,17.27087245,-16.33049145,1.74355587,1.01715040,-1.01601458

>  <Name>
lig.pdb

>  <RI>
2.12818e+07

>  <Rbt.Current_Directory>
/home/itssahil/PROJECTS/Mol_Feturizer/New_Systems/rnas/5uza

>  <Rbt.Executable>
rbdock ($Id: //depot/dev/client3/rdock/2013.1/src/exe/rbdock.cxx#4 $)

>  <Rbt.Library>
libRbt.so (2013.1, Build901 2013/11/27)

>  <Rbt.Parameter_File>
/export/apps/rDock/src/rDock_2013.1_src/data/scripts/dock_solv.prm

>  <Rbt.Receptor>
prm/pocket_docking_7.prm

>  <SCORE>
-33.7864

>  <SCORE.INTER>
-33.7864

>  <SCORE.INTER.CONST>
1

>  <SCORE.INTER.POLAR>
-3.03763

>  <SCORE.INTER.ROT>
0

>  <SCORE.INTER.SOLV>
12.1705

>  <SCORE.INTER.VDW>
-20.0557

>  <SCORE.INTER.norm>
-3.37864

>  <SCORE.INTRA>
0

>  <SCORE.INTRA.DIHEDRAL>
0

>  <SCORE.INTRA.DIHEDRAL.0>
0

>  <SCORE.INTRA.POLAR>
0

>  <SCORE.INTRA.POLAR.0>
0

>  <SCORE.INTRA.REPUL>
0

>  <SCORE.INTRA.REPUL.0>
0

>  <SCORE.INTRA.SOLV>
0

>  <SCORE.INTRA.SOLV.lig_0>
-14.8845

>  <SCORE.INTRA.VDW>
0

>  <SCORE.INTRA.VDW.0>
0

>  <SCORE.INTRA.norm>
0

>  <SCORE.RESTR>
0

>  <SCORE.RESTR.CAVITY>
0

>  <SCORE.RESTR.norm>
0

>  <SCORE.SYSTEM>
0

>  <SCORE.SYSTEM.CONST>
0

>  <SCORE.SYSTEM.DIHEDRAL>
0

>  <SCORE.SYSTEM.SOLV>
0

>  <SCORE.SYSTEM.norm>
0

>  <SCORE.heavy>
10

>  <SCORE.norm>
-3.37864

>  <RMSD>
0.284

$$$$
lig.pdb
 OpenBabel11021811523D
libRbt.so/2013.1/901 2013/11/27
 10 11  0  0  0  0  0  0  0  0999 V2000
  -30.9921   18.9936  -17.5489 N   0  0  0  0  0  0  0  0  0  0  0  0
  -30.3168   18.3019  -18.5166 C   0  0  0  0  0  0  0  0  0  0  0  0
  -29.8496   17.1448  -18.1127 N   0  0  0  0  0  0  0  0  0  0  0  0
  -30.2440   17.0714  -16.7874 C   0  0  0  0  0  0  0  0  0  0  0  0
  -30.0623   16.0884  -15.7973 C   0  0  0  0  0  0  0  0  0  0  0  0
  -29.3984   14.9474  -16.0100 N   0  0  0  0  0  0  0  0  0  0  0  0
  -30.5864   16.3256  -14.5748 N   0  0  0  0  0  0  0  0  0  0  0  0
  -31.2466   17.4704  -14.3679 C   0  0  0  0  0  0  0  0  0  0  0  0
  -31.4827   18.4674  -15.2197 N   0  0  0  0  0  0  0  0  0  0  0  0
  -30.9500   18.2027  -16.4232 C   0  0  0  0  0  0  0  0  0  0  0  0
  1 10  1  0  0  0  0
  2  3  2  0  0  0  0
  2  1  1  0  0  0  0
  3  4  1  0  0  0  0
  4 10  2  0  0  0  0
  4  5  1  0  0  0  0
  5  7  2  0  0  0  0
  6  5  1  0  0  0  0
  7  8  1  0  0  0  0
  9  8  2  0  0  0  0
 10  9  1  0  0  0  0
M  END
>  <CHROM.1>
-30.49319507,17.25988479,-16.33039173,1.73526591,1.02056617,-1.00644165

>  <Name>
lig.pdb

>  <RI>
0

>  <Rbt.Current_Directory>
/home/itssahil/PROJECTS/Mol_Feturizer/New_Systems/rnas/5uza

>  <Rbt.Executable>
rbdock ($Id: //depot/dev/client3/rdock/2013.1/src/exe/rbdock.cxx#4 $)

>  <Rbt.Library>
libRbt.so (2013.1, Build901 2013/11/27)

>  <Rbt.Parameter_File>
/export/apps/rDock/src/rDock_2013.1_src/data/scripts/dock_solv.prm

>  <Rbt.Receptor>
prm/blind_docking_80.prm

>  <SCORE>
-33.7923

>  <SCORE.INTER>
-33.7923

>  <SCORE.INTER.CONST>
1

>  <SCORE.INTER.POLAR>
-3.03763

>  <SCORE.INTER.ROT>
0

>  <SCORE.INTER.SOLV>
12.1854

>  <SCORE.INTER.VDW>
-20.0646

>  <SCORE.INTER.norm>
-3.37923

>  <SCORE.INTRA>
0

>  <SCORE.INTRA.DIHEDRAL>
0

>  <SCORE.INTRA.DIHEDRAL.0>
0

>  <SCORE.INTRA.POLAR>
0

>  <SCORE.INTRA.POLAR.0>
0

>  <SCORE.INTRA.REPUL>
0

>  <SCORE.INTRA.REPUL.0>
0

>  <SCORE.INTRA.SOLV>
0

>  <SCORE.INTRA.SOLV.lig_0>
-14.8845

>  <SCORE.INTRA.VDW>
0

>  <SCORE.INTRA.VDW.0>
0

>  <SCORE.INTRA.norm>
0

>  <SCORE.RESTR>
0

>  <SCORE.RESTR.CAVITY>
0

>  <SCORE.RESTR.norm>
0

>  <SCORE.SYSTEM>
0

>  <SCORE.SYSTEM.CONST>
0

>  <SCORE.SYSTEM.DIHEDRAL>
0

>  <SCORE.SYSTEM.SOLV>
0

>  <SCORE.SYSTEM.norm>
0

>  <SCORE.heavy>
10

>  <SCORE.norm>
-3.37923

>  <RMSD>
0.285

$$$$
lig.pdb
 OpenBabel11021811523D
libRbt.so/2013.1/901 2013/11/27
 10 11  0  0  0  0  0  0  0  0999 V2000
  -30.9944   18.9956  -17.5653 N   0  0  0  0  0  0  0  0  0  0  0  0
  -30.3139   18.2973  -18.5247 C   0  0  0  0  0  0  0  0  0  0  0  0
  -29.8475   17.1438  -18.1099 N   0  0  0  0  0  0  0  0  0  0  0  0
  -30.2479   17.0800  -16.7860 C   0  0  0  0  0  0  0  0  0  0  0  0
  -30.0698   16.1046  -15.7876 C   0  0  0  0  0  0  0  0  0  0  0  0
  -29.4038   14.9627  -15.9886 N   0  0  0  0  0  0  0  0  0  0  0  0
  -30.5998   16.3505  -14.5694 N   0  0  0  0  0  0  0  0  0  0  0  0
  -31.2620   17.4961  -14.3742 C   0  0  0  0  0  0  0  0  0  0  0  0
  -31.4952   18.4865  -15.2345 N   0  0  0  0  0  0  0  0  0  0  0  0
  -30.9567   18.2132  -16.4335 C   0  0  0  0  0  0  0  0  0  0  0  0
  1 10  1  0  0  0  0
  2  3  2  0  0  0  0
  2  1  1  0  0  0  0
  3  4  1  0  0  0  0
  4 10  2  0  0  0  0
  4  5  1  0  0  0  0
  5  7  2  0  0  0  0
  6  5  1  0  0  0  0
  7  8  1  0  0  0  0
  9  8  2  0  0  0  0
 10  9  1  0  0  0  0
M  END
>  <CHROM.1>
-30.49936237,17.27163327,-16.33152869,1.72886465,1.01726657,-1.00852783

>  <Name>
lig.pdb

>  <RI>
1.17775e+07

>  <Rbt.Current_Directory>
/home/itssahil/PROJECTS/Mol_Feturizer/New_Systems/rnas/5uza

>  <Rbt.Executable>
rbdock ($Id: //depot/dev/client3/rdock/2013.1/src/exe/rbdock.cxx#4 $)

>  <Rbt.Library>
libRbt.so (2013.1, Build901 2013/11/27)

>  <Rbt.Parameter_File>
/export/apps/rDock/src/rDock_2013.1_src/data/scripts/dock_solv.prm

>  <Rbt.Receptor>
prm/pocket_docking_8.prm

>  <SCORE>
-33.794

>  <SCORE.INTER>
-33.794

>  <SCORE.INTER.CONST>
1

>  <SCORE.INTER.POLAR>
-3.03763

>  <SCORE.INTER.ROT>
0

>  <SCORE.INTER.SOLV>
12.1966

>  <SCORE.INTER.VDW>
-20.0694

>  <SCORE.INTER.norm>
-3.3794

>  <SCORE.INTRA>
0

>  <SCORE.INTRA.DIHEDRAL>
0

>  <SCORE.INTRA.DIHEDRAL.0>
0

>  <SCORE.INTRA.POLAR>
0

>  <SCORE.INTRA.POLAR.0>
0

>  <SCORE.INTRA.REPUL>
0

>  <SCORE.INTRA.REPUL.0>
0

>  <SCORE.INTRA.SOLV>
0

>  <SCORE.INTRA.SOLV.lig_0>
-14.8845

>  <SCORE.INTRA.VDW>
0

>  <SCORE.INTRA.VDW.0>
0

>  <SCORE.INTRA.norm>
0

>  <SCORE.RESTR>
0

>  <SCORE.RESTR.CAVITY>
0

>  <SCORE.RESTR.norm>
0

>  <SCORE.SYSTEM>
0

>  <SCORE.SYSTEM.CONST>
0

>  <SCORE.SYSTEM.DIHEDRAL>
0

>  <SCORE.SYSTEM.SOLV>
0

>  <SCORE.SYSTEM.norm>
0

>  <SCORE.heavy>
10

>  <SCORE.norm>
-3.3794

>  <RMSD>
0.289

$$$$
lig.pdb
 OpenBabel11021811523D
libRbt.so/2013.1/901 2013/11/27
 10 11  0  0  0  0  0  0  0  0999 V2000
  -31.0060   19.0098  -17.5184 N   0  0  0  0  0  0  0  0  0  0  0  0
  -30.3568   18.3179  -18.5037 C   0  0  0  0  0  0  0  0  0  0  0  0
  -29.8883   17.1561  -18.1150 N   0  0  0  0  0  0  0  0  0  0  0  0
  -30.2538   17.0796  -16.7816 C   0  0  0  0  0  0  0  0  0  0  0  0
  -30.0566   16.0913  -15.7998 C   0  0  0  0  0  0  0  0  0  0  0  0
  -29.4051   14.9469  -16.0317 N   0  0  0  0  0  0  0  0  0  0  0  0
  -30.5520   16.3266  -14.5651 N   0  0  0  0  0  0  0  0  0  0  0  0
  -31.2000   17.4748  -14.3389 C   0  0  0  0  0  0  0  0  0  0  0  0
  -31.4484   18.4770  -15.1811 N   0  0  0  0  0  0  0  0  0  0  0  0
  -30.9442   18.2138  -16.3972 C   0  0  0  0  0  0  0  0  0  0  0  0
  1 10  1  0  0  0  0
  2  3  2  0  0  0  0
  2  1  1  0  0  0  0
  3  4  1  0  0  0  0
  4 10  2  0  0  0  0
  4  5  1  0  0  0  0
  5  7  2  0  0  0  0
  6  5  1  0  0  0  0
  7  8  1  0  0  0  0
  9  8  2  0  0  0  0
 10  9  1  0  0  0  0
M  END
>  <CHROM.1>
-30.49155697,17.26777816,-16.31839698,1.76517938,1.03770845,-1.02791425

>  <Name>
lig.pdb

>  <RI>
9.24451e+06

>  <Rbt.Current_Directory>
/home/itssahil/PROJECTS/Mol_Feturizer/New_Systems/rnas/5uza

>  <Rbt.Executable>
rbdock ($Id: //depot/dev/client3/rdock/2013.1/src/exe/rbdock.cxx#4 $)

>  <Rbt.Library>
libRbt.so (2013.1, Build901 2013/11/27)

>  <Rbt.Parameter_File>
/export/apps/rDock/src/rDock_2013.1_src/data/scripts/dock_solv.prm

>  <Rbt.Receptor>
prm/pocket_docking_4.prm

>  <SCORE>
-33.796

>  <SCORE.INTER>
-33.796

>  <SCORE.INTER.CONST>
1

>  <SCORE.INTER.POLAR>
-3.03763

>  <SCORE.INTER.ROT>
0

>  <SCORE.INTER.SOLV>
12.172

>  <SCORE.INTER.VDW>
-20.0626

>  <SCORE.INTER.norm>
-3.3796

>  <SCORE.INTRA>
0

>  <SCORE.INTRA.DIHEDRAL>
0

>  <SCORE.INTRA.DIHEDRAL.0>
0

>  <SCORE.INTRA.POLAR>
0

>  <SCORE.INTRA.POLAR.0>
0

>  <SCORE.INTRA.REPUL>
0

>  <SCORE.INTRA.REPUL.0>
0

>  <SCORE.INTRA.SOLV>
0

>  <SCORE.INTRA.SOLV.lig_0>
-14.8845

>  <SCORE.INTRA.VDW>
0

>  <SCORE.INTRA.VDW.0>
0

>  <SCORE.INTRA.norm>
0

>  <SCORE.RESTR>
0

>  <SCORE.RESTR.CAVITY>
0

>  <SCORE.RESTR.norm>
0

>  <SCORE.SYSTEM>
0

>  <SCORE.SYSTEM.CONST>
0

>  <SCORE.SYSTEM.DIHEDRAL>
0

>  <SCORE.SYSTEM.SOLV>
0

>  <SCORE.SYSTEM.norm>
0

>  <SCORE.heavy>
10

>  <SCORE.norm>
-3.3796

>  <RMSD>
0.292

$$$$
lig.pdb
 OpenBabel11021811523D
libRbt.so/2013.1/901 2013/11/27
 10 11  0  0  0  0  0  0  0  0999 V2000
  -30.9949   18.9950  -17.5525 N   0  0  0  0  0  0  0  0  0  0  0  0
  -30.3172   18.2995  -18.5159 C   0  0  0  0  0  0  0  0  0  0  0  0
  -29.8520   17.1435  -18.1066 N   0  0  0  0  0  0  0  0  0  0  0  0
  -30.2504   17.0750  -16.7822 C   0  0  0  0  0  0  0  0  0  0  0  0
  -30.0723   16.0952  -15.7882 C   0  0  0  0  0  0  0  0  0  0  0  0
  -29.4086   14.9530  -15.9950 N   0  0  0  0  0  0  0  0  0  0  0  0
  -30.5999   16.3370  -14.5681 N   0  0  0  0  0  0  0  0  0  0  0  0
  -31.2598   17.4829  -14.3671 C   0  0  0  0  0  0  0  0  0  0  0  0
  -31.4928   18.4772  -15.2230 N   0  0  0  0  0  0  0  0  0  0  0  0
  -30.9567   18.2079  -16.4240 C   0  0  0  0  0  0  0  0  0  0  0  0
  1 10  1  0  0  0  0
  2  3  2  0  0  0  0
  2  1  1  0  0  0  0
  3  4  1  0  0  0  0
  4 10  2  0  0  0  0
  4  5  1  0  0  0  0
  5  7  2  0  0  0  0
  6  5  1  0  0  0  0
  7  8  1  0  0  0  0
  9  8  2  0  0  0  0
 10  9  1  0  0  0  0
M  END
>  <CHROM.1>
-30.50079155,17.26517686,-16.32660943,1.72979271,1.01955506,-1.00522925

>  <Name>
lig.pdb

>  <RI>
2.12818e+07

>  <Rbt.Current_Directory>
/home/itssahil/PROJECTS/Mol_Feturizer/New_Systems/rnas/5uza

>  <Rbt.Executable>
rbdock ($Id: //depot/dev/client3/rdock/2013.1/src/exe/rbdock.cxx#4 $)

>  <Rbt.Library>
libRbt.so (2013.1, Build901 2013/11/27)

>  <Rbt.Parameter_File>
/export/apps/rDock/src/rDock_2013.1_src/data/scripts/dock_solv.prm

>  <Rbt.Receptor>
prm/pocket_docking_7.prm

>  <SCORE>
-33.792

>  <SCORE.INTER>
-33.792

>  <SCORE.INTER.CONST>
1

>  <SCORE.INTER.POLAR>
-3.03763

>  <SCORE.INTER.ROT>
0

>  <SCORE.INTER.SOLV>
12.2022

>  <SCORE.INTER.VDW>
-20.07

>  <SCORE.INTER.norm>
-3.3792

>  <SCORE.INTRA>
0

>  <SCORE.INTRA.DIHEDRAL>
0

>  <SCORE.INTRA.DIHEDRAL.0>
0

>  <SCORE.INTRA.POLAR>
0

>  <SCORE.INTRA.POLAR.0>
0

>  <SCORE.INTRA.REPUL>
0

>  <SCORE.INTRA.REPUL.0>
0

>  <SCORE.INTRA.SOLV>
0

>  <SCORE.INTRA.SOLV.lig_0>
-14.8845

>  <SCORE.INTRA.VDW>
0

>  <SCORE.INTRA.VDW.0>
0

>  <SCORE.INTRA.norm>
0

>  <SCORE.RESTR>
0

>  <SCORE.RESTR.CAVITY>
0

>  <SCORE.RESTR.norm>
0

>  <SCORE.SYSTEM>
0

>  <SCORE.SYSTEM.CONST>
0

>  <SCORE.SYSTEM.DIHEDRAL>
0

>  <SCORE.SYSTEM.SOLV>
0

>  <SCORE.SYSTEM.norm>
0

>  <SCORE.heavy>
10

>  <SCORE.norm>
-3.3792

>  <RMSD>
0.292

$$$$
lig.pdb
 OpenBabel11021811523D
libRbt.so/2013.1/901 2013/11/27
 10 11  0  0  0  0  0  0  0  0999 V2000
  -30.9929   18.9950  -17.5497 N   0  0  0  0  0  0  0  0  0  0  0  0
  -30.3092   18.3037  -18.5118 C   0  0  0  0  0  0  0  0  0  0  0  0
  -29.8435   17.1475  -18.1036 N   0  0  0  0  0  0  0  0  0  0  0  0
  -30.2479   17.0744  -16.7813 C   0  0  0  0  0  0  0  0  0  0  0  0
  -30.0724   16.0922  -15.7892 C   0  0  0  0  0  0  0  0  0  0  0  0
  -29.4053   14.9520  -15.9961 N   0  0  0  0  0  0  0  0  0  0  0  0
  -30.6062   16.3294  -14.5710 N   0  0  0  0  0  0  0  0  0  0  0  0
  -31.2695   17.4734  -14.3698 C   0  0  0  0  0  0  0  0  0  0  0  0
  -31.5005   18.4696  -15.2240 N   0  0  0  0  0  0  0  0  0  0  0  0
  -30.9583   18.2048  -16.4233 C   0  0  0  0  0  0  0  0  0  0  0  0
  1 10  1  0  0  0  0
  2  3  2  0  0  0  0
  2  1  1  0  0  0  0
  3  4  1  0  0  0  0
  4 10  2  0  0  0  0
  4  5  1  0  0  0  0
  5  7  2  0  0  0  0
  6  5  1  0  0  0  0
  7  8  1  0  0  0  0
  9  8  2  0  0  0  0
 10  9  1  0  0  0  0
M  END
>  <CHROM.1>
-30.50084256,17.26278132,-16.32636126,1.72444390,1.01525075,-0.99785852

>  <Name>
lig.pdb

>  <RI>
2.26746e+07

>  <Rbt.Current_Directory>
/home/itssahil/PROJECTS/Mol_Feturizer/New_Systems/rnas/5uza

>  <Rbt.Executable>
rbdock ($Id: //depot/dev/client3/rdock/2013.1/src/exe/rbdock.cxx#4 $)

>  <Rbt.Library>
libRbt.so (2013.1, Build901 2013/11/27)

>  <Rbt.Parameter_File>
/export/apps/rDock/src/rDock_2013.1_src/data/scripts/dock_solv.prm

>  <Rbt.Receptor>
prm/blind_docking_100.prm

>  <SCORE>
-33.7888

>  <SCORE.INTER>
-33.7888

>  <SCORE.INTER.CONST>
1

>  <SCORE.INTER.POLAR>
-3.03763

>  <SCORE.INTER.ROT>
0

>  <SCORE.INTER.SOLV>
12.205

>  <SCORE.INTER.VDW>
-20.0687

>  <SCORE.INTER.norm>
-3.37888

>  <SCORE.INTRA>
0

>  <SCORE.INTRA.DIHEDRAL>
0

>  <SCORE.INTRA.DIHEDRAL.0>
0

>  <SCORE.INTRA.POLAR>
0

>  <SCORE.INTRA.POLAR.0>
0

>  <SCORE.INTRA.REPUL>
0

>  <SCORE.INTRA.REPUL.0>
0

>  <SCORE.INTRA.SOLV>
0

>  <SCORE.INTRA.SOLV.lig_0>
-14.8845

>  <SCORE.INTRA.VDW>
0

>  <SCORE.INTRA.VDW.0>
0

>  <SCORE.INTRA.norm>
0

>  <SCORE.RESTR>
0

>  <SCORE.RESTR.CAVITY>
0

>  <SCORE.RESTR.norm>
0

>  <SCORE.SYSTEM>
0

>  <SCORE.SYSTEM.CONST>
0

>  <SCORE.SYSTEM.DIHEDRAL>
0

>  <SCORE.SYSTEM.SOLV>
0

>  <SCORE.SYSTEM.norm>
0

>  <SCORE.heavy>
10

>  <SCORE.norm>
-3.37888

>  <RMSD>
0.293

$$$$
lig.pdb
 OpenBabel11021811523D
libRbt.so/2013.1/901 2013/11/27
 10 11  0  0  0  0  0  0  0  0999 V2000
  -31.0024   19.0111  -17.5747 N   0  0  0  0  0  0  0  0  0  0  0  0
  -30.3215   18.3269  -18.5438 C   0  0  0  0  0  0  0  0  0  0  0  0
  -29.8578   17.1661  -18.1465 N   0  0  0  0  0  0  0  0  0  0  0  0
  -30.2607   17.0820  -16.8245 C   0  0  0  0  0  0  0  0  0  0  0  0
  -30.0861   16.0907  -15.8414 C   0  0  0  0  0  0  0  0  0  0  0  0
  -29.4218   14.9509  -16.0593 N   0  0  0  0  0  0  0  0  0  0  0  0
  -30.6179   16.3182  -14.6204 N   0  0  0  0  0  0  0  0  0  0  0  0
  -31.2784   17.4618  -14.4082 C   0  0  0  0  0  0  0  0  0  0  0  0
  -31.5083   18.4661  -15.2532 N   0  0  0  0  0  0  0  0  0  0  0  0
  -30.9681   18.2108  -16.4554 C   0  0  0  0  0  0  0  0  0  0  0  0
  1 10  1  0  0  0  0
  2  3  2  0  0  0  0
  2  1  1  0  0  0  0
  3  4  1  0  0  0  0
  4 10  2  0  0  0  0
  4  5  1  0  0  0  0
  5  7  2  0  0  0  0
  6  5  1  0  0  0  0
  7  8  1  0  0  0  0
  9  8  2  0  0  0  0
 10  9  1  0  0  0  0
M  END
>  <CHROM.1>
-30.51264168,17.26692740,-16.36749393,1.72417174,1.01779235,-0.98870294

>  <Name>
lig.pdb

>  <RI>
0

>  <Rbt.Current_Directory>
/home/itssahil/PROJECTS/Mol_Feturizer/New_Systems/rnas/5uza

>  <Rbt.Executable>
rbdock ($Id: //depot/dev/client3/rdock/2013.1/src/exe/rbdock.cxx#4 $)

>  <Rbt.Library>
libRbt.so (2013.1, Build901 2013/11/27)

>  <Rbt.Parameter_File>
/export/apps/rDock/src/rDock_2013.1_src/data/scripts/dock_solv.prm

>  <Rbt.Receptor>
prm/pocket_docking_3.prm

>  <SCORE>
-33.8174

>  <SCORE.INTER>
-33.8174

>  <SCORE.INTER.CONST>
1

>  <SCORE.INTER.POLAR>
-3.03762

>  <SCORE.INTER.ROT>
0

>  <SCORE.INTER.SOLV>
12.2301

>  <SCORE.INTER.VDW>
-20.0962

>  <SCORE.INTER.norm>
-3.38174

>  <SCORE.INTRA>
0

>  <SCORE.INTRA.DIHEDRAL>
0

>  <SCORE.INTRA.DIHEDRAL.0>
0

>  <SCORE.INTRA.POLAR>
0

>  <SCORE.INTRA.POLAR.0>
0

>  <SCORE.INTRA.REPUL>
0

>  <SCORE.INTRA.REPUL.0>
0

>  <SCORE.INTRA.SOLV>
0

>  <SCORE.INTRA.SOLV.lig_0>
-14.8845

>  <SCORE.INTRA.VDW>
0

>  <SCORE.INTRA.VDW.0>
0

>  <SCORE.INTRA.norm>
0

>  <SCORE.RESTR>
0

>  <SCORE.RESTR.CAVITY>
0

>  <SCORE.RESTR.norm>
0

>  <SCORE.SYSTEM>
0

>  <SCORE.SYSTEM.CONST>
0

>  <SCORE.SYSTEM.DIHEDRAL>
0

>  <SCORE.SYSTEM.SOLV>
0

>  <SCORE.SYSTEM.norm>
0

>  <SCORE.heavy>
10

>  <SCORE.norm>
-3.38174

>  <RMSD>
0.293

$$$$
lig.pdb
 OpenBabel11021811523D
libRbt.so/2013.1/901 2013/11/27
 10 11  0  0  0  0  0  0  0  0999 V2000
  -30.9805   18.9915  -17.5514 N   0  0  0  0  0  0  0  0  0  0  0  0
  -30.3002   18.2967  -18.5134 C   0  0  0  0  0  0  0  0  0  0  0  0
  -29.8400   17.1383  -18.1049 N   0  0  0  0  0  0  0  0  0  0  0  0
  -30.2447   17.0675  -16.7826 C   0  0  0  0  0  0  0  0  0  0  0  0
  -30.0739   16.0847  -15.7902 C   0  0  0  0  0  0  0  0  0  0  0  0
  -29.4123   14.9413  -15.9968 N   0  0  0  0  0  0  0  0  0  0  0  0
  -30.6065   16.3248  -14.5720 N   0  0  0  0  0  0  0  0  0  0  0  0
  -31.2643   17.4720  -14.3711 C   0  0  0  0  0  0  0  0  0  0  0  0
  -31.4906   18.4691  -15.2256 N   0  0  0  0  0  0  0  0  0  0  0  0
  -30.9496   18.2015  -16.4248 C   0  0  0  0  0  0  0  0  0  0  0  0
  1 10  1  0  0  0  0
  2  3  2  0  0  0  0
  2  1  1  0  0  0  0
  3  4  1  0  0  0  0
  4 10  2  0  0  0  0
  4  5  1  0  0  0  0
  5  7  2  0  0  0  0
  6  5  1  0  0  0  0
  7  8  1  0  0  0  0
  9  8  2  0  0  0  0
 10  9  1  0  0  0  0
M  END
>  <CHROM.1>
-30.49672820,17.25722597,-16.32763842,1.71953752,1.01930513,-0.99393641

>  <Name>
lig.pdb

>  <RI>
2.12818e+07

>  <Rbt.Current_Directory>
/home/itssahil/PROJECTS/Mol_Feturizer/New_Systems/rnas/5uza

>  <Rbt.Executable>
rbdock ($Id: //depot/dev/client3/rdock/2013.1/src/exe/rbdock.cxx#4 $)

>  <Rbt.Library>
libRbt.so (2013.1, Build901 2013/11/27)

>  <Rbt.Parameter_File>
/export/apps/rDock/src/rDock_2013.1_src/data/scripts/dock_solv.prm

>  <Rbt.Receptor>
prm/pocket_docking_7.prm

>  <SCORE>
-33.7926

>  <SCORE.INTER>
-33.7926

>  <SCORE.INTER.CONST>
1

>  <SCORE.INTER.POLAR>
-3.03763

>  <SCORE.INTER.ROT>
0

>  <SCORE.INTER.SOLV>
12.2162

>  <SCORE.INTER.VDW>
-20.075

>  <SCORE.INTER.norm>
-3.37926

>  <SCORE.INTRA>
0

>  <SCORE.INTRA.DIHEDRAL>
0

>  <SCORE.INTRA.DIHEDRAL.0>
0

>  <SCORE.INTRA.POLAR>
0

>  <SCORE.INTRA.POLAR.0>
0

>  <SCORE.INTRA.REPUL>
0

>  <SCORE.INTRA.REPUL.0>
0

>  <SCORE.INTRA.SOLV>
0

>  <SCORE.INTRA.SOLV.lig_0>
-14.8845

>  <SCORE.INTRA.VDW>
0

>  <SCORE.INTRA.VDW.0>
0

>  <SCORE.INTRA.norm>
0

>  <SCORE.RESTR>
0

>  <SCORE.RESTR.CAVITY>
0

>  <SCORE.RESTR.norm>
0

>  <SCORE.SYSTEM>
0

>  <SCORE.SYSTEM.CONST>
0

>  <SCORE.SYSTEM.DIHEDRAL>
0

>  <SCORE.SYSTEM.SOLV>
0

>  <SCORE.SYSTEM.norm>
0

>  <SCORE.heavy>
10

>  <SCORE.norm>
-3.37926

>  <RMSD>
0.293

$$$$
lig.pdb
 OpenBabel11021811523D
libRbt.so/2013.1/901 2013/11/27
 10 11  0  0  0  0  0  0  0  0999 V2000
  -30.9866   18.9977  -17.5595 N   0  0  0  0  0  0  0  0  0  0  0  0
  -30.3104   18.2974  -18.5204 C   0  0  0  0  0  0  0  0  0  0  0  0
  -29.8488   17.1412  -18.1075 N   0  0  0  0  0  0  0  0  0  0  0  0
  -30.2482   17.0777  -16.7832 C   0  0  0  0  0  0  0  0  0  0  0  0
  -30.0735   16.1003  -15.7863 C   0  0  0  0  0  0  0  0  0  0  0  0
  -29.4130   14.9556  -15.9893 N   0  0  0  0  0  0  0  0  0  0  0  0
  -30.6011   16.3471  -14.5672 N   0  0  0  0  0  0  0  0  0  0  0  0
  -31.2578   17.4956  -14.3699 C   0  0  0  0  0  0  0  0  0  0  0  0
  -31.4873   18.4881  -15.2288 N   0  0  0  0  0  0  0  0  0  0  0  0
  -30.9514   18.2138  -16.4287 C   0  0  0  0  0  0  0  0  0  0  0  0
  1 10  1  0  0  0  0
  2  3  2  0  0  0  0
  2  1  1  0  0  0  0
  3  4  1  0  0  0  0
  4 10  2  0  0  0  0
  4  5  1  0  0  0  0
  5  7  2  0  0  0  0
  6  5  1  0  0  0  0
  7  8  1  0  0  0  0
  9  8  2  0  0  0  0
 10  9  1  0  0  0  0
M  END
>  <CHROM.1>
-30.49827826,17.26996127,-16.32829251,1.72586981,1.02172890,-1.00477350

>  <Name>
lig.pdb

>  <RI>
2.12818e+07

>  <Rbt.Current_Directory>
/home/itssahil/PROJECTS/Mol_Feturizer/New_Systems/rnas/5uza

>  <Rbt.Executable>
rbdock ($Id: //depot/dev/client3/rdock/2013.1/src/exe/rbdock.cxx#4 $)

>  <Rbt.Library>
libRbt.so (2013.1, Build901 2013/11/27)

>  <Rbt.Parameter_File>
/export/apps/rDock/src/rDock_2013.1_src/data/scripts/dock_solv.prm

>  <Rbt.Receptor>
prm/pocket_docking_7.prm

>  <SCORE>
-33.7914

>  <SCORE.INTER>
-33.7914

>  <SCORE.INTER.CONST>
1

>  <SCORE.INTER.POLAR>
-3.03763

>  <SCORE.INTER.ROT>
0

>  <SCORE.INTER.SOLV>
12.2109

>  <SCORE.INTER.VDW>
-20.0725

>  <SCORE.INTER.norm>
-3.37914

>  <SCORE.INTRA>
0

>  <SCORE.INTRA.DIHEDRAL>
0

>  <SCORE.INTRA.DIHEDRAL.0>
0

>  <SCORE.INTRA.POLAR>
0

>  <SCORE.INTRA.POLAR.0>
0

>  <SCORE.INTRA.REPUL>
0

>  <SCORE.INTRA.REPUL.0>
0

>  <SCORE.INTRA.SOLV>
0

>  <SCORE.INTRA.SOLV.lig_0>
-14.8845

>  <SCORE.INTRA.VDW>
0

>  <SCORE.INTRA.VDW.0>
0

>  <SCORE.INTRA.norm>
0

>  <SCORE.RESTR>
0

>  <SCORE.RESTR.CAVITY>
0

>  <SCORE.RESTR.norm>
0

>  <SCORE.SYSTEM>
0

>  <SCORE.SYSTEM.CONST>
0

>  <SCORE.SYSTEM.DIHEDRAL>
0

>  <SCORE.SYSTEM.SOLV>
0

>  <SCORE.SYSTEM.norm>
0

>  <SCORE.heavy>
10

>  <SCORE.norm>
-3.37914

>  <RMSD>
0.293

$$$$
lig.pdb
 OpenBabel11021811523D
libRbt.so/2013.1/901 2013/11/27
 10 11  0  0  0  0  0  0  0  0999 V2000
  -31.0337   19.0108  -17.5022 N   0  0  0  0  0  0  0  0  0  0  0  0
  -30.3862   18.3238  -18.4920 C   0  0  0  0  0  0  0  0  0  0  0  0
  -29.9065   17.1655  -18.1067 N   0  0  0  0  0  0  0  0  0  0  0  0
  -30.2622   17.0862  -16.7709 C   0  0  0  0  0  0  0  0  0  0  0  0
  -30.0511   16.0992  -15.7906 C   0  0  0  0  0  0  0  0  0  0  0  0
  -29.3927   14.9597  -16.0272 N   0  0  0  0  0  0  0  0  0  0  0  0
  -30.5398   16.3307  -14.5525 N   0  0  0  0  0  0  0  0  0  0  0  0
  -31.1946   17.4740  -14.3217 C   0  0  0  0  0  0  0  0  0  0  0  0
  -31.4562   18.4744  -15.1620 N   0  0  0  0  0  0  0  0  0  0  0  0
  -30.9584   18.2152  -16.3816 C   0  0  0  0  0  0  0  0  0  0  0  0
  1 10  1  0  0  0  0
  2  3  2  0  0  0  0
  2  1  1  0  0  0  0
  3  4  1  0  0  0  0
  4 10  2  0  0  0  0
  4  5  1  0  0  0  0
  5  7  2  0  0  0  0
  6  5  1  0  0  0  0
  7  8  1  0  0  0  0
  9  8  2  0  0  0  0
 10  9  1  0  0  0  0
M  END
>  <CHROM.1>
-30.49823050,17.27246994,-16.30604015,1.78413348,1.03483096,-1.04408252

>  <Name>
lig.pdb

>  <RI>
2.26746e+07

>  <Rbt.Current_Directory>
/home/itssahil/PROJECTS/Mol_Feturizer/New_Systems/rnas/5uza

>  <Rbt.Executable>
rbdock ($Id: //depot/dev/client3/rdock/2013.1/src/exe/rbdock.cxx#4 $)

>  <Rbt.Library>
libRbt.so (2013.1, Build901 2013/11/27)

>  <Rbt.Parameter_File>
/export/apps/rDock/src/rDock_2013.1_src/data/scripts/dock_solv.prm

>  <Rbt.Receptor>
prm/blind_docking_100.prm

>  <SCORE>
-33.79

>  <SCORE.INTER>
-33.79

>  <SCORE.INTER.CONST>
1

>  <SCORE.INTER.POLAR>
-3.03763

>  <SCORE.INTER.ROT>
0

>  <SCORE.INTER.SOLV>
12.1393

>  <SCORE.INTER.VDW>
-20.0477

>  <SCORE.INTER.norm>
-3.379

>  <SCORE.INTRA>
0

>  <SCORE.INTRA.DIHEDRAL>
0

>  <SCORE.INTRA.DIHEDRAL.0>
0

>  <SCORE.INTRA.POLAR>
0

>  <SCORE.INTRA.POLAR.0>
0

>  <SCORE.INTRA.REPUL>
0

>  <SCORE.INTRA.REPUL.0>
0

>  <SCORE.INTRA.SOLV>
0

>  <SCORE.INTRA.SOLV.lig_0>
-14.8845

>  <SCORE.INTRA.VDW>
0

>  <SCORE.INTRA.VDW.0>
0

>  <SCORE.INTRA.norm>
0

>  <SCORE.RESTR>
0

>  <SCORE.RESTR.CAVITY>
0

>  <SCORE.RESTR.norm>
0

>  <SCORE.SYSTEM>
0

>  <SCORE.SYSTEM.CONST>
0

>  <SCORE.SYSTEM.DIHEDRAL>
0

>  <SCORE.SYSTEM.SOLV>
0

>  <SCORE.SYSTEM.norm>
0

>  <SCORE.heavy>
10

>  <SCORE.norm>
-3.379

>  <RMSD>
0.294

$$$$
lig.pdb
 OpenBabel11021811523D
libRbt.so/2013.1/901 2013/11/27
 10 11  0  0  0  0  0  0  0  0999 V2000
  -31.0134   19.0181  -17.5531 N   0  0  0  0  0  0  0  0  0  0  0  0
  -30.3475   18.3292  -18.5293 C   0  0  0  0  0  0  0  0  0  0  0  0
  -29.8801   17.1690  -18.1344 N   0  0  0  0  0  0  0  0  0  0  0  0
  -30.2642   17.0906  -16.8064 C   0  0  0  0  0  0  0  0  0  0  0  0
  -30.0771   16.1025  -15.8222 C   0  0  0  0  0  0  0  0  0  0  0  0
  -29.4178   14.9609  -16.0454 N   0  0  0  0  0  0  0  0  0  0  0  0
  -30.5910   16.3354  -14.5946 N   0  0  0  0  0  0  0  0  0  0  0  0
  -31.2466   17.4809  -14.3772 C   0  0  0  0  0  0  0  0  0  0  0  0
  -31.4869   18.4825  -15.2225 N   0  0  0  0  0  0  0  0  0  0  0  0
  -30.9644   18.2219  -16.4314 C   0  0  0  0  0  0  0  0  0  0  0  0
  1 10  1  0  0  0  0
  2  3  2  0  0  0  0
  2  1  1  0  0  0  0
  3  4  1  0  0  0  0
  4 10  2  0  0  0  0
  4  5  1  0  0  0  0
  5  7  2  0  0  0  0
  6  5  1  0  0  0  0
  7  8  1  0  0  0  0
  9  8  2  0  0  0  0
 10  9  1  0  0  0  0
M  END
>  <CHROM.1>
-30.50926616,17.27755648,-16.34653780,1.74557203,1.02690424,-1.01066036

>  <Name>
lig.pdb

>  <RI>
2.12818e+07

>  <Rbt.Current_Directory>
/home/itssahil/PROJECTS/Mol_Feturizer/New_Systems/rnas/5uza

>  <Rbt.Executable>
rbdock ($Id: //depot/dev/client3/rdock/2013.1/src/exe/rbdock.cxx#4 $)

>  <Rbt.Library>
libRbt.so (2013.1, Build901 2013/11/27)

>  <Rbt.Parameter_File>
/export/apps/rDock/src/rDock_2013.1_src/data/scripts/dock_solv.prm

>  <Rbt.Receptor>
prm/pocket_docking_7.prm

>  <SCORE>
-33.7834

>  <SCORE.INTER>
-33.7834

>  <SCORE.INTER.CONST>
1

>  <SCORE.INTER.POLAR>
-3.03763

>  <SCORE.INTER.ROT>
0

>  <SCORE.INTER.SOLV>
12.2029

>  <SCORE.INTER.VDW>
-20.0645

>  <SCORE.INTER.norm>
-3.37834

>  <SCORE.INTRA>
0

>  <SCORE.INTRA.DIHEDRAL>
0

>  <SCORE.INTRA.DIHEDRAL.0>
0

>  <SCORE.INTRA.POLAR>
0

>  <SCORE.INTRA.POLAR.0>
0

>  <SCORE.INTRA.REPUL>
0

>  <SCORE.INTRA.REPUL.0>
0

>  <SCORE.INTRA.SOLV>
0

>  <SCORE.INTRA.SOLV.lig_0>
-14.8845

>  <SCORE.INTRA.VDW>
0

>  <SCORE.INTRA.VDW.0>
0

>  <SCORE.INTRA.norm>
0

>  <SCORE.RESTR>
0

>  <SCORE.RESTR.CAVITY>
0

>  <SCORE.RESTR.norm>
0

>  <SCORE.SYSTEM>
0

>  <SCORE.SYSTEM.CONST>
0

>  <SCORE.SYSTEM.DIHEDRAL>
0

>  <SCORE.SYSTEM.SOLV>
0

>  <SCORE.SYSTEM.norm>
0

>  <SCORE.heavy>
10

>  <SCORE.norm>
-3.37834

>  <RMSD>
0.294

$$$$
lig.pdb
 OpenBabel11021811523D
libRbt.so/2013.1/901 2013/11/27
 10 11  0  0  0  0  0  0  0  0999 V2000
  -31.0129   19.0013  -17.5323 N   0  0  0  0  0  0  0  0  0  0  0  0
  -30.3324   18.3167  -18.5015 C   0  0  0  0  0  0  0  0  0  0  0  0
  -29.8597   17.1606  -18.1011 N   0  0  0  0  0  0  0  0  0  0  0  0
  -30.2558   17.0803  -16.7767 C   0  0  0  0  0  0  0  0  0  0  0  0
  -30.0704   16.0946  -15.7899 C   0  0  0  0  0  0  0  0  0  0  0  0
  -29.4002   14.9579  -16.0057 N   0  0  0  0  0  0  0  0  0  0  0  0
  -30.5977   16.3246  -14.5674 N   0  0  0  0  0  0  0  0  0  0  0  0
  -31.2642   17.4651  -14.3573 C   0  0  0  0  0  0  0  0  0  0  0  0
  -31.5043   18.4640  -15.2058 N   0  0  0  0  0  0  0  0  0  0  0  0
  -30.9683   18.2065  -16.4095 C   0  0  0  0  0  0  0  0  0  0  0  0
  1 10  1  0  0  0  0
  2  3  2  0  0  0  0
  2  1  1  0  0  0  0
  3  4  1  0  0  0  0
  4 10  2  0  0  0  0
  4  5  1  0  0  0  0
  5  7  2  0  0  0  0
  6  5  1  0  0  0  0
  7  8  1  0  0  0  0
  9  8  2  0  0  0  0
 10  9  1  0  0  0  0
M  END
>  <CHROM.1>
-30.50667659,17.26579761,-16.31938731,1.73813260,1.01526246,-1.00522355

>  <Name>
lig.pdb

>  <RI>
2.26746e+07

>  <Rbt.Current_Directory>
/home/itssahil/PROJECTS/Mol_Feturizer/New_Systems/rnas/5uza

>  <Rbt.Executable>
rbdock ($Id: //depot/dev/client3/rdock/2013.1/src/exe/rbdock.cxx#4 $)

>  <Rbt.Library>
libRbt.so (2013.1, Build901 2013/11/27)

>  <Rbt.Parameter_File>
/export/apps/rDock/src/rDock_2013.1_src/data/scripts/dock_solv.prm

>  <Rbt.Receptor>
prm/blind_docking_100.prm

>  <SCORE>
-33.7751

>  <SCORE.INTER>
-33.7751

>  <SCORE.INTER.CONST>
1

>  <SCORE.INTER.POLAR>
-3.03763

>  <SCORE.INTER.ROT>
0

>  <SCORE.INTER.SOLV>
12.1898

>  <SCORE.INTER.VDW>
-20.0546

>  <SCORE.INTER.norm>
-3.37751

>  <SCORE.INTRA>
0

>  <SCORE.INTRA.DIHEDRAL>
0

>  <SCORE.INTRA.DIHEDRAL.0>
0

>  <SCORE.INTRA.POLAR>
0

>  <SCORE.INTRA.POLAR.0>
0

>  <SCORE.INTRA.REPUL>
0

>  <SCORE.INTRA.REPUL.0>
0

>  <SCORE.INTRA.SOLV>
0

>  <SCORE.INTRA.SOLV.lig_0>
-14.8845

>  <SCORE.INTRA.VDW>
0

>  <SCORE.INTRA.VDW.0>
0

>  <SCORE.INTRA.norm>
0

>  <SCORE.RESTR>
0

>  <SCORE.RESTR.CAVITY>
0

>  <SCORE.RESTR.norm>
0

>  <SCORE.SYSTEM>
0

>  <SCORE.SYSTEM.CONST>
0

>  <SCORE.SYSTEM.DIHEDRAL>
0

>  <SCORE.SYSTEM.SOLV>
0

>  <SCORE.SYSTEM.norm>
0

>  <SCORE.heavy>
10

>  <SCORE.norm>
-3.37751

>  <RMSD>
0.295

$$$$
lig.pdb
 OpenBabel11021811523D
libRbt.so/2013.1/901 2013/11/27
 10 11  0  0  0  0  0  0  0  0999 V2000
  -30.9931   19.0014  -17.5002 N   0  0  0  0  0  0  0  0  0  0  0  0
  -30.3454   18.3163  -18.4912 C   0  0  0  0  0  0  0  0  0  0  0  0
  -29.8817   17.1491  -18.1128 N   0  0  0  0  0  0  0  0  0  0  0  0
  -30.2490   17.0616  -16.7806 C   0  0  0  0  0  0  0  0  0  0  0  0
  -30.0567   16.0633  -15.8079 C   0  0  0  0  0  0  0  0  0  0  0  0
  -29.4092   14.9188  -16.0498 N   0  0  0  0  0  0  0  0  0  0  0  0
  -30.5526   16.2890  -14.5716 N   0  0  0  0  0  0  0  0  0  0  0  0
  -31.1964   17.4374  -14.3353 C   0  0  0  0  0  0  0  0  0  0  0  0
  -31.4401   18.4484  -15.1685 N   0  0  0  0  0  0  0  0  0  0  0  0
  -30.9355   18.1947  -16.3864 C   0  0  0  0  0  0  0  0  0  0  0  0
  1 10  1  0  0  0  0
  2  3  2  0  0  0  0
  2  1  1  0  0  0  0
  3  4  1  0  0  0  0
  4 10  2  0  0  0  0
  4  5  1  0  0  0  0
  5  7  2  0  0  0  0
  6  5  1  0  0  0  0
  7  8  1  0  0  0  0
  9  8  2  0  0  0  0
 10  9  1  0  0  0  0
M  END
>  <CHROM.1>
-30.48657967,17.24626973,-16.31595769,1.75944949,1.04034660,-1.01362064

>  <Name>
lig.pdb

>  <RI>
0

>  <Rbt.Current_Directory>
/home/itssahil/PROJECTS/Mol_Feturizer/New_Systems/rnas/5uza

>  <Rbt.Executable>
rbdock ($Id: //depot/dev/client3/rdock/2013.1/src/exe/rbdock.cxx#4 $)

>  <Rbt.Library>
libRbt.so (2013.1, Build901 2013/11/27)

>  <Rbt.Parameter_File>
/export/apps/rDock/src/rDock_2013.1_src/data/scripts/dock_solv.prm

>  <Rbt.Receptor>
prm/blind_docking_80.prm

>  <SCORE>
-33.7834

>  <SCORE.INTER>
-33.7834

>  <SCORE.INTER.CONST>
1

>  <SCORE.INTER.POLAR>
-3.03763

>  <SCORE.INTER.ROT>
0

>  <SCORE.INTER.SOLV>
12.1812

>  <SCORE.INTER.VDW>
-20.0573

>  <SCORE.INTER.norm>
-3.37834

>  <SCORE.INTRA>
0

>  <SCORE.INTRA.DIHEDRAL>
0

>  <SCORE.INTRA.DIHEDRAL.0>
0

>  <SCORE.INTRA.POLAR>
0

>  <SCORE.INTRA.POLAR.0>
0

>  <SCORE.INTRA.REPUL>
0

>  <SCORE.INTRA.REPUL.0>
0

>  <SCORE.INTRA.SOLV>
0

>  <SCORE.INTRA.SOLV.lig_0>
-14.8845

>  <SCORE.INTRA.VDW>
0

>  <SCORE.INTRA.VDW.0>
0

>  <SCORE.INTRA.norm>
0

>  <SCORE.RESTR>
0

>  <SCORE.RESTR.CAVITY>
0

>  <SCORE.RESTR.norm>
0

>  <SCORE.SYSTEM>
0

>  <SCORE.SYSTEM.CONST>
0

>  <SCORE.SYSTEM.DIHEDRAL>
0

>  <SCORE.SYSTEM.SOLV>
0

>  <SCORE.SYSTEM.norm>
0

>  <SCORE.heavy>
10

>  <SCORE.norm>
-3.37834

>  <RMSD>
0.295

$$$$
lig.pdb
 OpenBabel11021811523D
libRbt.so/2013.1/901 2013/11/27
 10 11  0  0  0  0  0  0  0  0999 V2000
  -30.9983   19.0158  -17.5761 N   0  0  0  0  0  0  0  0  0  0  0  0
  -30.3208   18.3278  -18.5449 C   0  0  0  0  0  0  0  0  0  0  0  0
  -29.8603   17.1662  -18.1463 N   0  0  0  0  0  0  0  0  0  0  0  0
  -30.2619   17.0856  -16.8236 C   0  0  0  0  0  0  0  0  0  0  0  0
  -30.0892   16.0953  -15.8391 C   0  0  0  0  0  0  0  0  0  0  0  0
  -29.4288   14.9531  -16.0559 N   0  0  0  0  0  0  0  0  0  0  0  0
  -30.6188   16.3265  -14.6179 N   0  0  0  0  0  0  0  0  0  0  0  0
  -31.2754   17.4725  -14.4067 C   0  0  0  0  0  0  0  0  0  0  0  0
  -31.5031   18.4762  -15.2531 N   0  0  0  0  0  0  0  0  0  0  0  0
  -30.9652   18.2172  -16.4555 C   0  0  0  0  0  0  0  0  0  0  0  0
  1 10  1  0  0  0  0
  2  3  2  0  0  0  0
  2  1  1  0  0  0  0
  3  4  1  0  0  0  0
  4 10  2  0  0  0  0
  4  5  1  0  0  0  0
  5  7  2  0  0  0  0
  6  5  1  0  0  0  0
  7  8  1  0  0  0  0
  9  8  2  0  0  0  0
 10  9  1  0  0  0  0
M  END
>  <CHROM.1>
-30.51266923,17.27204215,-16.36664701,1.72277630,1.02111946,-0.98914763

>  <Name>
lig.pdb

>  <RI>
0

>  <Rbt.Current_Directory>
/home/itssahil/PROJECTS/Mol_Feturizer/New_Systems/rnas/5uza

>  <Rbt.Executable>
rbdock ($Id: //depot/dev/client3/rdock/2013.1/src/exe/rbdock.cxx#4 $)

>  <Rbt.Library>
libRbt.so (2013.1, Build901 2013/11/27)

>  <Rbt.Parameter_File>
/export/apps/rDock/src/rDock_2013.1_src/data/scripts/dock_solv.prm

>  <Rbt.Receptor>
prm/pocket_docking_3.prm

>  <SCORE>
-33.8192

>  <SCORE.INTER>
-33.8192

>  <SCORE.INTER.CONST>
1

>  <SCORE.INTER.POLAR>
-3.03763

>  <SCORE.INTER.ROT>
0

>  <SCORE.INTER.SOLV>
12.2383

>  <SCORE.INTER.VDW>
-20.1002

>  <SCORE.INTER.norm>
-3.38192

>  <SCORE.INTRA>
0

>  <SCORE.INTRA.DIHEDRAL>
0

>  <SCORE.INTRA.DIHEDRAL.0>
0

>  <SCORE.INTRA.POLAR>
0

>  <SCORE.INTRA.POLAR.0>
0

>  <SCORE.INTRA.REPUL>
0

>  <SCORE.INTRA.REPUL.0>
0

>  <SCORE.INTRA.SOLV>
0

>  <SCORE.INTRA.SOLV.lig_0>
-14.8845

>  <SCORE.INTRA.VDW>
0

>  <SCORE.INTRA.VDW.0>
0

>  <SCORE.INTRA.norm>
0

>  <SCORE.RESTR>
0

>  <SCORE.RESTR.CAVITY>
0

>  <SCORE.RESTR.norm>
0

>  <SCORE.SYSTEM>
0

>  <SCORE.SYSTEM.CONST>
0

>  <SCORE.SYSTEM.DIHEDRAL>
0

>  <SCORE.SYSTEM.SOLV>
0

>  <SCORE.SYSTEM.norm>
0

>  <SCORE.heavy>
10

>  <SCORE.norm>
-3.38192

>  <RMSD>
0.296

$$$$
lig.pdb
 OpenBabel11021811523D
libRbt.so/2013.1/901 2013/11/27
 10 11  0  0  0  0  0  0  0  0999 V2000
  -31.0030   19.0129  -17.5744 N   0  0  0  0  0  0  0  0  0  0  0  0
  -30.3236   18.3268  -18.5433 C   0  0  0  0  0  0  0  0  0  0  0  0
  -29.8611   17.1658  -18.1452 N   0  0  0  0  0  0  0  0  0  0  0  0
  -30.2632   17.0837  -16.8227 C   0  0  0  0  0  0  0  0  0  0  0  0
  -30.0891   16.0931  -15.8387 C   0  0  0  0  0  0  0  0  0  0  0  0
  -29.4264   14.9523  -16.0559 N   0  0  0  0  0  0  0  0  0  0  0  0
  -30.6198   16.3225  -14.6176 N   0  0  0  0  0  0  0  0  0  0  0  0
  -31.2787   17.4671  -14.4061 C   0  0  0  0  0  0  0  0  0  0  0  0
  -31.5080   18.4709  -15.2520 N   0  0  0  0  0  0  0  0  0  0  0  0
  -30.9690   18.2137  -16.4543 C   0  0  0  0  0  0  0  0  0  0  0  0
  1 10  1  0  0  0  0
  2  3  2  0  0  0  0
  2  1  1  0  0  0  0
  3  4  1  0  0  0  0
  4 10  2  0  0  0  0
  4  5  1  0  0  0  0
  5  7  2  0  0  0  0
  6  5  1  0  0  0  0
  7  8  1  0  0  0  0
  9  8  2  0  0  0  0
 10  9  1  0  0  0  0
M  END
>  <CHROM.1>
-30.51460250,17.26933740,-16.36576653,1.72399487,1.01920020,-0.98958156

>  <Name>
lig.pdb

>  <RI>
9.24451e+06

>  <Rbt.Current_Directory>
/home/itssahil/PROJECTS/Mol_Feturizer/New_Systems/rnas/5uza

>  <Rbt.Executable>
rbdock ($Id: //depot/dev/client3/rdock/2013.1/src/exe/rbdock.cxx#4 $)

>  <Rbt.Library>
libRbt.so (2013.1, Build901 2013/11/27)

>  <Rbt.Parameter_File>
/export/apps/rDock/src/rDock_2013.1_src/data/scripts/dock_solv.prm

>  <Rbt.Receptor>
prm/pocket_docking_4.prm

>  <SCORE>
-33.8173

>  <SCORE.INTER>
-33.8173

>  <SCORE.INTER.CONST>
1

>  <SCORE.INTER.POLAR>
-3.03763

>  <SCORE.INTER.ROT>
0

>  <SCORE.INTER.SOLV>
12.2349

>  <SCORE.INTER.VDW>
-20.0977

>  <SCORE.INTER.norm>
-3.38173

>  <SCORE.INTRA>
0

>  <SCORE.INTRA.DIHEDRAL>
0

>  <SCORE.INTRA.DIHEDRAL.0>
0

>  <SCORE.INTRA.POLAR>
0

>  <SCORE.INTRA.POLAR.0>
0

>  <SCORE.INTRA.REPUL>
0

>  <SCORE.INTRA.REPUL.0>
0

>  <SCORE.INTRA.SOLV>
0

>  <SCORE.INTRA.SOLV.lig_0>
-14.8845

>  <SCORE.INTRA.VDW>
0

>  <SCORE.INTRA.VDW.0>
0

>  <SCORE.INTRA.norm>
0

>  <SCORE.RESTR>
0

>  <SCORE.RESTR.CAVITY>
0

>  <SCORE.RESTR.norm>
0

>  <SCORE.SYSTEM>
0

>  <SCORE.SYSTEM.CONST>
0

>  <SCORE.SYSTEM.DIHEDRAL>
0

>  <SCORE.SYSTEM.SOLV>
0

>  <SCORE.SYSTEM.norm>
0

>  <SCORE.heavy>
10

>  <SCORE.norm>
-3.38173

>  <RMSD>
0.296

$$$$
lig.pdb
 OpenBabel11021811523D
libRbt.so/2013.1/901 2013/11/27
 10 11  0  0  0  0  0  0  0  0999 V2000
  -30.9762   18.9955  -17.5416 N   0  0  0  0  0  0  0  0  0  0  0  0
  -30.3020   18.3008  -18.5079 C   0  0  0  0  0  0  0  0  0  0  0  0
  -29.8445   17.1397  -18.1042 N   0  0  0  0  0  0  0  0  0  0  0  0
  -30.2446   17.0668  -16.7806 C   0  0  0  0  0  0  0  0  0  0  0  0
  -30.0736   16.0808  -15.7915 C   0  0  0  0  0  0  0  0  0  0  0  0
  -29.4170   14.9355  -16.0036 N   0  0  0  0  0  0  0  0  0  0  0  0
  -30.6009   16.3195  -14.5707 N   0  0  0  0  0  0  0  0  0  0  0  0
  -31.2537   17.4686  -14.3643 C   0  0  0  0  0  0  0  0  0  0  0  0
  -31.4796   18.4688  -15.2153 N   0  0  0  0  0  0  0  0  0  0  0  0
  -30.9441   18.2023  -16.4172 C   0  0  0  0  0  0  0  0  0  0  0  0
  1 10  1  0  0  0  0
  2  3  2  0  0  0  0
  2  1  1  0  0  0  0
  3  4  1  0  0  0  0
  4 10  2  0  0  0  0
  4  5  1  0  0  0  0
  5  7  2  0  0  0  0
  6  5  1  0  0  0  0
  7  8  1  0  0  0  0
  9  8  2  0  0  0  0
 10  9  1  0  0  0  0
M  END
>  <CHROM.1>
-30.49423186,17.25622734,-16.32423665,1.72171195,1.02437247,-0.99313421

>  <Name>
lig.pdb

>  <RI>
2.12818e+07

>  <Rbt.Current_Directory>
/home/itssahil/PROJECTS/Mol_Feturizer/New_Systems/rnas/5uza

>  <Rbt.Executable>
rbdock ($Id: //depot/dev/client3/rdock/2013.1/src/exe/rbdock.cxx#4 $)

>  <Rbt.Library>
libRbt.so (2013.1, Build901 2013/11/27)

>  <Rbt.Parameter_File>
/export/apps/rDock/src/rDock_2013.1_src/data/scripts/dock_solv.prm

>  <Rbt.Receptor>
prm/pocket_docking_7.prm

>  <SCORE>
-33.7842

>  <SCORE.INTER>
-33.7842

>  <SCORE.INTER.CONST>
1

>  <SCORE.INTER.POLAR>
-3.03763

>  <SCORE.INTER.ROT>
0

>  <SCORE.INTER.SOLV>
12.2227

>  <SCORE.INTER.VDW>
-20.0716

>  <SCORE.INTER.norm>
-3.37842

>  <SCORE.INTRA>
0

>  <SCORE.INTRA.DIHEDRAL>
0

>  <SCORE.INTRA.DIHEDRAL.0>
0

>  <SCORE.INTRA.POLAR>
0

>  <SCORE.INTRA.POLAR.0>
0

>  <SCORE.INTRA.REPUL>
0

>  <SCORE.INTRA.REPUL.0>
0

>  <SCORE.INTRA.SOLV>
0

>  <SCORE.INTRA.SOLV.lig_0>
-14.8845

>  <SCORE.INTRA.VDW>
0

>  <SCORE.INTRA.VDW.0>
0

>  <SCORE.INTRA.norm>
0

>  <SCORE.RESTR>
0

>  <SCORE.RESTR.CAVITY>
0

>  <SCORE.RESTR.norm>
0

>  <SCORE.SYSTEM>
0

>  <SCORE.SYSTEM.CONST>
0

>  <SCORE.SYSTEM.DIHEDRAL>
0

>  <SCORE.SYSTEM.SOLV>
0

>  <SCORE.SYSTEM.norm>
0

>  <SCORE.heavy>
10

>  <SCORE.norm>
-3.37842

>  <RMSD>
0.296

$$$$
lig.pdb
 OpenBabel11021811523D
libRbt.so/2013.1/901 2013/11/27
 10 11  0  0  0  0  0  0  0  0999 V2000
  -30.9752   18.9930  -17.5484 N   0  0  0  0  0  0  0  0  0  0  0  0
  -30.2981   18.2959  -18.5110 C   0  0  0  0  0  0  0  0  0  0  0  0
  -29.8416   17.1360  -18.1030 N   0  0  0  0  0  0  0  0  0  0  0  0
  -30.2455   17.0664  -16.7804 C   0  0  0  0  0  0  0  0  0  0  0  0
  -30.0773   16.0829  -15.7883 C   0  0  0  0  0  0  0  0  0  0  0  0
  -29.4198   14.9372  -15.9955 N   0  0  0  0  0  0  0  0  0  0  0  0
  -30.6081   16.3247  -14.5696 N   0  0  0  0  0  0  0  0  0  0  0  0
  -31.2618   17.4742  -14.3681 C   0  0  0  0  0  0  0  0  0  0  0  0
  -31.4853   18.4721  -15.2222 N   0  0  0  0  0  0  0  0  0  0  0  0
  -30.9462   18.2027  -16.4219 C   0  0  0  0  0  0  0  0  0  0  0  0
  1 10  1  0  0  0  0
  2  3  2  0  0  0  0
  2  1  1  0  0  0  0
  3  4  1  0  0  0  0
  4 10  2  0  0  0  0
  4  5  1  0  0  0  0
  5  7  2  0  0  0  0
  6  5  1  0  0  0  0
  7  8  1  0  0  0  0
  9  8  2  0  0  0  0
 10  9  1  0  0  0  0
M  END
>  <CHROM.1>
-30.49649746,17.25693551,-16.32522367,1.71720244,1.02263003,-0.99182790

>  <Name>
lig.pdb

>  <RI>
0

>  <Rbt.Current_Directory>
/home/itssahil/PROJECTS/Mol_Feturizer/New_Systems/rnas/5uza

>  <Rbt.Executable>
rbdock ($Id: //depot/dev/client3/rdock/2013.1/src/exe/rbdock.cxx#4 $)

>  <Rbt.Library>
libRbt.so (2013.1, Build901 2013/11/27)

>  <Rbt.Parameter_File>
/export/apps/rDock/src/rDock_2013.1_src/data/scripts/dock_solv.prm

>  <Rbt.Receptor>
prm/blind_docking_80.prm

>  <SCORE>
-33.789

>  <SCORE.INTER>
-33.789

>  <SCORE.INTER.CONST>
1

>  <SCORE.INTER.POLAR>
-3.03763

>  <SCORE.INTER.ROT>
0

>  <SCORE.INTER.SOLV>
12.2288

>  <SCORE.INTER.VDW>
-20.0768

>  <SCORE.INTER.norm>
-3.3789

>  <SCORE.INTRA>
0

>  <SCORE.INTRA.DIHEDRAL>
0

>  <SCORE.INTRA.DIHEDRAL.0>
0

>  <SCORE.INTRA.POLAR>
0

>  <SCORE.INTRA.POLAR.0>
0

>  <SCORE.INTRA.REPUL>
0

>  <SCORE.INTRA.REPUL.0>
0

>  <SCORE.INTRA.SOLV>
0

>  <SCORE.INTRA.SOLV.lig_0>
-14.8845

>  <SCORE.INTRA.VDW>
0

>  <SCORE.INTRA.VDW.0>
0

>  <SCORE.INTRA.norm>
0

>  <SCORE.RESTR>
0

>  <SCORE.RESTR.CAVITY>
0

>  <SCORE.RESTR.norm>
0

>  <SCORE.SYSTEM>
0

>  <SCORE.SYSTEM.CONST>
0

>  <SCORE.SYSTEM.DIHEDRAL>
0

>  <SCORE.SYSTEM.SOLV>
0

>  <SCORE.SYSTEM.norm>
0

>  <SCORE.heavy>
10

>  <SCORE.norm>
-3.3789

>  <RMSD>
0.297

$$$$
lig.pdb
 OpenBabel11021811523D
libRbt.so/2013.1/901 2013/11/27
 10 11  0  0  0  0  0  0  0  0999 V2000
  -31.0023   19.0099  -17.5736 N   0  0  0  0  0  0  0  0  0  0  0  0
  -30.3215   18.3176  -18.5370 C   0  0  0  0  0  0  0  0  0  0  0  0
  -29.8591   17.1595  -18.1305 N   0  0  0  0  0  0  0  0  0  0  0  0
  -30.2628   17.0861  -16.8081 C   0  0  0  0  0  0  0  0  0  0  0  0
  -30.0897   16.1022  -15.8173 C   0  0  0  0  0  0  0  0  0  0  0  0
  -29.4263   14.9601  -16.0259 N   0  0  0  0  0  0  0  0  0  0  0  0
  -30.6219   16.3396  -14.5983 N   0  0  0  0  0  0  0  0  0  0  0  0
  -31.2815   17.4854  -14.3954 C   0  0  0  0  0  0  0  0  0  0  0  0
  -31.5100   18.4834  -15.2482 N   0  0  0  0  0  0  0  0  0  0  0  0
  -30.9694   18.2183  -16.4481 C   0  0  0  0  0  0  0  0  0  0  0  0
  1 10  1  0  0  0  0
  2  3  2  0  0  0  0
  2  1  1  0  0  0  0
  3  4  1  0  0  0  0
  4 10  2  0  0  0  0
  4  5  1  0  0  0  0
  5  7  2  0  0  0  0
  6  5  1  0  0  0  0
  7  8  1  0  0  0  0
  9  8  2  0  0  0  0
 10  9  1  0  0  0  0
M  END
>  <CHROM.1>
-30.51484412,17.27471057,-16.35267683,1.72232526,1.01827484,-0.99487104

>  <Name>
lig.pdb

>  <RI>
0

>  <Rbt.Current_Directory>
/home/itssahil/PROJECTS/Mol_Feturizer/New_Systems/rnas/5uza

>  <Rbt.Executable>
rbdock ($Id: //depot/dev/client3/rdock/2013.1/src/exe/rbdock.cxx#4 $)

>  <Rbt.Library>
libRbt.so (2013.1, Build901 2013/11/27)

>  <Rbt.Parameter_File>
/export/apps/rDock/src/rDock_2013.1_src/data/scripts/dock_solv.prm

>  <Rbt.Receptor>
prm/pocket_docking_5.prm

>  <SCORE>
-33.799

>  <SCORE.INTER>
-33.7996

>  <SCORE.INTER.CONST>
1

>  <SCORE.INTER.POLAR>
-3.03763

>  <SCORE.INTER.ROT>
0

>  <SCORE.INTER.SOLV>
12.2318

>  <SCORE.INTER.VDW>
-20.0849

>  <SCORE.INTER.norm>
-3.37996

>  <SCORE.INTRA>
0

>  <SCORE.INTRA.DIHEDRAL>
0

>  <SCORE.INTRA.DIHEDRAL.0>
0

>  <SCORE.INTRA.POLAR>
0

>  <SCORE.INTRA.POLAR.0>
0

>  <SCORE.INTRA.REPUL>
0

>  <SCORE.INTRA.REPUL.0>
0

>  <SCORE.INTRA.SOLV>
0

>  <SCORE.INTRA.SOLV.lig_0>
-14.8845

>  <SCORE.INTRA.VDW>
0

>  <SCORE.INTRA.VDW.0>
0

>  <SCORE.INTRA.norm>
0

>  <SCORE.RESTR>
0.00062548

>  <SCORE.RESTR.CAVITY>
0.00062548

>  <SCORE.RESTR.norm>
6.2548e-05

>  <SCORE.SYSTEM>
0

>  <SCORE.SYSTEM.CONST>
0

>  <SCORE.SYSTEM.DIHEDRAL>
0

>  <SCORE.SYSTEM.SOLV>
0

>  <SCORE.SYSTEM.norm>
0

>  <SCORE.heavy>
10

>  <SCORE.norm>
-3.3799

>  <RMSD>
0.298

$$$$
lig.pdb
 OpenBabel11021811523D
libRbt.so/2013.1/901 2013/11/27
 10 11  0  0  0  0  0  0  0  0999 V2000
  -30.9994   19.0079  -17.5671 N   0  0  0  0  0  0  0  0  0  0  0  0
  -30.3183   18.3184  -18.5323 C   0  0  0  0  0  0  0  0  0  0  0  0
  -29.8568   17.1587  -18.1293 N   0  0  0  0  0  0  0  0  0  0  0  0
  -30.2614   17.0812  -16.8073 C   0  0  0  0  0  0  0  0  0  0  0  0
  -30.0895   16.0940  -15.8196 C   0  0  0  0  0  0  0  0  0  0  0  0
  -29.4266   14.9522  -16.0316 N   0  0  0  0  0  0  0  0  0  0  0  0
  -30.6223   16.3277  -14.6003 N   0  0  0  0  0  0  0  0  0  0  0  0
  -31.2814   17.4732  -14.3940 C   0  0  0  0  0  0  0  0  0  0  0  0
  -31.5088   18.4741  -15.2437 N   0  0  0  0  0  0  0  0  0  0  0  0
  -30.9676   18.2126  -16.4442 C   0  0  0  0  0  0  0  0  0  0  0  0
  1 10  1  0  0  0  0
  2  3  2  0  0  0  0
  2  1  1  0  0  0  0
  3  4  1  0  0  0  0
  4 10  2  0  0  0  0
  4  5  1  0  0  0  0
  5  7  2  0  0  0  0
  6  5  1  0  0  0  0
  7  8  1  0  0  0  0
  9  8  2  0  0  0  0
 10  9  1  0  0  0  0
M  END
>  <CHROM.1>
-30.51364923,17.26846843,-16.35150041,1.72074689,1.01837243,-0.99027260

>  <Name>
lig.pdb

>  <RI>
1.17775e+07

>  <Rbt.Current_Directory>
/home/itssahil/PROJECTS/Mol_Feturizer/New_Systems/rnas/5uza

>  <Rbt.Executable>
rbdock ($Id: //depot/dev/client3/rdock/2013.1/src/exe/rbdock.cxx#4 $)

>  <Rbt.Library>
libRbt.so (2013.1, Build901 2013/11/27)

>  <Rbt.Parameter_File>
/export/apps/rDock/src/rDock_2013.1_src/data/scripts/dock_solv.prm

>  <Rbt.Receptor>
prm/pocket_docking_8.prm

>  <SCORE>
-33.7991

>  <SCORE.INTER>
-33.7991

>  <SCORE.INTER.CONST>
1

>  <SCORE.INTER.POLAR>
-3.03763

>  <SCORE.INTER.ROT>
0

>  <SCORE.INTER.SOLV>
12.236

>  <SCORE.INTER.VDW>
-20.086

>  <SCORE.INTER.norm>
-3.37991

>  <SCORE.INTRA>
0

>  <SCORE.INTRA.DIHEDRAL>
0

>  <SCORE.INTRA.DIHEDRAL.0>
0

>  <SCORE.INTRA.POLAR>
0

>  <SCORE.INTRA.POLAR.0>
0

>  <SCORE.INTRA.REPUL>
0

>  <SCORE.INTRA.REPUL.0>
0

>  <SCORE.INTRA.SOLV>
0

>  <SCORE.INTRA.SOLV.lig_0>
-14.8845

>  <SCORE.INTRA.VDW>
0

>  <SCORE.INTRA.VDW.0>
0

>  <SCORE.INTRA.norm>
0

>  <SCORE.RESTR>
1.3141e-05

>  <SCORE.RESTR.CAVITY>
1.3141e-05

>  <SCORE.RESTR.norm>
1.3141e-06

>  <SCORE.SYSTEM>
0

>  <SCORE.SYSTEM.CONST>
0

>  <SCORE.SYSTEM.DIHEDRAL>
0

>  <SCORE.SYSTEM.SOLV>
0

>  <SCORE.SYSTEM.norm>
0

>  <SCORE.heavy>
10

>  <SCORE.norm>
-3.37991

>  <RMSD>
0.298

$$$$
lig.pdb
 OpenBabel11021811523D
libRbt.so/2013.1/901 2013/11/27
 10 11  0  0  0  0  0  0  0  0999 V2000
  -31.0231   18.9843  -17.5618 N   0  0  0  0  0  0  0  0  0  0  0  0
  -30.3210   18.2964  -18.5130 C   0  0  0  0  0  0  0  0  0  0  0  0
  -29.8458   17.1480  -18.0939 N   0  0  0  0  0  0  0  0  0  0  0  0
  -30.2634   17.0767  -16.7756 C   0  0  0  0  0  0  0  0  0  0  0  0
  -30.0867   16.1017  -15.7766 C   0  0  0  0  0  0  0  0  0  0  0  0
  -29.4038   14.9686  -15.9705 N   0  0  0  0  0  0  0  0  0  0  0  0
  -30.6363   16.3386  -14.5654 N   0  0  0  0  0  0  0  0  0  0  0  0
  -31.3154   17.4755  -14.3772 C   0  0  0  0  0  0  0  0  0  0  0  0
  -31.5492   18.4646  -15.2389 N   0  0  0  0  0  0  0  0  0  0  0  0
  -30.9910   18.2003  -16.4310 C   0  0  0  0  0  0  0  0  0  0  0  0
  1 10  1  0  0  0  0
  2  3  2  0  0  0  0
  2  1  1  0  0  0  0
  3  4  1  0  0  0  0
  4 10  2  0  0  0  0
  4  5  1  0  0  0  0
  5  7  2  0  0  0  0
  6  5  1  0  0  0  0
  7  8  1  0  0  0  0
  9  8  2  0  0  0  0
 10  9  1  0  0  0  0
M  END
>  <CHROM.1>
-30.52338779,17.26430654,-16.32433347,1.71989515,0.99937937,-0.99913303

>  <Name>
lig.pdb

>  <RI>
0

>  <Rbt.Current_Directory>
/home/itssahil/PROJECTS/Mol_Feturizer/New_Systems/rnas/5uza

>  <Rbt.Executable>
rbdock ($Id: //depot/dev/client3/rdock/2013.1/src/exe/rbdock.cxx#4 $)

>  <Rbt.Library>
libRbt.so (2013.1, Build901 2013/11/27)

>  <Rbt.Parameter_File>
/export/apps/rDock/src/rDock_2013.1_src/data/scripts/dock_solv.prm

>  <Rbt.Receptor>
prm/pocket_docking_5.prm

>  <SCORE>
-33.7375

>  <SCORE.INTER>
-33.7375

>  <SCORE.INTER.CONST>
1

>  <SCORE.INTER.POLAR>
-3.03763

>  <SCORE.INTER.ROT>
0

>  <SCORE.INTER.SOLV>
12.2068

>  <SCORE.INTER.VDW>
-20.0352

>  <SCORE.INTER.norm>
-3.37375

>  <SCORE.INTRA>
0

>  <SCORE.INTRA.DIHEDRAL>
0

>  <SCORE.INTRA.DIHEDRAL.0>
0

>  <SCORE.INTRA.POLAR>
0

>  <SCORE.INTRA.POLAR.0>
0

>  <SCORE.INTRA.REPUL>
0

>  <SCORE.INTRA.REPUL.0>
0

>  <SCORE.INTRA.SOLV>
0

>  <SCORE.INTRA.SOLV.lig_0>
-14.8845

>  <SCORE.INTRA.VDW>
0

>  <SCORE.INTRA.VDW.0>
0

>  <SCORE.INTRA.norm>
0

>  <SCORE.RESTR>
0

>  <SCORE.RESTR.CAVITY>
0

>  <SCORE.RESTR.norm>
0

>  <SCORE.SYSTEM>
0

>  <SCORE.SYSTEM.CONST>
0

>  <SCORE.SYSTEM.DIHEDRAL>
0

>  <SCORE.SYSTEM.SOLV>
0

>  <SCORE.SYSTEM.norm>
0

>  <SCORE.heavy>
10

>  <SCORE.norm>
-3.37375

>  <RMSD>
0.299

$$$$
lig.pdb
 OpenBabel11021811523D
libRbt.so/2013.1/901 2013/11/27
 10 11  0  0  0  0  0  0  0  0999 V2000
  -30.9813   18.9912  -17.5433 N   0  0  0  0  0  0  0  0  0  0  0  0
  -30.2964   18.3000  -18.5046 C   0  0  0  0  0  0  0  0  0  0  0  0
  -29.8369   17.1408  -18.0980 N   0  0  0  0  0  0  0  0  0  0  0  0
  -30.2471   17.0653  -16.7777 C   0  0  0  0  0  0  0  0  0  0  0  0
  -30.0795   16.0795  -15.7878 C   0  0  0  0  0  0  0  0  0  0  0  0
  -29.4161   14.9373  -15.9954 N   0  0  0  0  0  0  0  0  0  0  0  0
  -30.6174   16.3151  -14.5710 N   0  0  0  0  0  0  0  0  0  0  0  0
  -31.2770   17.4611  -14.3692 C   0  0  0  0  0  0  0  0  0  0  0  0
  -31.5006   18.4608  -15.2213 N   0  0  0  0  0  0  0  0  0  0  0  0
  -30.9544   18.1975  -16.4191 C   0  0  0  0  0  0  0  0  0  0  0  0
  1 10  1  0  0  0  0
  2  3  2  0  0  0  0
  2  1  1  0  0  0  0
  3  4  1  0  0  0  0
  4 10  2  0  0  0  0
  4  5  1  0  0  0  0
  5  7  2  0  0  0  0
  6  5  1  0  0  0  0
  7  8  1  0  0  0  0
  9  8  2  0  0  0  0
 10  9  1  0  0  0  0
M  END
>  <CHROM.1>
-30.50114079,17.25334611,-16.32314816,1.71380749,1.01631417,-0.98581083

>  <Name>
lig.pdb

>  <RI>
0

>  <Rbt.Current_Directory>
/home/itssahil/PROJECTS/Mol_Feturizer/New_Systems/rnas/5uza

>  <Rbt.Executable>
rbdock ($Id: //depot/dev/client3/rdock/2013.1/src/exe/rbdock.cxx#4 $)

>  <Rbt.Library>
libRbt.so (2013.1, Build901 2013/11/27)

>  <Rbt.Parameter_File>
/export/apps/rDock/src/rDock_2013.1_src/data/scripts/dock_solv.prm

>  <Rbt.Receptor>
prm/pocket_docking_5.prm

>  <SCORE>
-33.7832

>  <SCORE.INTER>
-33.7832

>  <SCORE.INTER.CONST>
1

>  <SCORE.INTER.POLAR>
-3.03763

>  <SCORE.INTER.ROT>
0

>  <SCORE.INTER.SOLV>
12.2282

>  <SCORE.INTER.VDW>
-20.0728

>  <SCORE.INTER.norm>
-3.37832

>  <SCORE.INTRA>
0

>  <SCORE.INTRA.DIHEDRAL>
0

>  <SCORE.INTRA.DIHEDRAL.0>
0

>  <SCORE.INTRA.POLAR>
0

>  <SCORE.INTRA.POLAR.0>
0

>  <SCORE.INTRA.REPUL>
0

>  <SCORE.INTRA.REPUL.0>
0

>  <SCORE.INTRA.SOLV>
0

>  <SCORE.INTRA.SOLV.lig_0>
-14.8845

>  <SCORE.INTRA.VDW>
0

>  <SCORE.INTRA.VDW.0>
0

>  <SCORE.INTRA.norm>
0

>  <SCORE.RESTR>
0

>  <SCORE.RESTR.CAVITY>
0

>  <SCORE.RESTR.norm>
0

>  <SCORE.SYSTEM>
0

>  <SCORE.SYSTEM.CONST>
0

>  <SCORE.SYSTEM.DIHEDRAL>
0

>  <SCORE.SYSTEM.SOLV>
0

>  <SCORE.SYSTEM.norm>
0

>  <SCORE.heavy>
10

>  <SCORE.norm>
-3.37832

>  <RMSD>
0.299

$$$$
lig.pdb
 OpenBabel11021811523D
libRbt.so/2013.1/901 2013/11/27
 10 11  0  0  0  0  0  0  0  0999 V2000
  -30.9960   19.0091  -17.5596 N   0  0  0  0  0  0  0  0  0  0  0  0
  -30.3165   18.3225  -18.5279 C   0  0  0  0  0  0  0  0  0  0  0  0
  -29.8572   17.1601  -18.1301 N   0  0  0  0  0  0  0  0  0  0  0  0
  -30.2618   17.0776  -16.8085 C   0  0  0  0  0  0  0  0  0  0  0  0
  -30.0917   16.0856  -15.8252 C   0  0  0  0  0  0  0  0  0  0  0  0
  -29.4312   14.9435  -16.0423 N   0  0  0  0  0  0  0  0  0  0  0  0
  -30.6240   16.3150  -14.6047 N   0  0  0  0  0  0  0  0  0  0  0  0
  -31.2807   17.4610  -14.3933 C   0  0  0  0  0  0  0  0  0  0  0  0
  -31.5062   18.4660  -15.2385 N   0  0  0  0  0  0  0  0  0  0  0  0
  -30.9657   18.2088  -16.4402 C   0  0  0  0  0  0  0  0  0  0  0  0
  1 10  1  0  0  0  0
  2  3  2  0  0  0  0
  2  1  1  0  0  0  0
  3  4  1  0  0  0  0
  4 10  2  0  0  0  0
  4  5  1  0  0  0  0
  5  7  2  0  0  0  0
  6  5  1  0  0  0  0
  7  8  1  0  0  0  0
  9  8  2  0  0  0  0
 10  9  1  0  0  0  0
M  END
>  <CHROM.1>
-30.51361657,17.26334550,-16.35176394,1.71883456,1.02013451,-0.98420391

>  <Name>
lig.pdb

>  <RI>
2.26746e+07

>  <Rbt.Current_Directory>
/home/itssahil/PROJECTS/Mol_Feturizer/New_Systems/rnas/5uza

>  <Rbt.Executable>
rbdock ($Id: //depot/dev/client3/rdock/2013.1/src/exe/rbdock.cxx#4 $)

>  <Rbt.Library>
libRbt.so (2013.1, Build901 2013/11/27)

>  <Rbt.Parameter_File>
/export/apps/rDock/src/rDock_2013.1_src/data/scripts/dock_solv.prm

>  <Rbt.Receptor>
prm/blind_docking_100.prm

>  <SCORE>
-33.7991

>  <SCORE.INTER>
-33.7994

>  <SCORE.INTER.CONST>
1

>  <SCORE.INTER.POLAR>
-3.03763

>  <SCORE.INTER.ROT>
0

>  <SCORE.INTER.SOLV>
12.2461

>  <SCORE.INTER.VDW>
-20.0896

>  <SCORE.INTER.norm>
-3.37994

>  <SCORE.INTRA>
0

>  <SCORE.INTRA.DIHEDRAL>
0

>  <SCORE.INTRA.DIHEDRAL.0>
0

>  <SCORE.INTRA.POLAR>
0

>  <SCORE.INTRA.POLAR.0>
0

>  <SCORE.INTRA.REPUL>
0

>  <SCORE.INTRA.REPUL.0>
0

>  <SCORE.INTRA.SOLV>
0

>  <SCORE.INTRA.SOLV.lig_0>
-14.8845

>  <SCORE.INTRA.VDW>
0

>  <SCORE.INTRA.VDW.0>
0

>  <SCORE.INTRA.norm>
0

>  <SCORE.RESTR>
0.000348011

>  <SCORE.RESTR.CAVITY>
0.000348011

>  <SCORE.RESTR.norm>
3.48011e-05

>  <SCORE.SYSTEM>
0

>  <SCORE.SYSTEM.CONST>
0

>  <SCORE.SYSTEM.DIHEDRAL>
0

>  <SCORE.SYSTEM.SOLV>
0

>  <SCORE.SYSTEM.norm>
0

>  <SCORE.heavy>
10

>  <SCORE.norm>
-3.37991

>  <RMSD>
0.300

$$$$
lig.pdb
 OpenBabel11021811523D
libRbt.so/2013.1/901 2013/11/27
 10 11  0  0  0  0  0  0  0  0999 V2000
  -31.0196   19.0143  -17.5594 N   0  0  0  0  0  0  0  0  0  0  0  0
  -30.3477   18.3255  -18.5315 C   0  0  0  0  0  0  0  0  0  0  0  0
  -29.8820   17.1657  -18.1336 N   0  0  0  0  0  0  0  0  0  0  0  0
  -30.2737   17.0874  -16.8078 C   0  0  0  0  0  0  0  0  0  0  0  0
  -30.0918   16.0998  -15.8223 C   0  0  0  0  0  0  0  0  0  0  0  0
  -29.4307   14.9584  -16.0413 N   0  0  0  0  0  0  0  0  0  0  0  0
  -30.6129   16.3328  -14.5977 N   0  0  0  0  0  0  0  0  0  0  0  0
  -31.2703   17.4780  -14.3845 C   0  0  0  0  0  0  0  0  0  0  0  0
  -31.5063   18.4792  -15.2314 N   0  0  0  0  0  0  0  0  0  0  0  0
  -30.9767   18.2185  -16.4372 C   0  0  0  0  0  0  0  0  0  0  0  0
  1 10  1  0  0  0  0
  2  3  2  0  0  0  0
  2  1  1  0  0  0  0
  3  4  1  0  0  0  0
  4 10  2  0  0  0  0
  4  5  1  0  0  0  0
  5  7  2  0  0  0  0
  6  5  1  0  0  0  0
  7  8  1  0  0  0  0
  9  8  2  0  0  0  0
 10  9  1  0  0  0  0
M  END
>  <CHROM.1>
-30.52153846,17.27443367,-16.34943982,1.73668128,1.02338750,-1.00335646

>  <Name>
lig.pdb

>  <RI>
0

>  <Rbt.Current_Directory>
/home/itssahil/PROJECTS/Mol_Feturizer/New_Systems/rnas/5uza

>  <Rbt.Executable>
rbdock ($Id: //depot/dev/client3/rdock/2013.1/src/exe/rbdock.cxx#4 $)

>  <Rbt.Library>
libRbt.so (2013.1, Build901 2013/11/27)

>  <Rbt.Parameter_File>
/export/apps/rDock/src/rDock_2013.1_src/data/scripts/dock_solv.prm

>  <Rbt.Receptor>
prm/blind_docking_80.prm

>  <SCORE>
-33.796

>  <SCORE.INTER>
-33.796

>  <SCORE.INTER.CONST>
1

>  <SCORE.INTER.POLAR>
-3.03763

>  <SCORE.INTER.ROT>
0

>  <SCORE.INTER.SOLV>
12.2252

>  <SCORE.INTER.VDW>
-20.0803

>  <SCORE.INTER.norm>
-3.3796

>  <SCORE.INTRA>
0

>  <SCORE.INTRA.DIHEDRAL>
0

>  <SCORE.INTRA.DIHEDRAL.0>
0

>  <SCORE.INTRA.POLAR>
0

>  <SCORE.INTRA.POLAR.0>
0

>  <SCORE.INTRA.REPUL>
0

>  <SCORE.INTRA.REPUL.0>
0

>  <SCORE.INTRA.SOLV>
0

>  <SCORE.INTRA.SOLV.lig_0>
-14.8845

>  <SCORE.INTRA.VDW>
0

>  <SCORE.INTRA.VDW.0>
0

>  <SCORE.INTRA.norm>
0

>  <SCORE.RESTR>
0

>  <SCORE.RESTR.CAVITY>
0

>  <SCORE.RESTR.norm>
0

>  <SCORE.SYSTEM>
0

>  <SCORE.SYSTEM.CONST>
0

>  <SCORE.SYSTEM.DIHEDRAL>
0

>  <SCORE.SYSTEM.SOLV>
0

>  <SCORE.SYSTEM.norm>
0

>  <SCORE.heavy>
10

>  <SCORE.norm>
-3.3796

>  <RMSD>
0.301

$$$$
lig.pdb
 OpenBabel11021811523D
libRbt.so/2013.1/901 2013/11/27
 10 11  0  0  0  0  0  0  0  0999 V2000
  -31.0059   19.0165  -17.5542 N   0  0  0  0  0  0  0  0  0  0  0  0
  -30.3316   18.3310  -18.5270 C   0  0  0  0  0  0  0  0  0  0  0  0
  -29.8705   17.1680  -18.1331 N   0  0  0  0  0  0  0  0  0  0  0  0
  -30.2681   17.0838  -16.8095 C   0  0  0  0  0  0  0  0  0  0  0  0
  -30.0929   16.0906  -15.8283 C   0  0  0  0  0  0  0  0  0  0  0  0
  -29.4337   14.9487  -16.0504 N   0  0  0  0  0  0  0  0  0  0  0  0
  -30.6186   16.3185  -14.6048 N   0  0  0  0  0  0  0  0  0  0  0  0
  -31.2740   17.4643  -14.3884 C   0  0  0  0  0  0  0  0  0  0  0  0
  -31.5039   18.4704  -15.2311 N   0  0  0  0  0  0  0  0  0  0  0  0
  -30.9698   18.2147  -16.4360 C   0  0  0  0  0  0  0  0  0  0  0  0
  1 10  1  0  0  0  0
  2  3  2  0  0  0  0
  2  1  1  0  0  0  0
  3  4  1  0  0  0  0
  4 10  2  0  0  0  0
  4  5  1  0  0  0  0
  5  7  2  0  0  0  0
  6  5  1  0  0  0  0
  7  8  1  0  0  0  0
  9  8  2  0  0  0  0
 10  9  1  0  0  0  0
M  END
>  <CHROM.1>
-30.51738838,17.26905206,-16.35118265,1.72718769,1.02317900,-0.99004961

>  <Name>
lig.pdb

>  <RI>
0

>  <Rbt.Current_Directory>
/home/itssahil/PROJECTS/Mol_Feturizer/New_Systems/rnas/5uza

>  <Rbt.Executable>
rbdock ($Id: //depot/dev/client3/rdock/2013.1/src/exe/rbdock.cxx#4 $)

>  <Rbt.Library>
libRbt.so (2013.1, Build901 2013/11/27)

>  <Rbt.Parameter_File>
/export/apps/rDock/src/rDock_2013.1_src/data/scripts/dock_solv.prm

>  <Rbt.Receptor>
prm/blind_docking_60.prm

>  <SCORE>
-33.8005

>  <SCORE.INTER>
-33.8005

>  <SCORE.INTER.CONST>
1

>  <SCORE.INTER.POLAR>
-3.03763

>  <SCORE.INTER.ROT>
0

>  <SCORE.INTER.SOLV>
12.2414

>  <SCORE.INTER.VDW>
-20.0887

>  <SCORE.INTER.norm>
-3.38005

>  <SCORE.INTRA>
0

>  <SCORE.INTRA.DIHEDRAL>
0

>  <SCORE.INTRA.DIHEDRAL.0>
0

>  <SCORE.INTRA.POLAR>
0

>  <SCORE.INTRA.POLAR.0>
0

>  <SCORE.INTRA.REPUL>
0

>  <SCORE.INTRA.REPUL.0>
0

>  <SCORE.INTRA.SOLV>
0

>  <SCORE.INTRA.SOLV.lig_0>
-14.8845

>  <SCORE.INTRA.VDW>
0

>  <SCORE.INTRA.VDW.0>
0

>  <SCORE.INTRA.norm>
0

>  <SCORE.RESTR>
0

>  <SCORE.RESTR.CAVITY>
0

>  <SCORE.RESTR.norm>
0

>  <SCORE.SYSTEM>
0

>  <SCORE.SYSTEM.CONST>
0

>  <SCORE.SYSTEM.DIHEDRAL>
0

>  <SCORE.SYSTEM.SOLV>
0

>  <SCORE.SYSTEM.norm>
0

>  <SCORE.heavy>
10

>  <SCORE.norm>
-3.38005

>  <RMSD>
0.302

$$$$
lig.pdb
 OpenBabel11021811523D
libRbt.so/2013.1/901 2013/11/27
 10 11  0  0  0  0  0  0  0  0999 V2000
  -31.0112   19.0181  -17.5612 N   0  0  0  0  0  0  0  0  0  0  0  0
  -30.3323   18.3330  -18.5312 C   0  0  0  0  0  0  0  0  0  0  0  0
  -29.8688   17.1720  -18.1342 N   0  0  0  0  0  0  0  0  0  0  0  0
  -30.2699   17.0887  -16.8115 C   0  0  0  0  0  0  0  0  0  0  0  0
  -30.0945   16.0976  -15.8283 C   0  0  0  0  0  0  0  0  0  0  0  0
  -29.4314   14.9572  -16.0468 N   0  0  0  0  0  0  0  0  0  0  0  0
  -30.6242   16.3259  -14.6066 N   0  0  0  0  0  0  0  0  0  0  0  0
  -31.2836   17.4701  -14.3938 C   0  0  0  0  0  0  0  0  0  0  0  0
  -31.5140   18.4743  -15.2387 N   0  0  0  0  0  0  0  0  0  0  0  0
  -30.9758   18.2182  -16.4417 C   0  0  0  0  0  0  0  0  0  0  0  0
  1 10  1  0  0  0  0
  2  3  2  0  0  0  0
  2  1  1  0  0  0  0
  3  4  1  0  0  0  0
  4 10  2  0  0  0  0
  4  5  1  0  0  0  0
  5  7  2  0  0  0  0
  6  5  1  0  0  0  0
  7  8  1  0  0  0  0
  9  8  2  0  0  0  0
 10  9  1  0  0  0  0
M  END
>  <CHROM.1>
-30.52095894,17.27396268,-16.35417326,1.72578773,1.01926205,-0.99043014

>  <Name>
lig.pdb

>  <RI>
0

>  <Rbt.Current_Directory>
/home/itssahil/PROJECTS/Mol_Feturizer/New_Systems/rnas/5uza

>  <Rbt.Executable>
rbdock ($Id: //depot/dev/client3/rdock/2013.1/src/exe/rbdock.cxx#4 $)

>  <Rbt.Library>
libRbt.so (2013.1, Build901 2013/11/27)

>  <Rbt.Parameter_File>
/export/apps/rDock/src/rDock_2013.1_src/data/scripts/dock_solv.prm

>  <Rbt.Receptor>
prm/pocket_docking_5.prm

>  <SCORE>
-33.8012

>  <SCORE.INTER>
-33.8013

>  <SCORE.INTER.CONST>
1

>  <SCORE.INTER.POLAR>
-3.03763

>  <SCORE.INTER.ROT>
0

>  <SCORE.INTER.SOLV>
12.2399

>  <SCORE.INTER.VDW>
-20.0887

>  <SCORE.INTER.norm>
-3.38013

>  <SCORE.INTRA>
0

>  <SCORE.INTRA.DIHEDRAL>
0

>  <SCORE.INTRA.DIHEDRAL.0>
0

>  <SCORE.INTRA.POLAR>
0

>  <SCORE.INTRA.POLAR.0>
0

>  <SCORE.INTRA.REPUL>
0

>  <SCORE.INTRA.REPUL.0>
0

>  <SCORE.INTRA.SOLV>
0

>  <SCORE.INTRA.SOLV.lig_0>
-14.8845

>  <SCORE.INTRA.VDW>
0

>  <SCORE.INTRA.VDW.0>
0

>  <SCORE.INTRA.norm>
0

>  <SCORE.RESTR>
0.000125822

>  <SCORE.RESTR.CAVITY>
0.000125822

>  <SCORE.RESTR.norm>
1.25822e-05

>  <SCORE.SYSTEM>
0

>  <SCORE.SYSTEM.CONST>
0

>  <SCORE.SYSTEM.DIHEDRAL>
0

>  <SCORE.SYSTEM.SOLV>
0

>  <SCORE.SYSTEM.norm>
0

>  <SCORE.heavy>
10

>  <SCORE.norm>
-3.38012

>  <RMSD>
0.302

$$$$
lig.pdb
 OpenBabel11021811523D
libRbt.so/2013.1/901 2013/11/27
 10 11  0  0  0  0  0  0  0  0999 V2000
  -30.9951   19.0099  -17.5626 N   0  0  0  0  0  0  0  0  0  0  0  0
  -30.3151   18.3214  -18.5293 C   0  0  0  0  0  0  0  0  0  0  0  0
  -29.8571   17.1592  -18.1294 N   0  0  0  0  0  0  0  0  0  0  0  0
  -30.2632   17.0788  -16.8080 C   0  0  0  0  0  0  0  0  0  0  0  0
  -30.0948   16.0881  -15.8232 C   0  0  0  0  0  0  0  0  0  0  0  0
  -29.4349   14.9452  -16.0380 N   0  0  0  0  0  0  0  0  0  0  0  0
  -30.6282   16.3196  -14.6036 N   0  0  0  0  0  0  0  0  0  0  0  0
  -31.2843   17.4663  -14.3944 C   0  0  0  0  0  0  0  0  0  0  0  0
  -31.5081   18.4704  -15.2413 N   0  0  0  0  0  0  0  0  0  0  0  0
  -30.9666   18.2111  -16.4420 C   0  0  0  0  0  0  0  0  0  0  0  0
  1 10  1  0  0  0  0
  2  3  2  0  0  0  0
  2  1  1  0  0  0  0
  3  4  1  0  0  0  0
  4 10  2  0  0  0  0
  4  5  1  0  0  0  0
  5  7  2  0  0  0  0
  6  5  1  0  0  0  0
  7  8  1  0  0  0  0
  9  8  2  0  0  0  0
 10  9  1  0  0  0  0
M  END
>  <CHROM.1>
-30.51528788,17.26539692,-16.35185609,1.71637320,1.02018324,-0.98348677

>  <Name>
lig.pdb

>  <RI>
1.17431e+07

>  <Rbt.Current_Directory>
/home/itssahil/PROJECTS/Mol_Feturizer/New_Systems/rnas/5uza

>  <Rbt.Executable>
rbdock ($Id: //depot/dev/client3/rdock/2013.1/src/exe/rbdock.cxx#4 $)

>  <Rbt.Library>
libRbt.so (2013.1, Build901 2013/11/27)

>  <Rbt.Parameter_File>
/export/apps/rDock/src/rDock_2013.1_src/data/scripts/dock_solv.prm

>  <Rbt.Receptor>
prm/pocket_docking_6.prm

>  <SCORE>
-33.8003

>  <SCORE.INTER>
-33.8003

>  <SCORE.INTER.CONST>
1

>  <SCORE.INTER.POLAR>
-3.03763

>  <SCORE.INTER.ROT>
0

>  <SCORE.INTER.SOLV>
12.2524

>  <SCORE.INTER.VDW>
-20.0923

>  <SCORE.INTER.norm>
-3.38003

>  <SCORE.INTRA>
0

>  <SCORE.INTRA.DIHEDRAL>
0

>  <SCORE.INTRA.DIHEDRAL.0>
0

>  <SCORE.INTRA.POLAR>
0

>  <SCORE.INTRA.POLAR.0>
0

>  <SCORE.INTRA.REPUL>
0

>  <SCORE.INTRA.REPUL.0>
0

>  <SCORE.INTRA.SOLV>
0

>  <SCORE.INTRA.SOLV.lig_0>
-14.8845

>  <SCORE.INTRA.VDW>
0

>  <SCORE.INTRA.VDW.0>
0

>  <SCORE.INTRA.norm>
0

>  <SCORE.RESTR>
0

>  <SCORE.RESTR.CAVITY>
0

>  <SCORE.RESTR.norm>
0

>  <SCORE.SYSTEM>
0

>  <SCORE.SYSTEM.CONST>
0

>  <SCORE.SYSTEM.DIHEDRAL>
0

>  <SCORE.SYSTEM.SOLV>
0

>  <SCORE.SYSTEM.norm>
0

>  <SCORE.heavy>
10

>  <SCORE.norm>
-3.38003

>  <RMSD>
0.302

$$$$
lig.pdb
 OpenBabel11021811523D
libRbt.so/2013.1/901 2013/11/27
 10 11  0  0  0  0  0  0  0  0999 V2000
  -31.0044   19.0095  -17.5703 N   0  0  0  0  0  0  0  0  0  0  0  0
  -30.3253   18.3172  -18.5349 C   0  0  0  0  0  0  0  0  0  0  0  0
  -29.8651   17.1576  -18.1303 N   0  0  0  0  0  0  0  0  0  0  0  0
  -30.2686   17.0830  -16.8078 C   0  0  0  0  0  0  0  0  0  0  0  0
  -30.0971   16.0974  -15.8184 C   0  0  0  0  0  0  0  0  0  0  0  0
  -29.4361   14.9543  -16.0290 N   0  0  0  0  0  0  0  0  0  0  0  0
  -30.6285   16.3341  -14.5990 N   0  0  0  0  0  0  0  0  0  0  0  0
  -31.2857   17.4809  -14.3942 C   0  0  0  0  0  0  0  0  0  0  0  0
  -31.5125   18.4806  -15.2455 N   0  0  0  0  0  0  0  0  0  0  0  0
  -30.9728   18.2162  -16.4460 C   0  0  0  0  0  0  0  0  0  0  0  0
  1 10  1  0  0  0  0
  2  3  2  0  0  0  0
  2  1  1  0  0  0  0
  3  4  1  0  0  0  0
  4 10  2  0  0  0  0
  4  5  1  0  0  0  0
  5  7  2  0  0  0  0
  6  5  1  0  0  0  0
  7  8  1  0  0  0  0
  9  8  2  0  0  0  0
 10  9  1  0  0  0  0
M  END
>  <CHROM.1>
-30.52007374,17.27154426,-16.35204517,1.72072140,1.02010982,-0.99205325

>  <Name>
lig.pdb

>  <RI>
2.12818e+07

>  <Rbt.Current_Directory>
/home/itssahil/PROJECTS/Mol_Feturizer/New_Systems/rnas/5uza

>  <Rbt.Executable>
rbdock ($Id: //depot/dev/client3/rdock/2013.1/src/exe/rbdock.cxx#4 $)

>  <Rbt.Library>
libRbt.so (2013.1, Build901 2013/11/27)

>  <Rbt.Parameter_File>
/export/apps/rDock/src/rDock_2013.1_src/data/scripts/dock_solv.prm

>  <Rbt.Receptor>
prm/pocket_docking_7.prm

>  <SCORE>
-33.802

>  <SCORE.INTER>
-33.8023

>  <SCORE.INTER.CONST>
1

>  <SCORE.INTER.POLAR>
-3.03763

>  <SCORE.INTER.ROT>
0

>  <SCORE.INTER.SOLV>
12.2461

>  <SCORE.INTER.VDW>
-20.0915

>  <SCORE.INTER.norm>
-3.38023

>  <SCORE.INTRA>
0

>  <SCORE.INTRA.DIHEDRAL>
0

>  <SCORE.INTRA.DIHEDRAL.0>
0

>  <SCORE.INTRA.POLAR>
0

>  <SCORE.INTRA.POLAR.0>
0

>  <SCORE.INTRA.REPUL>
0

>  <SCORE.INTRA.REPUL.0>
0

>  <SCORE.INTRA.SOLV>
0

>  <SCORE.INTRA.SOLV.lig_0>
-14.8845

>  <SCORE.INTRA.VDW>
0

>  <SCORE.INTRA.VDW.0>
0

>  <SCORE.INTRA.norm>
0

>  <SCORE.RESTR>
0.000279669

>  <SCORE.RESTR.CAVITY>
0.000279669

>  <SCORE.RESTR.norm>
2.79669e-05

>  <SCORE.SYSTEM>
0

>  <SCORE.SYSTEM.CONST>
0

>  <SCORE.SYSTEM.DIHEDRAL>
0

>  <SCORE.SYSTEM.SOLV>
0

>  <SCORE.SYSTEM.norm>
0

>  <SCORE.heavy>
10

>  <SCORE.norm>
-3.3802

>  <RMSD>
0.302

$$$$
lig.pdb
 OpenBabel11021811523D
libRbt.so/2013.1/901 2013/11/27
 10 11  0  0  0  0  0  0  0  0999 V2000
  -31.0017   19.0111  -17.5596 N   0  0  0  0  0  0  0  0  0  0  0  0
  -30.3250   18.3230  -18.5290 C   0  0  0  0  0  0  0  0  0  0  0  0
  -29.8656   17.1607  -18.1311 N   0  0  0  0  0  0  0  0  0  0  0  0
  -30.2670   17.0798  -16.8084 C   0  0  0  0  0  0  0  0  0  0  0  0
  -30.0951   16.0888  -15.8244 C   0  0  0  0  0  0  0  0  0  0  0  0
  -29.4359   14.9460  -16.0420 N   0  0  0  0  0  0  0  0  0  0  0  0
  -30.6241   16.3199  -14.6029 N   0  0  0  0  0  0  0  0  0  0  0  0
  -31.2795   17.4665  -14.3910 C   0  0  0  0  0  0  0  0  0  0  0  0
  -31.5064   18.4708  -15.2368 N   0  0  0  0  0  0  0  0  0  0  0  0
  -30.9691   18.2120  -16.4395 C   0  0  0  0  0  0  0  0  0  0  0  0
  1 10  1  0  0  0  0
  2  3  2  0  0  0  0
  2  1  1  0  0  0  0
  3  4  1  0  0  0  0
  4 10  2  0  0  0  0
  4  5  1  0  0  0  0
  5  7  2  0  0  0  0
  6  5  1  0  0  0  0
  7  8  1  0  0  0  0
  9  8  2  0  0  0  0
 10  9  1  0  0  0  0
M  END
>  <CHROM.1>
-30.51747321,17.26626230,-16.35122169,1.72209802,1.02209849,-0.98803697

>  <Name>
lig.pdb

>  <RI>
1.17775e+07

>  <Rbt.Current_Directory>
/home/itssahil/PROJECTS/Mol_Feturizer/New_Systems/rnas/5uza

>  <Rbt.Executable>
rbdock ($Id: //depot/dev/client3/rdock/2013.1/src/exe/rbdock.cxx#4 $)

>  <Rbt.Library>
libRbt.so (2013.1, Build901 2013/11/27)

>  <Rbt.Parameter_File>
/export/apps/rDock/src/rDock_2013.1_src/data/scripts/dock_solv.prm

>  <Rbt.Receptor>
prm/pocket_docking_8.prm

>  <SCORE>
-33.8017

>  <SCORE.INTER>
-33.802

>  <SCORE.INTER.CONST>
1

>  <SCORE.INTER.POLAR>
-3.03763

>  <SCORE.INTER.ROT>
0

>  <SCORE.INTER.SOLV>
12.2476

>  <SCORE.INTER.VDW>
-20.0918

>  <SCORE.INTER.norm>
-3.3802

>  <SCORE.INTRA>
0

>  <SCORE.INTRA.DIHEDRAL>
0

>  <SCORE.INTRA.DIHEDRAL.0>
0

>  <SCORE.INTRA.POLAR>
0

>  <SCORE.INTRA.POLAR.0>
0

>  <SCORE.INTRA.REPUL>
0

>  <SCORE.INTRA.REPUL.0>
0

>  <SCORE.INTRA.SOLV>
0

>  <SCORE.INTRA.SOLV.lig_0>
-14.8845

>  <SCORE.INTRA.VDW>
0

>  <SCORE.INTRA.VDW.0>
0

>  <SCORE.INTRA.norm>
0

>  <SCORE.RESTR>
0.000291511

>  <SCORE.RESTR.CAVITY>
0.000291511

>  <SCORE.RESTR.norm>
2.91511e-05

>  <SCORE.SYSTEM>
0

>  <SCORE.SYSTEM.CONST>
0

>  <SCORE.SYSTEM.DIHEDRAL>
0

>  <SCORE.SYSTEM.SOLV>
0

>  <SCORE.SYSTEM.norm>
0

>  <SCORE.heavy>
10

>  <SCORE.norm>
-3.38017

>  <RMSD>
0.302

$$$$
lig.pdb
 OpenBabel11021811523D
libRbt.so/2013.1/901 2013/11/27
 10 11  0  0  0  0  0  0  0  0999 V2000
  -30.9967   19.0222  -17.5603 N   0  0  0  0  0  0  0  0  0  0  0  0
  -30.3206   18.3344  -18.5302 C   0  0  0  0  0  0  0  0  0  0  0  0
  -29.8621   17.1714  -18.1332 N   0  0  0  0  0  0  0  0  0  0  0  0
  -30.2635   17.0898  -16.8105 C   0  0  0  0  0  0  0  0  0  0  0  0
  -30.0923   16.0979  -15.8274 C   0  0  0  0  0  0  0  0  0  0  0  0
  -29.4339   14.9548  -16.0458 N   0  0  0  0  0  0  0  0  0  0  0  0
  -30.6211   16.3284  -14.6056 N   0  0  0  0  0  0  0  0  0  0  0  0
  -31.2756   17.4753  -14.3928 C   0  0  0  0  0  0  0  0  0  0  0  0
  -31.5018   18.4805  -15.2378 N   0  0  0  0  0  0  0  0  0  0  0  0
  -30.9647   18.2222  -16.4407 C   0  0  0  0  0  0  0  0  0  0  0  0
  1 10  1  0  0  0  0
  2  3  2  0  0  0  0
  2  1  1  0  0  0  0
  3  4  1  0  0  0  0
  4 10  2  0  0  0  0
  4  5  1  0  0  0  0
  5  7  2  0  0  0  0
  6  5  1  0  0  0  0
  7  8  1  0  0  0  0
  9  8  2  0  0  0  0
 10  9  1  0  0  0  0
M  END
>  <CHROM.1>
-30.51379352,17.27605769,-16.35321117,1.72137488,1.02272802,-0.98664297

>  <Name>
lig.pdb

>  <RI>
2.26746e+07

>  <Rbt.Current_Directory>
/home/itssahil/PROJECTS/Mol_Feturizer/New_Systems/rnas/5uza

>  <Rbt.Executable>
rbdock ($Id: //depot/dev/client3/rdock/2013.1/src/exe/rbdock.cxx#4 $)

>  <Rbt.Library>
libRbt.so (2013.1, Build901 2013/11/27)

>  <Rbt.Parameter_File>
/export/apps/rDock/src/rDock_2013.1_src/data/scripts/dock_solv.prm

>  <Rbt.Receptor>
prm/blind_docking_100.prm

>  <SCORE>
-33.7997

>  <SCORE.INTER>
-33.7999

>  <SCORE.INTER.CONST>
1

>  <SCORE.INTER.POLAR>
-3.03763

>  <SCORE.INTER.ROT>
0

>  <SCORE.INTER.SOLV>
12.2476

>  <SCORE.INTER.VDW>
-20.0903

>  <SCORE.INTER.norm>
-3.37999

>  <SCORE.INTRA>
0

>  <SCORE.INTRA.DIHEDRAL>
0

>  <SCORE.INTRA.DIHEDRAL.0>
0

>  <SCORE.INTRA.POLAR>
0

>  <SCORE.INTRA.POLAR.0>
0

>  <SCORE.INTRA.REPUL>
0

>  <SCORE.INTRA.REPUL.0>
0

>  <SCORE.INTRA.SOLV>
0

>  <SCORE.INTRA.SOLV.lig_0>
-14.8845

>  <SCORE.INTRA.VDW>
0

>  <SCORE.INTRA.VDW.0>
0

>  <SCORE.INTRA.norm>
0

>  <SCORE.RESTR>
0.000131314

>  <SCORE.RESTR.CAVITY>
0.000131314

>  <SCORE.RESTR.norm>
1.31314e-05

>  <SCORE.SYSTEM>
0

>  <SCORE.SYSTEM.CONST>
0

>  <SCORE.SYSTEM.DIHEDRAL>
0

>  <SCORE.SYSTEM.SOLV>
0

>  <SCORE.SYSTEM.norm>
0

>  <SCORE.heavy>
10

>  <SCORE.norm>
-3.37997

>  <RMSD>
0.303

$$$$
lig.pdb
 OpenBabel11021811523D
libRbt.so/2013.1/901 2013/11/27
 10 11  0  0  0  0  0  0  0  0999 V2000
  -31.0024   19.0182  -17.5598 N   0  0  0  0  0  0  0  0  0  0  0  0
  -30.3301   18.3280  -18.5307 C   0  0  0  0  0  0  0  0  0  0  0  0
  -29.8710   17.1655  -18.1329 N   0  0  0  0  0  0  0  0  0  0  0  0
  -30.2680   17.0867  -16.8087 C   0  0  0  0  0  0  0  0  0  0  0  0
  -30.0942   16.0967  -15.8242 C   0  0  0  0  0  0  0  0  0  0  0  0
  -29.4374   14.9526  -16.0427 N   0  0  0  0  0  0  0  0  0  0  0  0
  -30.6187   16.3299  -14.6012 N   0  0  0  0  0  0  0  0  0  0  0  0
  -31.2717   17.4778  -14.3884 C   0  0  0  0  0  0  0  0  0  0  0  0
  -31.5000   18.4814  -15.2346 N   0  0  0  0  0  0  0  0  0  0  0  0
  -30.9672   18.2204  -16.4388 C   0  0  0  0  0  0  0  0  0  0  0  0
  1 10  1  0  0  0  0
  2  3  2  0  0  0  0
  2  1  1  0  0  0  0
  3  4  1  0  0  0  0
  4 10  2  0  0  0  0
  4  5  1  0  0  0  0
  5  7  2  0  0  0  0
  6  5  1  0  0  0  0
  7  8  1  0  0  0  0
  9  8  2  0  0  0  0
 10  9  1  0  0  0  0
M  END
>  <CHROM.1>
-30.51663347,17.27410325,-16.35097969,1.72602650,1.02519674,-0.99258441

>  <Name>
lig.pdb

>  <RI>
0

>  <Rbt.Current_Directory>
/home/itssahil/PROJECTS/Mol_Feturizer/New_Systems/rnas/5uza

>  <Rbt.Executable>
rbdock ($Id: //depot/dev/client3/rdock/2013.1/src/exe/rbdock.cxx#4 $)

>  <Rbt.Library>
libRbt.so (2013.1, Build901 2013/11/27)

>  <Rbt.Parameter_File>
/export/apps/rDock/src/rDock_2013.1_src/data/scripts/dock_solv.prm

>  <Rbt.Receptor>
prm/pocket_docking_5.prm

>  <SCORE>
-33.801

>  <SCORE.INTER>
-33.8013

>  <SCORE.INTER.CONST>
1

>  <SCORE.INTER.POLAR>
-3.03763

>  <SCORE.INTER.ROT>
0

>  <SCORE.INTER.SOLV>
12.2456

>  <SCORE.INTER.VDW>
-20.0906

>  <SCORE.INTER.norm>
-3.38013

>  <SCORE.INTRA>
0

>  <SCORE.INTRA.DIHEDRAL>
0

>  <SCORE.INTRA.DIHEDRAL.0>
0

>  <SCORE.INTRA.POLAR>
0

>  <SCORE.INTRA.POLAR.0>
0

>  <SCORE.INTRA.REPUL>
0

>  <SCORE.INTRA.REPUL.0>
0

>  <SCORE.INTRA.SOLV>
0

>  <SCORE.INTRA.SOLV.lig_0>
-14.8845

>  <SCORE.INTRA.VDW>
0

>  <SCORE.INTRA.VDW.0>
0

>  <SCORE.INTRA.norm>
0

>  <SCORE.RESTR>
0.000299867

>  <SCORE.RESTR.CAVITY>
0.000299867

>  <SCORE.RESTR.norm>
2.99867e-05

>  <SCORE.SYSTEM>
0

>  <SCORE.SYSTEM.CONST>
0

>  <SCORE.SYSTEM.DIHEDRAL>
0

>  <SCORE.SYSTEM.SOLV>
0

>  <SCORE.SYSTEM.norm>
0

>  <SCORE.heavy>
10

>  <SCORE.norm>
-3.3801

>  <RMSD>
0.303

$$$$
lig.pdb
 OpenBabel11021811523D
libRbt.so/2013.1/901 2013/11/27
 10 11  0  0  0  0  0  0  0  0999 V2000
  -30.9949   19.0152  -17.5725 N   0  0  0  0  0  0  0  0  0  0  0  0
  -30.3153   18.3217  -18.5360 C   0  0  0  0  0  0  0  0  0  0  0  0
  -29.8580   17.1611  -18.1306 N   0  0  0  0  0  0  0  0  0  0  0  0
  -30.2640   17.0873  -16.8088 C   0  0  0  0  0  0  0  0  0  0  0  0
  -30.0962   16.1012  -15.8193 C   0  0  0  0  0  0  0  0  0  0  0  0
  -29.4369   14.9569  -16.0287 N   0  0  0  0  0  0  0  0  0  0  0  0
  -30.6293   16.3388  -14.6008 N   0  0  0  0  0  0  0  0  0  0  0  0
  -31.2847   17.4869  -14.3970 C   0  0  0  0  0  0  0  0  0  0  0  0
  -31.5081   18.4870  -15.2487 N   0  0  0  0  0  0  0  0  0  0  0  0
  -30.9667   18.2217  -16.4482 C   0  0  0  0  0  0  0  0  0  0  0  0
  1 10  1  0  0  0  0
  2  3  2  0  0  0  0
  2  1  1  0  0  0  0
  3  4  1  0  0  0  0
  4 10  2  0  0  0  0
  4  5  1  0  0  0  0
  5  7  2  0  0  0  0
  6  5  1  0  0  0  0
  7  8  1  0  0  0  0
  9  8  2  0  0  0  0
 10  9  1  0  0  0  0
M  END
>  <CHROM.1>
-30.51599349,17.27621186,-16.35353133,1.71590246,1.02069523,-0.98786973

>  <Name>
lig.pdb

>  <RI>
1.17431e+07

>  <Rbt.Current_Directory>
/home/itssahil/PROJECTS/Mol_Feturizer/New_Systems/rnas/5uza

>  <Rbt.Executable>
rbdock ($Id: //depot/dev/client3/rdock/2013.1/src/exe/rbdock.cxx#4 $)

>  <Rbt.Library>
libRbt.so (2013.1, Build901 2013/11/27)

>  <Rbt.Parameter_File>
/export/apps/rDock/src/rDock_2013.1_src/data/scripts/dock_solv.prm

>  <Rbt.Receptor>
prm/pocket_docking_6.prm

>  <SCORE>
-33.801

>  <SCORE.INTER>
-33.8015

>  <SCORE.INTER.CONST>
1

>  <SCORE.INTER.POLAR>
-3.03763

>  <SCORE.INTER.ROT>
0

>  <SCORE.INTER.SOLV>
12.2521

>  <SCORE.INTER.VDW>
-20.0929

>  <SCORE.INTER.norm>
-3.38015

>  <SCORE.INTRA>
0

>  <SCORE.INTRA.DIHEDRAL>
0

>  <SCORE.INTRA.DIHEDRAL.0>
0

>  <SCORE.INTRA.POLAR>
0

>  <SCORE.INTRA.POLAR.0>
0

>  <SCORE.INTRA.REPUL>
0

>  <SCORE.INTRA.REPUL.0>
0

>  <SCORE.INTRA.SOLV>
0

>  <SCORE.INTRA.SOLV.lig_0>
-14.8845

>  <SCORE.INTRA.VDW>
0

>  <SCORE.INTRA.VDW.0>
0

>  <SCORE.INTRA.norm>
0

>  <SCORE.RESTR>
0.000439075

>  <SCORE.RESTR.CAVITY>
0.000439075

>  <SCORE.RESTR.norm>
4.39075e-05

>  <SCORE.SYSTEM>
0

>  <SCORE.SYSTEM.CONST>
0

>  <SCORE.SYSTEM.DIHEDRAL>
0

>  <SCORE.SYSTEM.SOLV>
0

>  <SCORE.SYSTEM.norm>
0

>  <SCORE.heavy>
10

>  <SCORE.norm>
-3.3801

>  <RMSD>
0.303

$$$$
lig.pdb
 OpenBabel11021811523D
libRbt.so/2013.1/901 2013/11/27
 10 11  0  0  0  0  0  0  0  0999 V2000
  -31.0039   19.0183  -17.5623 N   0  0  0  0  0  0  0  0  0  0  0  0
  -30.3254   18.3314  -18.5311 C   0  0  0  0  0  0  0  0  0  0  0  0
  -29.8653   17.1693  -18.1332 N   0  0  0  0  0  0  0  0  0  0  0  0
  -30.2683   17.0873  -16.8111 C   0  0  0  0  0  0  0  0  0  0  0  0
  -30.0968   16.0960  -15.8274 C   0  0  0  0  0  0  0  0  0  0  0  0
  -29.4362   14.9540  -16.0448 N   0  0  0  0  0  0  0  0  0  0  0  0
  -30.6276   16.3259  -14.6065 N   0  0  0  0  0  0  0  0  0  0  0  0
  -31.2844   17.4717  -14.3948 C   0  0  0  0  0  0  0  0  0  0  0  0
  -31.5112   18.4763  -15.2403 N   0  0  0  0  0  0  0  0  0  0  0  0
  -30.9721   18.2186  -16.4425 C   0  0  0  0  0  0  0  0  0  0  0  0
  1 10  1  0  0  0  0
  2  3  2  0  0  0  0
  2  1  1  0  0  0  0
  3  4  1  0  0  0  0
  4 10  2  0  0  0  0
  4  5  1  0  0  0  0
  5  7  2  0  0  0  0
  6  5  1  0  0  0  0
  7  8  1  0  0  0  0
  9  8  2  0  0  0  0
 10  9  1  0  0  0  0
M  END
>  <CHROM.1>
-30.51960901,17.27329556,-16.35414902,1.72104570,1.02056207,-0.98661180

>  <Name>
lig.pdb

>  <RI>
0

>  <Rbt.Current_Directory>
/home/itssahil/PROJECTS/Mol_Feturizer/New_Systems/rnas/5uza

>  <Rbt.Executable>
rbdock ($Id: //depot/dev/client3/rdock/2013.1/src/exe/rbdock.cxx#4 $)

>  <Rbt.Library>
libRbt.so (2013.1, Build901 2013/11/27)

>  <Rbt.Parameter_File>
/export/apps/rDock/src/rDock_2013.1_src/data/scripts/dock_solv.prm

>  <Rbt.Receptor>
prm/blind_docking_60.prm

>  <SCORE>
-33.8022

>  <SCORE.INTER>
-33.8025

>  <SCORE.INTER.CONST>
1

>  <SCORE.INTER.POLAR>
-3.03763

>  <SCORE.INTER.ROT>
0

>  <SCORE.INTER.SOLV>
12.2503

>  <SCORE.INTER.VDW>
-20.093

>  <SCORE.INTER.norm>
-3.38025

>  <SCORE.INTRA>
0

>  <SCORE.INTRA.DIHEDRAL>
0

>  <SCORE.INTRA.DIHEDRAL.0>
0

>  <SCORE.INTRA.POLAR>
0

>  <SCORE.INTRA.POLAR.0>
0

>  <SCORE.INTRA.REPUL>
0

>  <SCORE.INTRA.REPUL.0>
0

>  <SCORE.INTRA.SOLV>
0

>  <SCORE.INTRA.SOLV.lig_0>
-14.8845

>  <SCORE.INTRA.VDW>
0

>  <SCORE.INTRA.VDW.0>
0

>  <SCORE.INTRA.norm>
0

>  <SCORE.RESTR>
0.000269206

>  <SCORE.RESTR.CAVITY>
0.000269206

>  <SCORE.RESTR.norm>
2.69206e-05

>  <SCORE.SYSTEM>
0

>  <SCORE.SYSTEM.CONST>
0

>  <SCORE.SYSTEM.DIHEDRAL>
0

>  <SCORE.SYSTEM.SOLV>
0

>  <SCORE.SYSTEM.norm>
0

>  <SCORE.heavy>
10

>  <SCORE.norm>
-3.38022

>  <RMSD>
0.304

$$$$
lig.pdb
 OpenBabel11021811523D
libRbt.so/2013.1/901 2013/11/27
 10 11  0  0  0  0  0  0  0  0999 V2000
  -31.0076   19.0150  -17.5610 N   0  0  0  0  0  0  0  0  0  0  0  0
  -30.3290   18.3283  -18.5300 C   0  0  0  0  0  0  0  0  0  0  0  0
  -29.8680   17.1666  -18.1321 N   0  0  0  0  0  0  0  0  0  0  0  0
  -30.2704   17.0847  -16.8097 C   0  0  0  0  0  0  0  0  0  0  0  0
  -30.0978   16.0936  -15.8259 C   0  0  0  0  0  0  0  0  0  0  0  0
  -29.4365   14.9520  -16.0433 N   0  0  0  0  0  0  0  0  0  0  0  0
  -30.6283   16.3235  -14.6048 N   0  0  0  0  0  0  0  0  0  0  0  0
  -31.2857   17.4689  -14.3931 C   0  0  0  0  0  0  0  0  0  0  0  0
  -31.5136   18.4731  -15.2388 N   0  0  0  0  0  0  0  0  0  0  0  0
  -30.9747   18.2156  -16.4411 C   0  0  0  0  0  0  0  0  0  0  0  0
  1 10  1  0  0  0  0
  2  3  2  0  0  0  0
  2  1  1  0  0  0  0
  3  4  1  0  0  0  0
  4 10  2  0  0  0  0
  4  5  1  0  0  0  0
  5  7  2  0  0  0  0
  6  5  1  0  0  0  0
  7  8  1  0  0  0  0
  9  8  2  0  0  0  0
 10  9  1  0  0  0  0
M  END
>  <CHROM.1>
-30.52163157,17.27057203,-16.35272080,1.72241443,1.02023836,-0.98800119

>  <Name>
lig.pdb

>  <RI>
0

>  <Rbt.Current_Directory>
/home/itssahil/PROJECTS/Mol_Feturizer/New_Systems/rnas/5uza

>  <Rbt.Executable>
rbdock ($Id: //depot/dev/client3/rdock/2013.1/src/exe/rbdock.cxx#4 $)

>  <Rbt.Library>
libRbt.so (2013.1, Build901 2013/11/27)

>  <Rbt.Parameter_File>
/export/apps/rDock/src/rDock_2013.1_src/data/scripts/dock_solv.prm

>  <Rbt.Receptor>
prm/blind_docking_60.prm

>  <SCORE>
-33.8016

>  <SCORE.INTER>
-33.8016

>  <SCORE.INTER.CONST>
1

>  <SCORE.INTER.POLAR>
-3.03763

>  <SCORE.INTER.ROT>
0

>  <SCORE.INTER.SOLV>
12.2489

>  <SCORE.INTER.VDW>
-20.092

>  <SCORE.INTER.norm>
-3.38016

>  <SCORE.INTRA>
0

>  <SCORE.INTRA.DIHEDRAL>
0

>  <SCORE.INTRA.DIHEDRAL.0>
0

>  <SCORE.INTRA.POLAR>
0

>  <SCORE.INTRA.POLAR.0>
0

>  <SCORE.INTRA.REPUL>
0

>  <SCORE.INTRA.REPUL.0>
0

>  <SCORE.INTRA.SOLV>
0

>  <SCORE.INTRA.SOLV.lig_0>
-14.8845

>  <SCORE.INTRA.VDW>
0

>  <SCORE.INTRA.VDW.0>
0

>  <SCORE.INTRA.norm>
0

>  <SCORE.RESTR>
0

>  <SCORE.RESTR.CAVITY>
0

>  <SCORE.RESTR.norm>
0

>  <SCORE.SYSTEM>
0

>  <SCORE.SYSTEM.CONST>
0

>  <SCORE.SYSTEM.DIHEDRAL>
0

>  <SCORE.SYSTEM.SOLV>
0

>  <SCORE.SYSTEM.norm>
0

>  <SCORE.heavy>
10

>  <SCORE.norm>
-3.38016

>  <RMSD>
0.304

$$$$
lig.pdb
 OpenBabel11021811523D
libRbt.so/2013.1/901 2013/11/27
 10 11  0  0  0  0  0  0  0  0999 V2000
  -31.0090   19.0153  -17.5654 N   0  0  0  0  0  0  0  0  0  0  0  0
  -30.3348   18.3235  -18.5338 C   0  0  0  0  0  0  0  0  0  0  0  0
  -29.8744   17.1627  -18.1326 N   0  0  0  0  0  0  0  0  0  0  0  0
  -30.2726   17.0868  -16.8086 C   0  0  0  0  0  0  0  0  0  0  0  0
  -30.0984   16.0995  -15.8214 C   0  0  0  0  0  0  0  0  0  0  0  0
  -29.4398   14.9559  -16.0362 N   0  0  0  0  0  0  0  0  0  0  0  0
  -30.6244   16.3352  -14.5994 N   0  0  0  0  0  0  0  0  0  0  0  0
  -31.2792   17.4826  -14.3903 C   0  0  0  0  0  0  0  0  0  0  0  0
  -31.5082   18.4838  -15.2392 N   0  0  0  0  0  0  0  0  0  0  0  0
  -30.9738   18.2204  -16.4423 C   0  0  0  0  0  0  0  0  0  0  0  0
  1 10  1  0  0  0  0
  2  3  2  0  0  0  0
  2  1  1  0  0  0  0
  3  4  1  0  0  0  0
  4 10  2  0  0  0  0
  4  5  1  0  0  0  0
  5  7  2  0  0  0  0
  6  5  1  0  0  0  0
  7  8  1  0  0  0  0
  9  8  2  0  0  0  0
 10  9  1  0  0  0  0
M  END
>  <CHROM.1>
-30.52197008,17.27501318,-16.35155437,1.72593979,1.02347000,-0.99508537

>  <Name>
lig.pdb

>  <RI>
0

>  <Rbt.Current_Directory>
/home/itssahil/PROJECTS/Mol_Feturizer/New_Systems/rnas/5uza

>  <Rbt.Executable>
rbdock ($Id: //depot/dev/client3/rdock/2013.1/src/exe/rbdock.cxx#4 $)

>  <Rbt.Library>
libRbt.so (2013.1, Build901 2013/11/27)

>  <Rbt.Parameter_File>
/export/apps/rDock/src/rDock_2013.1_src/data/scripts/dock_solv.prm

>  <Rbt.Receptor>
prm/blind_docking_60.prm

>  <SCORE>
-33.8019

>  <SCORE.INTER>
-33.8022

>  <SCORE.INTER.CONST>
1

>  <SCORE.INTER.POLAR>
-3.03763

>  <SCORE.INTER.ROT>
0

>  <SCORE.INTER.SOLV>
12.2465

>  <SCORE.INTER.VDW>
-20.0916

>  <SCORE.INTER.norm>
-3.38022

>  <SCORE.INTRA>
0

>  <SCORE.INTRA.DIHEDRAL>
0

>  <SCORE.INTRA.DIHEDRAL.0>
0

>  <SCORE.INTRA.POLAR>
0

>  <SCORE.INTRA.POLAR.0>
0

>  <SCORE.INTRA.REPUL>
0

>  <SCORE.INTRA.REPUL.0>
0

>  <SCORE.INTRA.SOLV>
0

>  <SCORE.INTRA.SOLV.lig_0>
-14.8845

>  <SCORE.INTRA.VDW>
0

>  <SCORE.INTRA.VDW.0>
0

>  <SCORE.INTRA.norm>
0

>  <SCORE.RESTR>
0.000287217

>  <SCORE.RESTR.CAVITY>
0.000287217

>  <SCORE.RESTR.norm>
2.87217e-05

>  <SCORE.SYSTEM>
0

>  <SCORE.SYSTEM.CONST>
0

>  <SCORE.SYSTEM.DIHEDRAL>
0

>  <SCORE.SYSTEM.SOLV>
0

>  <SCORE.SYSTEM.norm>
0

>  <SCORE.heavy>
10

>  <SCORE.norm>
-3.38019

>  <RMSD>
0.304

$$$$
lig.pdb
 OpenBabel11021811523D
libRbt.so/2013.1/901 2013/11/27
 10 11  0  0  0  0  0  0  0  0999 V2000
  -30.9982   19.0168  -17.5568 N   0  0  0  0  0  0  0  0  0  0  0  0
  -30.3240   18.3279  -18.5274 C   0  0  0  0  0  0  0  0  0  0  0  0
  -29.8665   17.1644  -18.1307 N   0  0  0  0  0  0  0  0  0  0  0  0
  -30.2665   17.0835  -16.8075 C   0  0  0  0  0  0  0  0  0  0  0  0
  -30.0955   16.0916  -15.8244 C   0  0  0  0  0  0  0  0  0  0  0  0
  -29.4388   14.9477  -16.0434 N   0  0  0  0  0  0  0  0  0  0  0  0
  -30.6227   16.3230  -14.6022 N   0  0  0  0  0  0  0  0  0  0  0  0
  -31.2756   17.4707  -14.3888 C   0  0  0  0  0  0  0  0  0  0  0  0
  -31.5015   18.4760  -15.2337 N   0  0  0  0  0  0  0  0  0  0  0  0
  -30.9660   18.2169  -16.4372 C   0  0  0  0  0  0  0  0  0  0  0  0
  1 10  1  0  0  0  0
  2  3  2  0  0  0  0
  2  1  1  0  0  0  0
  3  4  1  0  0  0  0
  4 10  2  0  0  0  0
  4  5  1  0  0  0  0
  5  7  2  0  0  0  0
  6  5  1  0  0  0  0
  7  8  1  0  0  0  0
  9  8  2  0  0  0  0
 10  9  1  0  0  0  0
M  END
>  <CHROM.1>
-30.51611267,17.27021411,-16.35001256,1.72180052,1.02436442,-0.98717567

>  <Name>
lig.pdb

>  <RI>
0

>  <Rbt.Current_Directory>
/home/itssahil/PROJECTS/Mol_Feturizer/New_Systems/rnas/5uza

>  <Rbt.Executable>
rbdock ($Id: //depot/dev/client3/rdock/2013.1/src/exe/rbdock.cxx#4 $)

>  <Rbt.Library>
libRbt.so (2013.1, Build901 2013/11/27)

>  <Rbt.Parameter_File>
/export/apps/rDock/src/rDock_2013.1_src/data/scripts/dock_solv.prm

>  <Rbt.Receptor>
prm/blind_docking_60.prm

>  <SCORE>
-33.8

>  <SCORE.INTER>
-33.8

>  <SCORE.INTER.CONST>
1

>  <SCORE.INTER.POLAR>
-3.03763

>  <SCORE.INTER.ROT>
0

>  <SCORE.INTER.SOLV>
12.2523

>  <SCORE.INTER.VDW>
-20.092

>  <SCORE.INTER.norm>
-3.38

>  <SCORE.INTRA>
0

>  <SCORE.INTRA.DIHEDRAL>
0

>  <SCORE.INTRA.DIHEDRAL.0>
0

>  <SCORE.INTRA.POLAR>
0

>  <SCORE.INTRA.POLAR.0>
0

>  <SCORE.INTRA.REPUL>
0

>  <SCORE.INTRA.REPUL.0>
0

>  <SCORE.INTRA.SOLV>
0

>  <SCORE.INTRA.SOLV.lig_0>
-14.8845

>  <SCORE.INTRA.VDW>
0

>  <SCORE.INTRA.VDW.0>
0

>  <SCORE.INTRA.norm>
0

>  <SCORE.RESTR>
0

>  <SCORE.RESTR.CAVITY>
0

>  <SCORE.RESTR.norm>
0

>  <SCORE.SYSTEM>
0

>  <SCORE.SYSTEM.CONST>
0

>  <SCORE.SYSTEM.DIHEDRAL>
0

>  <SCORE.SYSTEM.SOLV>
0

>  <SCORE.SYSTEM.norm>
0

>  <SCORE.heavy>
10

>  <SCORE.norm>
-3.38

>  <RMSD>
0.304

$$$$
lig.pdb
 OpenBabel11021811523D
libRbt.so/2013.1/901 2013/11/27
 10 11  0  0  0  0  0  0  0  0999 V2000
  -31.0110   19.0119  -17.5673 N   0  0  0  0  0  0  0  0  0  0  0  0
  -30.3338   18.3232  -18.5359 C   0  0  0  0  0  0  0  0  0  0  0  0
  -29.8731   17.1620  -18.1365 N   0  0  0  0  0  0  0  0  0  0  0  0
  -30.2740   17.0824  -16.8136 C   0  0  0  0  0  0  0  0  0  0  0  0
  -30.1008   16.0929  -15.8284 C   0  0  0  0  0  0  0  0  0  0  0  0
  -29.4404   14.9506  -16.0446 N   0  0  0  0  0  0  0  0  0  0  0  0
  -30.6298   16.3250  -14.6071 N   0  0  0  0  0  0  0  0  0  0  0  0
  -31.2864   17.4712  -14.3965 C   0  0  0  0  0  0  0  0  0  0  0  0
  -31.5147   18.4742  -15.2436 N   0  0  0  0  0  0  0  0  0  0  0  0
  -30.9773   18.2143  -16.4461 C   0  0  0  0  0  0  0  0  0  0  0  0
  1 10  1  0  0  0  0
  2  3  2  0  0  0  0
  2  1  1  0  0  0  0
  3  4  1  0  0  0  0
  4 10  2  0  0  0  0
  4  5  1  0  0  0  0
  5  7  2  0  0  0  0
  6  5  1  0  0  0  0
  7  8  1  0  0  0  0
  9  8  2  0  0  0  0
 10  9  1  0  0  0  0
M  END
>  <CHROM.1>
-30.52462012,17.26920940,-16.35664982,1.72363373,1.02129649,-0.99069137

>  <Name>
lig.pdb

>  <RI>
9.24451e+06

>  <Rbt.Current_Directory>
/home/itssahil/PROJECTS/Mol_Feturizer/New_Systems/rnas/5uza

>  <Rbt.Executable>
rbdock ($Id: //depot/dev/client3/rdock/2013.1/src/exe/rbdock.cxx#4 $)

>  <Rbt.Library>
libRbt.so (2013.1, Build901 2013/11/27)

>  <Rbt.Parameter_File>
/export/apps/rDock/src/rDock_2013.1_src/data/scripts/dock_solv.prm

>  <Rbt.Receptor>
prm/pocket_docking_4.prm

>  <SCORE>
-33.8083

>  <SCORE.INTER>
-33.8083

>  <SCORE.INTER.CONST>
1

>  <SCORE.INTER.POLAR>
-3.03763

>  <SCORE.INTER.ROT>
0

>  <SCORE.INTER.SOLV>
12.2508

>  <SCORE.INTER.VDW>
-20.097

>  <SCORE.INTER.norm>
-3.38083

>  <SCORE.INTRA>
0

>  <SCORE.INTRA.DIHEDRAL>
0

>  <SCORE.INTRA.DIHEDRAL.0>
0

>  <SCORE.INTRA.POLAR>
0

>  <SCORE.INTRA.POLAR.0>
0

>  <SCORE.INTRA.REPUL>
0

>  <SCORE.INTRA.REPUL.0>
0

>  <SCORE.INTRA.SOLV>
0

>  <SCORE.INTRA.SOLV.lig_0>
-14.8845

>  <SCORE.INTRA.VDW>
0

>  <SCORE.INTRA.VDW.0>
0

>  <SCORE.INTRA.norm>
0

>  <SCORE.RESTR>
0

>  <SCORE.RESTR.CAVITY>
0

>  <SCORE.RESTR.norm>
0

>  <SCORE.SYSTEM>
0

>  <SCORE.SYSTEM.CONST>
0

>  <SCORE.SYSTEM.DIHEDRAL>
0

>  <SCORE.SYSTEM.SOLV>
0

>  <SCORE.SYSTEM.norm>
0

>  <SCORE.heavy>
10

>  <SCORE.norm>
-3.38083

>  <RMSD>
0.304

$$$$
lig.pdb
 OpenBabel11021811523D
libRbt.so/2013.1/901 2013/11/27
 10 11  0  0  0  0  0  0  0  0999 V2000
  -30.9996   19.0079  -17.5570 N   0  0  0  0  0  0  0  0  0  0  0  0
  -30.3229   18.3200  -18.5265 C   0  0  0  0  0  0  0  0  0  0  0  0
  -29.8654   17.1566  -18.1296 N   0  0  0  0  0  0  0  0  0  0  0  0
  -30.2683   17.0746  -16.8074 C   0  0  0  0  0  0  0  0  0  0  0  0
  -30.0988   16.0822  -15.8245 C   0  0  0  0  0  0  0  0  0  0  0  0
  -29.4409   14.9388  -16.0428 N   0  0  0  0  0  0  0  0  0  0  0  0
  -30.6287   16.3124  -14.6033 N   0  0  0  0  0  0  0  0  0  0  0  0
  -31.2828   17.4596  -14.3906 C   0  0  0  0  0  0  0  0  0  0  0  0
  -31.5075   18.4653  -15.2354 N   0  0  0  0  0  0  0  0  0  0  0  0
  -30.9693   18.2073  -16.4379 C   0  0  0  0  0  0  0  0  0  0  0  0
  1 10  1  0  0  0  0
  2  3  2  0  0  0  0
  2  1  1  0  0  0  0
  3  4  1  0  0  0  0
  4 10  2  0  0  0  0
  4  5  1  0  0  0  0
  5  7  2  0  0  0  0
  6  5  1  0  0  0  0
  7  8  1  0  0  0  0
  9  8  2  0  0  0  0
 10  9  1  0  0  0  0
M  END
>  <CHROM.1>
-30.51900826,17.26084063,-16.35027847,1.71899720,1.02264353,-0.98415477

>  <Name>
lig.pdb

>  <RI>
1.17431e+07

>  <Rbt.Current_Directory>
/home/itssahil/PROJECTS/Mol_Feturizer/New_Systems/rnas/5uza

>  <Rbt.Executable>
rbdock ($Id: //depot/dev/client3/rdock/2013.1/src/exe/rbdock.cxx#4 $)

>  <Rbt.Library>
libRbt.so (2013.1, Build901 2013/11/27)

>  <Rbt.Parameter_File>
/export/apps/rDock/src/rDock_2013.1_src/data/scripts/dock_solv.prm

>  <Rbt.Receptor>
prm/pocket_docking_6.prm

>  <SCORE>
-33.801

>  <SCORE.INTER>
-33.801

>  <SCORE.INTER.CONST>
1

>  <SCORE.INTER.POLAR>
-3.03763

>  <SCORE.INTER.ROT>
0

>  <SCORE.INTER.SOLV>
12.257

>  <SCORE.INTER.VDW>
-20.0942

>  <SCORE.INTER.norm>
-3.3801

>  <SCORE.INTRA>
0

>  <SCORE.INTRA.DIHEDRAL>
0

>  <SCORE.INTRA.DIHEDRAL.0>
0

>  <SCORE.INTRA.POLAR>
0

>  <SCORE.INTRA.POLAR.0>
0

>  <SCORE.INTRA.REPUL>
0

>  <SCORE.INTRA.REPUL.0>
0

>  <SCORE.INTRA.SOLV>
0

>  <SCORE.INTRA.SOLV.lig_0>
-14.8845

>  <SCORE.INTRA.VDW>
0

>  <SCORE.INTRA.VDW.0>
0

>  <SCORE.INTRA.norm>
0

>  <SCORE.RESTR>
0

>  <SCORE.RESTR.CAVITY>
0

>  <SCORE.RESTR.norm>
0

>  <SCORE.SYSTEM>
0

>  <SCORE.SYSTEM.CONST>
0

>  <SCORE.SYSTEM.DIHEDRAL>
0

>  <SCORE.SYSTEM.SOLV>
0

>  <SCORE.SYSTEM.norm>
0

>  <SCORE.heavy>
10

>  <SCORE.norm>
-3.3801

>  <RMSD>
0.304

$$$$
lig.pdb
 OpenBabel11021811523D
libRbt.so/2013.1/901 2013/11/27
 10 11  0  0  0  0  0  0  0  0999 V2000
  -30.9917   19.0172  -17.5680 N   0  0  0  0  0  0  0  0  0  0  0  0
  -30.3153   18.3236  -18.5336 C   0  0  0  0  0  0  0  0  0  0  0  0
  -29.8598   17.1614  -18.1307 N   0  0  0  0  0  0  0  0  0  0  0  0
  -30.2637   17.0866  -16.8083 C   0  0  0  0  0  0  0  0  0  0  0  0
  -30.0963   16.0987  -15.8205 C   0  0  0  0  0  0  0  0  0  0  0  0
  -29.4399   14.9533  -16.0327 N   0  0  0  0  0  0  0  0  0  0  0  0
  -30.6267   16.3358  -14.6007 N   0  0  0  0  0  0  0  0  0  0  0  0
  -31.2793   17.4850  -14.3942 C   0  0  0  0  0  0  0  0  0  0  0  0
  -31.5019   18.4868  -15.2440 N   0  0  0  0  0  0  0  0  0  0  0  0
  -30.9633   18.2220  -16.4449 C   0  0  0  0  0  0  0  0  0  0  0  0
  1 10  1  0  0  0  0
  2  3  2  0  0  0  0
  2  1  1  0  0  0  0
  3  4  1  0  0  0  0
  4 10  2  0  0  0  0
  4  5  1  0  0  0  0
  5  7  2  0  0  0  0
  6  5  1  0  0  0  0
  7  8  1  0  0  0  0
  9  8  2  0  0  0  0
 10  9  1  0  0  0  0
M  END
>  <CHROM.1>
-30.51444721,17.27539551,-16.35231530,1.71637150,1.02349567,-0.98683176

>  <Name>
lig.pdb

>  <RI>
1.17775e+07

>  <Rbt.Current_Directory>
/home/itssahil/PROJECTS/Mol_Feturizer/New_Systems/rnas/5uza

>  <Rbt.Executable>
rbdock ($Id: //depot/dev/client3/rdock/2013.1/src/exe/rbdock.cxx#4 $)

>  <Rbt.Library>
libRbt.so (2013.1, Build901 2013/11/27)

>  <Rbt.Parameter_File>
/export/apps/rDock/src/rDock_2013.1_src/data/scripts/dock_solv.prm

>  <Rbt.Receptor>
prm/pocket_docking_8.prm

>  <SCORE>
-33.8012

>  <SCORE.INTER>
-33.8015

>  <SCORE.INTER.CONST>
1

>  <SCORE.INTER.POLAR>
-3.03763

>  <SCORE.INTER.ROT>
0

>  <SCORE.INTER.SOLV>
12.2564

>  <SCORE.INTER.VDW>
-20.0944

>  <SCORE.INTER.norm>
-3.38015

>  <SCORE.INTRA>
0

>  <SCORE.INTRA.DIHEDRAL>
0

>  <SCORE.INTRA.DIHEDRAL.0>
0

>  <SCORE.INTRA.POLAR>
0

>  <SCORE.INTRA.POLAR.0>
0

>  <SCORE.INTRA.REPUL>
0

>  <SCORE.INTRA.REPUL.0>
0

>  <SCORE.INTRA.SOLV>
0

>  <SCORE.INTRA.SOLV.lig_0>
-14.8845

>  <SCORE.INTRA.VDW>
0

>  <SCORE.INTRA.VDW.0>
0

>  <SCORE.INTRA.norm>
0

>  <SCORE.RESTR>
0.000304222

>  <SCORE.RESTR.CAVITY>
0.000304222

>  <SCORE.RESTR.norm>
3.04222e-05

>  <SCORE.SYSTEM>
0

>  <SCORE.SYSTEM.CONST>
0

>  <SCORE.SYSTEM.DIHEDRAL>
0

>  <SCORE.SYSTEM.SOLV>
0

>  <SCORE.SYSTEM.norm>
0

>  <SCORE.heavy>
10

>  <SCORE.norm>
-3.38012

>  <RMSD>
0.304

$$$$
lig.pdb
 OpenBabel11021811523D
libRbt.so/2013.1/901 2013/11/27
 10 11  0  0  0  0  0  0  0  0999 V2000
  -31.0225   19.0115  -17.5553 N   0  0  0  0  0  0  0  0  0  0  0  0
  -30.3479   18.3257  -18.5277 C   0  0  0  0  0  0  0  0  0  0  0  0
  -29.8833   17.1646  -18.1322 N   0  0  0  0  0  0  0  0  0  0  0  0
  -30.2789   17.0821  -16.8077 C   0  0  0  0  0  0  0  0  0  0  0  0
  -30.0998   16.0914  -15.8249 C   0  0  0  0  0  0  0  0  0  0  0  0
  -29.4382   14.9506  -16.0456 N   0  0  0  0  0  0  0  0  0  0  0  0
  -30.6244   16.3205  -14.6011 N   0  0  0  0  0  0  0  0  0  0  0  0
  -31.2823   17.4650  -14.3860 C   0  0  0  0  0  0  0  0  0  0  0  0
  -31.5158   18.4690  -15.2305 N   0  0  0  0  0  0  0  0  0  0  0  0
  -30.9828   18.2121  -16.4356 C   0  0  0  0  0  0  0  0  0  0  0  0
  1 10  1  0  0  0  0
  2  3  2  0  0  0  0
  2  1  1  0  0  0  0
  3  4  1  0  0  0  0
  4 10  2  0  0  0  0
  4  5  1  0  0  0  0
  5  7  2  0  0  0  0
  6  5  1  0  0  0  0
  7  8  1  0  0  0  0
  9  8  2  0  0  0  0
 10  9  1  0  0  0  0
M  END
>  <CHROM.1>
-30.52796999,17.26770440,-16.34949705,1.73202771,1.02190879,-0.99620662

>  <Name>
lig.pdb

>  <RI>
2.26746e+07

>  <Rbt.Current_Directory>
/home/itssahil/PROJECTS/Mol_Feturizer/New_Systems/rnas/5uza

>  <Rbt.Executable>
rbdock ($Id: //depot/dev/client3/rdock/2013.1/src/exe/rbdock.cxx#4 $)

>  <Rbt.Library>
libRbt.so (2013.1, Build901 2013/11/27)

>  <Rbt.Parameter_File>
/export/apps/rDock/src/rDock_2013.1_src/data/scripts/dock_solv.prm

>  <Rbt.Receptor>
prm/blind_docking_100.prm

>  <SCORE>
-33.7964

>  <SCORE.INTER>
-33.7964

>  <SCORE.INTER.CONST>
1

>  <SCORE.INTER.POLAR>
-3.03763

>  <SCORE.INTER.ROT>
0

>  <SCORE.INTER.SOLV>
12.24

>  <SCORE.INTER.VDW>
-20.0855

>  <SCORE.INTER.norm>
-3.37964

>  <SCORE.INTRA>
0

>  <SCORE.INTRA.DIHEDRAL>
0

>  <SCORE.INTRA.DIHEDRAL.0>
0

>  <SCORE.INTRA.POLAR>
0

>  <SCORE.INTRA.POLAR.0>
0

>  <SCORE.INTRA.REPUL>
0

>  <SCORE.INTRA.REPUL.0>
0

>  <SCORE.INTRA.SOLV>
0

>  <SCORE.INTRA.SOLV.lig_0>
-14.8845

>  <SCORE.INTRA.VDW>
0

>  <SCORE.INTRA.VDW.0>
0

>  <SCORE.INTRA.norm>
0

>  <SCORE.RESTR>
0

>  <SCORE.RESTR.CAVITY>
0

>  <SCORE.RESTR.norm>
0

>  <SCORE.SYSTEM>
0

>  <SCORE.SYSTEM.CONST>
0

>  <SCORE.SYSTEM.DIHEDRAL>
0

>  <SCORE.SYSTEM.SOLV>
0

>  <SCORE.SYSTEM.norm>
0

>  <SCORE.heavy>
10

>  <SCORE.norm>
-3.37964

>  <RMSD>
0.305

$$$$
lig.pdb
 OpenBabel11021811523D
libRbt.so/2013.1/901 2013/11/27
 10 11  0  0  0  0  0  0  0  0999 V2000
  -31.0114   19.0192  -17.5666 N   0  0  0  0  0  0  0  0  0  0  0  0
  -30.3344   18.3296  -18.5347 C   0  0  0  0  0  0  0  0  0  0  0  0
  -29.8729   17.1691  -18.1341 N   0  0  0  0  0  0  0  0  0  0  0  0
  -30.2732   17.0910  -16.8108 C   0  0  0  0  0  0  0  0  0  0  0  0
  -30.0991   16.1028  -15.8245 C   0  0  0  0  0  0  0  0  0  0  0  0
  -29.4383   14.9605  -16.0395 N   0  0  0  0  0  0  0  0  0  0  0  0
  -30.6276   16.3362  -14.6032 N   0  0  0  0  0  0  0  0  0  0  0  0
  -31.2847   17.4823  -14.3938 C   0  0  0  0  0  0  0  0  0  0  0  0
  -31.5138   18.4841  -15.2420 N   0  0  0  0  0  0  0  0  0  0  0  0
  -30.9769   18.2230  -16.4444 C   0  0  0  0  0  0  0  0  0  0  0  0
  1 10  1  0  0  0  0
  2  3  2  0  0  0  0
  2  1  1  0  0  0  0
  3  4  1  0  0  0  0
  4 10  2  0  0  0  0
  4  5  1  0  0  0  0
  5  7  2  0  0  0  0
  6  5  1  0  0  0  0
  7  8  1  0  0  0  0
  9  8  2  0  0  0  0
 10  9  1  0  0  0  0
M  END
>  <CHROM.1>
-30.52368414,17.27823092,-16.35401942,1.72484206,1.02115728,-0.99297875

>  <Name>
lig.pdb

>  <RI>
2.26746e+07

>  <Rbt.Current_Directory>
/home/itssahil/PROJECTS/Mol_Feturizer/New_Systems/rnas/5uza

>  <Rbt.Executable>
rbdock ($Id: //depot/dev/client3/rdock/2013.1/src/exe/rbdock.cxx#4 $)

>  <Rbt.Library>
libRbt.so (2013.1, Build901 2013/11/27)

>  <Rbt.Parameter_File>
/export/apps/rDock/src/rDock_2013.1_src/data/scripts/dock_solv.prm

>  <Rbt.Receptor>
prm/blind_docking_100.prm

>  <SCORE>
-33.8021

>  <SCORE.INTER>
-33.8024

>  <SCORE.INTER.CONST>
1

>  <SCORE.INTER.POLAR>
-3.03763

>  <SCORE.INTER.ROT>
0

>  <SCORE.INTER.SOLV>
12.2469

>  <SCORE.INTER.VDW>
-20.0918

>  <SCORE.INTER.norm>
-3.38024

>  <SCORE.INTRA>
0

>  <SCORE.INTRA.DIHEDRAL>
0

>  <SCORE.INTRA.DIHEDRAL.0>
0

>  <SCORE.INTRA.POLAR>
0

>  <SCORE.INTRA.POLAR.0>
0

>  <SCORE.INTRA.REPUL>
0

>  <SCORE.INTRA.REPUL.0>
0

>  <SCORE.INTRA.SOLV>
0

>  <SCORE.INTRA.SOLV.lig_0>
-14.8845

>  <SCORE.INTRA.VDW>
0

>  <SCORE.INTRA.VDW.0>
0

>  <SCORE.INTRA.norm>
0

>  <SCORE.RESTR>
0.000260351

>  <SCORE.RESTR.CAVITY>
0.000260351

>  <SCORE.RESTR.norm>
2.60351e-05

>  <SCORE.SYSTEM>
0

>  <SCORE.SYSTEM.CONST>
0

>  <SCORE.SYSTEM.DIHEDRAL>
0

>  <SCORE.SYSTEM.SOLV>
0

>  <SCORE.SYSTEM.norm>
0

>  <SCORE.heavy>
10

>  <SCORE.norm>
-3.38021

>  <RMSD>
0.305

$$$$
lig.pdb
 OpenBabel11021811523D
libRbt.so/2013.1/901 2013/11/27
 10 11  0  0  0  0  0  0  0  0999 V2000
  -31.0075   19.0120  -17.5636 N   0  0  0  0  0  0  0  0  0  0  0  0
  -30.3260   18.3256  -18.5308 C   0  0  0  0  0  0  0  0  0  0  0  0
  -29.8657   17.1640  -18.1316 N   0  0  0  0  0  0  0  0  0  0  0  0
  -30.2716   17.0819  -16.8103 C   0  0  0  0  0  0  0  0  0  0  0  0
  -30.1013   16.0909  -15.8261 C   0  0  0  0  0  0  0  0  0  0  0  0
  -29.4391   14.9495  -16.0417 N   0  0  0  0  0  0  0  0  0  0  0  0
  -30.6351   16.3206  -14.6064 N   0  0  0  0  0  0  0  0  0  0  0  0
  -31.2935   17.4658  -14.3965 C   0  0  0  0  0  0  0  0  0  0  0  0
  -31.5194   18.4699  -15.2427 N   0  0  0  0  0  0  0  0  0  0  0  0
  -30.9773   18.2126  -16.4436 C   0  0  0  0  0  0  0  0  0  0  0  0
  1 10  1  0  0  0  0
  2  3  2  0  0  0  0
  2  1  1  0  0  0  0
  3  4  1  0  0  0  0
  4 10  2  0  0  0  0
  4  5  1  0  0  0  0
  5  7  2  0  0  0  0
  6  5  1  0  0  0  0
  7  8  1  0  0  0  0
  9  8  2  0  0  0  0
 10  9  1  0  0  0  0
M  END
>  <CHROM.1>
-30.52413016,17.26773316,-16.35403059,1.71852139,1.01848294,-0.98466407

>  <Name>
lig.pdb

>  <RI>
0

>  <Rbt.Current_Directory>
/home/itssahil/PROJECTS/Mol_Feturizer/New_Systems/rnas/5uza

>  <Rbt.Executable>
rbdock ($Id: //depot/dev/client3/rdock/2013.1/src/exe/rbdock.cxx#4 $)

>  <Rbt.Library>
libRbt.so (2013.1, Build901 2013/11/27)

>  <Rbt.Parameter_File>
/export/apps/rDock/src/rDock_2013.1_src/data/scripts/dock_solv.prm

>  <Rbt.Receptor>
prm/blind_docking_80.prm

>  <SCORE>
-33.8016

>  <SCORE.INTER>
-33.8016

>  <SCORE.INTER.CONST>
1

>  <SCORE.INTER.POLAR>
-3.03763

>  <SCORE.INTER.ROT>
0

>  <SCORE.INTER.SOLV>
12.2561

>  <SCORE.INTER.VDW>
-20.0943

>  <SCORE.INTER.norm>
-3.38016

>  <SCORE.INTRA>
0

>  <SCORE.INTRA.DIHEDRAL>
0

>  <SCORE.INTRA.DIHEDRAL.0>
0

>  <SCORE.INTRA.POLAR>
0

>  <SCORE.INTRA.POLAR.0>
0

>  <SCORE.INTRA.REPUL>
0

>  <SCORE.INTRA.REPUL.0>
0

>  <SCORE.INTRA.SOLV>
0

>  <SCORE.INTRA.SOLV.lig_0>
-14.8845

>  <SCORE.INTRA.VDW>
0

>  <SCORE.INTRA.VDW.0>
0

>  <SCORE.INTRA.norm>
0

>  <SCORE.RESTR>
2.93107e-05

>  <SCORE.RESTR.CAVITY>
2.93107e-05

>  <SCORE.RESTR.norm>
2.93107e-06

>  <SCORE.SYSTEM>
0

>  <SCORE.SYSTEM.CONST>
0

>  <SCORE.SYSTEM.DIHEDRAL>
0

>  <SCORE.SYSTEM.SOLV>
0

>  <SCORE.SYSTEM.norm>
0

>  <SCORE.heavy>
10

>  <SCORE.norm>
-3.38016

>  <RMSD>
0.305

$$$$
lig.pdb
 OpenBabel11021811523D
libRbt.so/2013.1/901 2013/11/27
 10 11  0  0  0  0  0  0  0  0999 V2000
  -31.0062   19.0149  -17.5716 N   0  0  0  0  0  0  0  0  0  0  0  0
  -30.3278   18.3219  -18.5363 C   0  0  0  0  0  0  0  0  0  0  0  0
  -29.8681   17.1621  -18.1315 N   0  0  0  0  0  0  0  0  0  0  0  0
  -30.2712   17.0882  -16.8088 C   0  0  0  0  0  0  0  0  0  0  0  0
  -30.1000   16.1027  -15.8193 C   0  0  0  0  0  0  0  0  0  0  0  0
  -29.4397   14.9592  -16.0298 N   0  0  0  0  0  0  0  0  0  0  0  0
  -30.6308   16.3400  -14.5998 N   0  0  0  0  0  0  0  0  0  0  0  0
  -31.2873   17.4873  -14.3950 C   0  0  0  0  0  0  0  0  0  0  0  0
  -31.5138   18.4869  -15.2465 N   0  0  0  0  0  0  0  0  0  0  0  0
  -30.9746   18.2218  -16.4471 C   0  0  0  0  0  0  0  0  0  0  0  0
  1 10  1  0  0  0  0
  2  3  2  0  0  0  0
  2  1  1  0  0  0  0
  3  4  1  0  0  0  0
  4 10  2  0  0  0  0
  4  5  1  0  0  0  0
  5  7  2  0  0  0  0
  6  5  1  0  0  0  0
  7  8  1  0  0  0  0
  9  8  2  0  0  0  0
 10  9  1  0  0  0  0
M  END
>  <CHROM.1>
-30.52246516,17.27695454,-16.35306492,1.72067656,1.02078207,-0.99228108

>  <Name>
lig.pdb

>  <RI>
0

>  <Rbt.Current_Directory>
/home/itssahil/PROJECTS/Mol_Feturizer/New_Systems/rnas/5uza

>  <Rbt.Executable>
rbdock ($Id: //depot/dev/client3/rdock/2013.1/src/exe/rbdock.cxx#4 $)

>  <Rbt.Library>
libRbt.so (2013.1, Build901 2013/11/27)

>  <Rbt.Parameter_File>
/export/apps/rDock/src/rDock_2013.1_src/data/scripts/dock_solv.prm

>  <Rbt.Receptor>
prm/pocket_docking_5.prm

>  <SCORE>
-33.802

>  <SCORE.INTER>
-33.8021

>  <SCORE.INTER.CONST>
1

>  <SCORE.INTER.POLAR>
-3.03763

>  <SCORE.INTER.ROT>
0

>  <SCORE.INTER.SOLV>
12.2505

>  <SCORE.INTER.VDW>
-20.0928

>  <SCORE.INTER.norm>
-3.38021

>  <SCORE.INTRA>
0

>  <SCORE.INTRA.DIHEDRAL>
0

>  <SCORE.INTRA.DIHEDRAL.0>
0

>  <SCORE.INTRA.POLAR>
0

>  <SCORE.INTRA.POLAR.0>
0

>  <SCORE.INTRA.REPUL>
0

>  <SCORE.INTRA.REPUL.0>
0

>  <SCORE.INTRA.SOLV>
0

>  <SCORE.INTRA.SOLV.lig_0>
-14.8845

>  <SCORE.INTRA.VDW>
0

>  <SCORE.INTRA.VDW.0>
0

>  <SCORE.INTRA.norm>
0

>  <SCORE.RESTR>
7.8978e-05

>  <SCORE.RESTR.CAVITY>
7.8978e-05

>  <SCORE.RESTR.norm>
7.8978e-06

>  <SCORE.SYSTEM>
0

>  <SCORE.SYSTEM.CONST>
0

>  <SCORE.SYSTEM.DIHEDRAL>
0

>  <SCORE.SYSTEM.SOLV>
0

>  <SCORE.SYSTEM.norm>
0

>  <SCORE.heavy>
10

>  <SCORE.norm>
-3.3802

>  <RMSD>
0.305

$$$$
lig.pdb
 OpenBabel11021811523D
libRbt.so/2013.1/901 2013/11/27
 10 11  0  0  0  0  0  0  0  0999 V2000
  -31.0117   19.0120  -17.5607 N   0  0  0  0  0  0  0  0  0  0  0  0
  -30.3355   18.3231  -18.5298 C   0  0  0  0  0  0  0  0  0  0  0  0
  -29.8745   17.1618  -18.1307 N   0  0  0  0  0  0  0  0  0  0  0  0
  -30.2744   17.0825  -16.8074 C   0  0  0  0  0  0  0  0  0  0  0  0
  -30.1005   16.0931  -15.8223 C   0  0  0  0  0  0  0  0  0  0  0  0
  -29.4404   14.9506  -16.0389 N   0  0  0  0  0  0  0  0  0  0  0  0
  -30.6284   16.3254  -14.6005 N   0  0  0  0  0  0  0  0  0  0  0  0
  -31.2846   17.4717  -14.3896 C   0  0  0  0  0  0  0  0  0  0  0  0
  -31.5135   18.4746  -15.2365 N   0  0  0  0  0  0  0  0  0  0  0  0
  -30.9772   18.2145  -16.4395 C   0  0  0  0  0  0  0  0  0  0  0  0
  1 10  1  0  0  0  0
  2  3  2  0  0  0  0
  2  1  1  0  0  0  0
  3  4  1  0  0  0  0
  4 10  2  0  0  0  0
  4  5  1  0  0  0  0
  5  7  2  0  0  0  0
  6  5  1  0  0  0  0
  7  8  1  0  0  0  0
  9  8  2  0  0  0  0
 10  9  1  0  0  0  0
M  END
>  <CHROM.1>
-30.52455303,17.26935859,-16.35030520,1.72485992,1.02189639,-0.99186040

>  <Name>
lig.pdb

>  <RI>
0

>  <Rbt.Current_Directory>
/home/itssahil/PROJECTS/Mol_Feturizer/New_Systems/rnas/5uza

>  <Rbt.Executable>
rbdock ($Id: //depot/dev/client3/rdock/2013.1/src/exe/rbdock.cxx#4 $)

>  <Rbt.Library>
libRbt.so (2013.1, Build901 2013/11/27)

>  <Rbt.Parameter_File>
/export/apps/rDock/src/rDock_2013.1_src/data/scripts/dock_solv.prm

>  <Rbt.Receptor>
prm/pocket_docking_5.prm

>  <SCORE>
-33.8006

>  <SCORE.INTER>
-33.8006

>  <SCORE.INTER.CONST>
1

>  <SCORE.INTER.POLAR>
-3.03763

>  <SCORE.INTER.ROT>
0

>  <SCORE.INTER.SOLV>
12.2494

>  <SCORE.INTER.VDW>
-20.0914

>  <SCORE.INTER.norm>
-3.38006

>  <SCORE.INTRA>
0

>  <SCORE.INTRA.DIHEDRAL>
0

>  <SCORE.INTRA.DIHEDRAL.0>
0

>  <SCORE.INTRA.POLAR>
0

>  <SCORE.INTRA.POLAR.0>
0

>  <SCORE.INTRA.REPUL>
0

>  <SCORE.INTRA.REPUL.0>
0

>  <SCORE.INTRA.SOLV>
0

>  <SCORE.INTRA.SOLV.lig_0>
-14.8845

>  <SCORE.INTRA.VDW>
0

>  <SCORE.INTRA.VDW.0>
0

>  <SCORE.INTRA.norm>
0

>  <SCORE.RESTR>
0

>  <SCORE.RESTR.CAVITY>
0

>  <SCORE.RESTR.norm>
0

>  <SCORE.SYSTEM>
0

>  <SCORE.SYSTEM.CONST>
0

>  <SCORE.SYSTEM.DIHEDRAL>
0

>  <SCORE.SYSTEM.SOLV>
0

>  <SCORE.SYSTEM.norm>
0

>  <SCORE.heavy>
10

>  <SCORE.norm>
-3.38006

>  <RMSD>
0.305

$$$$
lig.pdb
 OpenBabel11021811523D
libRbt.so/2013.1/901 2013/11/27
 10 11  0  0  0  0  0  0  0  0999 V2000
  -31.0007   18.9964  -17.5295 N   0  0  0  0  0  0  0  0  0  0  0  0
  -30.3337   18.3002  -18.4998 C   0  0  0  0  0  0  0  0  0  0  0  0
  -29.8735   17.1396  -18.0979 N   0  0  0  0  0  0  0  0  0  0  0  0
  -30.2639   17.0686  -16.7713 C   0  0  0  0  0  0  0  0  0  0  0  0
  -30.0859   16.0839  -15.7822 C   0  0  0  0  0  0  0  0  0  0  0  0
  -29.4310   14.9381  -15.9975 N   0  0  0  0  0  0  0  0  0  0  0  0
  -30.6040   16.3244  -14.5578 N   0  0  0  0  0  0  0  0  0  0  0  0
  -31.2551   17.4738  -14.3482 C   0  0  0  0  0  0  0  0  0  0  0  0
  -31.4870   18.4729  -15.1988 N   0  0  0  0  0  0  0  0  0  0  0  0
  -30.9604   18.2048  -16.4042 C   0  0  0  0  0  0  0  0  0  0  0  0
  1 10  1  0  0  0  0
  2  3  2  0  0  0  0
  2  1  1  0  0  0  0
  3  4  1  0  0  0  0
  4 10  2  0  0  0  0
  4  5  1  0  0  0  0
  5  7  2  0  0  0  0
  6  5  1  0  0  0  0
  7  8  1  0  0  0  0
  9  8  2  0  0  0  0
 10  9  1  0  0  0  0
M  END
>  <CHROM.1>
-30.51009746,17.25866504,-16.31335277,1.73341929,1.02853984,-1.00449270

>  <Name>
lig.pdb

>  <RI>
0

>  <Rbt.Current_Directory>
/home/itssahil/PROJECTS/Mol_Feturizer/New_Systems/rnas/5uza

>  <Rbt.Executable>
rbdock ($Id: //depot/dev/client3/rdock/2013.1/src/exe/rbdock.cxx#4 $)

>  <Rbt.Library>
libRbt.so (2013.1, Build901 2013/11/27)

>  <Rbt.Parameter_File>
/export/apps/rDock/src/rDock_2013.1_src/data/scripts/dock_solv.prm

>  <Rbt.Receptor>
prm/pocket_docking_5.prm

>  <SCORE>
-33.7753

>  <SCORE.INTER>
-33.7753

>  <SCORE.INTER.CONST>
1

>  <SCORE.INTER.POLAR>
-3.03763

>  <SCORE.INTER.ROT>
0

>  <SCORE.INTER.SOLV>
12.2274

>  <SCORE.INTER.VDW>
-20.0673

>  <SCORE.INTER.norm>
-3.37753

>  <SCORE.INTRA>
0

>  <SCORE.INTRA.DIHEDRAL>
0

>  <SCORE.INTRA.DIHEDRAL.0>
0

>  <SCORE.INTRA.POLAR>
0

>  <SCORE.INTRA.POLAR.0>
0

>  <SCORE.INTRA.REPUL>
0

>  <SCORE.INTRA.REPUL.0>
0

>  <SCORE.INTRA.SOLV>
0

>  <SCORE.INTRA.SOLV.lig_0>
-14.8845

>  <SCORE.INTRA.VDW>
0

>  <SCORE.INTRA.VDW.0>
0

>  <SCORE.INTRA.norm>
0

>  <SCORE.RESTR>
0

>  <SCORE.RESTR.CAVITY>
0

>  <SCORE.RESTR.norm>
0

>  <SCORE.SYSTEM>
0

>  <SCORE.SYSTEM.CONST>
0

>  <SCORE.SYSTEM.DIHEDRAL>
0

>  <SCORE.SYSTEM.SOLV>
0

>  <SCORE.SYSTEM.norm>
0

>  <SCORE.heavy>
10

>  <SCORE.norm>
-3.37753

>  <RMSD>
0.305

$$$$
lig.pdb
 OpenBabel11021811523D
libRbt.so/2013.1/901 2013/11/27
 10 11  0  0  0  0  0  0  0  0999 V2000
  -31.0044   19.0177  -17.5624 N   0  0  0  0  0  0  0  0  0  0  0  0
  -30.3298   18.3274  -18.5316 C   0  0  0  0  0  0  0  0  0  0  0  0
  -29.8706   17.1654  -18.1324 N   0  0  0  0  0  0  0  0  0  0  0  0
  -30.2700   17.0872  -16.8088 C   0  0  0  0  0  0  0  0  0  0  0  0
  -30.0972   16.0979  -15.8234 C   0  0  0  0  0  0  0  0  0  0  0  0
  -29.4393   14.9542  -16.0400 N   0  0  0  0  0  0  0  0  0  0  0  0
  -30.6241   16.3315  -14.6015 N   0  0  0  0  0  0  0  0  0  0  0  0
  -31.2783   17.4790  -14.3906 C   0  0  0  0  0  0  0  0  0  0  0  0
  -31.5058   18.4820  -15.2378 N   0  0  0  0  0  0  0  0  0  0  0  0
  -30.9706   18.2206  -16.4409 C   0  0  0  0  0  0  0  0  0  0  0  0
  1 10  1  0  0  0  0
  2  3  2  0  0  0  0
  2  1  1  0  0  0  0
  3  4  1  0  0  0  0
  4 10  2  0  0  0  0
  4  5  1  0  0  0  0
  5  7  2  0  0  0  0
  6  5  1  0  0  0  0
  7  8  1  0  0  0  0
  9  8  2  0  0  0  0
 10  9  1  0  0  0  0
M  END
>  <CHROM.1>
-30.51957386,17.27468456,-16.35165169,1.72386035,1.02360905,-0.99135009

>  <Name>
lig.pdb

>  <RI>
1.17431e+07

>  <Rbt.Current_Directory>
/home/itssahil/PROJECTS/Mol_Feturizer/New_Systems/rnas/5uza

>  <Rbt.Executable>
rbdock ($Id: //depot/dev/client3/rdock/2013.1/src/exe/rbdock.cxx#4 $)

>  <Rbt.Library>
libRbt.so (2013.1, Build901 2013/11/27)

>  <Rbt.Parameter_File>
/export/apps/rDock/src/rDock_2013.1_src/data/scripts/dock_solv.prm

>  <Rbt.Receptor>
prm/pocket_docking_6.prm

>  <SCORE>
-33.8022

>  <SCORE.INTER>
-33.8022

>  <SCORE.INTER.CONST>
1

>  <SCORE.INTER.POLAR>
-3.03763

>  <SCORE.INTER.ROT>
0

>  <SCORE.INTER.SOLV>
12.2495

>  <SCORE.INTER.VDW>
-20.0926

>  <SCORE.INTER.norm>
-3.38022

>  <SCORE.INTRA>
0

>  <SCORE.INTRA.DIHEDRAL>
0

>  <SCORE.INTRA.DIHEDRAL.0>
0

>  <SCORE.INTRA.POLAR>
0

>  <SCORE.INTRA.POLAR.0>
0

>  <SCORE.INTRA.REPUL>
0

>  <SCORE.INTRA.REPUL.0>
0

>  <SCORE.INTRA.SOLV>
0

>  <SCORE.INTRA.SOLV.lig_0>
-14.8845

>  <SCORE.INTRA.VDW>
0

>  <SCORE.INTRA.VDW.0>
0

>  <SCORE.INTRA.norm>
0

>  <SCORE.RESTR>
0

>  <SCORE.RESTR.CAVITY>
0

>  <SCORE.RESTR.norm>
0

>  <SCORE.SYSTEM>
0

>  <SCORE.SYSTEM.CONST>
0

>  <SCORE.SYSTEM.DIHEDRAL>
0

>  <SCORE.SYSTEM.SOLV>
0

>  <SCORE.SYSTEM.norm>
0

>  <SCORE.heavy>
10

>  <SCORE.norm>
-3.38022

>  <RMSD>
0.305

$$$$
lig.pdb
 OpenBabel11021811523D
libRbt.so/2013.1/901 2013/11/27
 10 11  0  0  0  0  0  0  0  0999 V2000
  -30.9714   19.0028  -17.4890 N   0  0  0  0  0  0  0  0  0  0  0  0
  -30.3223   18.3180  -18.4793 C   0  0  0  0  0  0  0  0  0  0  0  0
  -29.8686   17.1461  -18.1037 N   0  0  0  0  0  0  0  0  0  0  0  0
  -30.2443   17.0548  -16.7741 C   0  0  0  0  0  0  0  0  0  0  0  0
  -30.0643   16.0508  -15.8049 C   0  0  0  0  0  0  0  0  0  0  0  0
  -29.4229   14.9031  -16.0484 N   0  0  0  0  0  0  0  0  0  0  0  0
  -30.5661   16.2741  -14.5705 N   0  0  0  0  0  0  0  0  0  0  0  0
  -31.2037   17.4256  -14.3327 C   0  0  0  0  0  0  0  0  0  0  0  0
  -31.4358   18.4420  -15.1625 N   0  0  0  0  0  0  0  0  0  0  0  0
  -30.9257   18.1907  -16.3786 C   0  0  0  0  0  0  0  0  0  0  0  0
  1 10  1  0  0  0  0
  2  3  2  0  0  0  0
  2  1  1  0  0  0  0
  3  4  1  0  0  0  0
  4 10  2  0  0  0  0
  4  5  1  0  0  0  0
  5  7  2  0  0  0  0
  6  5  1  0  0  0  0
  7  8  1  0  0  0  0
  9  8  2  0  0  0  0
 10  9  1  0  0  0  0
M  END
>  <CHROM.1>
-30.48342338,17.23892766,-16.30996441,1.74254928,1.04273158,-0.99438714

>  <Name>
lig.pdb

>  <RI>
2.12818e+07

>  <Rbt.Current_Directory>
/home/itssahil/PROJECTS/Mol_Feturizer/New_Systems/rnas/5uza

>  <Rbt.Executable>
rbdock ($Id: //depot/dev/client3/rdock/2013.1/src/exe/rbdock.cxx#4 $)

>  <Rbt.Library>
libRbt.so (2013.1, Build901 2013/11/27)

>  <Rbt.Parameter_File>
/export/apps/rDock/src/rDock_2013.1_src/data/scripts/dock_solv.prm

>  <Rbt.Receptor>
prm/pocket_docking_7.prm

>  <SCORE>
-33.7653

>  <SCORE.INTER>
-33.7653

>  <SCORE.INTER.CONST>
1

>  <SCORE.INTER.POLAR>
-3.03763

>  <SCORE.INTER.ROT>
0

>  <SCORE.INTER.SOLV>
12.216

>  <SCORE.INTER.VDW>
-20.0568

>  <SCORE.INTER.norm>
-3.37653

>  <SCORE.INTRA>
0

>  <SCORE.INTRA.DIHEDRAL>
0

>  <SCORE.INTRA.DIHEDRAL.0>
0

>  <SCORE.INTRA.POLAR>
0

>  <SCORE.INTRA.POLAR.0>
0

>  <SCORE.INTRA.REPUL>
0

>  <SCORE.INTRA.REPUL.0>
0

>  <SCORE.INTRA.SOLV>
0

>  <SCORE.INTRA.SOLV.lig_0>
-14.8845

>  <SCORE.INTRA.VDW>
0

>  <SCORE.INTRA.VDW.0>
0

>  <SCORE.INTRA.norm>
0

>  <SCORE.RESTR>
0

>  <SCORE.RESTR.CAVITY>
0

>  <SCORE.RESTR.norm>
0

>  <SCORE.SYSTEM>
0

>  <SCORE.SYSTEM.CONST>
0

>  <SCORE.SYSTEM.DIHEDRAL>
0

>  <SCORE.SYSTEM.SOLV>
0

>  <SCORE.SYSTEM.norm>
0

>  <SCORE.heavy>
10

>  <SCORE.norm>
-3.37653

>  <RMSD>
0.305

$$$$
lig.pdb
 OpenBabel11021811523D
libRbt.so/2013.1/901 2013/11/27
 10 11  0  0  0  0  0  0  0  0999 V2000
  -31.0059   19.0191  -17.5686 N   0  0  0  0  0  0  0  0  0  0  0  0
  -30.3287   18.3275  -18.5352 C   0  0  0  0  0  0  0  0  0  0  0  0
  -29.8690   17.1669  -18.1327 N   0  0  0  0  0  0  0  0  0  0  0  0
  -30.2708   17.0909  -16.8098 C   0  0  0  0  0  0  0  0  0  0  0  0
  -30.0989   16.1036  -15.8221 C   0  0  0  0  0  0  0  0  0  0  0  0
  -29.4392   14.9603  -16.0351 N   0  0  0  0  0  0  0  0  0  0  0  0
  -30.6284   16.3392  -14.6016 N   0  0  0  0  0  0  0  0  0  0  0  0
  -31.2842   17.4863  -14.3943 C   0  0  0  0  0  0  0  0  0  0  0  0
  -31.5112   18.4874  -15.2439 N   0  0  0  0  0  0  0  0  0  0  0  0
  -30.9734   18.2242  -16.4455 C   0  0  0  0  0  0  0  0  0  0  0  0
  1 10  1  0  0  0  0
  2  3  2  0  0  0  0
  2  1  1  0  0  0  0
  3  4  1  0  0  0  0
  4 10  2  0  0  0  0
  4  5  1  0  0  0  0
  5  7  2  0  0  0  0
  6  5  1  0  0  0  0
  7  8  1  0  0  0  0
  9  8  2  0  0  0  0
 10  9  1  0  0  0  0
M  END
>  <CHROM.1>
-30.52148877,17.27895184,-16.35346707,1.72193326,1.02164474,-0.99168818

>  <Name>
lig.pdb

>  <RI>
2.12818e+07

>  <Rbt.Current_Directory>
/home/itssahil/PROJECTS/Mol_Feturizer/New_Systems/rnas/5uza

>  <Rbt.Executable>
rbdock ($Id: //depot/dev/client3/rdock/2013.1/src/exe/rbdock.cxx#4 $)

>  <Rbt.Library>
libRbt.so (2013.1, Build901 2013/11/27)

>  <Rbt.Parameter_File>
/export/apps/rDock/src/rDock_2013.1_src/data/scripts/dock_solv.prm

>  <Rbt.Receptor>
prm/pocket_docking_7.prm

>  <SCORE>
-33.8019

>  <SCORE.INTER>
-33.802

>  <SCORE.INTER.CONST>
1

>  <SCORE.INTER.POLAR>
-3.03763

>  <SCORE.INTER.ROT>
0

>  <SCORE.INTER.SOLV>
12.2503

>  <SCORE.INTER.VDW>
-20.0927

>  <SCORE.INTER.norm>
-3.3802

>  <SCORE.INTRA>
0

>  <SCORE.INTRA.DIHEDRAL>
0

>  <SCORE.INTRA.DIHEDRAL.0>
0

>  <SCORE.INTRA.POLAR>
0

>  <SCORE.INTRA.POLAR.0>
0

>  <SCORE.INTRA.REPUL>
0

>  <SCORE.INTRA.REPUL.0>
0

>  <SCORE.INTRA.SOLV>
0

>  <SCORE.INTRA.SOLV.lig_0>
-14.8845

>  <SCORE.INTRA.VDW>
0

>  <SCORE.INTRA.VDW.0>
0

>  <SCORE.INTRA.norm>
0

>  <SCORE.RESTR>
3.60834e-05

>  <SCORE.RESTR.CAVITY>
3.60834e-05

>  <SCORE.RESTR.norm>
3.60834e-06

>  <SCORE.SYSTEM>
0

>  <SCORE.SYSTEM.CONST>
0

>  <SCORE.SYSTEM.DIHEDRAL>
0

>  <SCORE.SYSTEM.SOLV>
0

>  <SCORE.SYSTEM.norm>
0

>  <SCORE.heavy>
10

>  <SCORE.norm>
-3.38019

>  <RMSD>
0.305

$$$$
lig.pdb
 OpenBabel11021811523D
libRbt.so/2013.1/901 2013/11/27
 10 11  0  0  0  0  0  0  0  0999 V2000
  -31.0089   19.0237  -17.5668 N   0  0  0  0  0  0  0  0  0  0  0  0
  -30.3294   18.3363  -18.5347 C   0  0  0  0  0  0  0  0  0  0  0  0
  -29.8675   17.1755  -18.1352 N   0  0  0  0  0  0  0  0  0  0  0  0
  -30.2702   17.0950  -16.8128 C   0  0  0  0  0  0  0  0  0  0  0  0
  -30.0969   16.1054  -15.8277 C   0  0  0  0  0  0  0  0  0  0  0  0
  -29.4346   14.9640  -16.0434 N   0  0  0  0  0  0  0  0  0  0  0  0
  -30.6279   16.3363  -14.6070 N   0  0  0  0  0  0  0  0  0  0  0  0
  -31.2864   17.4815  -14.3970 C   0  0  0  0  0  0  0  0  0  0  0  0
  -31.5149   18.4844  -15.2440 N   0  0  0  0  0  0  0  0  0  0  0  0
  -30.9756   18.2257  -16.4458 C   0  0  0  0  0  0  0  0  0  0  0  0
  1 10  1  0  0  0  0
  2  3  2  0  0  0  0
  2  1  1  0  0  0  0
  3  4  1  0  0  0  0
  4 10  2  0  0  0  0
  4  5  1  0  0  0  0
  5  7  2  0  0  0  0
  6  5  1  0  0  0  0
  7  8  1  0  0  0  0
  9  8  2  0  0  0  0
 10  9  1  0  0  0  0
M  END
>  <CHROM.1>
-30.52166049,17.28123282,-16.35611547,1.72293770,1.01937913,-0.98974163

>  <Name>
lig.pdb

>  <RI>
1.17775e+07

>  <Rbt.Current_Directory>
/home/itssahil/PROJECTS/Mol_Feturizer/New_Systems/rnas/5uza

>  <Rbt.Executable>
rbdock ($Id: //depot/dev/client3/rdock/2013.1/src/exe/rbdock.cxx#4 $)

>  <Rbt.Library>
libRbt.so (2013.1, Build901 2013/11/27)

>  <Rbt.Parameter_File>
/export/apps/rDock/src/rDock_2013.1_src/data/scripts/dock_solv.prm

>  <Rbt.Receptor>
prm/pocket_docking_8.prm

>  <SCORE>
-33.801

>  <SCORE.INTER>
-33.8012

>  <SCORE.INTER.CONST>
1

>  <SCORE.INTER.POLAR>
-3.03763

>  <SCORE.INTER.ROT>
0

>  <SCORE.INTER.SOLV>
12.2458

>  <SCORE.INTER.VDW>
-20.0907

>  <SCORE.INTER.norm>
-3.38012

>  <SCORE.INTRA>
0

>  <SCORE.INTRA.DIHEDRAL>
0

>  <SCORE.INTRA.DIHEDRAL.0>
0

>  <SCORE.INTRA.POLAR>
0

>  <SCORE.INTRA.POLAR.0>
0

>  <SCORE.INTRA.REPUL>
0

>  <SCORE.INTRA.REPUL.0>
0

>  <SCORE.INTRA.SOLV>
0

>  <SCORE.INTRA.SOLV.lig_0>
-14.8845

>  <SCORE.INTRA.VDW>
0

>  <SCORE.INTRA.VDW.0>
0

>  <SCORE.INTRA.norm>
0

>  <SCORE.RESTR>
0.000274473

>  <SCORE.RESTR.CAVITY>
0.000274473

>  <SCORE.RESTR.norm>
2.74473e-05

>  <SCORE.SYSTEM>
0

>  <SCORE.SYSTEM.CONST>
0

>  <SCORE.SYSTEM.DIHEDRAL>
0

>  <SCORE.SYSTEM.SOLV>
0

>  <SCORE.SYSTEM.norm>
0

>  <SCORE.heavy>
10

>  <SCORE.norm>
-3.3801

>  <RMSD>
0.305

$$$$
lig.pdb
 OpenBabel11021811523D
libRbt.so/2013.1/901 2013/11/27
 10 11  0  0  0  0  0  0  0  0999 V2000
  -31.0030   19.0141  -17.5734 N   0  0  0  0  0  0  0  0  0  0  0  0
  -30.3209   18.3222  -18.5363 C   0  0  0  0  0  0  0  0  0  0  0  0
  -29.8627   17.1620  -18.1310 N   0  0  0  0  0  0  0  0  0  0  0  0
  -30.2708   17.0866  -16.8099 C   0  0  0  0  0  0  0  0  0  0  0  0
  -30.1032   16.1000  -15.8209 C   0  0  0  0  0  0  0  0  0  0  0  0
  -29.4421   14.9568  -16.0301 N   0  0  0  0  0  0  0  0  0  0  0  0
  -30.6387   16.3360  -14.6031 N   0  0  0  0  0  0  0  0  0  0  0  0
  -31.2960   17.4830  -14.3995 C   0  0  0  0  0  0  0  0  0  0  0  0
  -31.5193   18.4835  -15.2508 N   0  0  0  0  0  0  0  0  0  0  0  0
  -30.9756   18.2198  -16.4496 C   0  0  0  0  0  0  0  0  0  0  0  0
  1 10  1  0  0  0  0
  2  3  2  0  0  0  0
  2  1  1  0  0  0  0
  3  4  1  0  0  0  0
  4 10  2  0  0  0  0
  4  5  1  0  0  0  0
  5  7  2  0  0  0  0
  6  5  1  0  0  0  0
  7  8  1  0  0  0  0
  9  8  2  0  0  0  0
 10  9  1  0  0  0  0
M  END
>  <CHROM.1>
-30.52377734,17.27482904,-16.35492087,1.71470125,1.01865392,-0.98608354

>  <Name>
lig.pdb

>  <RI>
2.26746e+07

>  <Rbt.Current_Directory>
/home/itssahil/PROJECTS/Mol_Feturizer/New_Systems/rnas/5uza

>  <Rbt.Executable>
rbdock ($Id: //depot/dev/client3/rdock/2013.1/src/exe/rbdock.cxx#4 $)

>  <Rbt.Library>
libRbt.so (2013.1, Build901 2013/11/27)

>  <Rbt.Parameter_File>
/export/apps/rDock/src/rDock_2013.1_src/data/scripts/dock_solv.prm

>  <Rbt.Receptor>
prm/blind_docking_100.prm

>  <SCORE>
-33.802

>  <SCORE.INTER>
-33.8021

>  <SCORE.INTER.CONST>
1

>  <SCORE.INTER.POLAR>
-3.03763

>  <SCORE.INTER.ROT>
0

>  <SCORE.INTER.SOLV>
12.2605

>  <SCORE.INTER.VDW>
-20.0962

>  <SCORE.INTER.norm>
-3.38021

>  <SCORE.INTRA>
0

>  <SCORE.INTRA.DIHEDRAL>
0

>  <SCORE.INTRA.DIHEDRAL.0>
0

>  <SCORE.INTRA.POLAR>
0

>  <SCORE.INTRA.POLAR.0>
0

>  <SCORE.INTRA.REPUL>
0

>  <SCORE.INTRA.REPUL.0>
0

>  <SCORE.INTRA.SOLV>
0

>  <SCORE.INTRA.SOLV.lig_0>
-14.8845

>  <SCORE.INTRA.VDW>
0

>  <SCORE.INTRA.VDW.0>
0

>  <SCORE.INTRA.norm>
0

>  <SCORE.RESTR>
0.000176404

>  <SCORE.RESTR.CAVITY>
0.000176404

>  <SCORE.RESTR.norm>
1.76404e-05

>  <SCORE.SYSTEM>
0

>  <SCORE.SYSTEM.CONST>
0

>  <SCORE.SYSTEM.DIHEDRAL>
0

>  <SCORE.SYSTEM.SOLV>
0

>  <SCORE.SYSTEM.norm>
0

>  <SCORE.heavy>
10

>  <SCORE.norm>
-3.3802

>  <RMSD>
0.306

$$$$
lig.pdb
 OpenBabel11021811523D
libRbt.so/2013.1/901 2013/11/27
 10 11  0  0  0  0  0  0  0  0999 V2000
  -30.9995   19.0125  -17.5665 N   0  0  0  0  0  0  0  0  0  0  0  0
  -30.3224   18.3203  -18.5327 C   0  0  0  0  0  0  0  0  0  0  0  0
  -29.8659   17.1583  -18.1306 N   0  0  0  0  0  0  0  0  0  0  0  0
  -30.2697   17.0820  -16.8083 C   0  0  0  0  0  0  0  0  0  0  0  0
  -30.1014   16.0935  -15.8213 C   0  0  0  0  0  0  0  0  0  0  0  0
  -29.4439   14.9489  -16.0344 N   0  0  0  0  0  0  0  0  0  0  0  0
  -30.6321   16.3291  -14.6013 N   0  0  0  0  0  0  0  0  0  0  0  0
  -31.2857   17.4775  -14.3939 C   0  0  0  0  0  0  0  0  0  0  0  0
  -31.5093   18.4798  -15.2429 N   0  0  0  0  0  0  0  0  0  0  0  0
  -30.9703   18.2165  -16.4440 C   0  0  0  0  0  0  0  0  0  0  0  0
  1 10  1  0  0  0  0
  2  3  2  0  0  0  0
  2  1  1  0  0  0  0
  3  4  1  0  0  0  0
  4 10  2  0  0  0  0
  4  5  1  0  0  0  0
  5  7  2  0  0  0  0
  6  5  1  0  0  0  0
  7  8  1  0  0  0  0
  9  8  2  0  0  0  0
 10  9  1  0  0  0  0
M  END
>  <CHROM.1>
-30.52063175,17.27023052,-16.35218829,1.71734023,1.02269766,-0.98687178

>  <Name>
lig.pdb

>  <RI>
2.26746e+07

>  <Rbt.Current_Directory>
/home/itssahil/PROJECTS/Mol_Feturizer/New_Systems/rnas/5uza

>  <Rbt.Executable>
rbdock ($Id: //depot/dev/client3/rdock/2013.1/src/exe/rbdock.cxx#4 $)

>  <Rbt.Library>
libRbt.so (2013.1, Build901 2013/11/27)

>  <Rbt.Parameter_File>
/export/apps/rDock/src/rDock_2013.1_src/data/scripts/dock_solv.prm

>  <Rbt.Receptor>
prm/blind_docking_100.prm

>  <SCORE>
-33.8041

>  <SCORE.INTER>
-33.8044

>  <SCORE.INTER.CONST>
1

>  <SCORE.INTER.POLAR>
-3.03763

>  <SCORE.INTER.ROT>
0

>  <SCORE.INTER.SOLV>
12.2603

>  <SCORE.INTER.VDW>
-20.0976

>  <SCORE.INTER.norm>
-3.38044

>  <SCORE.INTRA>
0

>  <SCORE.INTRA.DIHEDRAL>
0

>  <SCORE.INTRA.DIHEDRAL.0>
0

>  <SCORE.INTRA.POLAR>
0

>  <SCORE.INTRA.POLAR.0>
0

>  <SCORE.INTRA.REPUL>
0

>  <SCORE.INTRA.REPUL.0>
0

>  <SCORE.INTRA.SOLV>
0

>  <SCORE.INTRA.SOLV.lig_0>
-14.8845

>  <SCORE.INTRA.VDW>
0

>  <SCORE.INTRA.VDW.0>
0

>  <SCORE.INTRA.norm>
0

>  <SCORE.RESTR>
0.000357249

>  <SCORE.RESTR.CAVITY>
0.000357249

>  <SCORE.RESTR.norm>
3.57249e-05

>  <SCORE.SYSTEM>
0

>  <SCORE.SYSTEM.CONST>
0

>  <SCORE.SYSTEM.DIHEDRAL>
0

>  <SCORE.SYSTEM.SOLV>
0

>  <SCORE.SYSTEM.norm>
0

>  <SCORE.heavy>
10

>  <SCORE.norm>
-3.38041

>  <RMSD>
0.306

$$$$
lig.pdb
 OpenBabel11021811523D
libRbt.so/2013.1/901 2013/11/27
 10 11  0  0  0  0  0  0  0  0999 V2000
  -31.0068   19.0168  -17.5744 N   0  0  0  0  0  0  0  0  0  0  0  0
  -30.3263   18.3238  -18.5376 C   0  0  0  0  0  0  0  0  0  0  0  0
  -29.8665   17.1645  -18.1314 N   0  0  0  0  0  0  0  0  0  0  0  0
  -30.2716   17.0910  -16.8094 C   0  0  0  0  0  0  0  0  0  0  0  0
  -30.1013   16.1062  -15.8190 C   0  0  0  0  0  0  0  0  0  0  0  0
  -29.4398   14.9631  -16.0278 N   0  0  0  0  0  0  0  0  0  0  0  0
  -30.6342   16.3438  -14.6005 N   0  0  0  0  0  0  0  0  0  0  0  0
  -31.2919   17.4908  -14.3974 C   0  0  0  0  0  0  0  0  0  0  0  0
  -31.5177   18.4897  -15.2498 N   0  0  0  0  0  0  0  0  0  0  0  0
  -30.9764   18.2244  -16.4494 C   0  0  0  0  0  0  0  0  0  0  0  0
  1 10  1  0  0  0  0
  2  3  2  0  0  0  0
  2  1  1  0  0  0  0
  3  4  1  0  0  0  0
  4 10  2  0  0  0  0
  4  5  1  0  0  0  0
  5  7  2  0  0  0  0
  6  5  1  0  0  0  0
  7  8  1  0  0  0  0
  9  8  2  0  0  0  0
 10  9  1  0  0  0  0
M  END
>  <CHROM.1>
-30.52373588,17.27986798,-16.35409823,1.71883956,1.01929751,-0.99126931

>  <Name>
lig.pdb

>  <RI>
0

>  <Rbt.Current_Directory>
/home/itssahil/PROJECTS/Mol_Feturizer/New_Systems/rnas/5uza

>  <Rbt.Executable>
rbdock ($Id: //depot/dev/client3/rdock/2013.1/src/exe/rbdock.cxx#4 $)

>  <Rbt.Library>
libRbt.so (2013.1, Build901 2013/11/27)

>  <Rbt.Parameter_File>
/export/apps/rDock/src/rDock_2013.1_src/data/scripts/dock_solv.prm

>  <Rbt.Receptor>
prm/blind_docking_80.prm

>  <SCORE>
-33.8002

>  <SCORE.INTER>
-33.8002

>  <SCORE.INTER.CONST>
1

>  <SCORE.INTER.POLAR>
-3.03763

>  <SCORE.INTER.ROT>
0

>  <SCORE.INTER.SOLV>
12.2524

>  <SCORE.INTER.VDW>
-20.0922

>  <SCORE.INTER.norm>
-3.38002

>  <SCORE.INTRA>
0

>  <SCORE.INTRA.DIHEDRAL>
0

>  <SCORE.INTRA.DIHEDRAL.0>
0

>  <SCORE.INTRA.POLAR>
0

>  <SCORE.INTRA.POLAR.0>
0

>  <SCORE.INTRA.REPUL>
0

>  <SCORE.INTRA.REPUL.0>
0

>  <SCORE.INTRA.SOLV>
0

>  <SCORE.INTRA.SOLV.lig_0>
-14.8845

>  <SCORE.INTRA.VDW>
0

>  <SCORE.INTRA.VDW.0>
0

>  <SCORE.INTRA.norm>
0

>  <SCORE.RESTR>
0

>  <SCORE.RESTR.CAVITY>
0

>  <SCORE.RESTR.norm>
0

>  <SCORE.SYSTEM>
0

>  <SCORE.SYSTEM.CONST>
0

>  <SCORE.SYSTEM.DIHEDRAL>
0

>  <SCORE.SYSTEM.SOLV>
0

>  <SCORE.SYSTEM.norm>
0

>  <SCORE.heavy>
10

>  <SCORE.norm>
-3.38002

>  <RMSD>
0.306

$$$$
lig.pdb
 OpenBabel11021811523D
libRbt.so/2013.1/901 2013/11/27
 10 11  0  0  0  0  0  0  0  0999 V2000
  -30.9952   19.0193  -17.5644 N   0  0  0  0  0  0  0  0  0  0  0  0
  -30.3171   18.3293  -18.5313 C   0  0  0  0  0  0  0  0  0  0  0  0
  -29.8609   17.1664  -18.1313 N   0  0  0  0  0  0  0  0  0  0  0  0
  -30.2662   17.0872  -16.8096 C   0  0  0  0  0  0  0  0  0  0  0  0
  -30.0990   16.0966  -15.8245 C   0  0  0  0  0  0  0  0  0  0  0  0
  -29.4413   14.9525  -16.0394 N   0  0  0  0  0  0  0  0  0  0  0  0
  -30.6311   16.3295  -14.6047 N   0  0  0  0  0  0  0  0  0  0  0  0
  -31.2850   17.4775  -14.3955 C   0  0  0  0  0  0  0  0  0  0  0  0
  -31.5077   18.4816  -15.2426 N   0  0  0  0  0  0  0  0  0  0  0  0
  -30.9673   18.2209  -16.4436 C   0  0  0  0  0  0  0  0  0  0  0  0
  1 10  1  0  0  0  0
  2  3  2  0  0  0  0
  2  1  1  0  0  0  0
  3  4  1  0  0  0  0
  4 10  2  0  0  0  0
  4  5  1  0  0  0  0
  5  7  2  0  0  0  0
  6  5  1  0  0  0  0
  7  8  1  0  0  0  0
  9  8  2  0  0  0  0
 10  9  1  0  0  0  0
M  END
>  <CHROM.1>
-30.51769470,17.27445940,-16.35336482,1.71556646,1.02203136,-0.98319205

>  <Name>
lig.pdb

>  <RI>
0

>  <Rbt.Current_Directory>
/home/itssahil/PROJECTS/Mol_Feturizer/New_Systems/rnas/5uza

>  <Rbt.Executable>
rbdock ($Id: //depot/dev/client3/rdock/2013.1/src/exe/rbdock.cxx#4 $)

>  <Rbt.Library>
libRbt.so (2013.1, Build901 2013/11/27)

>  <Rbt.Parameter_File>
/export/apps/rDock/src/rDock_2013.1_src/data/scripts/dock_solv.prm

>  <Rbt.Receptor>
prm/pocket_docking_5.prm

>  <SCORE>
-33.8017

>  <SCORE.INTER>
-33.8017

>  <SCORE.INTER.CONST>
1

>  <SCORE.INTER.POLAR>
-3.03763

>  <SCORE.INTER.ROT>
0

>  <SCORE.INTER.SOLV>
12.2609

>  <SCORE.INTER.VDW>
-20.096

>  <SCORE.INTER.norm>
-3.38017

>  <SCORE.INTRA>
0

>  <SCORE.INTRA.DIHEDRAL>
0

>  <SCORE.INTRA.DIHEDRAL.0>
0

>  <SCORE.INTRA.POLAR>
0

>  <SCORE.INTRA.POLAR.0>
0

>  <SCORE.INTRA.REPUL>
0

>  <SCORE.INTRA.REPUL.0>
0

>  <SCORE.INTRA.SOLV>
0

>  <SCORE.INTRA.SOLV.lig_0>
-14.8845

>  <SCORE.INTRA.VDW>
0

>  <SCORE.INTRA.VDW.0>
0

>  <SCORE.INTRA.norm>
0

>  <SCORE.RESTR>
0

>  <SCORE.RESTR.CAVITY>
0

>  <SCORE.RESTR.norm>
0

>  <SCORE.SYSTEM>
0

>  <SCORE.SYSTEM.CONST>
0

>  <SCORE.SYSTEM.DIHEDRAL>
0

>  <SCORE.SYSTEM.SOLV>
0

>  <SCORE.SYSTEM.norm>
0

>  <SCORE.heavy>
10

>  <SCORE.norm>
-3.38017

>  <RMSD>
0.306

$$$$
lig.pdb
 OpenBabel11021811523D
libRbt.so/2013.1/901 2013/11/27
 10 11  0  0  0  0  0  0  0  0999 V2000
  -31.0051   19.0213  -17.5716 N   0  0  0  0  0  0  0  0  0  0  0  0
  -30.3263   18.3297  -18.5369 C   0  0  0  0  0  0  0  0  0  0  0  0
  -29.8670   17.1692  -18.1336 N   0  0  0  0  0  0  0  0  0  0  0  0
  -30.2707   17.0934  -16.8113 C   0  0  0  0  0  0  0  0  0  0  0  0
  -30.1001   16.1064  -15.8231 C   0  0  0  0  0  0  0  0  0  0  0  0
  -29.4399   14.9631  -16.0350 N   0  0  0  0  0  0  0  0  0  0  0  0
  -30.6314   16.3420  -14.6035 N   0  0  0  0  0  0  0  0  0  0  0  0
  -31.2878   17.4891  -14.3973 C   0  0  0  0  0  0  0  0  0  0  0  0
  -31.5137   18.4899  -15.2475 N   0  0  0  0  0  0  0  0  0  0  0  0
  -30.9741   18.2266  -16.4482 C   0  0  0  0  0  0  0  0  0  0  0  0
  1 10  1  0  0  0  0
  2  3  2  0  0  0  0
  2  1  1  0  0  0  0
  3  4  1  0  0  0  0
  4 10  2  0  0  0  0
  4  5  1  0  0  0  0
  5  7  2  0  0  0  0
  6  5  1  0  0  0  0
  7  8  1  0  0  0  0
  9  8  2  0  0  0  0
 10  9  1  0  0  0  0
M  END
>  <CHROM.1>
-30.52211588,17.28147975,-16.35534487,1.71978165,1.02065497,-0.99003715

>  <Name>
lig.pdb

>  <RI>
0

>  <Rbt.Current_Directory>
/home/itssahil/PROJECTS/Mol_Feturizer/New_Systems/rnas/5uza

>  <Rbt.Executable>
rbdock ($Id: //depot/dev/client3/rdock/2013.1/src/exe/rbdock.cxx#4 $)

>  <Rbt.Library>
libRbt.so (2013.1, Build901 2013/11/27)

>  <Rbt.Parameter_File>
/export/apps/rDock/src/rDock_2013.1_src/data/scripts/dock_solv.prm

>  <Rbt.Receptor>
prm/pocket_docking_5.prm

>  <SCORE>
-33.8016

>  <SCORE.INTER>
-33.802

>  <SCORE.INTER.CONST>
1

>  <SCORE.INTER.POLAR>
-3.03763

>  <SCORE.INTER.ROT>
0

>  <SCORE.INTER.SOLV>
12.2531

>  <SCORE.INTER.VDW>
-20.0936

>  <SCORE.INTER.norm>
-3.3802

>  <SCORE.INTRA>
0

>  <SCORE.INTRA.DIHEDRAL>
0

>  <SCORE.INTRA.DIHEDRAL.0>
0

>  <SCORE.INTRA.POLAR>
0

>  <SCORE.INTRA.POLAR.0>
0

>  <SCORE.INTRA.REPUL>
0

>  <SCORE.INTRA.REPUL.0>
0

>  <SCORE.INTRA.SOLV>
0

>  <SCORE.INTRA.SOLV.lig_0>
-14.8845

>  <SCORE.INTRA.VDW>
0

>  <SCORE.INTRA.VDW.0>
0

>  <SCORE.INTRA.norm>
0

>  <SCORE.RESTR>
0.000427729

>  <SCORE.RESTR.CAVITY>
0.000427729

>  <SCORE.RESTR.norm>
4.27729e-05

>  <SCORE.SYSTEM>
0

>  <SCORE.SYSTEM.CONST>
0

>  <SCORE.SYSTEM.DIHEDRAL>
0

>  <SCORE.SYSTEM.SOLV>
0

>  <SCORE.SYSTEM.norm>
0

>  <SCORE.heavy>
10

>  <SCORE.norm>
-3.38016

>  <RMSD>
0.306

$$$$
lig.pdb
 OpenBabel11021811523D
libRbt.so/2013.1/901 2013/11/27
 10 11  0  0  0  0  0  0  0  0999 V2000
  -31.0174   19.0138  -17.5616 N   0  0  0  0  0  0  0  0  0  0  0  0
  -30.3425   18.3251  -18.5317 C   0  0  0  0  0  0  0  0  0  0  0  0
  -29.8805   17.1640  -18.1334 N   0  0  0  0  0  0  0  0  0  0  0  0
  -30.2781   17.0846  -16.8094 C   0  0  0  0  0  0  0  0  0  0  0  0
  -30.1022   16.0952  -15.8246 C   0  0  0  0  0  0  0  0  0  0  0  0
  -29.4421   14.9530  -16.0423 N   0  0  0  0  0  0  0  0  0  0  0  0
  -30.6282   16.3274  -14.6019 N   0  0  0  0  0  0  0  0  0  0  0  0
  -31.2845   17.4734  -14.3899 C   0  0  0  0  0  0  0  0  0  0  0  0
  -31.5151   18.4762  -15.2365 N   0  0  0  0  0  0  0  0  0  0  0  0
  -30.9807   18.2163  -16.4403 C   0  0  0  0  0  0  0  0  0  0  0  0
  1 10  1  0  0  0  0
  2  3  2  0  0  0  0
  2  1  1  0  0  0  0
  3  4  1  0  0  0  0
  4 10  2  0  0  0  0
  4  5  1  0  0  0  0
  5  7  2  0  0  0  0
  6  5  1  0  0  0  0
  7  8  1  0  0  0  0
  9  8  2  0  0  0  0
 10  9  1  0  0  0  0
M  END
>  <CHROM.1>
-30.52759932,17.27134607,-16.35190383,1.72787725,1.02248951,-0.99444143

>  <Name>
lig.pdb

>  <RI>
1.17775e+07

>  <Rbt.Current_Directory>
/home/itssahil/PROJECTS/Mol_Feturizer/New_Systems/rnas/5uza

>  <Rbt.Executable>
rbdock ($Id: //depot/dev/client3/rdock/2013.1/src/exe/rbdock.cxx#4 $)

>  <Rbt.Library>
libRbt.so (2013.1, Build901 2013/11/27)

>  <Rbt.Parameter_File>
/export/apps/rDock/src/rDock_2013.1_src/data/scripts/dock_solv.prm

>  <Rbt.Receptor>
prm/pocket_docking_8.prm

>  <SCORE>
-33.8013

>  <SCORE.INTER>
-33.8014

>  <SCORE.INTER.CONST>
1

>  <SCORE.INTER.POLAR>
-3.03763

>  <SCORE.INTER.ROT>
0

>  <SCORE.INTER.SOLV>
12.2482

>  <SCORE.INTER.VDW>
-20.0916

>  <SCORE.INTER.norm>
-3.38014

>  <SCORE.INTRA>
0

>  <SCORE.INTRA.DIHEDRAL>
0

>  <SCORE.INTRA.DIHEDRAL.0>
0

>  <SCORE.INTRA.POLAR>
0

>  <SCORE.INTRA.POLAR.0>
0

>  <SCORE.INTRA.REPUL>
0

>  <SCORE.INTRA.REPUL.0>
0

>  <SCORE.INTRA.SOLV>
0

>  <SCORE.INTRA.SOLV.lig_0>
-14.8845

>  <SCORE.INTRA.VDW>
0

>  <SCORE.INTRA.VDW.0>
0

>  <SCORE.INTRA.norm>
0

>  <SCORE.RESTR>
0.000104474

>  <SCORE.RESTR.CAVITY>
0.000104474

>  <SCORE.RESTR.norm>
1.04474e-05

>  <SCORE.SYSTEM>
0

>  <SCORE.SYSTEM.CONST>
0

>  <SCORE.SYSTEM.DIHEDRAL>
0

>  <SCORE.SYSTEM.SOLV>
0

>  <SCORE.SYSTEM.norm>
0

>  <SCORE.heavy>
10

>  <SCORE.norm>
-3.38013

>  <RMSD>
0.306

$$$$
lig.pdb
 OpenBabel11021811523D
libRbt.so/2013.1/901 2013/11/27
 10 11  0  0  0  0  0  0  0  0999 V2000
  -31.0118   19.0170  -17.5643 N   0  0  0  0  0  0  0  0  0  0  0  0
  -30.3354   18.3276  -18.5329 C   0  0  0  0  0  0  0  0  0  0  0  0
  -29.8753   17.1661  -18.1333 N   0  0  0  0  0  0  0  0  0  0  0  0
  -30.2759   17.0872  -16.8102 C   0  0  0  0  0  0  0  0  0  0  0  0
  -30.1031   16.0979  -15.8248 C   0  0  0  0  0  0  0  0  0  0  0  0
  -29.4436   14.9550  -16.0408 N   0  0  0  0  0  0  0  0  0  0  0  0
  -30.6315   16.3308  -14.6033 N   0  0  0  0  0  0  0  0  0  0  0  0
  -31.2873   17.4775  -14.3930 C   0  0  0  0  0  0  0  0  0  0  0  0
  -31.5151   18.4803  -15.2402 N   0  0  0  0  0  0  0  0  0  0  0  0
  -30.9783   18.2197  -16.4429 C   0  0  0  0  0  0  0  0  0  0  0  0
  1 10  1  0  0  0  0
  2  3  2  0  0  0  0
  2  1  1  0  0  0  0
  3  4  1  0  0  0  0
  4 10  2  0  0  0  0
  4  5  1  0  0  0  0
  5  7  2  0  0  0  0
  6  5  1  0  0  0  0
  7  8  1  0  0  0  0
  9  8  2  0  0  0  0
 10  9  1  0  0  0  0
M  END
>  <CHROM.1>
-30.52624567,17.27433352,-16.35327245,1.72339444,1.02208329,-0.99079738

>  <Name>
lig.pdb

>  <RI>
2.26746e+07

>  <Rbt.Current_Directory>
/home/itssahil/PROJECTS/Mol_Feturizer/New_Systems/rnas/5uza

>  <Rbt.Executable>
rbdock ($Id: //depot/dev/client3/rdock/2013.1/src/exe/rbdock.cxx#4 $)

>  <Rbt.Library>
libRbt.so (2013.1, Build901 2013/11/27)

>  <Rbt.Parameter_File>
/export/apps/rDock/src/rDock_2013.1_src/data/scripts/dock_solv.prm

>  <Rbt.Receptor>
prm/blind_docking_100.prm

>  <SCORE>
-33.8032

>  <SCORE.INTER>
-33.8033

>  <SCORE.INTER.CONST>
1

>  <SCORE.INTER.POLAR>
-3.03763

>  <SCORE.INTER.ROT>
0

>  <SCORE.INTER.SOLV>
12.255

>  <SCORE.INTER.VDW>
-20.0951

>  <SCORE.INTER.norm>
-3.38033

>  <SCORE.INTRA>
0

>  <SCORE.INTRA.DIHEDRAL>
0

>  <SCORE.INTRA.DIHEDRAL.0>
0

>  <SCORE.INTRA.POLAR>
0

>  <SCORE.INTRA.POLAR.0>
0

>  <SCORE.INTRA.REPUL>
0

>  <SCORE.INTRA.REPUL.0>
0

>  <SCORE.INTRA.SOLV>
0

>  <SCORE.INTRA.SOLV.lig_0>
-14.8845

>  <SCORE.INTRA.VDW>
0

>  <SCORE.INTRA.VDW.0>
0

>  <SCORE.INTRA.norm>
0

>  <SCORE.RESTR>
9.27724e-05

>  <SCORE.RESTR.CAVITY>
9.27724e-05

>  <SCORE.RESTR.norm>
9.27724e-06

>  <SCORE.SYSTEM>
0

>  <SCORE.SYSTEM.CONST>
0

>  <SCORE.SYSTEM.DIHEDRAL>
0

>  <SCORE.SYSTEM.SOLV>
0

>  <SCORE.SYSTEM.norm>
0

>  <SCORE.heavy>
10

>  <SCORE.norm>
-3.38032

>  <RMSD>
0.307

$$$$
lig.pdb
 OpenBabel11021811523D
libRbt.so/2013.1/901 2013/11/27
 10 11  0  0  0  0  0  0  0  0999 V2000
  -31.0047   19.0169  -17.5634 N   0  0  0  0  0  0  0  0  0  0  0  0
  -30.3272   18.3279  -18.5316 C   0  0  0  0  0  0  0  0  0  0  0  0
  -29.8688   17.1656  -18.1325 N   0  0  0  0  0  0  0  0  0  0  0  0
  -30.2717   17.0857  -16.8102 C   0  0  0  0  0  0  0  0  0  0  0  0
  -30.1014   16.0952  -15.8255 C   0  0  0  0  0  0  0  0  0  0  0  0
  -29.4424   14.9520  -16.0416 N   0  0  0  0  0  0  0  0  0  0  0  0
  -30.6317   16.3272  -14.6047 N   0  0  0  0  0  0  0  0  0  0  0  0
  -31.2868   17.4742  -14.3942 C   0  0  0  0  0  0  0  0  0  0  0  0
  -31.5124   18.4781  -15.2408 N   0  0  0  0  0  0  0  0  0  0  0  0
  -30.9738   18.2183  -16.4428 C   0  0  0  0  0  0  0  0  0  0  0  0
  1 10  1  0  0  0  0
  2  3  2  0  0  0  0
  2  1  1  0  0  0  0
  3  4  1  0  0  0  0
  4 10  2  0  0  0  0
  4  5  1  0  0  0  0
  5  7  2  0  0  0  0
  6  5  1  0  0  0  0
  7  8  1  0  0  0  0
  9  8  2  0  0  0  0
 10  9  1  0  0  0  0
M  END
>  <CHROM.1>
-30.52262927,17.27250584,-16.35343134,1.71980819,1.02181486,-0.98666027

>  <Name>
lig.pdb

>  <RI>
0

>  <Rbt.Current_Directory>
/home/itssahil/PROJECTS/Mol_Feturizer/New_Systems/rnas/5uza

>  <Rbt.Executable>
rbdock ($Id: //depot/dev/client3/rdock/2013.1/src/exe/rbdock.cxx#4 $)

>  <Rbt.Library>
libRbt.so (2013.1, Build901 2013/11/27)

>  <Rbt.Parameter_File>
/export/apps/rDock/src/rDock_2013.1_src/data/scripts/dock_solv.prm

>  <Rbt.Receptor>
prm/blind_docking_60.prm

>  <SCORE>
-33.8036

>  <SCORE.INTER>
-33.8038

>  <SCORE.INTER.CONST>
1

>  <SCORE.INTER.POLAR>
-3.03763

>  <SCORE.INTER.ROT>
0

>  <SCORE.INTER.SOLV>
12.258

>  <SCORE.INTER.VDW>
-20.0964

>  <SCORE.INTER.norm>
-3.38038

>  <SCORE.INTRA>
0

>  <SCORE.INTRA.DIHEDRAL>
0

>  <SCORE.INTRA.DIHEDRAL.0>
0

>  <SCORE.INTRA.POLAR>
0

>  <SCORE.INTRA.POLAR.0>
0

>  <SCORE.INTRA.REPUL>
0

>  <SCORE.INTRA.REPUL.0>
0

>  <SCORE.INTRA.SOLV>
0

>  <SCORE.INTRA.SOLV.lig_0>
-14.8845

>  <SCORE.INTRA.VDW>
0

>  <SCORE.INTRA.VDW.0>
0

>  <SCORE.INTRA.norm>
0

>  <SCORE.RESTR>
0.000124993

>  <SCORE.RESTR.CAVITY>
0.000124993

>  <SCORE.RESTR.norm>
1.24993e-05

>  <SCORE.SYSTEM>
0

>  <SCORE.SYSTEM.CONST>
0

>  <SCORE.SYSTEM.DIHEDRAL>
0

>  <SCORE.SYSTEM.SOLV>
0

>  <SCORE.SYSTEM.norm>
0

>  <SCORE.heavy>
10

>  <SCORE.norm>
-3.38036

>  <RMSD>
0.307

$$$$
lig.pdb
 OpenBabel11021811523D
libRbt.so/2013.1/901 2013/11/27
 10 11  0  0  0  0  0  0  0  0999 V2000
  -30.9899   19.0161  -17.5545 N   0  0  0  0  0  0  0  0  0  0  0  0
  -30.3175   18.3262  -18.5255 C   0  0  0  0  0  0  0  0  0  0  0  0
  -29.8645   17.1605  -18.1301 N   0  0  0  0  0  0  0  0  0  0  0  0
  -30.2658   17.0792  -16.8074 C   0  0  0  0  0  0  0  0  0  0  0  0
  -30.0992   16.0853  -15.8255 C   0  0  0  0  0  0  0  0  0  0  0  0
  -29.4465   14.9392  -16.0456 N   0  0  0  0  0  0  0  0  0  0  0  0
  -30.6265   16.3168  -14.6033 N   0  0  0  0  0  0  0  0  0  0  0  0
  -31.2754   17.4667  -14.3889 C   0  0  0  0  0  0  0  0  0  0  0  0
  -31.4970   18.4740  -15.2326 N   0  0  0  0  0  0  0  0  0  0  0  0
  -30.9615   18.2145  -16.4360 C   0  0  0  0  0  0  0  0  0  0  0  0
  1 10  1  0  0  0  0
  2  3  2  0  0  0  0
  2  1  1  0  0  0  0
  3  4  1  0  0  0  0
  4 10  2  0  0  0  0
  4  5  1  0  0  0  0
  5  7  2  0  0  0  0
  6  5  1  0  0  0  0
  7  8  1  0  0  0  0
  9  8  2  0  0  0  0
 10  9  1  0  0  0  0
M  END
>  <CHROM.1>
-30.51513480,17.26612945,-16.34978038,1.71666708,1.02695630,-0.98138408

>  <Name>
lig.pdb

>  <RI>
0

>  <Rbt.Current_Directory>
/home/itssahil/PROJECTS/Mol_Feturizer/New_Systems/rnas/5uza

>  <Rbt.Executable>
rbdock ($Id: //depot/dev/client3/rdock/2013.1/src/exe/rbdock.cxx#4 $)

>  <Rbt.Library>
libRbt.so (2013.1, Build901 2013/11/27)

>  <Rbt.Parameter_File>
/export/apps/rDock/src/rDock_2013.1_src/data/scripts/dock_solv.prm

>  <Rbt.Receptor>
prm/blind_docking_60.prm

>  <SCORE>
-33.8004

>  <SCORE.INTER>
-33.8004

>  <SCORE.INTER.CONST>
1

>  <SCORE.INTER.POLAR>
-3.03763

>  <SCORE.INTER.ROT>
0

>  <SCORE.INTER.SOLV>
12.2668

>  <SCORE.INTER.VDW>
-20.0971

>  <SCORE.INTER.norm>
-3.38004

>  <SCORE.INTRA>
0

>  <SCORE.INTRA.DIHEDRAL>
0

>  <SCORE.INTRA.DIHEDRAL.0>
0

>  <SCORE.INTRA.POLAR>
0

>  <SCORE.INTRA.POLAR.0>
0

>  <SCORE.INTRA.REPUL>
0

>  <SCORE.INTRA.REPUL.0>
0

>  <SCORE.INTRA.SOLV>
0

>  <SCORE.INTRA.SOLV.lig_0>
-14.8845

>  <SCORE.INTRA.VDW>
0

>  <SCORE.INTRA.VDW.0>
0

>  <SCORE.INTRA.norm>
0

>  <SCORE.RESTR>
0

>  <SCORE.RESTR.CAVITY>
0

>  <SCORE.RESTR.norm>
0

>  <SCORE.SYSTEM>
0

>  <SCORE.SYSTEM.CONST>
0

>  <SCORE.SYSTEM.DIHEDRAL>
0

>  <SCORE.SYSTEM.SOLV>
0

>  <SCORE.SYSTEM.norm>
0

>  <SCORE.heavy>
10

>  <SCORE.norm>
-3.38004

>  <RMSD>
0.307

$$$$
lig.pdb
 OpenBabel11021811523D
libRbt.so/2013.1/901 2013/11/27
 10 11  0  0  0  0  0  0  0  0999 V2000
  -30.9913   19.0230  -17.5739 N   0  0  0  0  0  0  0  0  0  0  0  0
  -30.3194   18.3280  -18.5417 C   0  0  0  0  0  0  0  0  0  0  0  0
  -29.8673   17.1638  -18.1408 N   0  0  0  0  0  0  0  0  0  0  0  0
  -30.2687   17.0890  -16.8177 C   0  0  0  0  0  0  0  0  0  0  0  0
  -30.1028   16.0996  -15.8312 C   0  0  0  0  0  0  0  0  0  0  0  0
  -29.4510   14.9520  -16.0460 N   0  0  0  0  0  0  0  0  0  0  0  0
  -30.6298   16.3373  -14.6101 N   0  0  0  0  0  0  0  0  0  0  0  0
  -31.2778   17.4886  -14.4011 C   0  0  0  0  0  0  0  0  0  0  0  0
  -31.4986   18.4922  -15.2494 N   0  0  0  0  0  0  0  0  0  0  0  0
  -30.9634   18.2267  -16.4517 C   0  0  0  0  0  0  0  0  0  0  0  0
  1 10  1  0  0  0  0
  2  3  2  0  0  0  0
  2  1  1  0  0  0  0
  3  4  1  0  0  0  0
  4 10  2  0  0  0  0
  4  5  1  0  0  0  0
  5  7  2  0  0  0  0
  6  5  1  0  0  0  0
  7  8  1  0  0  0  0
  9  8  2  0  0  0  0
 10  9  1  0  0  0  0
M  END
>  <CHROM.1>
-30.51779573,17.27832271,-16.36101422,1.71587905,1.02764371,-0.98539896

>  <Name>
lig.pdb

>  <RI>
0

>  <Rbt.Current_Directory>
/home/itssahil/PROJECTS/Mol_Feturizer/New_Systems/rnas/5uza

>  <Rbt.Executable>
rbdock ($Id: //depot/dev/client3/rdock/2013.1/src/exe/rbdock.cxx#4 $)

>  <Rbt.Library>
libRbt.so (2013.1, Build901 2013/11/27)

>  <Rbt.Parameter_File>
/export/apps/rDock/src/rDock_2013.1_src/data/scripts/dock_solv.prm

>  <Rbt.Receptor>
prm/pocket_docking_3.prm

>  <SCORE>
-33.8146

>  <SCORE.INTER>
-33.8146

>  <SCORE.INTER.CONST>
1

>  <SCORE.INTER.POLAR>
-3.03763

>  <SCORE.INTER.ROT>
0

>  <SCORE.INTER.SOLV>
12.2702

>  <SCORE.INTER.VDW>
-20.1077

>  <SCORE.INTER.norm>
-3.38146

>  <SCORE.INTRA>
0

>  <SCORE.INTRA.DIHEDRAL>
0

>  <SCORE.INTRA.DIHEDRAL.0>
0

>  <SCORE.INTRA.POLAR>
0

>  <SCORE.INTRA.POLAR.0>
0

>  <SCORE.INTRA.REPUL>
0

>  <SCORE.INTRA.REPUL.0>
0

>  <SCORE.INTRA.SOLV>
0

>  <SCORE.INTRA.SOLV.lig_0>
-14.8845

>  <SCORE.INTRA.VDW>
0

>  <SCORE.INTRA.VDW.0>
0

>  <SCORE.INTRA.norm>
0

>  <SCORE.RESTR>
0

>  <SCORE.RESTR.CAVITY>
0

>  <SCORE.RESTR.norm>
0

>  <SCORE.SYSTEM>
0

>  <SCORE.SYSTEM.CONST>
0

>  <SCORE.SYSTEM.DIHEDRAL>
0

>  <SCORE.SYSTEM.SOLV>
0

>  <SCORE.SYSTEM.norm>
0

>  <SCORE.heavy>
10

>  <SCORE.norm>
-3.38146

>  <RMSD>
0.307

$$$$
lig.pdb
 OpenBabel11021811523D
libRbt.so/2013.1/901 2013/11/27
 10 11  0  0  0  0  0  0  0  0999 V2000
  -31.0114   19.0224  -17.5696 N   0  0  0  0  0  0  0  0  0  0  0  0
  -30.3336   18.3316  -18.5362 C   0  0  0  0  0  0  0  0  0  0  0  0
  -29.8726   17.1714  -18.1339 N   0  0  0  0  0  0  0  0  0  0  0  0
  -30.2742   17.0949  -16.8109 C   0  0  0  0  0  0  0  0  0  0  0  0
  -30.1011   16.1079  -15.8233 C   0  0  0  0  0  0  0  0  0  0  0  0
  -29.4402   14.9652  -16.0364 N   0  0  0  0  0  0  0  0  0  0  0  0
  -30.6307   16.3428  -14.6027 N   0  0  0  0  0  0  0  0  0  0  0  0
  -31.2877   17.4892  -14.3953 C   0  0  0  0  0  0  0  0  0  0  0  0
  -31.5159   18.4901  -15.2448 N   0  0  0  0  0  0  0  0  0  0  0  0
  -30.9780   18.2275  -16.4465 C   0  0  0  0  0  0  0  0  0  0  0  0
  1 10  1  0  0  0  0
  2  3  2  0  0  0  0
  2  1  1  0  0  0  0
  3  4  1  0  0  0  0
  4 10  2  0  0  0  0
  4  5  1  0  0  0  0
  5  7  2  0  0  0  0
  6  5  1  0  0  0  0
  7  8  1  0  0  0  0
  9  8  2  0  0  0  0
 10  9  1  0  0  0  0
M  END
>  <CHROM.1>
-30.52501236,17.28274846,-16.35455737,1.72325162,1.02080184,-0.99277500

>  <Name>
lig.pdb

>  <RI>
1.17431e+07

>  <Rbt.Current_Directory>
/home/itssahil/PROJECTS/Mol_Feturizer/New_Systems/rnas/5uza

>  <Rbt.Executable>
rbdock ($Id: //depot/dev/client3/rdock/2013.1/src/exe/rbdock.cxx#4 $)

>  <Rbt.Library>
libRbt.so (2013.1, Build901 2013/11/27)

>  <Rbt.Parameter_File>
/export/apps/rDock/src/rDock_2013.1_src/data/scripts/dock_solv.prm

>  <Rbt.Receptor>
prm/pocket_docking_6.prm

>  <SCORE>
-33.8003

>  <SCORE.INTER>
-33.8003

>  <SCORE.INTER.CONST>
1

>  <SCORE.INTER.POLAR>
-3.03763

>  <SCORE.INTER.ROT>
0

>  <SCORE.INTER.SOLV>
12.2505

>  <SCORE.INTER.VDW>
-20.0916

>  <SCORE.INTER.norm>
-3.38003

>  <SCORE.INTRA>
0

>  <SCORE.INTRA.DIHEDRAL>
0

>  <SCORE.INTRA.DIHEDRAL.0>
0

>  <SCORE.INTRA.POLAR>
0

>  <SCORE.INTRA.POLAR.0>
0

>  <SCORE.INTRA.REPUL>
0

>  <SCORE.INTRA.REPUL.0>
0

>  <SCORE.INTRA.SOLV>
0

>  <SCORE.INTRA.SOLV.lig_0>
-14.8845

>  <SCORE.INTRA.VDW>
0

>  <SCORE.INTRA.VDW.0>
0

>  <SCORE.INTRA.norm>
0

>  <SCORE.RESTR>
0

>  <SCORE.RESTR.CAVITY>
0

>  <SCORE.RESTR.norm>
0

>  <SCORE.SYSTEM>
0

>  <SCORE.SYSTEM.CONST>
0

>  <SCORE.SYSTEM.DIHEDRAL>
0

>  <SCORE.SYSTEM.SOLV>
0

>  <SCORE.SYSTEM.norm>
0

>  <SCORE.heavy>
10

>  <SCORE.norm>
-3.38003

>  <RMSD>
0.307

$$$$
lig.pdb
 OpenBabel11021811523D
libRbt.so/2013.1/901 2013/11/27
 10 11  0  0  0  0  0  0  0  0999 V2000
  -30.9889   19.0138  -17.5620 N   0  0  0  0  0  0  0  0  0  0  0  0
  -30.3135   18.3215  -18.5292 C   0  0  0  0  0  0  0  0  0  0  0  0
  -29.8609   17.1572  -18.1293 N   0  0  0  0  0  0  0  0  0  0  0  0
  -30.2659   17.0794  -16.8074 C   0  0  0  0  0  0  0  0  0  0  0  0
  -30.1014   16.0883  -15.8223 C   0  0  0  0  0  0  0  0  0  0  0  0
  -29.4475   14.9420  -16.0374 N   0  0  0  0  0  0  0  0  0  0  0  0
  -30.6321   16.3230  -14.6023 N   0  0  0  0  0  0  0  0  0  0  0  0
  -31.2822   17.4731  -14.3928 C   0  0  0  0  0  0  0  0  0  0  0  0
  -31.5020   18.4779  -15.2399 N   0  0  0  0  0  0  0  0  0  0  0  0
  -30.9631   18.2154  -16.4411 C   0  0  0  0  0  0  0  0  0  0  0  0
  1 10  1  0  0  0  0
  2  3  2  0  0  0  0
  2  1  1  0  0  0  0
  3  4  1  0  0  0  0
  4 10  2  0  0  0  0
  4  5  1  0  0  0  0
  5  7  2  0  0  0  0
  6  5  1  0  0  0  0
  7  8  1  0  0  0  0
  9  8  2  0  0  0  0
 10  9  1  0  0  0  0
M  END
>  <CHROM.1>
-30.51649352,17.26749699,-16.35103752,1.71285265,1.02500110,-0.98092551

>  <Name>
lig.pdb

>  <RI>
2.12818e+07

>  <Rbt.Current_Directory>
/home/itssahil/PROJECTS/Mol_Feturizer/New_Systems/rnas/5uza

>  <Rbt.Executable>
rbdock ($Id: //depot/dev/client3/rdock/2013.1/src/exe/rbdock.cxx#4 $)

>  <Rbt.Library>
libRbt.so (2013.1, Build901 2013/11/27)

>  <Rbt.Parameter_File>
/export/apps/rDock/src/rDock_2013.1_src/data/scripts/dock_solv.prm

>  <Rbt.Receptor>
prm/pocket_docking_7.prm

>  <SCORE>
-33.8028

>  <SCORE.INTER>
-33.8028

>  <SCORE.INTER.CONST>
1

>  <SCORE.INTER.POLAR>
-3.03763

>  <SCORE.INTER.ROT>
0

>  <SCORE.INTER.SOLV>
12.2699

>  <SCORE.INTER.VDW>
-20.0997

>  <SCORE.INTER.norm>
-3.38028

>  <SCORE.INTRA>
0

>  <SCORE.INTRA.DIHEDRAL>
0

>  <SCORE.INTRA.DIHEDRAL.0>
0

>  <SCORE.INTRA.POLAR>
0

>  <SCORE.INTRA.POLAR.0>
0

>  <SCORE.INTRA.REPUL>
0

>  <SCORE.INTRA.REPUL.0>
0

>  <SCORE.INTRA.SOLV>
0

>  <SCORE.INTRA.SOLV.lig_0>
-14.8845

>  <SCORE.INTRA.VDW>
0

>  <SCORE.INTRA.VDW.0>
0

>  <SCORE.INTRA.norm>
0

>  <SCORE.RESTR>
0

>  <SCORE.RESTR.CAVITY>
0

>  <SCORE.RESTR.norm>
0

>  <SCORE.SYSTEM>
0

>  <SCORE.SYSTEM.CONST>
0

>  <SCORE.SYSTEM.DIHEDRAL>
0

>  <SCORE.SYSTEM.SOLV>
0

>  <SCORE.SYSTEM.norm>
0

>  <SCORE.heavy>
10

>  <SCORE.norm>
-3.38028

>  <RMSD>
0.307

$$$$
lig.pdb
 OpenBabel11021811523D
libRbt.so/2013.1/901 2013/11/27
 10 11  0  0  0  0  0  0  0  0999 V2000
  -31.0088   19.0223  -17.5674 N   0  0  0  0  0  0  0  0  0  0  0  0
  -30.3341   18.3309  -18.5358 C   0  0  0  0  0  0  0  0  0  0  0  0
  -29.8747   17.1695  -18.1352 N   0  0  0  0  0  0  0  0  0  0  0  0
  -30.2741   17.0928  -16.8116 C   0  0  0  0  0  0  0  0  0  0  0  0
  -30.1012   16.1046  -15.8250 C   0  0  0  0  0  0  0  0  0  0  0  0
  -29.4430   14.9608  -16.0403 N   0  0  0  0  0  0  0  0  0  0  0  0
  -30.6282   16.3395  -14.6034 N   0  0  0  0  0  0  0  0  0  0  0  0
  -31.2827   17.4871  -14.3938 C   0  0  0  0  0  0  0  0  0  0  0  0
  -31.5103   18.4891  -15.2422 N   0  0  0  0  0  0  0  0  0  0  0  0
  -30.9750   18.2264  -16.4450 C   0  0  0  0  0  0  0  0  0  0  0  0
  1 10  1  0  0  0  0
  2  3  2  0  0  0  0
  2  1  1  0  0  0  0
  3  4  1  0  0  0  0
  4 10  2  0  0  0  0
  4  5  1  0  0  0  0
  5  7  2  0  0  0  0
  6  5  1  0  0  0  0
  7  8  1  0  0  0  0
  9  8  2  0  0  0  0
 10  9  1  0  0  0  0
M  END
>  <CHROM.1>
-30.52375464,17.28070205,-16.35461058,1.72397819,1.02341131,-0.99258113

>  <Name>
lig.pdb

>  <RI>
2.12818e+07

>  <Rbt.Current_Directory>
/home/itssahil/PROJECTS/Mol_Feturizer/New_Systems/rnas/5uza

>  <Rbt.Executable>
rbdock ($Id: //depot/dev/client3/rdock/2013.1/src/exe/rbdock.cxx#4 $)

>  <Rbt.Library>
libRbt.so (2013.1, Build901 2013/11/27)

>  <Rbt.Parameter_File>
/export/apps/rDock/src/rDock_2013.1_src/data/scripts/dock_solv.prm

>  <Rbt.Receptor>
prm/pocket_docking_7.prm

>  <SCORE>
-33.8028

>  <SCORE.INTER>
-33.8036

>  <SCORE.INTER.CONST>
1

>  <SCORE.INTER.POLAR>
-3.03763

>  <SCORE.INTER.ROT>
0

>  <SCORE.INTER.SOLV>
12.2535

>  <SCORE.INTER.VDW>
-20.0948

>  <SCORE.INTER.norm>
-3.38036

>  <SCORE.INTRA>
0

>  <SCORE.INTRA.DIHEDRAL>
0

>  <SCORE.INTRA.DIHEDRAL.0>
0

>  <SCORE.INTRA.POLAR>
0

>  <SCORE.INTRA.POLAR.0>
0

>  <SCORE.INTRA.REPUL>
0

>  <SCORE.INTRA.REPUL.0>
0

>  <SCORE.INTRA.SOLV>
0

>  <SCORE.INTRA.SOLV.lig_0>
-14.8845

>  <SCORE.INTRA.VDW>
0

>  <SCORE.INTRA.VDW.0>
0

>  <SCORE.INTRA.norm>
0

>  <SCORE.RESTR>
0.000825537

>  <SCORE.RESTR.CAVITY>
0.000825537

>  <SCORE.RESTR.norm>
8.25537e-05

>  <SCORE.SYSTEM>
0

>  <SCORE.SYSTEM.CONST>
0

>  <SCORE.SYSTEM.DIHEDRAL>
0

>  <SCORE.SYSTEM.SOLV>
0

>  <SCORE.SYSTEM.norm>
0

>  <SCORE.heavy>
10

>  <SCORE.norm>
-3.38028

>  <RMSD>
0.307

$$$$
lig.pdb
 OpenBabel11021811523D
libRbt.so/2013.1/901 2013/11/27
 10 11  0  0  0  0  0  0  0  0999 V2000
  -31.0043   19.0208  -17.5661 N   0  0  0  0  0  0  0  0  0  0  0  0
  -30.3307   18.3277  -18.5340 C   0  0  0  0  0  0  0  0  0  0  0  0
  -29.8737   17.1656  -18.1328 N   0  0  0  0  0  0  0  0  0  0  0  0
  -30.2734   17.0902  -16.8093 C   0  0  0  0  0  0  0  0  0  0  0  0
  -30.1027   16.1021  -15.8222 C   0  0  0  0  0  0  0  0  0  0  0  0
  -29.4467   14.9569  -16.0368 N   0  0  0  0  0  0  0  0  0  0  0  0
  -30.6295   16.3386  -14.6008 N   0  0  0  0  0  0  0  0  0  0  0  0
  -31.2817   17.4876  -14.3919 C   0  0  0  0  0  0  0  0  0  0  0  0
  -31.5073   18.4896  -15.2407 N   0  0  0  0  0  0  0  0  0  0  0  0
  -30.9722   18.2253  -16.4433 C   0  0  0  0  0  0  0  0  0  0  0  0
  1 10  1  0  0  0  0
  2  3  2  0  0  0  0
  2  1  1  0  0  0  0
  3  4  1  0  0  0  0
  4 10  2  0  0  0  0
  4  5  1  0  0  0  0
  5  7  2  0  0  0  0
  6  5  1  0  0  0  0
  7  8  1  0  0  0  0
  9  8  2  0  0  0  0
 10  9  1  0  0  0  0
M  END
>  <CHROM.1>
-30.52284257,17.27882025,-16.35243823,1.72161915,1.02494021,-0.99102490

>  <Name>
lig.pdb

>  <RI>
2.26746e+07

>  <Rbt.Current_Directory>
/home/itssahil/PROJECTS/Mol_Feturizer/New_Systems/rnas/5uza

>  <Rbt.Executable>
rbdock ($Id: //depot/dev/client3/rdock/2013.1/src/exe/rbdock.cxx#4 $)

>  <Rbt.Library>
libRbt.so (2013.1, Build901 2013/11/27)

>  <Rbt.Parameter_File>
/export/apps/rDock/src/rDock_2013.1_src/data/scripts/dock_solv.prm

>  <Rbt.Receptor>
prm/blind_docking_100.prm

>  <SCORE>
-33.8028

>  <SCORE.INTER>
-33.8028

>  <SCORE.INTER.CONST>
1

>  <SCORE.INTER.POLAR>
-3.03763

>  <SCORE.INTER.ROT>
0

>  <SCORE.INTER.SOLV>
12.26

>  <SCORE.INTER.VDW>
-20.0964

>  <SCORE.INTER.norm>
-3.38028

>  <SCORE.INTRA>
0

>  <SCORE.INTRA.DIHEDRAL>
0

>  <SCORE.INTRA.DIHEDRAL.0>
0

>  <SCORE.INTRA.POLAR>
0

>  <SCORE.INTRA.POLAR.0>
0

>  <SCORE.INTRA.REPUL>
0

>  <SCORE.INTRA.REPUL.0>
0

>  <SCORE.INTRA.SOLV>
0

>  <SCORE.INTRA.SOLV.lig_0>
-14.8845

>  <SCORE.INTRA.VDW>
0

>  <SCORE.INTRA.VDW.0>
0

>  <SCORE.INTRA.norm>
0

>  <SCORE.RESTR>
0

>  <SCORE.RESTR.CAVITY>
0

>  <SCORE.RESTR.norm>
0

>  <SCORE.SYSTEM>
0

>  <SCORE.SYSTEM.CONST>
0

>  <SCORE.SYSTEM.DIHEDRAL>
0

>  <SCORE.SYSTEM.SOLV>
0

>  <SCORE.SYSTEM.norm>
0

>  <SCORE.heavy>
10

>  <SCORE.norm>
-3.38028

>  <RMSD>
0.308

$$$$
lig.pdb
 OpenBabel11021811523D
libRbt.so/2013.1/901 2013/11/27
 10 11  0  0  0  0  0  0  0  0999 V2000
  -31.0048   19.0243  -17.5619 N   0  0  0  0  0  0  0  0  0  0  0  0
  -30.3299   18.3348  -18.5315 C   0  0  0  0  0  0  0  0  0  0  0  0
  -29.8715   17.1722  -18.1333 N   0  0  0  0  0  0  0  0  0  0  0  0
  -30.2715   17.0926  -16.8101 C   0  0  0  0  0  0  0  0  0  0  0  0
  -30.0998   16.1021  -15.8258 C   0  0  0  0  0  0  0  0  0  0  0  0
  -29.4421   14.9584  -16.0433 N   0  0  0  0  0  0  0  0  0  0  0  0
  -30.6272   16.3345  -14.6038 N   0  0  0  0  0  0  0  0  0  0  0  0
  -31.2811   17.4820  -14.3920 C   0  0  0  0  0  0  0  0  0  0  0  0
  -31.5078   18.4861  -15.2381 N   0  0  0  0  0  0  0  0  0  0  0  0
  -30.9720   18.2258  -16.4413 C   0  0  0  0  0  0  0  0  0  0  0  0
  1 10  1  0  0  0  0
  2  3  2  0  0  0  0
  2  1  1  0  0  0  0
  3  4  1  0  0  0  0
  4 10  2  0  0  0  0
  4  5  1  0  0  0  0
  5  7  2  0  0  0  0
  6  5  1  0  0  0  0
  7  8  1  0  0  0  0
  9  8  2  0  0  0  0
 10  9  1  0  0  0  0
M  END
>  <CHROM.1>
-30.52133677,17.27966172,-16.35285512,1.72255160,1.02362823,-0.98906553

>  <Name>
lig.pdb

>  <RI>
0

>  <Rbt.Current_Directory>
/home/itssahil/PROJECTS/Mol_Feturizer/New_Systems/rnas/5uza

>  <Rbt.Executable>
rbdock ($Id: //depot/dev/client3/rdock/2013.1/src/exe/rbdock.cxx#4 $)

>  <Rbt.Library>
libRbt.so (2013.1, Build901 2013/11/27)

>  <Rbt.Parameter_File>
/export/apps/rDock/src/rDock_2013.1_src/data/scripts/dock_solv.prm

>  <Rbt.Receptor>
prm/blind_docking_80.prm

>  <SCORE>
-33.8011

>  <SCORE.INTER>
-33.8011

>  <SCORE.INTER.CONST>
1

>  <SCORE.INTER.POLAR>
-3.03763

>  <SCORE.INTER.ROT>
0

>  <SCORE.INTER.SOLV>
12.2557

>  <SCORE.INTER.VDW>
-20.0939

>  <SCORE.INTER.norm>
-3.38011

>  <SCORE.INTRA>
0

>  <SCORE.INTRA.DIHEDRAL>
0

>  <SCORE.INTRA.DIHEDRAL.0>
0

>  <SCORE.INTRA.POLAR>
0

>  <SCORE.INTRA.POLAR.0>
0

>  <SCORE.INTRA.REPUL>
0

>  <SCORE.INTRA.REPUL.0>
0

>  <SCORE.INTRA.SOLV>
0

>  <SCORE.INTRA.SOLV.lig_0>
-14.8845

>  <SCORE.INTRA.VDW>
0

>  <SCORE.INTRA.VDW.0>
0

>  <SCORE.INTRA.norm>
0

>  <SCORE.RESTR>
0

>  <SCORE.RESTR.CAVITY>
0

>  <SCORE.RESTR.norm>
0

>  <SCORE.SYSTEM>
0

>  <SCORE.SYSTEM.CONST>
0

>  <SCORE.SYSTEM.DIHEDRAL>
0

>  <SCORE.SYSTEM.SOLV>
0

>  <SCORE.SYSTEM.norm>
0

>  <SCORE.heavy>
10

>  <SCORE.norm>
-3.38011

>  <RMSD>
0.308

$$$$
lig.pdb
 OpenBabel11021811523D
libRbt.so/2013.1/901 2013/11/27
 10 11  0  0  0  0  0  0  0  0999 V2000
  -30.9990   19.0239  -17.5635 N   0  0  0  0  0  0  0  0  0  0  0  0
  -30.3242   18.3331  -18.5323 C   0  0  0  0  0  0  0  0  0  0  0  0
  -29.8683   17.1697  -18.1336 N   0  0  0  0  0  0  0  0  0  0  0  0
  -30.2702   17.0908  -16.8109 C   0  0  0  0  0  0  0  0  0  0  0  0
  -30.1014   16.0999  -15.8264 C   0  0  0  0  0  0  0  0  0  0  0  0
  -29.4456   14.9550  -16.0431 N   0  0  0  0  0  0  0  0  0  0  0  0
  -30.6299   16.3333  -14.6051 N   0  0  0  0  0  0  0  0  0  0  0  0
  -31.2820   17.4819  -14.3940 C   0  0  0  0  0  0  0  0  0  0  0  0
  -31.5058   18.4864  -15.2404 N   0  0  0  0  0  0  0  0  0  0  0  0
  -30.9690   18.2253  -16.4429 C   0  0  0  0  0  0  0  0  0  0  0  0
  1 10  1  0  0  0  0
  2  3  2  0  0  0  0
  2  1  1  0  0  0  0
  3  4  1  0  0  0  0
  4 10  2  0  0  0  0
  4  5  1  0  0  0  0
  5  7  2  0  0  0  0
  6  5  1  0  0  0  0
  7  8  1  0  0  0  0
  9  8  2  0  0  0  0
 10  9  1  0  0  0  0
M  END
>  <CHROM.1>
-30.52018835,17.27828522,-16.35393591,1.71868020,1.02447706,-0.98572298

>  <Name>
lig.pdb

>  <RI>
0

>  <Rbt.Current_Directory>
/home/itssahil/PROJECTS/Mol_Feturizer/New_Systems/rnas/5uza

>  <Rbt.Executable>
rbdock ($Id: //depot/dev/client3/rdock/2013.1/src/exe/rbdock.cxx#4 $)

>  <Rbt.Library>
libRbt.so (2013.1, Build901 2013/11/27)

>  <Rbt.Parameter_File>
/export/apps/rDock/src/rDock_2013.1_src/data/scripts/dock_solv.prm

>  <Rbt.Receptor>
prm/blind_docking_80.prm

>  <SCORE>
-33.8032

>  <SCORE.INTER>
-33.8034

>  <SCORE.INTER.CONST>
1

>  <SCORE.INTER.POLAR>
-3.03763

>  <SCORE.INTER.ROT>
0

>  <SCORE.INTER.SOLV>
12.2635

>  <SCORE.INTER.VDW>
-20.098

>  <SCORE.INTER.norm>
-3.38034

>  <SCORE.INTRA>
0

>  <SCORE.INTRA.DIHEDRAL>
0

>  <SCORE.INTRA.DIHEDRAL.0>
0

>  <SCORE.INTRA.POLAR>
0

>  <SCORE.INTRA.POLAR.0>
0

>  <SCORE.INTRA.REPUL>
0

>  <SCORE.INTRA.REPUL.0>
0

>  <SCORE.INTRA.SOLV>
0

>  <SCORE.INTRA.SOLV.lig_0>
-14.8845

>  <SCORE.INTRA.VDW>
0

>  <SCORE.INTRA.VDW.0>
0

>  <SCORE.INTRA.norm>
0

>  <SCORE.RESTR>
0.000223012

>  <SCORE.RESTR.CAVITY>
0.000223012

>  <SCORE.RESTR.norm>
2.23012e-05

>  <SCORE.SYSTEM>
0

>  <SCORE.SYSTEM.CONST>
0

>  <SCORE.SYSTEM.DIHEDRAL>
0

>  <SCORE.SYSTEM.SOLV>
0

>  <SCORE.SYSTEM.norm>
0

>  <SCORE.heavy>
10

>  <SCORE.norm>
-3.38032

>  <RMSD>
0.308

$$$$
lig.pdb
 OpenBabel11021811523D
libRbt.so/2013.1/901 2013/11/27
 10 11  0  0  0  0  0  0  0  0999 V2000
  -30.9969   19.0154  -17.5609 N   0  0  0  0  0  0  0  0  0  0  0  0
  -30.3229   18.3238  -18.5296 C   0  0  0  0  0  0  0  0  0  0  0  0
  -29.8684   17.1598  -18.1308 N   0  0  0  0  0  0  0  0  0  0  0  0
  -30.2704   17.0816  -16.8081 C   0  0  0  0  0  0  0  0  0  0  0  0
  -30.1029   16.0905  -15.8235 C   0  0  0  0  0  0  0  0  0  0  0  0
  -29.4484   14.9449  -16.0401 N   0  0  0  0  0  0  0  0  0  0  0  0
  -30.6313   16.3247  -14.6022 N   0  0  0  0  0  0  0  0  0  0  0  0
  -31.2820   17.4741  -14.3913 C   0  0  0  0  0  0  0  0  0  0  0  0
  -31.5045   18.4788  -15.2378 N   0  0  0  0  0  0  0  0  0  0  0  0
  -30.9680   18.2169  -16.4402 C   0  0  0  0  0  0  0  0  0  0  0  0
  1 10  1  0  0  0  0
  2  3  2  0  0  0  0
  2  1  1  0  0  0  0
  3  4  1  0  0  0  0
  4 10  2  0  0  0  0
  4  5  1  0  0  0  0
  5  7  2  0  0  0  0
  6  5  1  0  0  0  0
  7  8  1  0  0  0  0
  9  8  2  0  0  0  0
 10  9  1  0  0  0  0
M  END
>  <CHROM.1>
-30.52027664,17.26937160,-16.35117698,1.71728913,1.02542119,-0.98463748

>  <Name>
lig.pdb

>  <RI>
0

>  <Rbt.Current_Directory>
/home/itssahil/PROJECTS/Mol_Feturizer/New_Systems/rnas/5uza

>  <Rbt.Executable>
rbdock ($Id: //depot/dev/client3/rdock/2013.1/src/exe/rbdock.cxx#4 $)

>  <Rbt.Library>
libRbt.so (2013.1, Build901 2013/11/27)

>  <Rbt.Parameter_File>
/export/apps/rDock/src/rDock_2013.1_src/data/scripts/dock_solv.prm

>  <Rbt.Receptor>
prm/blind_docking_80.prm

>  <SCORE>
-33.8041

>  <SCORE.INTER>
-33.8041

>  <SCORE.INTER.CONST>
1

>  <SCORE.INTER.POLAR>
-3.03763

>  <SCORE.INTER.ROT>
0

>  <SCORE.INTER.SOLV>
12.2671

>  <SCORE.INTER.VDW>
-20.0997

>  <SCORE.INTER.norm>
-3.38041

>  <SCORE.INTRA>
0

>  <SCORE.INTRA.DIHEDRAL>
0

>  <SCORE.INTRA.DIHEDRAL.0>
0

>  <SCORE.INTRA.POLAR>
0

>  <SCORE.INTRA.POLAR.0>
0

>  <SCORE.INTRA.REPUL>
0

>  <SCORE.INTRA.REPUL.0>
0

>  <SCORE.INTRA.SOLV>
0

>  <SCORE.INTRA.SOLV.lig_0>
-14.8845

>  <SCORE.INTRA.VDW>
0

>  <SCORE.INTRA.VDW.0>
0

>  <SCORE.INTRA.norm>
0

>  <SCORE.RESTR>
2.60768e-06

>  <SCORE.RESTR.CAVITY>
2.60768e-06

>  <SCORE.RESTR.norm>
2.60768e-07

>  <SCORE.SYSTEM>
0

>  <SCORE.SYSTEM.CONST>
0

>  <SCORE.SYSTEM.DIHEDRAL>
0

>  <SCORE.SYSTEM.SOLV>
0

>  <SCORE.SYSTEM.norm>
0

>  <SCORE.heavy>
10

>  <SCORE.norm>
-3.38041

>  <RMSD>
0.308

$$$$
lig.pdb
 OpenBabel11021811523D
libRbt.so/2013.1/901 2013/11/27
 10 11  0  0  0  0  0  0  0  0999 V2000
  -30.9872   19.0193  -17.5522 N   0  0  0  0  0  0  0  0  0  0  0  0
  -30.3229   18.3252  -18.5258 C   0  0  0  0  0  0  0  0  0  0  0  0
  -29.8720   17.1585  -18.1311 N   0  0  0  0  0  0  0  0  0  0  0  0
  -30.2662   17.0809  -16.8059 C   0  0  0  0  0  0  0  0  0  0  0  0
  -30.0977   16.0880  -15.8234 C   0  0  0  0  0  0  0  0  0  0  0  0
  -29.4505   14.9391  -16.0453 N   0  0  0  0  0  0  0  0  0  0  0  0
  -30.6171   16.3235  -14.5986 N   0  0  0  0  0  0  0  0  0  0  0  0
  -31.2605   17.4762  -14.3824 C   0  0  0  0  0  0  0  0  0  0  0  0
  -31.4830   18.4829  -15.2265 N   0  0  0  0  0  0  0  0  0  0  0  0
  -30.9554   18.2194  -16.4325 C   0  0  0  0  0  0  0  0  0  0  0  0
  1 10  1  0  0  0  0
  2  3  2  0  0  0  0
  2  1  1  0  0  0  0
  3  4  1  0  0  0  0
  4 10  2  0  0  0  0
  4  5  1  0  0  0  0
  5  7  2  0  0  0  0
  6  5  1  0  0  0  0
  7  8  1  0  0  0  0
  9  8  2  0  0  0  0
 10  9  1  0  0  0  0
M  END
>  <CHROM.1>
-30.51214326,17.26950616,-16.34725954,1.72183574,1.03324312,-0.98749094

>  <Name>
lig.pdb

>  <RI>
9.24451e+06

>  <Rbt.Current_Directory>
/home/itssahil/PROJECTS/Mol_Feturizer/New_Systems/rnas/5uza

>  <Rbt.Executable>
rbdock ($Id: //depot/dev/client3/rdock/2013.1/src/exe/rbdock.cxx#4 $)

>  <Rbt.Library>
libRbt.so (2013.1, Build901 2013/11/27)

>  <Rbt.Parameter_File>
/export/apps/rDock/src/rDock_2013.1_src/data/scripts/dock_solv.prm

>  <Rbt.Receptor>
prm/pocket_docking_4.prm

>  <SCORE>
-33.796

>  <SCORE.INTER>
-33.796

>  <SCORE.INTER.CONST>
1

>  <SCORE.INTER.POLAR>
-3.03763

>  <SCORE.INTER.ROT>
0

>  <SCORE.INTER.SOLV>
12.2659

>  <SCORE.INTER.VDW>
-20.0939

>  <SCORE.INTER.norm>
-3.3796

>  <SCORE.INTRA>
0

>  <SCORE.INTRA.DIHEDRAL>
0

>  <SCORE.INTRA.DIHEDRAL.0>
0

>  <SCORE.INTRA.POLAR>
0

>  <SCORE.INTRA.POLAR.0>
0

>  <SCORE.INTRA.REPUL>
0

>  <SCORE.INTRA.REPUL.0>
0

>  <SCORE.INTRA.SOLV>
0

>  <SCORE.INTRA.SOLV.lig_0>
-14.8845

>  <SCORE.INTRA.VDW>
0

>  <SCORE.INTRA.VDW.0>
0

>  <SCORE.INTRA.norm>
0

>  <SCORE.RESTR>
0

>  <SCORE.RESTR.CAVITY>
0

>  <SCORE.RESTR.norm>
0

>  <SCORE.SYSTEM>
0

>  <SCORE.SYSTEM.CONST>
0

>  <SCORE.SYSTEM.DIHEDRAL>
0

>  <SCORE.SYSTEM.SOLV>
0

>  <SCORE.SYSTEM.norm>
0

>  <SCORE.heavy>
10

>  <SCORE.norm>
-3.3796

>  <RMSD>
0.308

$$$$
lig.pdb
 OpenBabel11021811523D
libRbt.so/2013.1/901 2013/11/27
 10 11  0  0  0  0  0  0  0  0999 V2000
  -31.0085   19.0111  -17.5639 N   0  0  0  0  0  0  0  0  0  0  0  0
  -30.3306   18.3215  -18.5313 C   0  0  0  0  0  0  0  0  0  0  0  0
  -29.8722   17.1596  -18.1312 N   0  0  0  0  0  0  0  0  0  0  0  0
  -30.2756   17.0806  -16.8090 C   0  0  0  0  0  0  0  0  0  0  0  0
  -30.1055   16.0908  -15.8235 C   0  0  0  0  0  0  0  0  0  0  0  0
  -29.4463   14.9475  -16.0385 N   0  0  0  0  0  0  0  0  0  0  0  0
  -30.6363   16.3237  -14.6031 N   0  0  0  0  0  0  0  0  0  0  0  0
  -31.2917   17.4707  -14.3937 C   0  0  0  0  0  0  0  0  0  0  0  0
  -31.5170   18.4740  -15.2411 N   0  0  0  0  0  0  0  0  0  0  0  0
  -30.9779   18.2134  -16.4427 C   0  0  0  0  0  0  0  0  0  0  0  0
  1 10  1  0  0  0  0
  2  3  2  0  0  0  0
  2  1  1  0  0  0  0
  3  4  1  0  0  0  0
  4 10  2  0  0  0  0
  4  5  1  0  0  0  0
  5  7  2  0  0  0  0
  6  5  1  0  0  0  0
  7  8  1  0  0  0  0
  9  8  2  0  0  0  0
 10  9  1  0  0  0  0
M  END
>  <CHROM.1>
-30.52670706,17.26771085,-16.35245690,1.71932979,1.02151520,-0.98699553

>  <Name>
lig.pdb

>  <RI>
0

>  <Rbt.Current_Directory>
/home/itssahil/PROJECTS/Mol_Feturizer/New_Systems/rnas/5uza

>  <Rbt.Executable>
rbdock ($Id: //depot/dev/client3/rdock/2013.1/src/exe/rbdock.cxx#4 $)

>  <Rbt.Library>
libRbt.so (2013.1, Build901 2013/11/27)

>  <Rbt.Parameter_File>
/export/apps/rDock/src/rDock_2013.1_src/data/scripts/dock_solv.prm

>  <Rbt.Receptor>
prm/pocket_docking_5.prm

>  <SCORE>
-33.8032

>  <SCORE.INTER>
-33.8032

>  <SCORE.INTER.CONST>
1

>  <SCORE.INTER.POLAR>
-3.03763

>  <SCORE.INTER.ROT>
0

>  <SCORE.INTER.SOLV>
12.2622

>  <SCORE.INTER.VDW>
-20.0975

>  <SCORE.INTER.norm>
-3.38032

>  <SCORE.INTRA>
0

>  <SCORE.INTRA.DIHEDRAL>
0

>  <SCORE.INTRA.DIHEDRAL.0>
0

>  <SCORE.INTRA.POLAR>
0

>  <SCORE.INTRA.POLAR.0>
0

>  <SCORE.INTRA.REPUL>
0

>  <SCORE.INTRA.REPUL.0>
0

>  <SCORE.INTRA.SOLV>
0

>  <SCORE.INTRA.SOLV.lig_0>
-14.8845

>  <SCORE.INTRA.VDW>
0

>  <SCORE.INTRA.VDW.0>
0

>  <SCORE.INTRA.norm>
0

>  <SCORE.RESTR>
2.838e-05

>  <SCORE.RESTR.CAVITY>
2.838e-05

>  <SCORE.RESTR.norm>
2.838e-06

>  <SCORE.SYSTEM>
0

>  <SCORE.SYSTEM.CONST>
0

>  <SCORE.SYSTEM.DIHEDRAL>
0

>  <SCORE.SYSTEM.SOLV>
0

>  <SCORE.SYSTEM.norm>
0

>  <SCORE.heavy>
10

>  <SCORE.norm>
-3.38032

>  <RMSD>
0.308

$$$$
lig.pdb
 OpenBabel11021811523D
libRbt.so/2013.1/901 2013/11/27
 10 11  0  0  0  0  0  0  0  0999 V2000
  -30.9965   19.0158  -17.5620 N   0  0  0  0  0  0  0  0  0  0  0  0
  -30.3213   18.3247  -18.5303 C   0  0  0  0  0  0  0  0  0  0  0  0
  -29.8669   17.1608  -18.1315 N   0  0  0  0  0  0  0  0  0  0  0  0
  -30.2702   17.0819  -16.8092 C   0  0  0  0  0  0  0  0  0  0  0  0
  -30.1033   16.0905  -15.8247 C   0  0  0  0  0  0  0  0  0  0  0  0
  -29.4483   14.9451  -16.0412 N   0  0  0  0  0  0  0  0  0  0  0  0
  -30.6329   16.3240  -14.6039 N   0  0  0  0  0  0  0  0  0  0  0  0
  -31.2841   17.4732  -14.3932 C   0  0  0  0  0  0  0  0  0  0  0  0
  -31.5061   18.4781  -15.2395 N   0  0  0  0  0  0  0  0  0  0  0  0
  -30.9684   18.2168  -16.4415 C   0  0  0  0  0  0  0  0  0  0  0  0
  1 10  1  0  0  0  0
  2  3  2  0  0  0  0
  2  1  1  0  0  0  0
  3  4  1  0  0  0  0
  4 10  2  0  0  0  0
  4  5  1  0  0  0  0
  5  7  2  0  0  0  0
  6  5  1  0  0  0  0
  7  8  1  0  0  0  0
  9  8  2  0  0  0  0
 10  9  1  0  0  0  0
M  END
>  <CHROM.1>
-30.52049866,17.26941497,-16.35240924,1.71604853,1.02465703,-0.98318833

>  <Name>
lig.pdb

>  <RI>
0

>  <Rbt.Current_Directory>
/home/itssahil/PROJECTS/Mol_Feturizer/New_Systems/rnas/5uza

>  <Rbt.Executable>
rbdock ($Id: //depot/dev/client3/rdock/2013.1/src/exe/rbdock.cxx#4 $)

>  <Rbt.Library>
libRbt.so (2013.1, Build901 2013/11/27)

>  <Rbt.Parameter_File>
/export/apps/rDock/src/rDock_2013.1_src/data/scripts/dock_solv.prm

>  <Rbt.Receptor>
prm/pocket_docking_5.prm

>  <SCORE>
-33.8046

>  <SCORE.INTER>
-33.805

>  <SCORE.INTER.CONST>
1

>  <SCORE.INTER.POLAR>
-3.03763

>  <SCORE.INTER.ROT>
0

>  <SCORE.INTER.SOLV>
12.2684

>  <SCORE.INTER.VDW>
-20.1007

>  <SCORE.INTER.norm>
-3.3805

>  <SCORE.INTRA>
0

>  <SCORE.INTRA.DIHEDRAL>
0

>  <SCORE.INTRA.DIHEDRAL.0>
0

>  <SCORE.INTRA.POLAR>
0

>  <SCORE.INTRA.POLAR.0>
0

>  <SCORE.INTRA.REPUL>
0

>  <SCORE.INTRA.REPUL.0>
0

>  <SCORE.INTRA.SOLV>
0

>  <SCORE.INTRA.SOLV.lig_0>
-14.8845

>  <SCORE.INTRA.VDW>
0

>  <SCORE.INTRA.VDW.0>
0

>  <SCORE.INTRA.norm>
0

>  <SCORE.RESTR>
0.000448657

>  <SCORE.RESTR.CAVITY>
0.000448657

>  <SCORE.RESTR.norm>
4.48657e-05

>  <SCORE.SYSTEM>
0

>  <SCORE.SYSTEM.CONST>
0

>  <SCORE.SYSTEM.DIHEDRAL>
0

>  <SCORE.SYSTEM.SOLV>
0

>  <SCORE.SYSTEM.norm>
0

>  <SCORE.heavy>
10

>  <SCORE.norm>
-3.38046

>  <RMSD>
0.308

$$$$
lig.pdb
 OpenBabel11021811523D
libRbt.so/2013.1/901 2013/11/27
 10 11  0  0  0  0  0  0  0  0999 V2000
  -31.0114   19.0152  -17.5570 N   0  0  0  0  0  0  0  0  0  0  0  0
  -30.3396   18.3260  -18.5289 C   0  0  0  0  0  0  0  0  0  0  0  0
  -29.8810   17.1627  -18.1329 N   0  0  0  0  0  0  0  0  0  0  0  0
  -30.2778   17.0823  -16.8087 C   0  0  0  0  0  0  0  0  0  0  0  0
  -30.1044   16.0908  -15.8256 C   0  0  0  0  0  0  0  0  0  0  0  0
  -29.4482   14.9468  -16.0457 N   0  0  0  0  0  0  0  0  0  0  0  0
  -30.6286   16.3227  -14.6022 N   0  0  0  0  0  0  0  0  0  0  0  0
  -31.2810   17.4705  -14.3877 C   0  0  0  0  0  0  0  0  0  0  0  0
  -31.5090   18.4754  -15.2325 N   0  0  0  0  0  0  0  0  0  0  0  0
  -30.9764   18.2158  -16.4372 C   0  0  0  0  0  0  0  0  0  0  0  0
  1 10  1  0  0  0  0
  2  3  2  0  0  0  0
  2  1  1  0  0  0  0
  3  4  1  0  0  0  0
  4 10  2  0  0  0  0
  4  5  1  0  0  0  0
  5  7  2  0  0  0  0
  6  5  1  0  0  0  0
  7  8  1  0  0  0  0
  9  8  2  0  0  0  0
 10  9  1  0  0  0  0
M  END
>  <CHROM.1>
-30.52633767,17.26918282,-16.35066656,1.72576893,1.02567318,-0.99098439

>  <Name>
lig.pdb

>  <RI>
1.17431e+07

>  <Rbt.Current_Directory>
/home/itssahil/PROJECTS/Mol_Feturizer/New_Systems/rnas/5uza

>  <Rbt.Executable>
rbdock ($Id: //depot/dev/client3/rdock/2013.1/src/exe/rbdock.cxx#4 $)

>  <Rbt.Library>
libRbt.so (2013.1, Build901 2013/11/27)

>  <Rbt.Parameter_File>
/export/apps/rDock/src/rDock_2013.1_src/data/scripts/dock_solv.prm

>  <Rbt.Receptor>
prm/pocket_docking_6.prm

>  <SCORE>
-33.8022

>  <SCORE.INTER>
-33.8022

>  <SCORE.INTER.CONST>
1

>  <SCORE.INTER.POLAR>
-3.03763

>  <SCORE.INTER.ROT>
0

>  <SCORE.INTER.SOLV>
12.2586

>  <SCORE.INTER.VDW>
-20.0956

>  <SCORE.INTER.norm>
-3.38022

>  <SCORE.INTRA>
0

>  <SCORE.INTRA.DIHEDRAL>
0

>  <SCORE.INTRA.DIHEDRAL.0>
0

>  <SCORE.INTRA.POLAR>
0

>  <SCORE.INTRA.POLAR.0>
0

>  <SCORE.INTRA.REPUL>
0

>  <SCORE.INTRA.REPUL.0>
0

>  <SCORE.INTRA.SOLV>
0

>  <SCORE.INTRA.SOLV.lig_0>
-14.8845

>  <SCORE.INTRA.VDW>
0

>  <SCORE.INTRA.VDW.0>
0

>  <SCORE.INTRA.norm>
0

>  <SCORE.RESTR>
0

>  <SCORE.RESTR.CAVITY>
0

>  <SCORE.RESTR.norm>
0

>  <SCORE.SYSTEM>
0

>  <SCORE.SYSTEM.CONST>
0

>  <SCORE.SYSTEM.DIHEDRAL>
0

>  <SCORE.SYSTEM.SOLV>
0

>  <SCORE.SYSTEM.norm>
0

>  <SCORE.heavy>
10

>  <SCORE.norm>
-3.38022

>  <RMSD>
0.308

$$$$
lig.pdb
 OpenBabel11021811523D
libRbt.so/2013.1/901 2013/11/27
 10 11  0  0  0  0  0  0  0  0999 V2000
  -31.0021   19.0207  -17.5611 N   0  0  0  0  0  0  0  0  0  0  0  0
  -30.3287   18.3299  -18.5308 C   0  0  0  0  0  0  0  0  0  0  0  0
  -29.8720   17.1667  -18.1326 N   0  0  0  0  0  0  0  0  0  0  0  0
  -30.2717   17.0880  -16.8092 C   0  0  0  0  0  0  0  0  0  0  0  0
  -30.1012   16.0973  -15.8247 C   0  0  0  0  0  0  0  0  0  0  0  0
  -29.4454   14.9526  -16.0422 N   0  0  0  0  0  0  0  0  0  0  0  0
  -30.6279   16.3309  -14.6026 N   0  0  0  0  0  0  0  0  0  0  0  0
  -31.2798   17.4794  -14.3908 C   0  0  0  0  0  0  0  0  0  0  0  0
  -31.5052   18.4837  -15.2370 N   0  0  0  0  0  0  0  0  0  0  0  0
  -30.9702   18.2224  -16.4403 C   0  0  0  0  0  0  0  0  0  0  0  0
  1 10  1  0  0  0  0
  2  3  2  0  0  0  0
  2  1  1  0  0  0  0
  3  4  1  0  0  0  0
  4 10  2  0  0  0  0
  4  5  1  0  0  0  0
  5  7  2  0  0  0  0
  6  5  1  0  0  0  0
  7  8  1  0  0  0  0
  9  8  2  0  0  0  0
 10  9  1  0  0  0  0
M  END
>  <CHROM.1>
-30.52106139,17.27551614,-16.35187717,1.72142131,1.02514895,-0.98829095

>  <Name>
lig.pdb

>  <RI>
1.17431e+07

>  <Rbt.Current_Directory>
/home/itssahil/PROJECTS/Mol_Feturizer/New_Systems/rnas/5uza

>  <Rbt.Executable>
rbdock ($Id: //depot/dev/client3/rdock/2013.1/src/exe/rbdock.cxx#4 $)

>  <Rbt.Library>
libRbt.so (2013.1, Build901 2013/11/27)

>  <Rbt.Parameter_File>
/export/apps/rDock/src/rDock_2013.1_src/data/scripts/dock_solv.prm

>  <Rbt.Receptor>
prm/pocket_docking_6.prm

>  <SCORE>
-33.8028

>  <SCORE.INTER>
-33.8028

>  <SCORE.INTER.CONST>
1

>  <SCORE.INTER.POLAR>
-3.03763

>  <SCORE.INTER.ROT>
0

>  <SCORE.INTER.SOLV>
12.2602

>  <SCORE.INTER.VDW>
-20.0965

>  <SCORE.INTER.norm>
-3.38028

>  <SCORE.INTRA>
0

>  <SCORE.INTRA.DIHEDRAL>
0

>  <SCORE.INTRA.DIHEDRAL.0>
0

>  <SCORE.INTRA.POLAR>
0

>  <SCORE.INTRA.POLAR.0>
0

>  <SCORE.INTRA.REPUL>
0

>  <SCORE.INTRA.REPUL.0>
0

>  <SCORE.INTRA.SOLV>
0

>  <SCORE.INTRA.SOLV.lig_0>
-14.8845

>  <SCORE.INTRA.VDW>
0

>  <SCORE.INTRA.VDW.0>
0

>  <SCORE.INTRA.norm>
0

>  <SCORE.RESTR>
0

>  <SCORE.RESTR.CAVITY>
0

>  <SCORE.RESTR.norm>
0

>  <SCORE.SYSTEM>
0

>  <SCORE.SYSTEM.CONST>
0

>  <SCORE.SYSTEM.DIHEDRAL>
0

>  <SCORE.SYSTEM.SOLV>
0

>  <SCORE.SYSTEM.norm>
0

>  <SCORE.heavy>
10

>  <SCORE.norm>
-3.38028

>  <RMSD>
0.308

$$$$
lig.pdb
 OpenBabel11021811523D
libRbt.so/2013.1/901 2013/11/27
 10 11  0  0  0  0  0  0  0  0999 V2000
  -31.0114   19.0140  -17.5615 N   0  0  0  0  0  0  0  0  0  0  0  0
  -30.3364   18.3246  -18.5311 C   0  0  0  0  0  0  0  0  0  0  0  0
  -29.8775   17.1622  -18.1328 N   0  0  0  0  0  0  0  0  0  0  0  0
  -30.2774   17.0827  -16.8095 C   0  0  0  0  0  0  0  0  0  0  0  0
  -30.1052   16.0924  -15.8250 C   0  0  0  0  0  0  0  0  0  0  0  0
  -29.4473   14.9489  -16.0424 N   0  0  0  0  0  0  0  0  0  0  0  0
  -30.6326   16.3249  -14.6030 N   0  0  0  0  0  0  0  0  0  0  0  0
  -31.2868   17.4722  -14.3913 C   0  0  0  0  0  0  0  0  0  0  0  0
  -31.5139   18.4760  -15.2376 N   0  0  0  0  0  0  0  0  0  0  0  0
  -30.9782   18.2158  -16.4408 C   0  0  0  0  0  0  0  0  0  0  0  0
  1 10  1  0  0  0  0
  2  3  2  0  0  0  0
  2  1  1  0  0  0  0
  3  4  1  0  0  0  0
  4 10  2  0  0  0  0
  4  5  1  0  0  0  0
  5  7  2  0  0  0  0
  6  5  1  0  0  0  0
  7  8  1  0  0  0  0
  9  8  2  0  0  0  0
 10  9  1  0  0  0  0
M  END
>  <CHROM.1>
-30.52724145,17.26975193,-16.35223803,1.72307208,1.02343510,-0.98968067

>  <Name>
lig.pdb

>  <RI>
1.17775e+07

>  <Rbt.Current_Directory>
/home/itssahil/PROJECTS/Mol_Feturizer/New_Systems/rnas/5uza

>  <Rbt.Executable>
rbdock ($Id: //depot/dev/client3/rdock/2013.1/src/exe/rbdock.cxx#4 $)

>  <Rbt.Library>
libRbt.so (2013.1, Build901 2013/11/27)

>  <Rbt.Parameter_File>
/export/apps/rDock/src/rDock_2013.1_src/data/scripts/dock_solv.prm

>  <Rbt.Receptor>
prm/pocket_docking_8.prm

>  <SCORE>
-33.8034

>  <SCORE.INTER>
-33.8036

>  <SCORE.INTER.CONST>
1

>  <SCORE.INTER.POLAR>
-3.03763

>  <SCORE.INTER.ROT>
0

>  <SCORE.INTER.SOLV>
12.2597

>  <SCORE.INTER.VDW>
-20.0969

>  <SCORE.INTER.norm>
-3.38036

>  <SCORE.INTRA>
0

>  <SCORE.INTRA.DIHEDRAL>
0

>  <SCORE.INTRA.DIHEDRAL.0>
0

>  <SCORE.INTRA.POLAR>
0

>  <SCORE.INTRA.POLAR.0>
0

>  <SCORE.INTRA.REPUL>
0

>  <SCORE.INTRA.REPUL.0>
0

>  <SCORE.INTRA.SOLV>
0

>  <SCORE.INTRA.SOLV.lig_0>
-14.8845

>  <SCORE.INTRA.VDW>
0

>  <SCORE.INTRA.VDW.0>
0

>  <SCORE.INTRA.norm>
0

>  <SCORE.RESTR>
0.00026169

>  <SCORE.RESTR.CAVITY>
0.00026169

>  <SCORE.RESTR.norm>
2.6169e-05

>  <SCORE.SYSTEM>
0

>  <SCORE.SYSTEM.CONST>
0

>  <SCORE.SYSTEM.DIHEDRAL>
0

>  <SCORE.SYSTEM.SOLV>
0

>  <SCORE.SYSTEM.norm>
0

>  <SCORE.heavy>
10

>  <SCORE.norm>
-3.38034

>  <RMSD>
0.308

$$$$
lig.pdb
 OpenBabel11021811523D
libRbt.so/2013.1/901 2013/11/27
 10 11  0  0  0  0  0  0  0  0999 V2000
  -31.0015   19.0161  -17.5644 N   0  0  0  0  0  0  0  0  0  0  0  0
  -30.3248   18.3253  -18.5318 C   0  0  0  0  0  0  0  0  0  0  0  0
  -29.8693   17.1621  -18.1320 N   0  0  0  0  0  0  0  0  0  0  0  0
  -30.2735   17.0834  -16.8100 C   0  0  0  0  0  0  0  0  0  0  0  0
  -30.1062   16.0928  -15.8249 C   0  0  0  0  0  0  0  0  0  0  0  0
  -29.4497   14.9481  -16.0401 N   0  0  0  0  0  0  0  0  0  0  0  0
  -30.6371   16.3264  -14.6046 N   0  0  0  0  0  0  0  0  0  0  0  0
  -31.2898   17.4749  -14.3950 C   0  0  0  0  0  0  0  0  0  0  0  0
  -31.5124   18.4791  -15.2420 N   0  0  0  0  0  0  0  0  0  0  0  0
  -30.9733   18.2178  -16.4435 C   0  0  0  0  0  0  0  0  0  0  0  0
  1 10  1  0  0  0  0
  2  3  2  0  0  0  0
  2  1  1  0  0  0  0
  3  4  1  0  0  0  0
  4 10  2  0  0  0  0
  4  5  1  0  0  0  0
  5  7  2  0  0  0  0
  6  5  1  0  0  0  0
  7  8  1  0  0  0  0
  9  8  2  0  0  0  0
 10  9  1  0  0  0  0
M  END
>  <CHROM.1>
-30.52441535,17.27095678,-16.35349726,1.71607837,1.02322608,-0.98376282

>  <Name>
lig.pdb

>  <RI>
2.26746e+07

>  <Rbt.Current_Directory>
/home/itssahil/PROJECTS/Mol_Feturizer/New_Systems/rnas/5uza

>  <Rbt.Executable>
rbdock ($Id: //depot/dev/client3/rdock/2013.1/src/exe/rbdock.cxx#4 $)

>  <Rbt.Library>
libRbt.so (2013.1, Build901 2013/11/27)

>  <Rbt.Parameter_File>
/export/apps/rDock/src/rDock_2013.1_src/data/scripts/dock_solv.prm

>  <Rbt.Receptor>
prm/blind_docking_100.prm

>  <SCORE>
-33.8049

>  <SCORE.INTER>
-33.8053

>  <SCORE.INTER.CONST>
1

>  <SCORE.INTER.POLAR>
-3.03763

>  <SCORE.INTER.ROT>
0

>  <SCORE.INTER.SOLV>
12.2699

>  <SCORE.INTER.VDW>
-20.1014

>  <SCORE.INTER.norm>
-3.38053

>  <SCORE.INTRA>
0

>  <SCORE.INTRA.DIHEDRAL>
0

>  <SCORE.INTRA.DIHEDRAL.0>
0

>  <SCORE.INTRA.POLAR>
0

>  <SCORE.INTRA.POLAR.0>
0

>  <SCORE.INTRA.REPUL>
0

>  <SCORE.INTRA.REPUL.0>
0

>  <SCORE.INTRA.SOLV>
0

>  <SCORE.INTRA.SOLV.lig_0>
-14.8845

>  <SCORE.INTRA.VDW>
0

>  <SCORE.INTRA.VDW.0>
0

>  <SCORE.INTRA.norm>
0

>  <SCORE.RESTR>
0.000377531

>  <SCORE.RESTR.CAVITY>
0.000377531

>  <SCORE.RESTR.norm>
3.77531e-05

>  <SCORE.SYSTEM>
0

>  <SCORE.SYSTEM.CONST>
0

>  <SCORE.SYSTEM.DIHEDRAL>
0

>  <SCORE.SYSTEM.SOLV>
0

>  <SCORE.SYSTEM.norm>
0

>  <SCORE.heavy>
10

>  <SCORE.norm>
-3.38049

>  <RMSD>
0.309

$$$$
lig.pdb
 OpenBabel11021811523D
libRbt.so/2013.1/901 2013/11/27
 10 11  0  0  0  0  0  0  0  0999 V2000
  -30.9954   19.0194  -17.5595 N   0  0  0  0  0  0  0  0  0  0  0  0
  -30.3271   18.3250  -18.5302 C   0  0  0  0  0  0  0  0  0  0  0  0
  -29.8743   17.1602  -18.1320 N   0  0  0  0  0  0  0  0  0  0  0  0
  -30.2712   17.0844  -16.8077 C   0  0  0  0  0  0  0  0  0  0  0  0
  -30.1025   16.0939  -15.8227 C   0  0  0  0  0  0  0  0  0  0  0  0
  -29.4520   14.9462  -16.0408 N   0  0  0  0  0  0  0  0  0  0  0  0
  -30.6254   16.3306  -14.5996 N   0  0  0  0  0  0  0  0  0  0  0  0
  -31.2721   17.4821  -14.3873 C   0  0  0  0  0  0  0  0  0  0  0  0
  -31.4952   18.4865  -15.2339 N   0  0  0  0  0  0  0  0  0  0  0  0
  -30.9642   18.2219  -16.4382 C   0  0  0  0  0  0  0  0  0  0  0  0
  1 10  1  0  0  0  0
  2  3  2  0  0  0  0
  2  1  1  0  0  0  0
  3  4  1  0  0  0  0
  4 10  2  0  0  0  0
  4  5  1  0  0  0  0
  5  7  2  0  0  0  0
  6  5  1  0  0  0  0
  7  8  1  0  0  0  0
  9  8  2  0  0  0  0
 10  9  1  0  0  0  0
M  END
>  <CHROM.1>
-30.51874452,17.27330919,-16.34992922,1.72078608,1.02988982,-0.98861888

>  <Name>
lig.pdb

>  <RI>
0

>  <Rbt.Current_Directory>
/home/itssahil/PROJECTS/Mol_Feturizer/New_Systems/rnas/5uza

>  <Rbt.Executable>
rbdock ($Id: //depot/dev/client3/rdock/2013.1/src/exe/rbdock.cxx#4 $)

>  <Rbt.Library>
libRbt.so (2013.1, Build901 2013/11/27)

>  <Rbt.Parameter_File>
/export/apps/rDock/src/rDock_2013.1_src/data/scripts/dock_solv.prm

>  <Rbt.Receptor>
prm/blind_docking_60.prm

>  <SCORE>
-33.8022

>  <SCORE.INTER>
-33.8026

>  <SCORE.INTER.CONST>
1

>  <SCORE.INTER.POLAR>
-3.03763

>  <SCORE.INTER.ROT>
0

>  <SCORE.INTER.SOLV>
12.2677

>  <SCORE.INTER.VDW>
-20.0989

>  <SCORE.INTER.norm>
-3.38026

>  <SCORE.INTRA>
0

>  <SCORE.INTRA.DIHEDRAL>
0

>  <SCORE.INTRA.DIHEDRAL.0>
0

>  <SCORE.INTRA.POLAR>
0

>  <SCORE.INTRA.POLAR.0>
0

>  <SCORE.INTRA.REPUL>
0

>  <SCORE.INTRA.REPUL.0>
0

>  <SCORE.INTRA.SOLV>
0

>  <SCORE.INTRA.SOLV.lig_0>
-14.8845

>  <SCORE.INTRA.VDW>
0

>  <SCORE.INTRA.VDW.0>
0

>  <SCORE.INTRA.norm>
0

>  <SCORE.RESTR>
0.00035863

>  <SCORE.RESTR.CAVITY>
0.00035863

>  <SCORE.RESTR.norm>
3.5863e-05

>  <SCORE.SYSTEM>
0

>  <SCORE.SYSTEM.CONST>
0

>  <SCORE.SYSTEM.DIHEDRAL>
0

>  <SCORE.SYSTEM.SOLV>
0

>  <SCORE.SYSTEM.norm>
0

>  <SCORE.heavy>
10

>  <SCORE.norm>
-3.38022

>  <RMSD>
0.309

$$$$
lig.pdb
 OpenBabel11021811523D
libRbt.so/2013.1/901 2013/11/27
 10 11  0  0  0  0  0  0  0  0999 V2000
  -31.0014   19.0205  -17.5620 N   0  0  0  0  0  0  0  0  0  0  0  0
  -30.3288   18.3289  -18.5316 C   0  0  0  0  0  0  0  0  0  0  0  0
  -29.8735   17.1651  -18.1333 N   0  0  0  0  0  0  0  0  0  0  0  0
  -30.2735   17.0869  -16.8100 C   0  0  0  0  0  0  0  0  0  0  0  0
  -30.1043   16.0961  -15.8255 C   0  0  0  0  0  0  0  0  0  0  0  0
  -29.4500   14.9505  -16.0429 N   0  0  0  0  0  0  0  0  0  0  0  0
  -30.6309   16.3302  -14.6035 N   0  0  0  0  0  0  0  0  0  0  0  0
  -31.2815   17.4796  -14.3917 C   0  0  0  0  0  0  0  0  0  0  0  0
  -31.5055   18.4841  -15.2380 N   0  0  0  0  0  0  0  0  0  0  0  0
  -30.9707   18.2222  -16.4412 C   0  0  0  0  0  0  0  0  0  0  0  0
  1 10  1  0  0  0  0
  2  3  2  0  0  0  0
  2  1  1  0  0  0  0
  3  4  1  0  0  0  0
  4 10  2  0  0  0  0
  4  5  1  0  0  0  0
  5  7  2  0  0  0  0
  6  5  1  0  0  0  0
  7  8  1  0  0  0  0
  9  8  2  0  0  0  0
 10  9  1  0  0  0  0
M  END
>  <CHROM.1>
-30.52268855,17.27474486,-16.35269180,1.71988198,1.02610598,-0.98698056

>  <Name>
lig.pdb

>  <RI>
0

>  <Rbt.Current_Directory>
/home/itssahil/PROJECTS/Mol_Feturizer/New_Systems/rnas/5uza

>  <Rbt.Executable>
rbdock ($Id: //depot/dev/client3/rdock/2013.1/src/exe/rbdock.cxx#4 $)

>  <Rbt.Library>
libRbt.so (2013.1, Build901 2013/11/27)

>  <Rbt.Parameter_File>
/export/apps/rDock/src/rDock_2013.1_src/data/scripts/dock_solv.prm

>  <Rbt.Receptor>
prm/blind_docking_60.prm

>  <SCORE>
-33.8045

>  <SCORE.INTER>
-33.8049

>  <SCORE.INTER.CONST>
1

>  <SCORE.INTER.POLAR>
-3.03763

>  <SCORE.INTER.ROT>
0

>  <SCORE.INTER.SOLV>
12.2669

>  <SCORE.INTER.VDW>
-20.1002

>  <SCORE.INTER.norm>
-3.38049

>  <SCORE.INTRA>
0

>  <SCORE.INTRA.DIHEDRAL>
0

>  <SCORE.INTRA.DIHEDRAL.0>
0

>  <SCORE.INTRA.POLAR>
0

>  <SCORE.INTRA.POLAR.0>
0

>  <SCORE.INTRA.REPUL>
0

>  <SCORE.INTRA.REPUL.0>
0

>  <SCORE.INTRA.SOLV>
0

>  <SCORE.INTRA.SOLV.lig_0>
-14.8845

>  <SCORE.INTRA.VDW>
0

>  <SCORE.INTRA.VDW.0>
0

>  <SCORE.INTRA.norm>
0

>  <SCORE.RESTR>
0.000416567

>  <SCORE.RESTR.CAVITY>
0.000416567

>  <SCORE.RESTR.norm>
4.16567e-05

>  <SCORE.SYSTEM>
0

>  <SCORE.SYSTEM.CONST>
0

>  <SCORE.SYSTEM.DIHEDRAL>
0

>  <SCORE.SYSTEM.SOLV>
0

>  <SCORE.SYSTEM.norm>
0

>  <SCORE.heavy>
10

>  <SCORE.norm>
-3.38045

>  <RMSD>
0.309

$$$$
lig.pdb
 OpenBabel11021811523D
libRbt.so/2013.1/901 2013/11/27
 10 11  0  0  0  0  0  0  0  0999 V2000
  -30.9932   19.0185  -17.5636 N   0  0  0  0  0  0  0  0  0  0  0  0
  -30.3187   18.3258  -18.5310 C   0  0  0  0  0  0  0  0  0  0  0  0
  -29.8658   17.1616  -18.1310 N   0  0  0  0  0  0  0  0  0  0  0  0
  -30.2696   17.0844  -16.8088 C   0  0  0  0  0  0  0  0  0  0  0  0
  -30.1043   16.0937  -15.8234 C   0  0  0  0  0  0  0  0  0  0  0  0
  -29.4507   14.9473  -16.0386 N   0  0  0  0  0  0  0  0  0  0  0  0
  -30.6340   16.3290  -14.6030 N   0  0  0  0  0  0  0  0  0  0  0  0
  -31.2839   17.4792  -14.3935 C   0  0  0  0  0  0  0  0  0  0  0  0
  -31.5043   18.4837  -15.2408 N   0  0  0  0  0  0  0  0  0  0  0  0
  -30.9665   18.2206  -16.4424 C   0  0  0  0  0  0  0  0  0  0  0  0
  1 10  1  0  0  0  0
  2  3  2  0  0  0  0
  2  1  1  0  0  0  0
  3  4  1  0  0  0  0
  4 10  2  0  0  0  0
  4  5  1  0  0  0  0
  5  7  2  0  0  0  0
  6  5  1  0  0  0  0
  7  8  1  0  0  0  0
  9  8  2  0  0  0  0
 10  9  1  0  0  0  0
M  END
>  <CHROM.1>
-30.51986970,17.27268517,-16.35227958,1.71418542,1.02552761,-0.98250093

>  <Name>
lig.pdb

>  <RI>
0

>  <Rbt.Current_Directory>
/home/itssahil/PROJECTS/Mol_Feturizer/New_Systems/rnas/5uza

>  <Rbt.Executable>
rbdock ($Id: //depot/dev/client3/rdock/2013.1/src/exe/rbdock.cxx#4 $)

>  <Rbt.Library>
libRbt.so (2013.1, Build901 2013/11/27)

>  <Rbt.Parameter_File>
/export/apps/rDock/src/rDock_2013.1_src/data/scripts/dock_solv.prm

>  <Rbt.Receptor>
prm/blind_docking_80.prm

>  <SCORE>
-33.8042

>  <SCORE.INTER>
-33.8043

>  <SCORE.INTER.CONST>
1

>  <SCORE.INTER.POLAR>
-3.03763

>  <SCORE.INTER.ROT>
0

>  <SCORE.INTER.SOLV>
12.2729

>  <SCORE.INTER.VDW>
-20.1017

>  <SCORE.INTER.norm>
-3.38043

>  <SCORE.INTRA>
0

>  <SCORE.INTRA.DIHEDRAL>
0

>  <SCORE.INTRA.DIHEDRAL.0>
0

>  <SCORE.INTRA.POLAR>
0

>  <SCORE.INTRA.POLAR.0>
0

>  <SCORE.INTRA.REPUL>
0

>  <SCORE.INTRA.REPUL.0>
0

>  <SCORE.INTRA.SOLV>
0

>  <SCORE.INTRA.SOLV.lig_0>
-14.8845

>  <SCORE.INTRA.VDW>
0

>  <SCORE.INTRA.VDW.0>
0

>  <SCORE.INTRA.norm>
0

>  <SCORE.RESTR>
4.21578e-05

>  <SCORE.RESTR.CAVITY>
4.21578e-05

>  <SCORE.RESTR.norm>
4.21578e-06

>  <SCORE.SYSTEM>
0

>  <SCORE.SYSTEM.CONST>
0

>  <SCORE.SYSTEM.DIHEDRAL>
0

>  <SCORE.SYSTEM.SOLV>
0

>  <SCORE.SYSTEM.norm>
0

>  <SCORE.heavy>
10

>  <SCORE.norm>
-3.38042

>  <RMSD>
0.309

$$$$
lig.pdb
 OpenBabel11021811523D
libRbt.so/2013.1/901 2013/11/27
 10 11  0  0  0  0  0  0  0  0999 V2000
  -31.0015   19.0137  -17.5646 N   0  0  0  0  0  0  0  0  0  0  0  0
  -30.3249   18.3217  -18.5312 C   0  0  0  0  0  0  0  0  0  0  0  0
  -29.8692   17.1591  -18.1299 N   0  0  0  0  0  0  0  0  0  0  0  0
  -30.2732   17.0822  -16.8078 C   0  0  0  0  0  0  0  0  0  0  0  0
  -30.1056   16.0929  -15.8213 C   0  0  0  0  0  0  0  0  0  0  0  0
  -29.4490   14.9479  -16.0352 N   0  0  0  0  0  0  0  0  0  0  0  0
  -30.6362   16.3280  -14.6013 N   0  0  0  0  0  0  0  0  0  0  0  0
  -31.2891   17.4768  -14.3931 C   0  0  0  0  0  0  0  0  0  0  0  0
  -31.5119   18.4798  -15.2415 N   0  0  0  0  0  0  0  0  0  0  0  0
  -30.9730   18.2169  -16.4427 C   0  0  0  0  0  0  0  0  0  0  0  0
  1 10  1  0  0  0  0
  2  3  2  0  0  0  0
  2  1  1  0  0  0  0
  3  4  1  0  0  0  0
  4 10  2  0  0  0  0
  4  5  1  0  0  0  0
  5  7  2  0  0  0  0
  6  5  1  0  0  0  0
  7  8  1  0  0  0  0
  9  8  2  0  0  0  0
 10  9  1  0  0  0  0
M  END
>  <CHROM.1>
-30.52399300,17.27027061,-16.35149147,1.71645734,1.02325084,-0.98543930

>  <Name>
lig.pdb

>  <RI>
0

>  <Rbt.Current_Directory>
/home/itssahil/PROJECTS/Mol_Feturizer/New_Systems/rnas/5uza

>  <Rbt.Executable>
rbdock ($Id: //depot/dev/client3/rdock/2013.1/src/exe/rbdock.cxx#4 $)

>  <Rbt.Library>
libRbt.so (2013.1, Build901 2013/11/27)

>  <Rbt.Parameter_File>
/export/apps/rDock/src/rDock_2013.1_src/data/scripts/dock_solv.prm

>  <Rbt.Receptor>
prm/blind_docking_80.prm

>  <SCORE>
-33.8037

>  <SCORE.INTER>
-33.8037

>  <SCORE.INTER.CONST>
1

>  <SCORE.INTER.POLAR>
-3.03763

>  <SCORE.INTER.ROT>
0

>  <SCORE.INTER.SOLV>
12.2677

>  <SCORE.INTER.VDW>
-20.0996

>  <SCORE.INTER.norm>
-3.38037

>  <SCORE.INTRA>
0

>  <SCORE.INTRA.DIHEDRAL>
0

>  <SCORE.INTRA.DIHEDRAL.0>
0

>  <SCORE.INTRA.POLAR>
0

>  <SCORE.INTRA.POLAR.0>
0

>  <SCORE.INTRA.REPUL>
0

>  <SCORE.INTRA.REPUL.0>
0

>  <SCORE.INTRA.SOLV>
0

>  <SCORE.INTRA.SOLV.lig_0>
-14.8845

>  <SCORE.INTRA.VDW>
0

>  <SCORE.INTRA.VDW.0>
0

>  <SCORE.INTRA.norm>
0

>  <SCORE.RESTR>
0

>  <SCORE.RESTR.CAVITY>
0

>  <SCORE.RESTR.norm>
0

>  <SCORE.SYSTEM>
0

>  <SCORE.SYSTEM.CONST>
0

>  <SCORE.SYSTEM.DIHEDRAL>
0

>  <SCORE.SYSTEM.SOLV>
0

>  <SCORE.SYSTEM.norm>
0

>  <SCORE.heavy>
10

>  <SCORE.norm>
-3.38037

>  <RMSD>
0.309

$$$$
lig.pdb
 OpenBabel11021811523D
libRbt.so/2013.1/901 2013/11/27
 10 11  0  0  0  0  0  0  0  0999 V2000
  -30.9887   19.0151  -17.5638 N   0  0  0  0  0  0  0  0  0  0  0  0
  -30.3140   18.3230  -18.5316 C   0  0  0  0  0  0  0  0  0  0  0  0
  -29.8627   17.1578  -18.1328 N   0  0  0  0  0  0  0  0  0  0  0  0
  -30.2679   17.0791  -16.8111 C   0  0  0  0  0  0  0  0  0  0  0  0
  -30.1046   16.0869  -15.8270 C   0  0  0  0  0  0  0  0  0  0  0  0
  -29.4519   14.9401  -16.0432 N   0  0  0  0  0  0  0  0  0  0  0  0
  -30.6352   16.3209  -14.6067 N   0  0  0  0  0  0  0  0  0  0  0  0
  -31.2840   17.4715  -14.3962 C   0  0  0  0  0  0  0  0  0  0  0  0
  -31.5026   18.4774  -15.2423 N   0  0  0  0  0  0  0  0  0  0  0  0
  -30.9639   18.2155  -16.4438 C   0  0  0  0  0  0  0  0  0  0  0  0
  1 10  1  0  0  0  0
  2  3  2  0  0  0  0
  2  1  1  0  0  0  0
  3  4  1  0  0  0  0
  4 10  2  0  0  0  0
  4  5  1  0  0  0  0
  5  7  2  0  0  0  0
  6  5  1  0  0  0  0
  7  8  1  0  0  0  0
  9  8  2  0  0  0  0
 10  9  1  0  0  0  0
M  END
>  <CHROM.1>
-30.51836667,17.26700702,-16.35456056,1.71150819,1.02586767,-0.97877985

>  <Name>
lig.pdb

>  <RI>
0

>  <Rbt.Current_Directory>
/home/itssahil/PROJECTS/Mol_Feturizer/New_Systems/rnas/5uza

>  <Rbt.Executable>
rbdock ($Id: //depot/dev/client3/rdock/2013.1/src/exe/rbdock.cxx#4 $)

>  <Rbt.Library>
libRbt.so (2013.1, Build901 2013/11/27)

>  <Rbt.Parameter_File>
/export/apps/rDock/src/rDock_2013.1_src/data/scripts/dock_solv.prm

>  <Rbt.Receptor>
prm/pocket_docking_3.prm

>  <SCORE>
-33.8077

>  <SCORE.INTER>
-33.8077

>  <SCORE.INTER.CONST>
1

>  <SCORE.INTER.POLAR>
-3.03763

>  <SCORE.INTER.ROT>
0

>  <SCORE.INTER.SOLV>
12.2771

>  <SCORE.INTER.VDW>
-20.1054

>  <SCORE.INTER.norm>
-3.38077

>  <SCORE.INTRA>
0

>  <SCORE.INTRA.DIHEDRAL>
0

>  <SCORE.INTRA.DIHEDRAL.0>
0

>  <SCORE.INTRA.POLAR>
0

>  <SCORE.INTRA.POLAR.0>
0

>  <SCORE.INTRA.REPUL>
0

>  <SCORE.INTRA.REPUL.0>
0

>  <SCORE.INTRA.SOLV>
0

>  <SCORE.INTRA.SOLV.lig_0>
-14.8845

>  <SCORE.INTRA.VDW>
0

>  <SCORE.INTRA.VDW.0>
0

>  <SCORE.INTRA.norm>
0

>  <SCORE.RESTR>
0

>  <SCORE.RESTR.CAVITY>
0

>  <SCORE.RESTR.norm>
0

>  <SCORE.SYSTEM>
0

>  <SCORE.SYSTEM.CONST>
0

>  <SCORE.SYSTEM.DIHEDRAL>
0

>  <SCORE.SYSTEM.SOLV>
0

>  <SCORE.SYSTEM.norm>
0

>  <SCORE.heavy>
10

>  <SCORE.norm>
-3.38077

>  <RMSD>
0.309

$$$$
lig.pdb
 OpenBabel11021811523D
libRbt.so/2013.1/901 2013/11/27
 10 11  0  0  0  0  0  0  0  0999 V2000
  -30.9990   19.0209  -17.5609 N   0  0  0  0  0  0  0  0  0  0  0  0
  -30.3282   18.3279  -18.5309 C   0  0  0  0  0  0  0  0  0  0  0  0
  -29.8737   17.1638  -18.1324 N   0  0  0  0  0  0  0  0  0  0  0  0
  -30.2723   17.0869  -16.8086 C   0  0  0  0  0  0  0  0  0  0  0  0
  -30.1031   16.0965  -15.8236 C   0  0  0  0  0  0  0  0  0  0  0  0
  -29.4502   14.9501  -16.0411 N   0  0  0  0  0  0  0  0  0  0  0  0
  -30.6279   16.3320  -14.6012 N   0  0  0  0  0  0  0  0  0  0  0  0
  -31.2770   17.4822  -14.3894 C   0  0  0  0  0  0  0  0  0  0  0  0
  -31.5009   18.4865  -15.2360 N   0  0  0  0  0  0  0  0  0  0  0  0
  -30.9678   18.2232  -16.4397 C   0  0  0  0  0  0  0  0  0  0  0  0
  1 10  1  0  0  0  0
  2  3  2  0  0  0  0
  2  1  1  0  0  0  0
  3  4  1  0  0  0  0
  4 10  2  0  0  0  0
  4  5  1  0  0  0  0
  5  7  2  0  0  0  0
  6  5  1  0  0  0  0
  7  8  1  0  0  0  0
  9  8  2  0  0  0  0
 10  9  1  0  0  0  0
M  END
>  <CHROM.1>
-30.52072404,17.27530719,-16.35109601,1.72058384,1.02766309,-0.98819972

>  <Name>
lig.pdb

>  <RI>
0

>  <Rbt.Current_Directory>
/home/itssahil/PROJECTS/Mol_Feturizer/New_Systems/rnas/5uza

>  <Rbt.Executable>
rbdock ($Id: //depot/dev/client3/rdock/2013.1/src/exe/rbdock.cxx#4 $)

>  <Rbt.Library>
libRbt.so (2013.1, Build901 2013/11/27)

>  <Rbt.Parameter_File>
/export/apps/rDock/src/rDock_2013.1_src/data/scripts/dock_solv.prm

>  <Rbt.Receptor>
prm/pocket_docking_5.prm

>  <SCORE>
-33.8032

>  <SCORE.INTER>
-33.8032

>  <SCORE.INTER.CONST>
1

>  <SCORE.INTER.POLAR>
-3.03763

>  <SCORE.INTER.ROT>
0

>  <SCORE.INTER.SOLV>
12.2663

>  <SCORE.INTER.VDW>
-20.0988

>  <SCORE.INTER.norm>
-3.38032

>  <SCORE.INTRA>
0

>  <SCORE.INTRA.DIHEDRAL>
0

>  <SCORE.INTRA.DIHEDRAL.0>
0

>  <SCORE.INTRA.POLAR>
0

>  <SCORE.INTRA.POLAR.0>
0

>  <SCORE.INTRA.REPUL>
0

>  <SCORE.INTRA.REPUL.0>
0

>  <SCORE.INTRA.SOLV>
0

>  <SCORE.INTRA.SOLV.lig_0>
-14.8845

>  <SCORE.INTRA.VDW>
0

>  <SCORE.INTRA.VDW.0>
0

>  <SCORE.INTRA.norm>
0

>  <SCORE.RESTR>
0

>  <SCORE.RESTR.CAVITY>
0

>  <SCORE.RESTR.norm>
0

>  <SCORE.SYSTEM>
0

>  <SCORE.SYSTEM.CONST>
0

>  <SCORE.SYSTEM.DIHEDRAL>
0

>  <SCORE.SYSTEM.SOLV>
0

>  <SCORE.SYSTEM.norm>
0

>  <SCORE.heavy>
10

>  <SCORE.norm>
-3.38032

>  <RMSD>
0.309

$$$$
lig.pdb
 OpenBabel11021811523D
libRbt.so/2013.1/901 2013/11/27
 10 11  0  0  0  0  0  0  0  0999 V2000
  -30.9993   19.0196  -17.5634 N   0  0  0  0  0  0  0  0  0  0  0  0
  -30.3255   18.3282  -18.5323 C   0  0  0  0  0  0  0  0  0  0  0  0
  -29.8708   17.1642  -18.1338 N   0  0  0  0  0  0  0  0  0  0  0  0
  -30.2726   17.0857  -16.8110 C   0  0  0  0  0  0  0  0  0  0  0  0
  -30.1048   16.0945  -15.8265 C   0  0  0  0  0  0  0  0  0  0  0  0
  -29.4503   14.9489  -16.0435 N   0  0  0  0  0  0  0  0  0  0  0  0
  -30.6329   16.3284  -14.6052 N   0  0  0  0  0  0  0  0  0  0  0  0
  -31.2836   17.4778  -14.3939 C   0  0  0  0  0  0  0  0  0  0  0  0
  -31.5063   18.4826  -15.2402 N   0  0  0  0  0  0  0  0  0  0  0  0
  -30.9700   18.2209  -16.4428 C   0  0  0  0  0  0  0  0  0  0  0  0
  1 10  1  0  0  0  0
  2  3  2  0  0  0  0
  2  1  1  0  0  0  0
  3  4  1  0  0  0  0
  4 10  2  0  0  0  0
  4  5  1  0  0  0  0
  5  7  2  0  0  0  0
  6  5  1  0  0  0  0
  7  8  1  0  0  0  0
  9  8  2  0  0  0  0
 10  9  1  0  0  0  0
M  END
>  <CHROM.1>
-30.52229713,17.27342678,-16.35398203,1.71770041,1.02551109,-0.98483313

>  <Name>
lig.pdb

>  <RI>
0

>  <Rbt.Current_Directory>
/home/itssahil/PROJECTS/Mol_Feturizer/New_Systems/rnas/5uza

>  <Rbt.Executable>
rbdock ($Id: //depot/dev/client3/rdock/2013.1/src/exe/rbdock.cxx#4 $)

>  <Rbt.Library>
libRbt.so (2013.1, Build901 2013/11/27)

>  <Rbt.Parameter_File>
/export/apps/rDock/src/rDock_2013.1_src/data/scripts/dock_solv.prm

>  <Rbt.Receptor>
prm/pocket_docking_5.prm

>  <SCORE>
-33.8054

>  <SCORE.INTER>
-33.8066

>  <SCORE.INTER.CONST>
1

>  <SCORE.INTER.POLAR>
-3.03763

>  <SCORE.INTER.ROT>
0

>  <SCORE.INTER.SOLV>
12.2693

>  <SCORE.INTER.VDW>
-20.1021

>  <SCORE.INTER.norm>
-3.38066

>  <SCORE.INTRA>
0

>  <SCORE.INTRA.DIHEDRAL>
0

>  <SCORE.INTRA.DIHEDRAL.0>
0

>  <SCORE.INTRA.POLAR>
0

>  <SCORE.INTRA.POLAR.0>
0

>  <SCORE.INTRA.REPUL>
0

>  <SCORE.INTRA.REPUL.0>
0

>  <SCORE.INTRA.SOLV>
0

>  <SCORE.INTRA.SOLV.lig_0>
-14.8845

>  <SCORE.INTRA.VDW>
0

>  <SCORE.INTRA.VDW.0>
0

>  <SCORE.INTRA.norm>
0

>  <SCORE.RESTR>
0.00120079

>  <SCORE.RESTR.CAVITY>
0.00120079

>  <SCORE.RESTR.norm>
0.000120079

>  <SCORE.SYSTEM>
0

>  <SCORE.SYSTEM.CONST>
0

>  <SCORE.SYSTEM.DIHEDRAL>
0

>  <SCORE.SYSTEM.SOLV>
0

>  <SCORE.SYSTEM.norm>
0

>  <SCORE.heavy>
10

>  <SCORE.norm>
-3.38054

>  <RMSD>
0.309

$$$$
lig.pdb
 OpenBabel11021811523D
libRbt.so/2013.1/901 2013/11/27
 10 11  0  0  0  0  0  0  0  0999 V2000
  -31.0031   19.0134  -17.5601 N   0  0  0  0  0  0  0  0  0  0  0  0
  -30.3265   18.3243  -18.5288 C   0  0  0  0  0  0  0  0  0  0  0  0
  -29.8705   17.1606  -18.1310 N   0  0  0  0  0  0  0  0  0  0  0  0
  -30.2743   17.0798  -16.8090 C   0  0  0  0  0  0  0  0  0  0  0  0
  -30.1064   16.0877  -15.8255 C   0  0  0  0  0  0  0  0  0  0  0  0
  -29.4496   14.9435  -16.0427 N   0  0  0  0  0  0  0  0  0  0  0  0
  -30.6369   16.3192  -14.6046 N   0  0  0  0  0  0  0  0  0  0  0  0
  -31.2899   17.4672  -14.3930 C   0  0  0  0  0  0  0  0  0  0  0  0
  -31.5130   18.4727  -15.2385 N   0  0  0  0  0  0  0  0  0  0  0  0
  -30.9743   18.2134  -16.4405 C   0  0  0  0  0  0  0  0  0  0  0  0
  1 10  1  0  0  0  0
  2  3  2  0  0  0  0
  2  1  1  0  0  0  0
  3  4  1  0  0  0  0
  4 10  2  0  0  0  0
  4  5  1  0  0  0  0
  5  7  2  0  0  0  0
  6  5  1  0  0  0  0
  7  8  1  0  0  0  0
  9  8  2  0  0  0  0
 10  9  1  0  0  0  0
M  END
>  <CHROM.1>
-30.52506827,17.26652649,-16.35212222,1.71691569,1.02318687,-0.98293110

>  <Name>
lig.pdb

>  <RI>
1.17431e+07

>  <Rbt.Current_Directory>
/home/itssahil/PROJECTS/Mol_Feturizer/New_Systems/rnas/5uza

>  <Rbt.Executable>
rbdock ($Id: //depot/dev/client3/rdock/2013.1/src/exe/rbdock.cxx#4 $)

>  <Rbt.Library>
libRbt.so (2013.1, Build901 2013/11/27)

>  <Rbt.Parameter_File>
/export/apps/rDock/src/rDock_2013.1_src/data/scripts/dock_solv.prm

>  <Rbt.Receptor>
prm/pocket_docking_6.prm

>  <SCORE>
-33.8036

>  <SCORE.INTER>
-33.8036

>  <SCORE.INTER.CONST>
1

>  <SCORE.INTER.POLAR>
-3.03763

>  <SCORE.INTER.ROT>
0

>  <SCORE.INTER.SOLV>
12.2697

>  <SCORE.INTER.VDW>
-20.1002

>  <SCORE.INTER.norm>
-3.38036

>  <SCORE.INTRA>
0

>  <SCORE.INTRA.DIHEDRAL>
0

>  <SCORE.INTRA.DIHEDRAL.0>
0

>  <SCORE.INTRA.POLAR>
0

>  <SCORE.INTRA.POLAR.0>
0

>  <SCORE.INTRA.REPUL>
0

>  <SCORE.INTRA.REPUL.0>
0

>  <SCORE.INTRA.SOLV>
0

>  <SCORE.INTRA.SOLV.lig_0>
-14.8845

>  <SCORE.INTRA.VDW>
0

>  <SCORE.INTRA.VDW.0>
0

>  <SCORE.INTRA.norm>
0

>  <SCORE.RESTR>
0

>  <SCORE.RESTR.CAVITY>
0

>  <SCORE.RESTR.norm>
0

>  <SCORE.SYSTEM>
0

>  <SCORE.SYSTEM.CONST>
0

>  <SCORE.SYSTEM.DIHEDRAL>
0

>  <SCORE.SYSTEM.SOLV>
0

>  <SCORE.SYSTEM.norm>
0

>  <SCORE.heavy>
10

>  <SCORE.norm>
-3.38036

>  <RMSD>
0.309

$$$$
lig.pdb
 OpenBabel11021811523D
libRbt.so/2013.1/901 2013/11/27
 10 11  0  0  0  0  0  0  0  0999 V2000
  -31.0038   19.0210  -17.5594 N   0  0  0  0  0  0  0  0  0  0  0  0
  -30.3292   18.3319  -18.5295 C   0  0  0  0  0  0  0  0  0  0  0  0
  -29.8724   17.1682  -18.1325 N   0  0  0  0  0  0  0  0  0  0  0  0
  -30.2733   17.0874  -16.8097 C   0  0  0  0  0  0  0  0  0  0  0  0
  -30.1033   16.0954  -15.8265 C   0  0  0  0  0  0  0  0  0  0  0  0
  -29.4469   14.9512  -16.0451 N   0  0  0  0  0  0  0  0  0  0  0  0
  -30.6312   16.3269  -14.6046 N   0  0  0  0  0  0  0  0  0  0  0  0
  -31.2838   17.4749  -14.3916 C   0  0  0  0  0  0  0  0  0  0  0  0
  -31.5088   18.4803  -15.2366 N   0  0  0  0  0  0  0  0  0  0  0  0
  -30.9726   18.2210  -16.4398 C   0  0  0  0  0  0  0  0  0  0  0  0
  1 10  1  0  0  0  0
  2  3  2  0  0  0  0
  2  1  1  0  0  0  0
  3  4  1  0  0  0  0
  4 10  2  0  0  0  0
  4  5  1  0  0  0  0
  5  7  2  0  0  0  0
  6  5  1  0  0  0  0
  7  8  1  0  0  0  0
  9  8  2  0  0  0  0
 10  9  1  0  0  0  0
M  END
>  <CHROM.1>
-30.52317033,17.27418172,-16.35230287,1.72032723,1.02432442,-0.98588266

>  <Name>
lig.pdb

>  <RI>
1.17431e+07

>  <Rbt.Current_Directory>
/home/itssahil/PROJECTS/Mol_Feturizer/New_Systems/rnas/5uza

>  <Rbt.Executable>
rbdock ($Id: //depot/dev/client3/rdock/2013.1/src/exe/rbdock.cxx#4 $)

>  <Rbt.Library>
libRbt.so (2013.1, Build901 2013/11/27)

>  <Rbt.Parameter_File>
/export/apps/rDock/src/rDock_2013.1_src/data/scripts/dock_solv.prm

>  <Rbt.Receptor>
prm/pocket_docking_6.prm

>  <SCORE>
-33.8029

>  <SCORE.INTER>
-33.8029

>  <SCORE.INTER.CONST>
1

>  <SCORE.INTER.POLAR>
-3.03763

>  <SCORE.INTER.ROT>
0

>  <SCORE.INTER.SOLV>
12.264

>  <SCORE.INTER.VDW>
-20.0978

>  <SCORE.INTER.norm>
-3.38029

>  <SCORE.INTRA>
0

>  <SCORE.INTRA.DIHEDRAL>
0

>  <SCORE.INTRA.DIHEDRAL.0>
0

>  <SCORE.INTRA.POLAR>
0

>  <SCORE.INTRA.POLAR.0>
0

>  <SCORE.INTRA.REPUL>
0

>  <SCORE.INTRA.REPUL.0>
0

>  <SCORE.INTRA.SOLV>
0

>  <SCORE.INTRA.SOLV.lig_0>
-14.8845

>  <SCORE.INTRA.VDW>
0

>  <SCORE.INTRA.VDW.0>
0

>  <SCORE.INTRA.norm>
0

>  <SCORE.RESTR>
0

>  <SCORE.RESTR.CAVITY>
0

>  <SCORE.RESTR.norm>
0

>  <SCORE.SYSTEM>
0

>  <SCORE.SYSTEM.CONST>
0

>  <SCORE.SYSTEM.DIHEDRAL>
0

>  <SCORE.SYSTEM.SOLV>
0

>  <SCORE.SYSTEM.norm>
0

>  <SCORE.heavy>
10

>  <SCORE.norm>
-3.38029

>  <RMSD>
0.309

$$$$
lig.pdb
 OpenBabel11021811523D
libRbt.so/2013.1/901 2013/11/27
 10 11  0  0  0  0  0  0  0  0999 V2000
  -31.0075   19.0181  -17.5651 N   0  0  0  0  0  0  0  0  0  0  0  0
  -30.3310   18.3278  -18.5329 C   0  0  0  0  0  0  0  0  0  0  0  0
  -29.8730   17.1656  -18.1329 N   0  0  0  0  0  0  0  0  0  0  0  0
  -30.2752   17.0873  -16.8102 C   0  0  0  0  0  0  0  0  0  0  0  0
  -30.1049   16.0977  -15.8246 C   0  0  0  0  0  0  0  0  0  0  0  0
  -29.4468   14.9539  -16.0400 N   0  0  0  0  0  0  0  0  0  0  0  0
  -30.6344   16.3313  -14.6038 N   0  0  0  0  0  0  0  0  0  0  0  0
  -31.2888   17.4789  -14.3941 C   0  0  0  0  0  0  0  0  0  0  0  0
  -31.5142   18.4821  -15.2416 N   0  0  0  0  0  0  0  0  0  0  0  0
  -30.9764   18.2208  -16.4436 C   0  0  0  0  0  0  0  0  0  0  0  0
  1 10  1  0  0  0  0
  2  3  2  0  0  0  0
  2  1  1  0  0  0  0
  3  4  1  0  0  0  0
  4 10  2  0  0  0  0
  4  5  1  0  0  0  0
  5  7  2  0  0  0  0
  6  5  1  0  0  0  0
  7  8  1  0  0  0  0
  9  8  2  0  0  0  0
 10  9  1  0  0  0  0
M  END
>  <CHROM.1>
-30.52581837,17.27475349,-16.35356097,1.72009617,1.02262173,-0.98795535

>  <Name>
lig.pdb

>  <RI>
2.12818e+07

>  <Rbt.Current_Directory>
/home/itssahil/PROJECTS/Mol_Feturizer/New_Systems/rnas/5uza

>  <Rbt.Executable>
rbdock ($Id: //depot/dev/client3/rdock/2013.1/src/exe/rbdock.cxx#4 $)

>  <Rbt.Library>
libRbt.so (2013.1, Build901 2013/11/27)

>  <Rbt.Parameter_File>
/export/apps/rDock/src/rDock_2013.1_src/data/scripts/dock_solv.prm

>  <Rbt.Receptor>
prm/pocket_docking_7.prm

>  <SCORE>
-33.8041

>  <SCORE.INTER>
-33.8041

>  <SCORE.INTER.CONST>
1

>  <SCORE.INTER.POLAR>
-3.03763

>  <SCORE.INTER.ROT>
0

>  <SCORE.INTER.SOLV>
12.2622

>  <SCORE.INTER.VDW>
-20.098

>  <SCORE.INTER.norm>
-3.38041

>  <SCORE.INTRA>
0

>  <SCORE.INTRA.DIHEDRAL>
0

>  <SCORE.INTRA.DIHEDRAL.0>
0

>  <SCORE.INTRA.POLAR>
0

>  <SCORE.INTRA.POLAR.0>
0

>  <SCORE.INTRA.REPUL>
0

>  <SCORE.INTRA.REPUL.0>
0

>  <SCORE.INTRA.SOLV>
0

>  <SCORE.INTRA.SOLV.lig_0>
-14.8845

>  <SCORE.INTRA.VDW>
0

>  <SCORE.INTRA.VDW.0>
0

>  <SCORE.INTRA.norm>
0

>  <SCORE.RESTR>
4.40229e-05

>  <SCORE.RESTR.CAVITY>
4.40229e-05

>  <SCORE.RESTR.norm>
4.40229e-06

>  <SCORE.SYSTEM>
0

>  <SCORE.SYSTEM.CONST>
0

>  <SCORE.SYSTEM.DIHEDRAL>
0

>  <SCORE.SYSTEM.SOLV>
0

>  <SCORE.SYSTEM.norm>
0

>  <SCORE.heavy>
10

>  <SCORE.norm>
-3.38041

>  <RMSD>
0.309

$$$$
lig.pdb
 OpenBabel11021811523D
libRbt.so/2013.1/901 2013/11/27
 10 11  0  0  0  0  0  0  0  0999 V2000
  -31.0019   19.0174  -17.5707 N   0  0  0  0  0  0  0  0  0  0  0  0
  -30.3263   18.3224  -18.5358 C   0  0  0  0  0  0  0  0  0  0  0  0
  -29.8705   17.1609  -18.1315 N   0  0  0  0  0  0  0  0  0  0  0  0
  -30.2732   17.0880  -16.8087 C   0  0  0  0  0  0  0  0  0  0  0  0
  -30.1049   16.1016  -15.8195 C   0  0  0  0  0  0  0  0  0  0  0  0
  -29.4487   14.9559  -16.0306 N   0  0  0  0  0  0  0  0  0  0  0  0
  -30.6343   16.3405  -14.5997 N   0  0  0  0  0  0  0  0  0  0  0  0
  -31.2868   17.4900  -14.3943 C   0  0  0  0  0  0  0  0  0  0  0  0
  -31.5102   18.4905  -15.2455 N   0  0  0  0  0  0  0  0  0  0  0  0
  -30.9725   18.2240  -16.4464 C   0  0  0  0  0  0  0  0  0  0  0  0
  1 10  1  0  0  0  0
  2  3  2  0  0  0  0
  2  1  1  0  0  0  0
  3  4  1  0  0  0  0
  4 10  2  0  0  0  0
  4  5  1  0  0  0  0
  5  7  2  0  0  0  0
  6  5  1  0  0  0  0
  7  8  1  0  0  0  0
  9  8  2  0  0  0  0
 10  9  1  0  0  0  0
M  END
>  <CHROM.1>
-30.52356463,17.27749412,-16.35277203,1.71777875,1.02391988,-0.98954784

>  <Name>
lig.pdb

>  <RI>
1.17775e+07

>  <Rbt.Current_Directory>
/home/itssahil/PROJECTS/Mol_Feturizer/New_Systems/rnas/5uza

>  <Rbt.Executable>
rbdock ($Id: //depot/dev/client3/rdock/2013.1/src/exe/rbdock.cxx#4 $)

>  <Rbt.Library>
libRbt.so (2013.1, Build901 2013/11/27)

>  <Rbt.Parameter_File>
/export/apps/rDock/src/rDock_2013.1_src/data/scripts/dock_solv.prm

>  <Rbt.Receptor>
prm/pocket_docking_8.prm

>  <SCORE>
-33.8035

>  <SCORE.INTER>
-33.8037

>  <SCORE.INTER.CONST>
1

>  <SCORE.INTER.POLAR>
-3.03763

>  <SCORE.INTER.ROT>
0

>  <SCORE.INTER.SOLV>
12.2645

>  <SCORE.INTER.VDW>
-20.0985

>  <SCORE.INTER.norm>
-3.38037

>  <SCORE.INTRA>
0

>  <SCORE.INTRA.DIHEDRAL>
0

>  <SCORE.INTRA.DIHEDRAL.0>
0

>  <SCORE.INTRA.POLAR>
0

>  <SCORE.INTRA.POLAR.0>
0

>  <SCORE.INTRA.REPUL>
0

>  <SCORE.INTRA.REPUL.0>
0

>  <SCORE.INTRA.SOLV>
0

>  <SCORE.INTRA.SOLV.lig_0>
-14.8845

>  <SCORE.INTRA.VDW>
0

>  <SCORE.INTRA.VDW.0>
0

>  <SCORE.INTRA.norm>
0

>  <SCORE.RESTR>
0.000153098

>  <SCORE.RESTR.CAVITY>
0.000153098

>  <SCORE.RESTR.norm>
1.53098e-05

>  <SCORE.SYSTEM>
0

>  <SCORE.SYSTEM.CONST>
0

>  <SCORE.SYSTEM.DIHEDRAL>
0

>  <SCORE.SYSTEM.SOLV>
0

>  <SCORE.SYSTEM.norm>
0

>  <SCORE.heavy>
10

>  <SCORE.norm>
-3.38035

>  <RMSD>
0.309

$$$$
lig.pdb
 OpenBabel11021811523D
libRbt.so/2013.1/901 2013/11/27
 10 11  0  0  0  0  0  0  0  0999 V2000
  -30.9954   19.0181  -17.5581 N   0  0  0  0  0  0  0  0  0  0  0  0
  -30.3210   18.3285  -18.5280 C   0  0  0  0  0  0  0  0  0  0  0  0
  -29.8670   17.1636  -18.1316 N   0  0  0  0  0  0  0  0  0  0  0  0
  -30.2696   17.0825  -16.8092 C   0  0  0  0  0  0  0  0  0  0  0  0
  -30.1028   16.0893  -15.8267 C   0  0  0  0  0  0  0  0  0  0  0  0
  -29.4484   14.9440  -16.0455 N   0  0  0  0  0  0  0  0  0  0  0  0
  -30.6316   16.3208  -14.6052 N   0  0  0  0  0  0  0  0  0  0  0  0
  -31.2822   17.4699  -14.3920 C   0  0  0  0  0  0  0  0  0  0  0  0
  -31.5042   18.4765  -15.2364 N   0  0  0  0  0  0  0  0  0  0  0  0
  -30.9671   18.2172  -16.4392 C   0  0  0  0  0  0  0  0  0  0  0  0
  1 10  1  0  0  0  0
  2  3  2  0  0  0  0
  2  1  1  0  0  0  0
  3  4  1  0  0  0  0
  4 10  2  0  0  0  0
  4  5  1  0  0  0  0
  5  7  2  0  0  0  0
  6  5  1  0  0  0  0
  7  8  1  0  0  0  0
  9  8  2  0  0  0  0
 10  9  1  0  0  0  0
M  END
>  <CHROM.1>
-30.51964808,17.26936700,-16.35199642,1.71633116,1.02533045,-0.98161354

>  <Name>
lig.pdb

>  <RI>
1.17775e+07

>  <Rbt.Current_Directory>
/home/itssahil/PROJECTS/Mol_Feturizer/New_Systems/rnas/5uza

>  <Rbt.Executable>
rbdock ($Id: //depot/dev/client3/rdock/2013.1/src/exe/rbdock.cxx#4 $)

>  <Rbt.Library>
libRbt.so (2013.1, Build901 2013/11/27)

>  <Rbt.Parameter_File>
/export/apps/rDock/src/rDock_2013.1_src/data/scripts/dock_solv.prm

>  <Rbt.Receptor>
prm/pocket_docking_8.prm

>  <SCORE>
-33.8035

>  <SCORE.INTER>
-33.8035

>  <SCORE.INTER.CONST>
1

>  <SCORE.INTER.POLAR>
-3.03763

>  <SCORE.INTER.ROT>
0

>  <SCORE.INTER.SOLV>
12.2695

>  <SCORE.INTER.VDW>
-20.1001

>  <SCORE.INTER.norm>
-3.38035

>  <SCORE.INTRA>
0

>  <SCORE.INTRA.DIHEDRAL>
0

>  <SCORE.INTRA.DIHEDRAL.0>
0

>  <SCORE.INTRA.POLAR>
0

>  <SCORE.INTRA.POLAR.0>
0

>  <SCORE.INTRA.REPUL>
0

>  <SCORE.INTRA.REPUL.0>
0

>  <SCORE.INTRA.SOLV>
0

>  <SCORE.INTRA.SOLV.lig_0>
-14.8845

>  <SCORE.INTRA.VDW>
0

>  <SCORE.INTRA.VDW.0>
0

>  <SCORE.INTRA.norm>
0

>  <SCORE.RESTR>
0

>  <SCORE.RESTR.CAVITY>
0

>  <SCORE.RESTR.norm>
0

>  <SCORE.SYSTEM>
0

>  <SCORE.SYSTEM.CONST>
0

>  <SCORE.SYSTEM.DIHEDRAL>
0

>  <SCORE.SYSTEM.SOLV>
0

>  <SCORE.SYSTEM.norm>
0

>  <SCORE.heavy>
10

>  <SCORE.norm>
-3.38035

>  <RMSD>
0.309

$$$$
lig.pdb
 OpenBabel11021811523D
libRbt.so/2013.1/901 2013/11/27
 10 11  0  0  0  0  0  0  0  0999 V2000
  -30.9945   19.0161  -17.5682 N   0  0  0  0  0  0  0  0  0  0  0  0
  -30.3183   18.3218  -18.5334 C   0  0  0  0  0  0  0  0  0  0  0  0
  -29.8647   17.1590  -18.1303 N   0  0  0  0  0  0  0  0  0  0  0  0
  -30.2697   17.0845  -16.8083 C   0  0  0  0  0  0  0  0  0  0  0  0
  -30.1044   16.0963  -15.8204 C   0  0  0  0  0  0  0  0  0  0  0  0
  -29.4493   14.9500  -16.0323 N   0  0  0  0  0  0  0  0  0  0  0  0
  -30.6355   16.3338  -14.6011 N   0  0  0  0  0  0  0  0  0  0  0  0
  -31.2867   17.4838  -14.3948 C   0  0  0  0  0  0  0  0  0  0  0  0
  -31.5073   18.4861  -15.2447 N   0  0  0  0  0  0  0  0  0  0  0  0
  -30.9681   18.2208  -16.4452 C   0  0  0  0  0  0  0  0  0  0  0  0
  1 10  1  0  0  0  0
  2  3  2  0  0  0  0
  2  1  1  0  0  0  0
  3  4  1  0  0  0  0
  4 10  2  0  0  0  0
  4  5  1  0  0  0  0
  5  7  2  0  0  0  0
  6  5  1  0  0  0  0
  7  8  1  0  0  0  0
  9  8  2  0  0  0  0
 10  9  1  0  0  0  0
M  END
>  <CHROM.1>
-30.52055544,17.27357084,-16.35241263,1.71371992,1.02415713,-0.98441529

>  <Name>
lig.pdb

>  <RI>
1.17775e+07

>  <Rbt.Current_Directory>
/home/itssahil/PROJECTS/Mol_Feturizer/New_Systems/rnas/5uza

>  <Rbt.Executable>
rbdock ($Id: //depot/dev/client3/rdock/2013.1/src/exe/rbdock.cxx#4 $)

>  <Rbt.Library>
libRbt.so (2013.1, Build901 2013/11/27)

>  <Rbt.Parameter_File>
/export/apps/rDock/src/rDock_2013.1_src/data/scripts/dock_solv.prm

>  <Rbt.Receptor>
prm/pocket_docking_8.prm

>  <SCORE>
-33.8043

>  <SCORE.INTER>
-33.8043

>  <SCORE.INTER.CONST>
1

>  <SCORE.INTER.POLAR>
-3.03763

>  <SCORE.INTER.ROT>
0

>  <SCORE.INTER.SOLV>
12.27

>  <SCORE.INTER.VDW>
-20.1008

>  <SCORE.INTER.norm>
-3.38043

>  <SCORE.INTRA>
0

>  <SCORE.INTRA.DIHEDRAL>
0

>  <SCORE.INTRA.DIHEDRAL.0>
0

>  <SCORE.INTRA.POLAR>
0

>  <SCORE.INTRA.POLAR.0>
0

>  <SCORE.INTRA.REPUL>
0

>  <SCORE.INTRA.REPUL.0>
0

>  <SCORE.INTRA.SOLV>
0

>  <SCORE.INTRA.SOLV.lig_0>
-14.8845

>  <SCORE.INTRA.VDW>
0

>  <SCORE.INTRA.VDW.0>
0

>  <SCORE.INTRA.norm>
0

>  <SCORE.RESTR>
4.76189e-05

>  <SCORE.RESTR.CAVITY>
4.76189e-05

>  <SCORE.RESTR.norm>
4.76189e-06

>  <SCORE.SYSTEM>
0

>  <SCORE.SYSTEM.CONST>
0

>  <SCORE.SYSTEM.DIHEDRAL>
0

>  <SCORE.SYSTEM.SOLV>
0

>  <SCORE.SYSTEM.norm>
0

>  <SCORE.heavy>
10

>  <SCORE.norm>
-3.38043

>  <RMSD>
0.309

$$$$
lig.pdb
 OpenBabel11021811523D
libRbt.so/2013.1/901 2013/11/27
 10 11  0  0  0  0  0  0  0  0999 V2000
  -30.9959   19.0196  -17.5666 N   0  0  0  0  0  0  0  0  0  0  0  0
  -30.3227   18.3247  -18.5335 C   0  0  0  0  0  0  0  0  0  0  0  0
  -29.8699   17.1611  -18.1317 N   0  0  0  0  0  0  0  0  0  0  0  0
  -30.2721   17.0867  -16.8089 C   0  0  0  0  0  0  0  0  0  0  0  0
  -30.1060   16.0979  -15.8217 C   0  0  0  0  0  0  0  0  0  0  0  0
  -29.4530   14.9509  -16.0354 N   0  0  0  0  0  0  0  0  0  0  0  0
  -30.6341   16.3358  -14.6011 N   0  0  0  0  0  0  0  0  0  0  0  0
  -31.2833   17.4867  -14.3931 C   0  0  0  0  0  0  0  0  0  0  0  0
  -31.5044   18.4896  -15.2422 N   0  0  0  0  0  0  0  0  0  0  0  0
  -30.9681   18.2239  -16.4439 C   0  0  0  0  0  0  0  0  0  0  0  0
  1 10  1  0  0  0  0
  2  3  2  0  0  0  0
  2  1  1  0  0  0  0
  3  4  1  0  0  0  0
  4 10  2  0  0  0  0
  4  5  1  0  0  0  0
  5  7  2  0  0  0  0
  6  5  1  0  0  0  0
  7  8  1  0  0  0  0
  9  8  2  0  0  0  0
 10  9  1  0  0  0  0
M  END
>  <CHROM.1>
-30.52170678,17.27601460,-16.35241040,1.71571591,1.02650134,-0.98579596

>  <Name>
lig.pdb

>  <RI>
2.26746e+07

>  <Rbt.Current_Directory>
/home/itssahil/PROJECTS/Mol_Feturizer/New_Systems/rnas/5uza

>  <Rbt.Executable>
rbdock ($Id: //depot/dev/client3/rdock/2013.1/src/exe/rbdock.cxx#4 $)

>  <Rbt.Library>
libRbt.so (2013.1, Build901 2013/11/27)

>  <Rbt.Parameter_File>
/export/apps/rDock/src/rDock_2013.1_src/data/scripts/dock_solv.prm

>  <Rbt.Receptor>
prm/blind_docking_100.prm

>  <SCORE>
-33.8045

>  <SCORE.INTER>
-33.8048

>  <SCORE.INTER.CONST>
1

>  <SCORE.INTER.POLAR>
-3.03763

>  <SCORE.INTER.ROT>
0

>  <SCORE.INTER.SOLV>
12.273

>  <SCORE.INTER.VDW>
-20.1021

>  <SCORE.INTER.norm>
-3.38048

>  <SCORE.INTRA>
0

>  <SCORE.INTRA.DIHEDRAL>
0

>  <SCORE.INTRA.DIHEDRAL.0>
0

>  <SCORE.INTRA.POLAR>
0

>  <SCORE.INTRA.POLAR.0>
0

>  <SCORE.INTRA.REPUL>
0

>  <SCORE.INTRA.REPUL.0>
0

>  <SCORE.INTRA.SOLV>
0

>  <SCORE.INTRA.SOLV.lig_0>
-14.8845

>  <SCORE.INTRA.VDW>
0

>  <SCORE.INTRA.VDW.0>
0

>  <SCORE.INTRA.norm>
0

>  <SCORE.RESTR>
0.00031412

>  <SCORE.RESTR.CAVITY>
0.00031412

>  <SCORE.RESTR.norm>
3.1412e-05

>  <SCORE.SYSTEM>
0

>  <SCORE.SYSTEM.CONST>
0

>  <SCORE.SYSTEM.DIHEDRAL>
0

>  <SCORE.SYSTEM.SOLV>
0

>  <SCORE.SYSTEM.norm>
0

>  <SCORE.heavy>
10

>  <SCORE.norm>
-3.38045

>  <RMSD>
0.310

$$$$
lig.pdb
 OpenBabel11021811523D
libRbt.so/2013.1/901 2013/11/27
 10 11  0  0  0  0  0  0  0  0999 V2000
  -31.0071   19.0259  -17.5643 N   0  0  0  0  0  0  0  0  0  0  0  0
  -30.3323   18.3358  -18.5335 C   0  0  0  0  0  0  0  0  0  0  0  0
  -29.8745   17.1731  -18.1349 N   0  0  0  0  0  0  0  0  0  0  0  0
  -30.2749   17.0941  -16.8118 C   0  0  0  0  0  0  0  0  0  0  0  0
  -30.1038   16.1037  -15.8271 C   0  0  0  0  0  0  0  0  0  0  0  0
  -29.4467   14.9597  -16.0441 N   0  0  0  0  0  0  0  0  0  0  0  0
  -30.6315   16.3368  -14.6054 N   0  0  0  0  0  0  0  0  0  0  0  0
  -31.2849   17.4846  -14.3940 C   0  0  0  0  0  0  0  0  0  0  0  0
  -31.5109   18.4885  -15.2405 N   0  0  0  0  0  0  0  0  0  0  0  0
  -30.9749   18.2277  -16.4434 C   0  0  0  0  0  0  0  0  0  0  0  0
  1 10  1  0  0  0  0
  2  3  2  0  0  0  0
  2  1  1  0  0  0  0
  3  4  1  0  0  0  0
  4 10  2  0  0  0  0
  4  5  1  0  0  0  0
  5  7  2  0  0  0  0
  6  5  1  0  0  0  0
  7  8  1  0  0  0  0
  9  8  2  0  0  0  0
 10  9  1  0  0  0  0
M  END
>  <CHROM.1>
-30.52474429,17.28136412,-16.35462141,1.72166997,1.02388325,-0.98859712

>  <Name>
lig.pdb

>  <RI>
2.26746e+07

>  <Rbt.Current_Directory>
/home/itssahil/PROJECTS/Mol_Feturizer/New_Systems/rnas/5uza

>  <Rbt.Executable>
rbdock ($Id: //depot/dev/client3/rdock/2013.1/src/exe/rbdock.cxx#4 $)

>  <Rbt.Library>
libRbt.so (2013.1, Build901 2013/11/27)

>  <Rbt.Parameter_File>
/export/apps/rDock/src/rDock_2013.1_src/data/scripts/dock_solv.prm

>  <Rbt.Receptor>
prm/blind_docking_100.prm

>  <SCORE>
-33.8029

>  <SCORE.INTER>
-33.8029

>  <SCORE.INTER.CONST>
1

>  <SCORE.INTER.POLAR>
-3.03763

>  <SCORE.INTER.ROT>
0

>  <SCORE.INTER.SOLV>
12.2618

>  <SCORE.INTER.VDW>
-20.0971

>  <SCORE.INTER.norm>
-3.38029

>  <SCORE.INTRA>
0

>  <SCORE.INTRA.DIHEDRAL>
0

>  <SCORE.INTRA.DIHEDRAL.0>
0

>  <SCORE.INTRA.POLAR>
0

>  <SCORE.INTRA.POLAR.0>
0

>  <SCORE.INTRA.REPUL>
0

>  <SCORE.INTRA.REPUL.0>
0

>  <SCORE.INTRA.SOLV>
0

>  <SCORE.INTRA.SOLV.lig_0>
-14.8845

>  <SCORE.INTRA.VDW>
0

>  <SCORE.INTRA.VDW.0>
0

>  <SCORE.INTRA.norm>
0

>  <SCORE.RESTR>
0

>  <SCORE.RESTR.CAVITY>
0

>  <SCORE.RESTR.norm>
0

>  <SCORE.SYSTEM>
0

>  <SCORE.SYSTEM.CONST>
0

>  <SCORE.SYSTEM.DIHEDRAL>
0

>  <SCORE.SYSTEM.SOLV>
0

>  <SCORE.SYSTEM.norm>
0

>  <SCORE.heavy>
10

>  <SCORE.norm>
-3.38029

>  <RMSD>
0.310

$$$$
lig.pdb
 OpenBabel11021811523D
libRbt.so/2013.1/901 2013/11/27
 10 11  0  0  0  0  0  0  0  0999 V2000
  -30.9912   19.0147  -17.5676 N   0  0  0  0  0  0  0  0  0  0  0  0
  -30.3143   18.3204  -18.5324 C   0  0  0  0  0  0  0  0  0  0  0  0
  -29.8624   17.1569  -18.1294 N   0  0  0  0  0  0  0  0  0  0  0  0
  -30.2693   17.0818  -16.8080 C   0  0  0  0  0  0  0  0  0  0  0  0
  -30.1063   16.0927  -15.8207 C   0  0  0  0  0  0  0  0  0  0  0  0
  -29.4521   14.9460  -16.0325 N   0  0  0  0  0  0  0  0  0  0  0  0
  -30.6389   16.3299  -14.6019 N   0  0  0  0  0  0  0  0  0  0  0  0
  -31.2892   17.4804  -14.3958 C   0  0  0  0  0  0  0  0  0  0  0  0
  -31.5078   18.4835  -15.2452 N   0  0  0  0  0  0  0  0  0  0  0  0
  -30.9671   18.2185  -16.4451 C   0  0  0  0  0  0  0  0  0  0  0  0
  1 10  1  0  0  0  0
  2  3  2  0  0  0  0
  2  1  1  0  0  0  0
  3  4  1  0  0  0  0
  4 10  2  0  0  0  0
  4  5  1  0  0  0  0
  5  7  2  0  0  0  0
  6  5  1  0  0  0  0
  7  8  1  0  0  0  0
  9  8  2  0  0  0  0
 10  9  1  0  0  0  0
M  END
>  <CHROM.1>
-30.52061386,17.27080234,-16.35241599,1.71046932,1.02417363,-0.98093560

>  <Name>
lig.pdb

>  <RI>
0

>  <Rbt.Current_Directory>
/home/itssahil/PROJECTS/Mol_Feturizer/New_Systems/rnas/5uza

>  <Rbt.Executable>
rbdock ($Id: //depot/dev/client3/rdock/2013.1/src/exe/rbdock.cxx#4 $)

>  <Rbt.Library>
libRbt.so (2013.1, Build901 2013/11/27)

>  <Rbt.Parameter_File>
/export/apps/rDock/src/rDock_2013.1_src/data/scripts/dock_solv.prm

>  <Rbt.Receptor>
prm/blind_docking_80.prm

>  <SCORE>
-33.8046

>  <SCORE.INTER>
-33.8046

>  <SCORE.INTER.CONST>
1

>  <SCORE.INTER.POLAR>
-3.03763

>  <SCORE.INTER.ROT>
0

>  <SCORE.INTER.SOLV>
12.2767

>  <SCORE.INTER.VDW>
-20.1032

>  <SCORE.INTER.norm>
-3.38046

>  <SCORE.INTRA>
0

>  <SCORE.INTRA.DIHEDRAL>
0

>  <SCORE.INTRA.DIHEDRAL.0>
0

>  <SCORE.INTRA.POLAR>
0

>  <SCORE.INTRA.POLAR.0>
0

>  <SCORE.INTRA.REPUL>
0

>  <SCORE.INTRA.REPUL.0>
0

>  <SCORE.INTRA.SOLV>
0

>  <SCORE.INTRA.SOLV.lig_0>
-14.8845

>  <SCORE.INTRA.VDW>
0

>  <SCORE.INTRA.VDW.0>
0

>  <SCORE.INTRA.norm>
0

>  <SCORE.RESTR>
5.48963e-08

>  <SCORE.RESTR.CAVITY>
5.48963e-08

>  <SCORE.RESTR.norm>
5.48963e-09

>  <SCORE.SYSTEM>
0

>  <SCORE.SYSTEM.CONST>
0

>  <SCORE.SYSTEM.DIHEDRAL>
0

>  <SCORE.SYSTEM.SOLV>
0

>  <SCORE.SYSTEM.norm>
0

>  <SCORE.heavy>
10

>  <SCORE.norm>
-3.38046

>  <RMSD>
0.310

$$$$
lig.pdb
 OpenBabel11021811523D
libRbt.so/2013.1/901 2013/11/27
 10 11  0  0  0  0  0  0  0  0999 V2000
  -30.9902   19.0202  -17.5568 N   0  0  0  0  0  0  0  0  0  0  0  0
  -30.3225   18.3259  -18.5279 C   0  0  0  0  0  0  0  0  0  0  0  0
  -29.8716   17.1599  -18.1308 N   0  0  0  0  0  0  0  0  0  0  0  0
  -30.2695   17.0831  -16.8068 C   0  0  0  0  0  0  0  0  0  0  0  0
  -30.1028   16.0912  -15.8228 C   0  0  0  0  0  0  0  0  0  0  0  0
  -29.4540   14.9428  -16.0419 N   0  0  0  0  0  0  0  0  0  0  0  0
  -30.6260   16.3274  -14.5998 N   0  0  0  0  0  0  0  0  0  0  0  0
  -31.2710   17.4796  -14.3864 C   0  0  0  0  0  0  0  0  0  0  0  0
  -31.4922   18.4854  -15.2320 N   0  0  0  0  0  0  0  0  0  0  0  0
  -30.9608   18.2214  -16.4363 C   0  0  0  0  0  0  0  0  0  0  0  0
  1 10  1  0  0  0  0
  2  3  2  0  0  0  0
  2  1  1  0  0  0  0
  3  4  1  0  0  0  0
  4 10  2  0  0  0  0
  4  5  1  0  0  0  0
  5  7  2  0  0  0  0
  6  5  1  0  0  0  0
  7  8  1  0  0  0  0
  9  8  2  0  0  0  0
 10  9  1  0  0  0  0
M  END
>  <CHROM.1>
-30.51692267,17.27193966,-16.34893000,1.71822213,1.03088617,-0.98526516

>  <Name>
lig.pdb

>  <RI>
0

>  <Rbt.Current_Directory>
/home/itssahil/PROJECTS/Mol_Feturizer/New_Systems/rnas/5uza

>  <Rbt.Executable>
rbdock ($Id: //depot/dev/client3/rdock/2013.1/src/exe/rbdock.cxx#4 $)

>  <Rbt.Library>
libRbt.so (2013.1, Build901 2013/11/27)

>  <Rbt.Parameter_File>
/export/apps/rDock/src/rDock_2013.1_src/data/scripts/dock_solv.prm

>  <Rbt.Receptor>
prm/blind_docking_80.prm

>  <SCORE>
-33.8007

>  <SCORE.INTER>
-33.8007

>  <SCORE.INTER.CONST>
1

>  <SCORE.INTER.POLAR>
-3.03763

>  <SCORE.INTER.ROT>
0

>  <SCORE.INTER.SOLV>
12.2733

>  <SCORE.INTER.VDW>
-20.0995

>  <SCORE.INTER.norm>
-3.38007

>  <SCORE.INTRA>
0

>  <SCORE.INTRA.DIHEDRAL>
0

>  <SCORE.INTRA.DIHEDRAL.0>
0

>  <SCORE.INTRA.POLAR>
0

>  <SCORE.INTRA.POLAR.0>
0

>  <SCORE.INTRA.REPUL>
0

>  <SCORE.INTRA.REPUL.0>
0

>  <SCORE.INTRA.SOLV>
0

>  <SCORE.INTRA.SOLV.lig_0>
-14.8845

>  <SCORE.INTRA.VDW>
0

>  <SCORE.INTRA.VDW.0>
0

>  <SCORE.INTRA.norm>
0

>  <SCORE.RESTR>
0

>  <SCORE.RESTR.CAVITY>
0

>  <SCORE.RESTR.norm>
0

>  <SCORE.SYSTEM>
0

>  <SCORE.SYSTEM.CONST>
0

>  <SCORE.SYSTEM.DIHEDRAL>
0

>  <SCORE.SYSTEM.SOLV>
0

>  <SCORE.SYSTEM.norm>
0

>  <SCORE.heavy>
10

>  <SCORE.norm>
-3.38007

>  <RMSD>
0.310

$$$$
lig.pdb
 OpenBabel11021811523D
libRbt.so/2013.1/901 2013/11/27
 10 11  0  0  0  0  0  0  0  0999 V2000
  -31.0036   19.0274  -17.5640 N   0  0  0  0  0  0  0  0  0  0  0  0
  -30.3315   18.3352  -18.5336 C   0  0  0  0  0  0  0  0  0  0  0  0
  -29.8754   17.1719  -18.1348 N   0  0  0  0  0  0  0  0  0  0  0  0
  -30.2742   17.0947  -16.8111 C   0  0  0  0  0  0  0  0  0  0  0  0
  -30.1037   16.1047  -15.8259 C   0  0  0  0  0  0  0  0  0  0  0  0
  -29.4491   14.9592  -16.0430 N   0  0  0  0  0  0  0  0  0  0  0  0
  -30.6293   16.3397  -14.6036 N   0  0  0  0  0  0  0  0  0  0  0  0
  -31.2801   17.4890  -14.3922 C   0  0  0  0  0  0  0  0  0  0  0  0
  -31.5053   18.4927  -15.2391 N   0  0  0  0  0  0  0  0  0  0  0  0
  -30.9715   18.2300  -16.4426 C   0  0  0  0  0  0  0  0  0  0  0  0
  1 10  1  0  0  0  0
  2  3  2  0  0  0  0
  2  1  1  0  0  0  0
  3  4  1  0  0  0  0
  4 10  2  0  0  0  0
  4  5  1  0  0  0  0
  5  7  2  0  0  0  0
  6  5  1  0  0  0  0
  7  8  1  0  0  0  0
  9  8  2  0  0  0  0
 10  9  1  0  0  0  0
M  END
>  <CHROM.1>
-30.52302147,17.28278765,-16.35371180,1.72177521,1.02627515,-0.98941757

>  <Name>
lig.pdb

>  <RI>
0

>  <Rbt.Current_Directory>
/home/itssahil/PROJECTS/Mol_Feturizer/New_Systems/rnas/5uza

>  <Rbt.Executable>
rbdock ($Id: //depot/dev/client3/rdock/2013.1/src/exe/rbdock.cxx#4 $)

>  <Rbt.Library>
libRbt.so (2013.1, Build901 2013/11/27)

>  <Rbt.Parameter_File>
/export/apps/rDock/src/rDock_2013.1_src/data/scripts/dock_solv.prm

>  <Rbt.Receptor>
prm/pocket_docking_5.prm

>  <SCORE>
-33.8023

>  <SCORE.INTER>
-33.8023

>  <SCORE.INTER.CONST>
1

>  <SCORE.INTER.POLAR>
-3.03763

>  <SCORE.INTER.ROT>
0

>  <SCORE.INTER.SOLV>
12.2645

>  <SCORE.INTER.VDW>
-20.0976

>  <SCORE.INTER.norm>
-3.38023

>  <SCORE.INTRA>
0

>  <SCORE.INTRA.DIHEDRAL>
0

>  <SCORE.INTRA.DIHEDRAL.0>
0

>  <SCORE.INTRA.POLAR>
0

>  <SCORE.INTRA.POLAR.0>
0

>  <SCORE.INTRA.REPUL>
0

>  <SCORE.INTRA.REPUL.0>
0

>  <SCORE.INTRA.SOLV>
0

>  <SCORE.INTRA.SOLV.lig_0>
-14.8845

>  <SCORE.INTRA.VDW>
0

>  <SCORE.INTRA.VDW.0>
0

>  <SCORE.INTRA.norm>
0

>  <SCORE.RESTR>
6.63073e-06

>  <SCORE.RESTR.CAVITY>
6.63073e-06

>  <SCORE.RESTR.norm>
6.63073e-07

>  <SCORE.SYSTEM>
0

>  <SCORE.SYSTEM.CONST>
0

>  <SCORE.SYSTEM.DIHEDRAL>
0

>  <SCORE.SYSTEM.SOLV>
0

>  <SCORE.SYSTEM.norm>
0

>  <SCORE.heavy>
10

>  <SCORE.norm>
-3.38023

>  <RMSD>
0.310

$$$$
lig.pdb
 OpenBabel11021811523D
libRbt.so/2013.1/901 2013/11/27
 10 11  0  0  0  0  0  0  0  0999 V2000
  -30.9951   19.0211  -17.5671 N   0  0  0  0  0  0  0  0  0  0  0  0
  -30.3180   18.3288  -18.5331 C   0  0  0  0  0  0  0  0  0  0  0  0
  -29.8640   17.1656  -18.1316 N   0  0  0  0  0  0  0  0  0  0  0  0
  -30.2697   17.0886  -16.8100 C   0  0  0  0  0  0  0  0  0  0  0  0
  -30.1043   16.0988  -15.8237 C   0  0  0  0  0  0  0  0  0  0  0  0
  -29.4486   14.9533  -16.0372 N   0  0  0  0  0  0  0  0  0  0  0  0
  -30.6362   16.3341  -14.6042 N   0  0  0  0  0  0  0  0  0  0  0  0
  -31.2881   17.4834  -14.3964 C   0  0  0  0  0  0  0  0  0  0  0  0
  -31.5089   18.4870  -15.2447 N   0  0  0  0  0  0  0  0  0  0  0  0
  -30.9688   18.2239  -16.4453 C   0  0  0  0  0  0  0  0  0  0  0  0
  1 10  1  0  0  0  0
  2  3  2  0  0  0  0
  2  1  1  0  0  0  0
  3  4  1  0  0  0  0
  4 10  2  0  0  0  0
  4  5  1  0  0  0  0
  5  7  2  0  0  0  0
  6  5  1  0  0  0  0
  7  8  1  0  0  0  0
  9  8  2  0  0  0  0
 10  9  1  0  0  0  0
M  END
>  <CHROM.1>
-30.52087483,17.27679347,-16.35394526,1.71344650,1.02342181,-0.98251889

>  <Name>
lig.pdb

>  <RI>
1.17431e+07

>  <Rbt.Current_Directory>
/home/itssahil/PROJECTS/Mol_Feturizer/New_Systems/rnas/5uza

>  <Rbt.Executable>
rbdock ($Id: //depot/dev/client3/rdock/2013.1/src/exe/rbdock.cxx#4 $)

>  <Rbt.Library>
libRbt.so (2013.1, Build901 2013/11/27)

>  <Rbt.Parameter_File>
/export/apps/rDock/src/rDock_2013.1_src/data/scripts/dock_solv.prm

>  <Rbt.Receptor>
prm/pocket_docking_6.prm

>  <SCORE>
-33.8033

>  <SCORE.INTER>
-33.8033

>  <SCORE.INTER.CONST>
1

>  <SCORE.INTER.POLAR>
-3.03763

>  <SCORE.INTER.ROT>
0

>  <SCORE.INTER.SOLV>
12.2711

>  <SCORE.INTER.VDW>
-20.1005

>  <SCORE.INTER.norm>
-3.38033

>  <SCORE.INTRA>
0

>  <SCORE.INTRA.DIHEDRAL>
0

>  <SCORE.INTRA.DIHEDRAL.0>
0

>  <SCORE.INTRA.POLAR>
0

>  <SCORE.INTRA.POLAR.0>
0

>  <SCORE.INTRA.REPUL>
0

>  <SCORE.INTRA.REPUL.0>
0

>  <SCORE.INTRA.SOLV>
0

>  <SCORE.INTRA.SOLV.lig_0>
-14.8845

>  <SCORE.INTRA.VDW>
0

>  <SCORE.INTRA.VDW.0>
0

>  <SCORE.INTRA.norm>
0

>  <SCORE.RESTR>
0

>  <SCORE.RESTR.CAVITY>
0

>  <SCORE.RESTR.norm>
0

>  <SCORE.SYSTEM>
0

>  <SCORE.SYSTEM.CONST>
0

>  <SCORE.SYSTEM.DIHEDRAL>
0

>  <SCORE.SYSTEM.SOLV>
0

>  <SCORE.SYSTEM.norm>
0

>  <SCORE.heavy>
10

>  <SCORE.norm>
-3.38033

>  <RMSD>
0.310

$$$$
lig.pdb
 OpenBabel11021811523D
libRbt.so/2013.1/901 2013/11/27
 10 11  0  0  0  0  0  0  0  0999 V2000
  -30.9937   19.0187  -17.5614 N   0  0  0  0  0  0  0  0  0  0  0  0
  -30.3228   18.3245  -18.5304 C   0  0  0  0  0  0  0  0  0  0  0  0
  -29.8709   17.1597  -18.1312 N   0  0  0  0  0  0  0  0  0  0  0  0
  -30.2713   17.0836  -16.8079 C   0  0  0  0  0  0  0  0  0  0  0  0
  -30.1051   16.0930  -15.8226 C   0  0  0  0  0  0  0  0  0  0  0  0
  -29.4540   14.9454  -16.0391 N   0  0  0  0  0  0  0  0  0  0  0  0
  -30.6312   16.3296  -14.6009 N   0  0  0  0  0  0  0  0  0  0  0  0
  -31.2786   17.4810  -14.3901 C   0  0  0  0  0  0  0  0  0  0  0  0
  -31.4996   18.4855  -15.2371 N   0  0  0  0  0  0  0  0  0  0  0  0
  -30.9653   18.2211  -16.4401 C   0  0  0  0  0  0  0  0  0  0  0  0
  1 10  1  0  0  0  0
  2  3  2  0  0  0  0
  2  1  1  0  0  0  0
  3  4  1  0  0  0  0
  4 10  2  0  0  0  0
  4  5  1  0  0  0  0
  5  7  2  0  0  0  0
  6  5  1  0  0  0  0
  7  8  1  0  0  0  0
  9  8  2  0  0  0  0
 10  9  1  0  0  0  0
M  END
>  <CHROM.1>
-30.52006426,17.27249420,-16.35077891,1.71660017,1.02838752,-0.98491554

>  <Name>
lig.pdb

>  <RI>
2.12818e+07

>  <Rbt.Current_Directory>
/home/itssahil/PROJECTS/Mol_Feturizer/New_Systems/rnas/5uza

>  <Rbt.Executable>
rbdock ($Id: //depot/dev/client3/rdock/2013.1/src/exe/rbdock.cxx#4 $)

>  <Rbt.Library>
libRbt.so (2013.1, Build901 2013/11/27)

>  <Rbt.Parameter_File>
/export/apps/rDock/src/rDock_2013.1_src/data/scripts/dock_solv.prm

>  <Rbt.Receptor>
prm/pocket_docking_7.prm

>  <SCORE>
-33.804

>  <SCORE.INTER>
-33.8041

>  <SCORE.INTER.CONST>
1

>  <SCORE.INTER.POLAR>
-3.03763

>  <SCORE.INTER.ROT>
0

>  <SCORE.INTER.SOLV>
12.2742

>  <SCORE.INTER.VDW>
-20.102

>  <SCORE.INTER.norm>
-3.38041

>  <SCORE.INTRA>
0

>  <SCORE.INTRA.DIHEDRAL>
0

>  <SCORE.INTRA.DIHEDRAL.0>
0

>  <SCORE.INTRA.POLAR>
0

>  <SCORE.INTRA.POLAR.0>
0

>  <SCORE.INTRA.REPUL>
0

>  <SCORE.INTRA.REPUL.0>
0

>  <SCORE.INTRA.SOLV>
0

>  <SCORE.INTRA.SOLV.lig_0>
-14.8845

>  <SCORE.INTRA.VDW>
0

>  <SCORE.INTRA.VDW.0>
0

>  <SCORE.INTRA.norm>
0

>  <SCORE.RESTR>
0.000115692

>  <SCORE.RESTR.CAVITY>
0.000115692

>  <SCORE.RESTR.norm>
1.15692e-05

>  <SCORE.SYSTEM>
0

>  <SCORE.SYSTEM.CONST>
0

>  <SCORE.SYSTEM.DIHEDRAL>
0

>  <SCORE.SYSTEM.SOLV>
0

>  <SCORE.SYSTEM.norm>
0

>  <SCORE.heavy>
10

>  <SCORE.norm>
-3.3804

>  <RMSD>
0.310

$$$$
lig.pdb
 OpenBabel11021811523D
libRbt.so/2013.1/901 2013/11/27
 10 11  0  0  0  0  0  0  0  0999 V2000
  -31.0018   19.0214  -17.5649 N   0  0  0  0  0  0  0  0  0  0  0  0
  -30.3280   18.3286  -18.5329 C   0  0  0  0  0  0  0  0  0  0  0  0
  -29.8726   17.1656  -18.1325 N   0  0  0  0  0  0  0  0  0  0  0  0
  -30.2737   17.0892  -16.8094 C   0  0  0  0  0  0  0  0  0  0  0  0
  -30.1049   16.0999  -15.8233 C   0  0  0  0  0  0  0  0  0  0  0  0
  -29.4499   14.9543  -16.0385 N   0  0  0  0  0  0  0  0  0  0  0  0
  -30.6326   16.3357  -14.6021 N   0  0  0  0  0  0  0  0  0  0  0  0
  -31.2838   17.4851  -14.3925 C   0  0  0  0  0  0  0  0  0  0  0  0
  -31.5075   18.4883  -15.2405 N   0  0  0  0  0  0  0  0  0  0  0  0
  -30.9716   18.2247  -16.4429 C   0  0  0  0  0  0  0  0  0  0  0  0
  1 10  1  0  0  0  0
  2  3  2  0  0  0  0
  2  1  1  0  0  0  0
  3  4  1  0  0  0  0
  4 10  2  0  0  0  0
  4  5  1  0  0  0  0
  5  7  2  0  0  0  0
  6  5  1  0  0  0  0
  7  8  1  0  0  0  0
  9  8  2  0  0  0  0
 10  9  1  0  0  0  0
M  END
>  <CHROM.1>
-30.52330831,17.27763418,-16.35260240,1.71901438,1.02531752,-0.98772755

>  <Name>
lig.pdb

>  <RI>
1.17775e+07

>  <Rbt.Current_Directory>
/home/itssahil/PROJECTS/Mol_Feturizer/New_Systems/rnas/5uza

>  <Rbt.Executable>
rbdock ($Id: //depot/dev/client3/rdock/2013.1/src/exe/rbdock.cxx#4 $)

>  <Rbt.Library>
libRbt.so (2013.1, Build901 2013/11/27)

>  <Rbt.Parameter_File>
/export/apps/rDock/src/rDock_2013.1_src/data/scripts/dock_solv.prm

>  <Rbt.Receptor>
prm/pocket_docking_8.prm

>  <SCORE>
-33.8036

>  <SCORE.INTER>
-33.8036

>  <SCORE.INTER.CONST>
1

>  <SCORE.INTER.POLAR>
-3.03763

>  <SCORE.INTER.ROT>
0

>  <SCORE.INTER.SOLV>
12.267

>  <SCORE.INTER.VDW>
-20.0993

>  <SCORE.INTER.norm>
-3.38036

>  <SCORE.INTRA>
0

>  <SCORE.INTRA.DIHEDRAL>
0

>  <SCORE.INTRA.DIHEDRAL.0>
0

>  <SCORE.INTRA.POLAR>
0

>  <SCORE.INTRA.POLAR.0>
0

>  <SCORE.INTRA.REPUL>
0

>  <SCORE.INTRA.REPUL.0>
0

>  <SCORE.INTRA.SOLV>
0

>  <SCORE.INTRA.SOLV.lig_0>
-14.8845

>  <SCORE.INTRA.VDW>
0

>  <SCORE.INTRA.VDW.0>
0

>  <SCORE.INTRA.norm>
0

>  <SCORE.RESTR>
0

>  <SCORE.RESTR.CAVITY>
0

>  <SCORE.RESTR.norm>
0

>  <SCORE.SYSTEM>
0

>  <SCORE.SYSTEM.CONST>
0

>  <SCORE.SYSTEM.DIHEDRAL>
0

>  <SCORE.SYSTEM.SOLV>
0

>  <SCORE.SYSTEM.norm>
0

>  <SCORE.heavy>
10

>  <SCORE.norm>
-3.38036

>  <RMSD>
0.310

$$$$
lig.pdb
 OpenBabel11021811523D
libRbt.so/2013.1/901 2013/11/27
 10 11  0  0  0  0  0  0  0  0999 V2000
  -31.0005   19.0237  -17.5682 N   0  0  0  0  0  0  0  0  0  0  0  0
  -30.3251   18.3305  -18.5348 C   0  0  0  0  0  0  0  0  0  0  0  0
  -29.8703   17.1677  -18.1330 N   0  0  0  0  0  0  0  0  0  0  0  0
  -30.2736   17.0920  -16.8105 C   0  0  0  0  0  0  0  0  0  0  0  0
  -30.1064   16.1032  -15.8236 C   0  0  0  0  0  0  0  0  0  0  0  0
  -29.4510   14.9575  -16.0371 N   0  0  0  0  0  0  0  0  0  0  0  0
  -30.6361   16.3396  -14.6034 N   0  0  0  0  0  0  0  0  0  0  0  0
  -31.2877   17.4891  -14.3956 C   0  0  0  0  0  0  0  0  0  0  0  0
  -31.5101   18.4918  -15.2444 N   0  0  0  0  0  0  0  0  0  0  0  0
  -30.9722   18.2276  -16.4458 C   0  0  0  0  0  0  0  0  0  0  0  0
  1 10  1  0  0  0  0
  2  3  2  0  0  0  0
  2  1  1  0  0  0  0
  3  4  1  0  0  0  0
  4 10  2  0  0  0  0
  4  5  1  0  0  0  0
  5  7  2  0  0  0  0
  6  5  1  0  0  0  0
  7  8  1  0  0  0  0
  9  8  2  0  0  0  0
 10  9  1  0  0  0  0
M  END
>  <CHROM.1>
-30.52399177,17.28060773,-16.35424604,1.71638279,1.02435166,-0.98600521

>  <Name>
lig.pdb

>  <RI>
2.26746e+07

>  <Rbt.Current_Directory>
/home/itssahil/PROJECTS/Mol_Feturizer/New_Systems/rnas/5uza

>  <Rbt.Executable>
rbdock ($Id: //depot/dev/client3/rdock/2013.1/src/exe/rbdock.cxx#4 $)

>  <Rbt.Library>
libRbt.so (2013.1, Build901 2013/11/27)

>  <Rbt.Parameter_File>
/export/apps/rDock/src/rDock_2013.1_src/data/scripts/dock_solv.prm

>  <Rbt.Receptor>
prm/blind_docking_100.prm

>  <SCORE>
-33.8034

>  <SCORE.INTER>
-33.8034

>  <SCORE.INTER.CONST>
1

>  <SCORE.INTER.POLAR>
-3.03763

>  <SCORE.INTER.ROT>
0

>  <SCORE.INTER.SOLV>
12.2707

>  <SCORE.INTER.VDW>
-20.1005

>  <SCORE.INTER.norm>
-3.38034

>  <SCORE.INTRA>
0

>  <SCORE.INTRA.DIHEDRAL>
0

>  <SCORE.INTRA.DIHEDRAL.0>
0

>  <SCORE.INTRA.POLAR>
0

>  <SCORE.INTRA.POLAR.0>
0

>  <SCORE.INTRA.REPUL>
0

>  <SCORE.INTRA.REPUL.0>
0

>  <SCORE.INTRA.SOLV>
0

>  <SCORE.INTRA.SOLV.lig_0>
-14.8845

>  <SCORE.INTRA.VDW>
0

>  <SCORE.INTRA.VDW.0>
0

>  <SCORE.INTRA.norm>
0

>  <SCORE.RESTR>
0

>  <SCORE.RESTR.CAVITY>
0

>  <SCORE.RESTR.norm>
0

>  <SCORE.SYSTEM>
0

>  <SCORE.SYSTEM.CONST>
0

>  <SCORE.SYSTEM.DIHEDRAL>
0

>  <SCORE.SYSTEM.SOLV>
0

>  <SCORE.SYSTEM.norm>
0

>  <SCORE.heavy>
10

>  <SCORE.norm>
-3.38034

>  <RMSD>
0.311

$$$$
lig.pdb
 OpenBabel11021811523D
libRbt.so/2013.1/901 2013/11/27
 10 11  0  0  0  0  0  0  0  0999 V2000
  -31.0187   19.0219  -17.5605 N   0  0  0  0  0  0  0  0  0  0  0  0
  -30.3513   18.3292  -18.5330 C   0  0  0  0  0  0  0  0  0  0  0  0
  -29.8922   17.1667  -18.1353 N   0  0  0  0  0  0  0  0  0  0  0  0
  -30.2839   17.0906  -16.8093 C   0  0  0  0  0  0  0  0  0  0  0  0
  -30.1074   16.1019  -15.8239 C   0  0  0  0  0  0  0  0  0  0  0  0
  -29.4531   14.9566  -16.0432 N   0  0  0  0  0  0  0  0  0  0  0  0
  -30.6265   16.3379  -14.5991 N   0  0  0  0  0  0  0  0  0  0  0  0
  -31.2771   17.4869  -14.3856 C   0  0  0  0  0  0  0  0  0  0  0  0
  -31.5075   18.4895  -15.2324 N   0  0  0  0  0  0  0  0  0  0  0  0
  -30.9800   18.2258  -16.4384 C   0  0  0  0  0  0  0  0  0  0  0  0
  1 10  1  0  0  0  0
  2  3  2  0  0  0  0
  2  1  1  0  0  0  0
  3  4  1  0  0  0  0
  4 10  2  0  0  0  0
  4  5  1  0  0  0  0
  5  7  2  0  0  0  0
  6  5  1  0  0  0  0
  7  8  1  0  0  0  0
  9  8  2  0  0  0  0
 10  9  1  0  0  0  0
M  END
>  <CHROM.1>
-30.53037476,17.27906009,-16.35085426,1.73124862,1.02857675,-0.99867106

>  <Name>
lig.pdb

>  <RI>
0

>  <Rbt.Current_Directory>
/home/itssahil/PROJECTS/Mol_Feturizer/New_Systems/rnas/5uza

>  <Rbt.Executable>
rbdock ($Id: //depot/dev/client3/rdock/2013.1/src/exe/rbdock.cxx#4 $)

>  <Rbt.Library>
libRbt.so (2013.1, Build901 2013/11/27)

>  <Rbt.Parameter_File>
/export/apps/rDock/src/rDock_2013.1_src/data/scripts/dock_solv.prm

>  <Rbt.Receptor>
prm/blind_docking_60.prm

>  <SCORE>
-33.7979

>  <SCORE.INTER>
-33.7979

>  <SCORE.INTER.CONST>
1

>  <SCORE.INTER.POLAR>
-3.03763

>  <SCORE.INTER.ROT>
0

>  <SCORE.INTER.SOLV>
12.2584

>  <SCORE.INTER.VDW>
-20.0927

>  <SCORE.INTER.norm>
-3.37979

>  <SCORE.INTRA>
0

>  <SCORE.INTRA.DIHEDRAL>
0

>  <SCORE.INTRA.DIHEDRAL.0>
0

>  <SCORE.INTRA.POLAR>
0

>  <SCORE.INTRA.POLAR.0>
0

>  <SCORE.INTRA.REPUL>
0

>  <SCORE.INTRA.REPUL.0>
0

>  <SCORE.INTRA.SOLV>
0

>  <SCORE.INTRA.SOLV.lig_0>
-14.8845

>  <SCORE.INTRA.VDW>
0

>  <SCORE.INTRA.VDW.0>
0

>  <SCORE.INTRA.norm>
0

>  <SCORE.RESTR>
0

>  <SCORE.RESTR.CAVITY>
0

>  <SCORE.RESTR.norm>
0

>  <SCORE.SYSTEM>
0

>  <SCORE.SYSTEM.CONST>
0

>  <SCORE.SYSTEM.DIHEDRAL>
0

>  <SCORE.SYSTEM.SOLV>
0

>  <SCORE.SYSTEM.norm>
0

>  <SCORE.heavy>
10

>  <SCORE.norm>
-3.37979

>  <RMSD>
0.311

$$$$
lig.pdb
 OpenBabel11021811523D
libRbt.so/2013.1/901 2013/11/27
 10 11  0  0  0  0  0  0  0  0999 V2000
  -31.0249   19.0193  -17.5654 N   0  0  0  0  0  0  0  0  0  0  0  0
  -30.3503   18.3283  -18.5340 C   0  0  0  0  0  0  0  0  0  0  0  0
  -29.8877   17.1684  -18.1327 N   0  0  0  0  0  0  0  0  0  0  0  0
  -30.2847   17.0924  -16.8084 C   0  0  0  0  0  0  0  0  0  0  0  0
  -30.1080   16.1058  -15.8209 C   0  0  0  0  0  0  0  0  0  0  0  0
  -29.4477   14.9631  -16.0358 N   0  0  0  0  0  0  0  0  0  0  0  0
  -30.6335   16.3411  -14.5986 N   0  0  0  0  0  0  0  0  0  0  0  0
  -31.2901   17.4875  -14.3894 C   0  0  0  0  0  0  0  0  0  0  0  0
  -31.5213   18.4880  -15.2386 N   0  0  0  0  0  0  0  0  0  0  0  0
  -30.9874   18.2249  -16.4420 C   0  0  0  0  0  0  0  0  0  0  0  0
  1 10  1  0  0  0  0
  2  3  2  0  0  0  0
  2  1  1  0  0  0  0
  3  4  1  0  0  0  0
  4 10  2  0  0  0  0
  4  5  1  0  0  0  0
  5  7  2  0  0  0  0
  6  5  1  0  0  0  0
  7  8  1  0  0  0  0
  9  8  2  0  0  0  0
 10  9  1  0  0  0  0
M  END
>  <CHROM.1>
-30.53399348,17.28033474,-16.35122626,1.72895225,1.02250623,-0.99807533

>  <Name>
lig.pdb

>  <RI>
0

>  <Rbt.Current_Directory>
/home/itssahil/PROJECTS/Mol_Feturizer/New_Systems/rnas/5uza

>  <Rbt.Executable>
rbdock ($Id: //depot/dev/client3/rdock/2013.1/src/exe/rbdock.cxx#4 $)

>  <Rbt.Library>
libRbt.so (2013.1, Build901 2013/11/27)

>  <Rbt.Parameter_File>
/export/apps/rDock/src/rDock_2013.1_src/data/scripts/dock_solv.prm

>  <Rbt.Receptor>
prm/blind_docking_60.prm

>  <SCORE>
-33.7947

>  <SCORE.INTER>
-33.7947

>  <SCORE.INTER.CONST>
1

>  <SCORE.INTER.POLAR>
-3.03763

>  <SCORE.INTER.ROT>
0

>  <SCORE.INTER.SOLV>
12.2529

>  <SCORE.INTER.VDW>
-20.0887

>  <SCORE.INTER.norm>
-3.37947

>  <SCORE.INTRA>
0

>  <SCORE.INTRA.DIHEDRAL>
0

>  <SCORE.INTRA.DIHEDRAL.0>
0

>  <SCORE.INTRA.POLAR>
0

>  <SCORE.INTRA.POLAR.0>
0

>  <SCORE.INTRA.REPUL>
0

>  <SCORE.INTRA.REPUL.0>
0

>  <SCORE.INTRA.SOLV>
0

>  <SCORE.INTRA.SOLV.lig_0>
-14.8845

>  <SCORE.INTRA.VDW>
0

>  <SCORE.INTRA.VDW.0>
0

>  <SCORE.INTRA.norm>
0

>  <SCORE.RESTR>
0

>  <SCORE.RESTR.CAVITY>
0

>  <SCORE.RESTR.norm>
0

>  <SCORE.SYSTEM>
0

>  <SCORE.SYSTEM.CONST>
0

>  <SCORE.SYSTEM.DIHEDRAL>
0

>  <SCORE.SYSTEM.SOLV>
0

>  <SCORE.SYSTEM.norm>
0

>  <SCORE.heavy>
10

>  <SCORE.norm>
-3.37947

>  <RMSD>
0.311

$$$$
lig.pdb
 OpenBabel11021811523D
libRbt.so/2013.1/901 2013/11/27
 10 11  0  0  0  0  0  0  0  0999 V2000
  -30.9885   19.0180  -17.5626 N   0  0  0  0  0  0  0  0  0  0  0  0
  -30.3147   18.3244  -18.5301 C   0  0  0  0  0  0  0  0  0  0  0  0
  -29.8642   17.1592  -18.1304 N   0  0  0  0  0  0  0  0  0  0  0  0
  -30.2688   17.0822  -16.8084 C   0  0  0  0  0  0  0  0  0  0  0  0
  -30.1058   16.0908  -15.8234 C   0  0  0  0  0  0  0  0  0  0  0  0
  -29.4541   14.9433  -16.0387 N   0  0  0  0  0  0  0  0  0  0  0  0
  -30.6356   16.3265  -14.6031 N   0  0  0  0  0  0  0  0  0  0  0  0
  -31.2834   17.4778  -14.3934 C   0  0  0  0  0  0  0  0  0  0  0  0
  -31.5017   18.4830  -15.2404 N   0  0  0  0  0  0  0  0  0  0  0  0
  -30.9637   18.2195  -16.4418 C   0  0  0  0  0  0  0  0  0  0  0  0
  1 10  1  0  0  0  0
  2  3  2  0  0  0  0
  2  1  1  0  0  0  0
  3  4  1  0  0  0  0
  4 10  2  0  0  0  0
  4  5  1  0  0  0  0
  5  7  2  0  0  0  0
  6  5  1  0  0  0  0
  7  8  1  0  0  0  0
  9  8  2  0  0  0  0
 10  9  1  0  0  0  0
M  END
>  <CHROM.1>
-30.51887619,17.27075009,-16.35191011,1.71144943,1.02678961,-0.97971674

>  <Name>
lig.pdb

>  <RI>
0

>  <Rbt.Current_Directory>
/home/itssahil/PROJECTS/Mol_Feturizer/New_Systems/rnas/5uza

>  <Rbt.Executable>
rbdock ($Id: //depot/dev/client3/rdock/2013.1/src/exe/rbdock.cxx#4 $)

>  <Rbt.Library>
libRbt.so (2013.1, Build901 2013/11/27)

>  <Rbt.Parameter_File>
/export/apps/rDock/src/rDock_2013.1_src/data/scripts/dock_solv.prm

>  <Rbt.Receptor>
prm/pocket_docking_5.prm

>  <SCORE>
-33.804

>  <SCORE.INTER>
-33.8042

>  <SCORE.INTER.CONST>
1

>  <SCORE.INTER.POLAR>
-3.03763

>  <SCORE.INTER.ROT>
0

>  <SCORE.INTER.SOLV>
12.2797

>  <SCORE.INTER.VDW>
-20.1039

>  <SCORE.INTER.norm>
-3.38042

>  <SCORE.INTRA>
0

>  <SCORE.INTRA.DIHEDRAL>
0

>  <SCORE.INTRA.DIHEDRAL.0>
0

>  <SCORE.INTRA.POLAR>
0

>  <SCORE.INTRA.POLAR.0>
0

>  <SCORE.INTRA.REPUL>
0

>  <SCORE.INTRA.REPUL.0>
0

>  <SCORE.INTRA.SOLV>
0

>  <SCORE.INTRA.SOLV.lig_0>
-14.8845

>  <SCORE.INTRA.VDW>
0

>  <SCORE.INTRA.VDW.0>
0

>  <SCORE.INTRA.norm>
0

>  <SCORE.RESTR>
0.00014364

>  <SCORE.RESTR.CAVITY>
0.00014364

>  <SCORE.RESTR.norm>
1.4364e-05

>  <SCORE.SYSTEM>
0

>  <SCORE.SYSTEM.CONST>
0

>  <SCORE.SYSTEM.DIHEDRAL>
0

>  <SCORE.SYSTEM.SOLV>
0

>  <SCORE.SYSTEM.norm>
0

>  <SCORE.heavy>
10

>  <SCORE.norm>
-3.3804

>  <RMSD>
0.311

$$$$
lig.pdb
 OpenBabel11021811523D
libRbt.so/2013.1/901 2013/11/27
 10 11  0  0  0  0  0  0  0  0999 V2000
  -30.9968   19.0177  -17.5621 N   0  0  0  0  0  0  0  0  0  0  0  0
  -30.3233   18.3249  -18.5303 C   0  0  0  0  0  0  0  0  0  0  0  0
  -29.8708   17.1603  -18.1310 N   0  0  0  0  0  0  0  0  0  0  0  0
  -30.2736   17.0829  -16.8085 C   0  0  0  0  0  0  0  0  0  0  0  0
  -30.1080   16.0918  -15.8236 C   0  0  0  0  0  0  0  0  0  0  0  0
  -29.4551   14.9452  -16.0396 N   0  0  0  0  0  0  0  0  0  0  0  0
  -30.6366   16.3270  -14.6027 N   0  0  0  0  0  0  0  0  0  0  0  0
  -31.2857   17.4774  -14.3923 C   0  0  0  0  0  0  0  0  0  0  0  0
  -31.5064   18.4823  -15.2391 N   0  0  0  0  0  0  0  0  0  0  0  0
  -30.9696   18.2193  -16.4412 C   0  0  0  0  0  0  0  0  0  0  0  0
  1 10  1  0  0  0  0
  2  3  2  0  0  0  0
  2  1  1  0  0  0  0
  3  4  1  0  0  0  0
  4 10  2  0  0  0  0
  4  5  1  0  0  0  0
  5  7  2  0  0  0  0
  6  5  1  0  0  0  0
  7  8  1  0  0  0  0
  9  8  2  0  0  0  0
 10  9  1  0  0  0  0
M  END
>  <CHROM.1>
-30.52334953,17.27118444,-16.35175791,1.71489738,1.02637054,-0.98278973

>  <Name>
lig.pdb

>  <RI>
0

>  <Rbt.Current_Directory>
/home/itssahil/PROJECTS/Mol_Feturizer/New_Systems/rnas/5uza

>  <Rbt.Executable>
rbdock ($Id: //depot/dev/client3/rdock/2013.1/src/exe/rbdock.cxx#4 $)

>  <Rbt.Library>
libRbt.so (2013.1, Build901 2013/11/27)

>  <Rbt.Parameter_File>
/export/apps/rDock/src/rDock_2013.1_src/data/scripts/dock_solv.prm

>  <Rbt.Receptor>
prm/pocket_docking_5.prm

>  <SCORE>
-33.805

>  <SCORE.INTER>
-33.805

>  <SCORE.INTER.CONST>
1

>  <SCORE.INTER.POLAR>
-3.03763

>  <SCORE.INTER.ROT>
0

>  <SCORE.INTER.SOLV>
12.2774

>  <SCORE.INTER.VDW>
-20.1037

>  <SCORE.INTER.norm>
-3.3805

>  <SCORE.INTRA>
0

>  <SCORE.INTRA.DIHEDRAL>
0

>  <SCORE.INTRA.DIHEDRAL.0>
0

>  <SCORE.INTRA.POLAR>
0

>  <SCORE.INTRA.POLAR.0>
0

>  <SCORE.INTRA.REPUL>
0

>  <SCORE.INTRA.REPUL.0>
0

>  <SCORE.INTRA.SOLV>
0

>  <SCORE.INTRA.SOLV.lig_0>
-14.8845

>  <SCORE.INTRA.VDW>
0

>  <SCORE.INTRA.VDW.0>
0

>  <SCORE.INTRA.norm>
0

>  <SCORE.RESTR>
0

>  <SCORE.RESTR.CAVITY>
0

>  <SCORE.RESTR.norm>
0

>  <SCORE.SYSTEM>
0

>  <SCORE.SYSTEM.CONST>
0

>  <SCORE.SYSTEM.DIHEDRAL>
0

>  <SCORE.SYSTEM.SOLV>
0

>  <SCORE.SYSTEM.norm>
0

>  <SCORE.heavy>
10

>  <SCORE.norm>
-3.3805

>  <RMSD>
0.311

$$$$
lig.pdb
 OpenBabel11021811523D
libRbt.so/2013.1/901 2013/11/27
 10 11  0  0  0  0  0  0  0  0999 V2000
  -31.0064   19.0206  -17.5625 N   0  0  0  0  0  0  0  0  0  0  0  0
  -30.3343   18.3285  -18.5322 C   0  0  0  0  0  0  0  0  0  0  0  0
  -29.8785   17.1651  -18.1334 N   0  0  0  0  0  0  0  0  0  0  0  0
  -30.2775   17.0877  -16.8098 C   0  0  0  0  0  0  0  0  0  0  0  0
  -30.1074   16.0976  -15.8247 C   0  0  0  0  0  0  0  0  0  0  0  0
  -29.4529   14.9520  -16.0418 N   0  0  0  0  0  0  0  0  0  0  0  0
  -30.6331   16.3325  -14.6025 N   0  0  0  0  0  0  0  0  0  0  0  0
  -31.2838   17.4818  -14.3910 C   0  0  0  0  0  0  0  0  0  0  0  0
  -31.5086   18.4857  -15.2378 N   0  0  0  0  0  0  0  0  0  0  0  0
  -30.9746   18.2230  -16.4412 C   0  0  0  0  0  0  0  0  0  0  0  0
  1 10  1  0  0  0  0
  2  3  2  0  0  0  0
  2  1  1  0  0  0  0
  3  4  1  0  0  0  0
  4 10  2  0  0  0  0
  4  5  1  0  0  0  0
  5  7  2  0  0  0  0
  6  5  1  0  0  0  0
  7  8  1  0  0  0  0
  9  8  2  0  0  0  0
 10  9  1  0  0  0  0
M  END
>  <CHROM.1>
-30.52639223,17.27578395,-16.35241565,1.72129699,1.02631821,-0.98887888

>  <Name>
lig.pdb

>  <RI>
0

>  <Rbt.Current_Directory>
/home/itssahil/PROJECTS/Mol_Feturizer/New_Systems/rnas/5uza

>  <Rbt.Executable>
rbdock ($Id: //depot/dev/client3/rdock/2013.1/src/exe/rbdock.cxx#4 $)

>  <Rbt.Library>
libRbt.so (2013.1, Build901 2013/11/27)

>  <Rbt.Parameter_File>
/export/apps/rDock/src/rDock_2013.1_src/data/scripts/dock_solv.prm

>  <Rbt.Receptor>
prm/pocket_docking_5.prm

>  <SCORE>
-33.8042

>  <SCORE.INTER>
-33.8042

>  <SCORE.INTER.CONST>
1

>  <SCORE.INTER.POLAR>
-3.03763

>  <SCORE.INTER.ROT>
0

>  <SCORE.INTER.SOLV>
12.2686

>  <SCORE.INTER.VDW>
-20.1003

>  <SCORE.INTER.norm>
-3.38042

>  <SCORE.INTRA>
0

>  <SCORE.INTRA.DIHEDRAL>
0

>  <SCORE.INTRA.DIHEDRAL.0>
0

>  <SCORE.INTRA.POLAR>
0

>  <SCORE.INTRA.POLAR.0>
0

>  <SCORE.INTRA.REPUL>
0

>  <SCORE.INTRA.REPUL.0>
0

>  <SCORE.INTRA.SOLV>
0

>  <SCORE.INTRA.SOLV.lig_0>
-14.8845

>  <SCORE.INTRA.VDW>
0

>  <SCORE.INTRA.VDW.0>
0

>  <SCORE.INTRA.norm>
0

>  <SCORE.RESTR>
7.70068e-05

>  <SCORE.RESTR.CAVITY>
7.70068e-05

>  <SCORE.RESTR.norm>
7.70068e-06

>  <SCORE.SYSTEM>
0

>  <SCORE.SYSTEM.CONST>
0

>  <SCORE.SYSTEM.DIHEDRAL>
0

>  <SCORE.SYSTEM.SOLV>
0

>  <SCORE.SYSTEM.norm>
0

>  <SCORE.heavy>
10

>  <SCORE.norm>
-3.38042

>  <RMSD>
0.311

$$$$
lig.pdb
 OpenBabel11021811523D
libRbt.so/2013.1/901 2013/11/27
 10 11  0  0  0  0  0  0  0  0999 V2000
  -30.9918   19.0196  -17.5700 N   0  0  0  0  0  0  0  0  0  0  0  0
  -30.3168   18.3233  -18.5347 C   0  0  0  0  0  0  0  0  0  0  0  0
  -29.8662   17.1596  -18.1309 N   0  0  0  0  0  0  0  0  0  0  0  0
  -30.2719   17.0865  -16.8090 C   0  0  0  0  0  0  0  0  0  0  0  0
  -30.1094   16.0983  -15.8208 C   0  0  0  0  0  0  0  0  0  0  0  0
  -29.4571   14.9503  -16.0319 N   0  0  0  0  0  0  0  0  0  0  0  0
  -30.6405   16.3376  -14.6017 N   0  0  0  0  0  0  0  0  0  0  0  0
  -31.2890   17.4893  -14.3962 C   0  0  0  0  0  0  0  0  0  0  0  0
  -31.5068   18.4917  -15.2465 N   0  0  0  0  0  0  0  0  0  0  0  0
  -30.9677   18.2247  -16.4467 C   0  0  0  0  0  0  0  0  0  0  0  0
  1 10  1  0  0  0  0
  2  3  2  0  0  0  0
  2  1  1  0  0  0  0
  3  4  1  0  0  0  0
  4 10  2  0  0  0  0
  4  5  1  0  0  0  0
  5  7  2  0  0  0  0
  6  5  1  0  0  0  0
  7  8  1  0  0  0  0
  9  8  2  0  0  0  0
 10  9  1  0  0  0  0
M  END
>  <CHROM.1>
-30.52253709,17.27638342,-16.35337213,1.71044595,1.02593663,-0.98200168

>  <Name>
lig.pdb

>  <RI>
2.26746e+07

>  <Rbt.Current_Directory>
/home/itssahil/PROJECTS/Mol_Feturizer/New_Systems/rnas/5uza

>  <Rbt.Executable>
rbdock ($Id: //depot/dev/client3/rdock/2013.1/src/exe/rbdock.cxx#4 $)

>  <Rbt.Library>
libRbt.so (2013.1, Build901 2013/11/27)

>  <Rbt.Parameter_File>
/export/apps/rDock/src/rDock_2013.1_src/data/scripts/dock_solv.prm

>  <Rbt.Receptor>
prm/blind_docking_100.prm

>  <SCORE>
-33.8048

>  <SCORE.INTER>
-33.8051

>  <SCORE.INTER.CONST>
1

>  <SCORE.INTER.POLAR>
-3.03763

>  <SCORE.INTER.ROT>
0

>  <SCORE.INTER.SOLV>
12.2824

>  <SCORE.INTER.VDW>
-20.1054

>  <SCORE.INTER.norm>
-3.38051

>  <SCORE.INTRA>
0

>  <SCORE.INTRA.DIHEDRAL>
0

>  <SCORE.INTRA.DIHEDRAL.0>
0

>  <SCORE.INTRA.POLAR>
0

>  <SCORE.INTRA.POLAR.0>
0

>  <SCORE.INTRA.REPUL>
0

>  <SCORE.INTRA.REPUL.0>
0

>  <SCORE.INTRA.SOLV>
0

>  <SCORE.INTRA.SOLV.lig_0>
-14.8845

>  <SCORE.INTRA.VDW>
0

>  <SCORE.INTRA.VDW.0>
0

>  <SCORE.INTRA.norm>
0

>  <SCORE.RESTR>
0.000306409

>  <SCORE.RESTR.CAVITY>
0.000306409

>  <SCORE.RESTR.norm>
3.06409e-05

>  <SCORE.SYSTEM>
0

>  <SCORE.SYSTEM.CONST>
0

>  <SCORE.SYSTEM.DIHEDRAL>
0

>  <SCORE.SYSTEM.SOLV>
0

>  <SCORE.SYSTEM.norm>
0

>  <SCORE.heavy>
10

>  <SCORE.norm>
-3.38048

>  <RMSD>
0.312

$$$$
lig.pdb
 OpenBabel11021811523D
libRbt.so/2013.1/901 2013/11/27
 10 11  0  0  0  0  0  0  0  0999 V2000
  -31.0076   19.0199  -17.5604 N   0  0  0  0  0  0  0  0  0  0  0  0
  -30.3346   18.3291  -18.5304 C   0  0  0  0  0  0  0  0  0  0  0  0
  -29.8784   17.1655  -18.1327 N   0  0  0  0  0  0  0  0  0  0  0  0
  -30.2783   17.0865  -16.8094 C   0  0  0  0  0  0  0  0  0  0  0  0
  -30.1083   16.0953  -15.8253 C   0  0  0  0  0  0  0  0  0  0  0  0
  -29.4532   14.9503  -16.0433 N   0  0  0  0  0  0  0  0  0  0  0  0
  -30.6349   16.3286  -14.6031 N   0  0  0  0  0  0  0  0  0  0  0  0
  -31.2862   17.4775  -14.3908 C   0  0  0  0  0  0  0  0  0  0  0  0
  -31.5110   18.4822  -15.2367 N   0  0  0  0  0  0  0  0  0  0  0  0
  -30.9761   18.2211  -16.4400 C   0  0  0  0  0  0  0  0  0  0  0  0
  1 10  1  0  0  0  0
  2  3  2  0  0  0  0
  2  1  1  0  0  0  0
  3  4  1  0  0  0  0
  4 10  2  0  0  0  0
  4  5  1  0  0  0  0
  5  7  2  0  0  0  0
  6  5  1  0  0  0  0
  7  8  1  0  0  0  0
  9  8  2  0  0  0  0
 10  9  1  0  0  0  0
M  END
>  <CHROM.1>
-30.52750916,17.27393524,-16.35196457,1.72079675,1.02559767,-0.98734082

>  <Name>
lig.pdb

>  <RI>
2.26746e+07

>  <Rbt.Current_Directory>
/home/itssahil/PROJECTS/Mol_Feturizer/New_Systems/rnas/5uza

>  <Rbt.Executable>
rbdock ($Id: //depot/dev/client3/rdock/2013.1/src/exe/rbdock.cxx#4 $)

>  <Rbt.Library>
libRbt.so (2013.1, Build901 2013/11/27)

>  <Rbt.Parameter_File>
/export/apps/rDock/src/rDock_2013.1_src/data/scripts/dock_solv.prm

>  <Rbt.Receptor>
prm/blind_docking_100.prm

>  <SCORE>
-33.8035

>  <SCORE.INTER>
-33.8035

>  <SCORE.INTER.CONST>
1

>  <SCORE.INTER.POLAR>
-3.03763

>  <SCORE.INTER.ROT>
0

>  <SCORE.INTER.SOLV>
12.27

>  <SCORE.INTER.VDW>
-20.1002

>  <SCORE.INTER.norm>
-3.38035

>  <SCORE.INTRA>
0

>  <SCORE.INTRA.DIHEDRAL>
0

>  <SCORE.INTRA.DIHEDRAL.0>
0

>  <SCORE.INTRA.POLAR>
0

>  <SCORE.INTRA.POLAR.0>
0

>  <SCORE.INTRA.REPUL>
0

>  <SCORE.INTRA.REPUL.0>
0

>  <SCORE.INTRA.SOLV>
0

>  <SCORE.INTRA.SOLV.lig_0>
-14.8845

>  <SCORE.INTRA.VDW>
0

>  <SCORE.INTRA.VDW.0>
0

>  <SCORE.INTRA.norm>
0

>  <SCORE.RESTR>
0

>  <SCORE.RESTR.CAVITY>
0

>  <SCORE.RESTR.norm>
0

>  <SCORE.SYSTEM>
0

>  <SCORE.SYSTEM.CONST>
0

>  <SCORE.SYSTEM.DIHEDRAL>
0

>  <SCORE.SYSTEM.SOLV>
0

>  <SCORE.SYSTEM.norm>
0

>  <SCORE.heavy>
10

>  <SCORE.norm>
-3.38035

>  <RMSD>
0.312

$$$$
lig.pdb
 OpenBabel11021811523D
libRbt.so/2013.1/901 2013/11/27
 10 11  0  0  0  0  0  0  0  0999 V2000
  -30.9956   19.0190  -17.5610 N   0  0  0  0  0  0  0  0  0  0  0  0
  -30.3225   18.3261  -18.5295 C   0  0  0  0  0  0  0  0  0  0  0  0
  -29.8704   17.1614  -18.1305 N   0  0  0  0  0  0  0  0  0  0  0  0
  -30.2730   17.0839  -16.8079 C   0  0  0  0  0  0  0  0  0  0  0  0
  -30.1077   16.0925  -15.8232 C   0  0  0  0  0  0  0  0  0  0  0  0
  -29.4553   14.9456  -16.0395 N   0  0  0  0  0  0  0  0  0  0  0  0
  -30.6361   16.3277  -14.6022 N   0  0  0  0  0  0  0  0  0  0  0  0
  -31.2847   17.4783  -14.3915 C   0  0  0  0  0  0  0  0  0  0  0  0
  -31.5050   18.4834  -15.2381 N   0  0  0  0  0  0  0  0  0  0  0  0
  -30.9685   18.2205  -16.4403 C   0  0  0  0  0  0  0  0  0  0  0  0
  1 10  1  0  0  0  0
  2  3  2  0  0  0  0
  2  1  1  0  0  0  0
  3  4  1  0  0  0  0
  4 10  2  0  0  0  0
  4  5  1  0  0  0  0
  5  7  2  0  0  0  0
  6  5  1  0  0  0  0
  7  8  1  0  0  0  0
  9  8  2  0  0  0  0
 10  9  1  0  0  0  0
M  END
>  <CHROM.1>
-30.52266236,17.27213823,-16.35107669,1.71468371,1.02678994,-0.98241825

>  <Name>
lig.pdb

>  <RI>
2.26746e+07

>  <Rbt.Current_Directory>
/home/itssahil/PROJECTS/Mol_Feturizer/New_Systems/rnas/5uza

>  <Rbt.Executable>
rbdock ($Id: //depot/dev/client3/rdock/2013.1/src/exe/rbdock.cxx#4 $)

>  <Rbt.Library>
libRbt.so (2013.1, Build901 2013/11/27)

>  <Rbt.Parameter_File>
/export/apps/rDock/src/rDock_2013.1_src/data/scripts/dock_solv.prm

>  <Rbt.Receptor>
prm/blind_docking_100.prm

>  <SCORE>
-33.8037

>  <SCORE.INTER>
-33.8037

>  <SCORE.INTER.CONST>
1

>  <SCORE.INTER.POLAR>
-3.03763

>  <SCORE.INTER.ROT>
0

>  <SCORE.INTER.SOLV>
12.2783

>  <SCORE.INTER.VDW>
-20.1032

>  <SCORE.INTER.norm>
-3.38037

>  <SCORE.INTRA>
0

>  <SCORE.INTRA.DIHEDRAL>
0

>  <SCORE.INTRA.DIHEDRAL.0>
0

>  <SCORE.INTRA.POLAR>
0

>  <SCORE.INTRA.POLAR.0>
0

>  <SCORE.INTRA.REPUL>
0

>  <SCORE.INTRA.REPUL.0>
0

>  <SCORE.INTRA.SOLV>
0

>  <SCORE.INTRA.SOLV.lig_0>
-14.8845

>  <SCORE.INTRA.VDW>
0

>  <SCORE.INTRA.VDW.0>
0

>  <SCORE.INTRA.norm>
0

>  <SCORE.RESTR>
0

>  <SCORE.RESTR.CAVITY>
0

>  <SCORE.RESTR.norm>
0

>  <SCORE.SYSTEM>
0

>  <SCORE.SYSTEM.CONST>
0

>  <SCORE.SYSTEM.DIHEDRAL>
0

>  <SCORE.SYSTEM.SOLV>
0

>  <SCORE.SYSTEM.norm>
0

>  <SCORE.heavy>
10

>  <SCORE.norm>
-3.38037

>  <RMSD>
0.312

$$$$
lig.pdb
 OpenBabel11021811523D
libRbt.so/2013.1/901 2013/11/27
 10 11  0  0  0  0  0  0  0  0999 V2000
  -31.0041   19.0245  -17.5618 N   0  0  0  0  0  0  0  0  0  0  0  0
  -30.3328   18.3319  -18.5316 C   0  0  0  0  0  0  0  0  0  0  0  0
  -29.8779   17.1681  -18.1330 N   0  0  0  0  0  0  0  0  0  0  0  0
  -30.2767   17.0909  -16.8093 C   0  0  0  0  0  0  0  0  0  0  0  0
  -30.1072   16.1006  -15.8243 C   0  0  0  0  0  0  0  0  0  0  0  0
  -29.4538   14.9544  -16.0417 N   0  0  0  0  0  0  0  0  0  0  0  0
  -30.6325   16.3358  -14.6020 N   0  0  0  0  0  0  0  0  0  0  0  0
  -31.2821   17.4857  -14.3903 C   0  0  0  0  0  0  0  0  0  0  0  0
  -31.5063   18.4899  -15.2370 N   0  0  0  0  0  0  0  0  0  0  0  0
  -30.9728   18.2268  -16.4406 C   0  0  0  0  0  0  0  0  0  0  0  0
  1 10  1  0  0  0  0
  2  3  2  0  0  0  0
  2  1  1  0  0  0  0
  3  4  1  0  0  0  0
  4 10  2  0  0  0  0
  4  5  1  0  0  0  0
  5  7  2  0  0  0  0
  6  5  1  0  0  0  0
  7  8  1  0  0  0  0
  9  8  2  0  0  0  0
 10  9  1  0  0  0  0
M  END
>  <CHROM.1>
-30.52532214,17.27919058,-16.35188922,1.72073996,1.02715137,-0.98832305

>  <Name>
lig.pdb

>  <RI>
0

>  <Rbt.Current_Directory>
/home/itssahil/PROJECTS/Mol_Feturizer/New_Systems/rnas/5uza

>  <Rbt.Executable>
rbdock ($Id: //depot/dev/client3/rdock/2013.1/src/exe/rbdock.cxx#4 $)

>  <Rbt.Library>
libRbt.so (2013.1, Build901 2013/11/27)

>  <Rbt.Parameter_File>
/export/apps/rDock/src/rDock_2013.1_src/data/scripts/dock_solv.prm

>  <Rbt.Receptor>
prm/blind_docking_60.prm

>  <SCORE>
-33.8024

>  <SCORE.INTER>
-33.8024

>  <SCORE.INTER.CONST>
1

>  <SCORE.INTER.POLAR>
-3.03763

>  <SCORE.INTER.ROT>
0

>  <SCORE.INTER.SOLV>
12.2709

>  <SCORE.INTER.VDW>
-20.0998

>  <SCORE.INTER.norm>
-3.38024

>  <SCORE.INTRA>
0

>  <SCORE.INTRA.DIHEDRAL>
0

>  <SCORE.INTRA.DIHEDRAL.0>
0

>  <SCORE.INTRA.POLAR>
0

>  <SCORE.INTRA.POLAR.0>
0

>  <SCORE.INTRA.REPUL>
0

>  <SCORE.INTRA.REPUL.0>
0

>  <SCORE.INTRA.SOLV>
0

>  <SCORE.INTRA.SOLV.lig_0>
-14.8845

>  <SCORE.INTRA.VDW>
0

>  <SCORE.INTRA.VDW.0>
0

>  <SCORE.INTRA.norm>
0

>  <SCORE.RESTR>
0

>  <SCORE.RESTR.CAVITY>
0

>  <SCORE.RESTR.norm>
0

>  <SCORE.SYSTEM>
0

>  <SCORE.SYSTEM.CONST>
0

>  <SCORE.SYSTEM.DIHEDRAL>
0

>  <SCORE.SYSTEM.SOLV>
0

>  <SCORE.SYSTEM.norm>
0

>  <SCORE.heavy>
10

>  <SCORE.norm>
-3.38024

>  <RMSD>
0.312

$$$$
lig.pdb
 OpenBabel11021811523D
libRbt.so/2013.1/901 2013/11/27
 10 11  0  0  0  0  0  0  0  0999 V2000
  -30.9975   19.0222  -17.5604 N   0  0  0  0  0  0  0  0  0  0  0  0
  -30.3243   18.3310  -18.5299 C   0  0  0  0  0  0  0  0  0  0  0  0
  -29.8713   17.1660  -18.1325 N   0  0  0  0  0  0  0  0  0  0  0  0
  -30.2735   17.0865  -16.8099 C   0  0  0  0  0  0  0  0  0  0  0  0
  -30.1073   16.0940  -15.8265 C   0  0  0  0  0  0  0  0  0  0  0  0
  -29.4542   14.9478  -16.0446 N   0  0  0  0  0  0  0  0  0  0  0  0
  -30.6354   16.3273  -14.6050 N   0  0  0  0  0  0  0  0  0  0  0  0
  -31.2846   17.4773  -14.3927 C   0  0  0  0  0  0  0  0  0  0  0  0
  -31.5059   18.4833  -15.2379 N   0  0  0  0  0  0  0  0  0  0  0  0
  -30.9696   18.2222  -16.4407 C   0  0  0  0  0  0  0  0  0  0  0  0
  1 10  1  0  0  0  0
  2  3  2  0  0  0  0
  2  1  1  0  0  0  0
  3  4  1  0  0  0  0
  4 10  2  0  0  0  0
  4  5  1  0  0  0  0
  5  7  2  0  0  0  0
  6  5  1  0  0  0  0
  7  8  1  0  0  0  0
  9  8  2  0  0  0  0
 10  9  1  0  0  0  0
M  END
>  <CHROM.1>
-30.52311027,17.27406359,-16.35277894,1.71584385,1.02645397,-0.98213232

>  <Name>
lig.pdb

>  <RI>
0

>  <Rbt.Current_Directory>
/home/itssahil/PROJECTS/Mol_Feturizer/New_Systems/rnas/5uza

>  <Rbt.Executable>
rbdock ($Id: //depot/dev/client3/rdock/2013.1/src/exe/rbdock.cxx#4 $)

>  <Rbt.Library>
libRbt.so (2013.1, Build901 2013/11/27)

>  <Rbt.Parameter_File>
/export/apps/rDock/src/rDock_2013.1_src/data/scripts/dock_solv.prm

>  <Rbt.Receptor>
prm/blind_docking_60.prm

>  <SCORE>
-33.8045

>  <SCORE.INTER>
-33.8045

>  <SCORE.INTER.CONST>
1

>  <SCORE.INTER.POLAR>
-3.03763

>  <SCORE.INTER.ROT>
0

>  <SCORE.INTER.SOLV>
12.2769

>  <SCORE.INTER.VDW>
-20.1032

>  <SCORE.INTER.norm>
-3.38045

>  <SCORE.INTRA>
0

>  <SCORE.INTRA.DIHEDRAL>
0

>  <SCORE.INTRA.DIHEDRAL.0>
0

>  <SCORE.INTRA.POLAR>
0

>  <SCORE.INTRA.POLAR.0>
0

>  <SCORE.INTRA.REPUL>
0

>  <SCORE.INTRA.REPUL.0>
0

>  <SCORE.INTRA.SOLV>
0

>  <SCORE.INTRA.SOLV.lig_0>
-14.8845

>  <SCORE.INTRA.VDW>
0

>  <SCORE.INTRA.VDW.0>
0

>  <SCORE.INTRA.norm>
0

>  <SCORE.RESTR>
0

>  <SCORE.RESTR.CAVITY>
0

>  <SCORE.RESTR.norm>
0

>  <SCORE.SYSTEM>
0

>  <SCORE.SYSTEM.CONST>
0

>  <SCORE.SYSTEM.DIHEDRAL>
0

>  <SCORE.SYSTEM.SOLV>
0

>  <SCORE.SYSTEM.norm>
0

>  <SCORE.heavy>
10

>  <SCORE.norm>
-3.38045

>  <RMSD>
0.312

$$$$
lig.pdb
 OpenBabel11021811523D
libRbt.so/2013.1/901 2013/11/27
 10 11  0  0  0  0  0  0  0  0999 V2000
  -30.9982   19.0170  -17.5623 N   0  0  0  0  0  0  0  0  0  0  0  0
  -30.3249   18.3235  -18.5301 C   0  0  0  0  0  0  0  0  0  0  0  0
  -29.8723   17.1593  -18.1300 N   0  0  0  0  0  0  0  0  0  0  0  0
  -30.2748   17.0829  -16.8073 C   0  0  0  0  0  0  0  0  0  0  0  0
  -30.1091   16.0925  -15.8217 C   0  0  0  0  0  0  0  0  0  0  0  0
  -29.4562   14.9457  -16.0370 N   0  0  0  0  0  0  0  0  0  0  0  0
  -30.6375   16.3286  -14.6008 N   0  0  0  0  0  0  0  0  0  0  0  0
  -31.2865   17.4792  -14.3912 C   0  0  0  0  0  0  0  0  0  0  0  0
  -31.5074   18.4834  -15.2388 N   0  0  0  0  0  0  0  0  0  0  0  0
  -30.9708   18.2196  -16.4408 C   0  0  0  0  0  0  0  0  0  0  0  0
  1 10  1  0  0  0  0
  2  3  2  0  0  0  0
  2  1  1  0  0  0  0
  3  4  1  0  0  0  0
  4 10  2  0  0  0  0
  4  5  1  0  0  0  0
  5  7  2  0  0  0  0
  6  5  1  0  0  0  0
  7  8  1  0  0  0  0
  9  8  2  0  0  0  0
 10  9  1  0  0  0  0
M  END
>  <CHROM.1>
-30.52454155,17.27147674,-16.35065764,1.71521807,1.02647096,-0.98383002

>  <Name>
lig.pdb

>  <RI>
1.17431e+07

>  <Rbt.Current_Directory>
/home/itssahil/PROJECTS/Mol_Feturizer/New_Systems/rnas/5uza

>  <Rbt.Executable>
rbdock ($Id: //depot/dev/client3/rdock/2013.1/src/exe/rbdock.cxx#4 $)

>  <Rbt.Library>
libRbt.so (2013.1, Build901 2013/11/27)

>  <Rbt.Parameter_File>
/export/apps/rDock/src/rDock_2013.1_src/data/scripts/dock_solv.prm

>  <Rbt.Receptor>
prm/pocket_docking_6.prm

>  <SCORE>
-33.8039

>  <SCORE.INTER>
-33.8039

>  <SCORE.INTER.CONST>
1

>  <SCORE.INTER.POLAR>
-3.03763

>  <SCORE.INTER.ROT>
0

>  <SCORE.INTER.SOLV>
12.278

>  <SCORE.INTER.VDW>
-20.1031

>  <SCORE.INTER.norm>
-3.38039

>  <SCORE.INTRA>
0

>  <SCORE.INTRA.DIHEDRAL>
0

>  <SCORE.INTRA.DIHEDRAL.0>
0

>  <SCORE.INTRA.POLAR>
0

>  <SCORE.INTRA.POLAR.0>
0

>  <SCORE.INTRA.REPUL>
0

>  <SCORE.INTRA.REPUL.0>
0

>  <SCORE.INTRA.SOLV>
0

>  <SCORE.INTRA.SOLV.lig_0>
-14.8845

>  <SCORE.INTRA.VDW>
0

>  <SCORE.INTRA.VDW.0>
0

>  <SCORE.INTRA.norm>
0

>  <SCORE.RESTR>
0

>  <SCORE.RESTR.CAVITY>
0

>  <SCORE.RESTR.norm>
0

>  <SCORE.SYSTEM>
0

>  <SCORE.SYSTEM.CONST>
0

>  <SCORE.SYSTEM.DIHEDRAL>
0

>  <SCORE.SYSTEM.SOLV>
0

>  <SCORE.SYSTEM.norm>
0

>  <SCORE.heavy>
10

>  <SCORE.norm>
-3.38039

>  <RMSD>
0.312

$$$$
lig.pdb
 OpenBabel11021811523D
libRbt.so/2013.1/901 2013/11/27
 10 11  0  0  0  0  0  0  0  0999 V2000
  -30.9948   19.0187  -17.5672 N   0  0  0  0  0  0  0  0  0  0  0  0
  -30.3202   18.3239  -18.5332 C   0  0  0  0  0  0  0  0  0  0  0  0
  -29.8682   17.1602  -18.1309 N   0  0  0  0  0  0  0  0  0  0  0  0
  -30.2727   17.0855  -16.8088 C   0  0  0  0  0  0  0  0  0  0  0  0
  -30.1084   16.0964  -15.8216 C   0  0  0  0  0  0  0  0  0  0  0  0
  -29.4553   14.9493  -16.0345 N   0  0  0  0  0  0  0  0  0  0  0  0
  -30.6386   16.3341  -14.6019 N   0  0  0  0  0  0  0  0  0  0  0  0
  -31.2879   17.4850  -14.3947 C   0  0  0  0  0  0  0  0  0  0  0  0
  -31.5074   18.4881  -15.2438 N   0  0  0  0  0  0  0  0  0  0  0  0
  -30.9691   18.2227  -16.4447 C   0  0  0  0  0  0  0  0  0  0  0  0
  1 10  1  0  0  0  0
  2  3  2  0  0  0  0
  2  1  1  0  0  0  0
  3  4  1  0  0  0  0
  4 10  2  0  0  0  0
  4  5  1  0  0  0  0
  5  7  2  0  0  0  0
  6  5  1  0  0  0  0
  7  8  1  0  0  0  0
  9  8  2  0  0  0  0
 10  9  1  0  0  0  0
M  END
>  <CHROM.1>
-30.52301536,17.27471386,-16.35270543,1.71280493,1.02571066,-0.98303855

>  <Name>
lig.pdb

>  <RI>
1.17775e+07

>  <Rbt.Current_Directory>
/home/itssahil/PROJECTS/Mol_Feturizer/New_Systems/rnas/5uza

>  <Rbt.Executable>
rbdock ($Id: //depot/dev/client3/rdock/2013.1/src/exe/rbdock.cxx#4 $)

>  <Rbt.Library>
libRbt.so (2013.1, Build901 2013/11/27)

>  <Rbt.Parameter_File>
/export/apps/rDock/src/rDock_2013.1_src/data/scripts/dock_solv.prm

>  <Rbt.Receptor>
prm/pocket_docking_8.prm

>  <SCORE>
-33.805

>  <SCORE.INTER>
-33.8051

>  <SCORE.INTER.CONST>
1

>  <SCORE.INTER.POLAR>
-3.03763

>  <SCORE.INTER.ROT>
0

>  <SCORE.INTER.SOLV>
12.2786

>  <SCORE.INTER.VDW>
-20.1041

>  <SCORE.INTER.norm>
-3.38051

>  <SCORE.INTRA>
0

>  <SCORE.INTRA.DIHEDRAL>
0

>  <SCORE.INTRA.DIHEDRAL.0>
0

>  <SCORE.INTRA.POLAR>
0

>  <SCORE.INTRA.POLAR.0>
0

>  <SCORE.INTRA.REPUL>
0

>  <SCORE.INTRA.REPUL.0>
0

>  <SCORE.INTRA.SOLV>
0

>  <SCORE.INTRA.SOLV.lig_0>
-14.8845

>  <SCORE.INTRA.VDW>
0

>  <SCORE.INTRA.VDW.0>
0

>  <SCORE.INTRA.norm>
0

>  <SCORE.RESTR>
4.26724e-05

>  <SCORE.RESTR.CAVITY>
4.26724e-05

>  <SCORE.RESTR.norm>
4.26724e-06

>  <SCORE.SYSTEM>
0

>  <SCORE.SYSTEM.CONST>
0

>  <SCORE.SYSTEM.DIHEDRAL>
0

>  <SCORE.SYSTEM.SOLV>
0

>  <SCORE.SYSTEM.norm>
0

>  <SCORE.heavy>
10

>  <SCORE.norm>
-3.3805

>  <RMSD>
0.312

$$$$
lig.pdb
 OpenBabel11021811523D
libRbt.so/2013.1/901 2013/11/27
 10 11  0  0  0  0  0  0  0  0999 V2000
  -30.9977   19.0220  -17.5647 N   0  0  0  0  0  0  0  0  0  0  0  0
  -30.3260   18.3272  -18.5327 C   0  0  0  0  0  0  0  0  0  0  0  0
  -29.8739   17.1629  -18.1322 N   0  0  0  0  0  0  0  0  0  0  0  0
  -30.2751   17.0878  -16.8091 C   0  0  0  0  0  0  0  0  0  0  0  0
  -30.1091   16.0981  -15.8229 C   0  0  0  0  0  0  0  0  0  0  0  0
  -29.4574   14.9506  -16.0380 N   0  0  0  0  0  0  0  0  0  0  0  0
  -30.6359   16.3355  -14.6017 N   0  0  0  0  0  0  0  0  0  0  0  0
  -31.2838   17.4868  -14.3922 C   0  0  0  0  0  0  0  0  0  0  0  0
  -31.5047   18.4906  -15.2402 N   0  0  0  0  0  0  0  0  0  0  0  0
  -30.9697   18.2254  -16.4426 C   0  0  0  0  0  0  0  0  0  0  0  0
  1 10  1  0  0  0  0
  2  3  2  0  0  0  0
  2  1  1  0  0  0  0
  3  4  1  0  0  0  0
  4 10  2  0  0  0  0
  4  5  1  0  0  0  0
  5  7  2  0  0  0  0
  6  5  1  0  0  0  0
  7  8  1  0  0  0  0
  9  8  2  0  0  0  0
 10  9  1  0  0  0  0
M  END
>  <CHROM.1>
-30.52413479,17.27698257,-16.35229491,1.71608881,1.02776034,-0.98532219

>  <Name>
lig.pdb

>  <RI>
1.17431e+07

>  <Rbt.Current_Directory>
/home/itssahil/PROJECTS/Mol_Feturizer/New_Systems/rnas/5uza

>  <Rbt.Executable>
rbdock ($Id: //depot/dev/client3/rdock/2013.1/src/exe/rbdock.cxx#4 $)

>  <Rbt.Library>
libRbt.so (2013.1, Build901 2013/11/27)

>  <Rbt.Parameter_File>
/export/apps/rDock/src/rDock_2013.1_src/data/scripts/dock_solv.prm

>  <Rbt.Receptor>
prm/pocket_docking_6.prm

>  <SCORE>
-33.8046

>  <SCORE.INTER>
-33.8046

>  <SCORE.INTER.CONST>
1

>  <SCORE.INTER.POLAR>
-3.03763

>  <SCORE.INTER.ROT>
0

>  <SCORE.INTER.SOLV>
12.2786

>  <SCORE.INTER.VDW>
-20.1039

>  <SCORE.INTER.norm>
-3.38046

>  <SCORE.INTRA>
0

>  <SCORE.INTRA.DIHEDRAL>
0

>  <SCORE.INTRA.DIHEDRAL.0>
0

>  <SCORE.INTRA.POLAR>
0

>  <SCORE.INTRA.POLAR.0>
0

>  <SCORE.INTRA.REPUL>
0

>  <SCORE.INTRA.REPUL.0>
0

>  <SCORE.INTRA.SOLV>
0

>  <SCORE.INTRA.SOLV.lig_0>
-14.8845

>  <SCORE.INTRA.VDW>
0

>  <SCORE.INTRA.VDW.0>
0

>  <SCORE.INTRA.norm>
0

>  <SCORE.RESTR>
2.46217e-05

>  <SCORE.RESTR.CAVITY>
2.46217e-05

>  <SCORE.RESTR.norm>
2.46217e-06

>  <SCORE.SYSTEM>
0

>  <SCORE.SYSTEM.CONST>
0

>  <SCORE.SYSTEM.DIHEDRAL>
0

>  <SCORE.SYSTEM.SOLV>
0

>  <SCORE.SYSTEM.norm>
0

>  <SCORE.heavy>
10

>  <SCORE.norm>
-3.38046

>  <RMSD>
0.313

$$$$
lig.pdb
 OpenBabel11021811523D
libRbt.so/2013.1/901 2013/11/27
 10 11  0  0  0  0  0  0  0  0999 V2000
  -30.9939   19.0300  -17.5660 N   0  0  0  0  0  0  0  0  0  0  0  0
  -30.3249   18.3332  -18.5345 C   0  0  0  0  0  0  0  0  0  0  0  0
  -29.8738   17.1687  -18.1337 N   0  0  0  0  0  0  0  0  0  0  0  0
  -30.2728   17.0955  -16.8097 C   0  0  0  0  0  0  0  0  0  0  0  0
  -30.1066   16.1065  -15.8228 C   0  0  0  0  0  0  0  0  0  0  0  0
  -29.4569   14.9578  -16.0380 N   0  0  0  0  0  0  0  0  0  0  0  0
  -30.6310   16.3459  -14.6009 N   0  0  0  0  0  0  0  0  0  0  0  0
  -31.2768   17.4984  -14.3915 C   0  0  0  0  0  0  0  0  0  0  0  0
  -31.4977   18.5016  -15.2401 N   0  0  0  0  0  0  0  0  0  0  0  0
  -30.9651   18.2344  -16.4432 C   0  0  0  0  0  0  0  0  0  0  0  0
  1 10  1  0  0  0  0
  2  3  2  0  0  0  0
  2  1  1  0  0  0  0
  3  4  1  0  0  0  0
  4 10  2  0  0  0  0
  4  5  1  0  0  0  0
  5  7  2  0  0  0  0
  6  5  1  0  0  0  0
  7  8  1  0  0  0  0
  9  8  2  0  0  0  0
 10  9  1  0  0  0  0
M  END
>  <CHROM.1>
-30.52079653,17.28544833,-16.35268555,1.71730837,1.02995492,-0.98735749

>  <Name>
lig.pdb

>  <RI>
1.17775e+07

>  <Rbt.Current_Directory>
/home/itssahil/PROJECTS/Mol_Feturizer/New_Systems/rnas/5uza

>  <Rbt.Executable>
rbdock ($Id: //depot/dev/client3/rdock/2013.1/src/exe/rbdock.cxx#4 $)

>  <Rbt.Library>
libRbt.so (2013.1, Build901 2013/11/27)

>  <Rbt.Parameter_File>
/export/apps/rDock/src/rDock_2013.1_src/data/scripts/dock_solv.prm

>  <Rbt.Receptor>
prm/pocket_docking_8.prm

>  <SCORE>
-33.8

>  <SCORE.INTER>
-33.8

>  <SCORE.INTER.CONST>
1

>  <SCORE.INTER.POLAR>
-3.03763

>  <SCORE.INTER.ROT>
0

>  <SCORE.INTER.SOLV>
12.2777

>  <SCORE.INTER.VDW>
-20.1004

>  <SCORE.INTER.norm>
-3.38

>  <SCORE.INTRA>
0

>  <SCORE.INTRA.DIHEDRAL>
0

>  <SCORE.INTRA.DIHEDRAL.0>
0

>  <SCORE.INTRA.POLAR>
0

>  <SCORE.INTRA.POLAR.0>
0

>  <SCORE.INTRA.REPUL>
0

>  <SCORE.INTRA.REPUL.0>
0

>  <SCORE.INTRA.SOLV>
0

>  <SCORE.INTRA.SOLV.lig_0>
-14.8845

>  <SCORE.INTRA.VDW>
0

>  <SCORE.INTRA.VDW.0>
0

>  <SCORE.INTRA.norm>
0

>  <SCORE.RESTR>
0

>  <SCORE.RESTR.CAVITY>
0

>  <SCORE.RESTR.norm>
0

>  <SCORE.SYSTEM>
0

>  <SCORE.SYSTEM.CONST>
0

>  <SCORE.SYSTEM.DIHEDRAL>
0

>  <SCORE.SYSTEM.SOLV>
0

>  <SCORE.SYSTEM.norm>
0

>  <SCORE.heavy>
10

>  <SCORE.norm>
-3.38

>  <RMSD>
0.313

$$$$
lig.pdb
 OpenBabel11021811523D
libRbt.so/2013.1/901 2013/11/27
 10 11  0  0  0  0  0  0  0  0999 V2000
  -31.0223   19.0132  -17.5826 N   0  0  0  0  0  0  0  0  0  0  0  0
  -30.3239   18.3297  -18.5397 C   0  0  0  0  0  0  0  0  0  0  0  0
  -29.8622   17.1713  -18.1330 N   0  0  0  0  0  0  0  0  0  0  0  0
  -30.2853   17.0883  -16.8172 C   0  0  0  0  0  0  0  0  0  0  0  0
  -30.1223   16.0995  -15.8296 C   0  0  0  0  0  0  0  0  0  0  0  0
  -29.4506   14.9617  -16.0350 N   0  0  0  0  0  0  0  0  0  0  0  0
  -30.6738   16.3273  -14.6174 N   0  0  0  0  0  0  0  0  0  0  0  0
  -31.3417   17.4688  -14.4177 C   0  0  0  0  0  0  0  0  0  0  0  0
  -31.5621   18.4707  -15.2681 N   0  0  0  0  0  0  0  0  0  0  0  0
  -31.0025   18.2152  -16.4613 C   0  0  0  0  0  0  0  0  0  0  0  0
  1 10  1  0  0  0  0
  2  3  2  0  0  0  0
  2  1  1  0  0  0  0
  3  4  1  0  0  0  0
  4 10  2  0  0  0  0
  4  5  1  0  0  0  0
  5  7  2  0  0  0  0
  6  5  1  0  0  0  0
  7  8  1  0  0  0  0
  9  8  2  0  0  0  0
 10  9  1  0  0  0  0
M  END
>  <CHROM.1>
-30.54495403,17.27314837,-16.36454687,1.70372603,1.00611490,-0.97327768

>  <Name>
lig.pdb

>  <RI>
0

>  <Rbt.Current_Directory>
/home/itssahil/PROJECTS/Mol_Feturizer/New_Systems/rnas/5uza

>  <Rbt.Executable>
rbdock ($Id: //depot/dev/client3/rdock/2013.1/src/exe/rbdock.cxx#4 $)

>  <Rbt.Library>
libRbt.so (2013.1, Build901 2013/11/27)

>  <Rbt.Parameter_File>
/export/apps/rDock/src/rDock_2013.1_src/data/scripts/dock_solv.prm

>  <Rbt.Receptor>
prm/blind_docking_80.prm

>  <SCORE>
-33.7741

>  <SCORE.INTER>
-33.7741

>  <SCORE.INTER.CONST>
1

>  <SCORE.INTER.POLAR>
-3.03763

>  <SCORE.INTER.ROT>
0

>  <SCORE.INTER.SOLV>
12.285

>  <SCORE.INTER.VDW>
-20.0856

>  <SCORE.INTER.norm>
-3.37741

>  <SCORE.INTRA>
0

>  <SCORE.INTRA.DIHEDRAL>
0

>  <SCORE.INTRA.DIHEDRAL.0>
0

>  <SCORE.INTRA.POLAR>
0

>  <SCORE.INTRA.POLAR.0>
0

>  <SCORE.INTRA.REPUL>
0

>  <SCORE.INTRA.REPUL.0>
0

>  <SCORE.INTRA.SOLV>
0

>  <SCORE.INTRA.SOLV.lig_0>
-14.8845

>  <SCORE.INTRA.VDW>
0

>  <SCORE.INTRA.VDW.0>
0

>  <SCORE.INTRA.norm>
0

>  <SCORE.RESTR>
4.30853e-07

>  <SCORE.RESTR.CAVITY>
4.30853e-07

>  <SCORE.RESTR.norm>
4.30853e-08

>  <SCORE.SYSTEM>
0

>  <SCORE.SYSTEM.CONST>
0

>  <SCORE.SYSTEM.DIHEDRAL>
0

>  <SCORE.SYSTEM.SOLV>
0

>  <SCORE.SYSTEM.norm>
0

>  <SCORE.heavy>
10

>  <SCORE.norm>
-3.37741

>  <RMSD>
0.317

$$$$
lig.pdb
 OpenBabel11021811523D
libRbt.so/2013.1/901 2013/11/27
 10 11  0  0  0  0  0  0  0  0999 V2000
  -30.8679   18.8880  -17.9358 N   0  0  0  0  0  0  0  0  0  0  0  0
  -30.1875   18.1150  -18.8361 C   0  0  0  0  0  0  0  0  0  0  0  0
  -29.7530   16.9813  -18.3396 N   0  0  0  0  0  0  0  0  0  0  0  0
  -30.1760   17.0119  -17.0215 C   0  0  0  0  0  0  0  0  0  0  0  0
  -30.0352   16.0999  -15.9593 C   0  0  0  0  0  0  0  0  0  0  0  0
  -29.3911   14.9339  -16.0745 N   0  0  0  0  0  0  0  0  0  0  0  0
  -30.5792   16.4353  -14.7690 N   0  0  0  0  0  0  0  0  0  0  0  0
  -31.2193   17.6046  -14.6596 C   0  0  0  0  0  0  0  0  0  0  0  0
  -31.4170   18.5417  -15.5861 N   0  0  0  0  0  0  0  0  0  0  0  0
  -30.8654   18.1801  -16.7554 C   0  0  0  0  0  0  0  0  0  0  0  0
  1 10  1  0  0  0  0
  2  3  2  0  0  0  0
  2  1  1  0  0  0  0
  3  4  1  0  0  0  0
  4 10  2  0  0  0  0
  4  5  1  0  0  0  0
  5  7  2  0  0  0  0
  6  5  1  0  0  0  0
  7  8  1  0  0  0  0
  9  8  2  0  0  0  0
 10  9  1  0  0  0  0
M  END
>  <CHROM.1>
-30.43044441,17.23784822,-16.58481238,1.68015137,1.02660914,-1.03175647

>  <Name>
lig.pdb

>  <RI>
9.24451e+06

>  <Rbt.Current_Directory>
/home/itssahil/PROJECTS/Mol_Feturizer/New_Systems/rnas/5uza

>  <Rbt.Executable>
rbdock ($Id: //depot/dev/client3/rdock/2013.1/src/exe/rbdock.cxx#4 $)

>  <Rbt.Library>
libRbt.so (2013.1, Build901 2013/11/27)

>  <Rbt.Parameter_File>
/export/apps/rDock/src/rDock_2013.1_src/data/scripts/dock_solv.prm

>  <Rbt.Receptor>
prm/pocket_docking_4.prm

>  <SCORE>
-33.898

>  <SCORE.INTER>
-33.898

>  <SCORE.INTER.CONST>
1

>  <SCORE.INTER.POLAR>
-3.03763

>  <SCORE.INTER.ROT>
0

>  <SCORE.INTER.SOLV>
12.0744

>  <SCORE.INTER.VDW>
-20.0981

>  <SCORE.INTER.norm>
-3.3898

>  <SCORE.INTRA>
0

>  <SCORE.INTRA.DIHEDRAL>
0

>  <SCORE.INTRA.DIHEDRAL.0>
0

>  <SCORE.INTRA.POLAR>
0

>  <SCORE.INTRA.POLAR.0>
0

>  <SCORE.INTRA.REPUL>
0

>  <SCORE.INTRA.REPUL.0>
0

>  <SCORE.INTRA.SOLV>
0

>  <SCORE.INTRA.SOLV.lig_0>
-14.8845

>  <SCORE.INTRA.VDW>
0

>  <SCORE.INTRA.VDW.0>
0

>  <SCORE.INTRA.norm>
0

>  <SCORE.RESTR>
0

>  <SCORE.RESTR.CAVITY>
0

>  <SCORE.RESTR.norm>
0

>  <SCORE.SYSTEM>
0

>  <SCORE.SYSTEM.CONST>
0

>  <SCORE.SYSTEM.DIHEDRAL>
0

>  <SCORE.SYSTEM.SOLV>
0

>  <SCORE.SYSTEM.norm>
0

>  <SCORE.heavy>
10

>  <SCORE.norm>
-3.3898

>  <RMSD>
0.318

$$$$
lig.pdb
 OpenBabel11021811523D
libRbt.so/2013.1/901 2013/11/27
 10 11  0  0  0  0  0  0  0  0999 V2000
  -30.8724   18.8911  -17.9426 N   0  0  0  0  0  0  0  0  0  0  0  0
  -30.1729   18.1230  -18.8324 C   0  0  0  0  0  0  0  0  0  0  0  0
  -29.7335   16.9948  -18.3279 N   0  0  0  0  0  0  0  0  0  0  0  0
  -30.1737   17.0240  -17.0153 C   0  0  0  0  0  0  0  0  0  0  0  0
  -30.0375   16.1157  -15.9494 C   0  0  0  0  0  0  0  0  0  0  0  0
  -29.3805   14.9558  -16.0537 N   0  0  0  0  0  0  0  0  0  0  0  0
  -30.6000   16.4481  -14.7669 N   0  0  0  0  0  0  0  0  0  0  0  0
  -31.2531   17.6113  -14.6684 C   0  0  0  0  0  0  0  0  0  0  0  0
  -31.4482   18.5444  -15.5994 N   0  0  0  0  0  0  0  0  0  0  0  0
  -30.8781   18.1858  -16.7607 C   0  0  0  0  0  0  0  0  0  0  0  0
  1 10  1  0  0  0  0
  2  3  2  0  0  0  0
  2  1  1  0  0  0  0
  3  4  1  0  0  0  0
  4 10  2  0  0  0  0
  4  5  1  0  0  0  0
  5  7  2  0  0  0  0
  6  5  1  0  0  0  0
  7  8  1  0  0  0  0
  9  8  2  0  0  0  0
 10  9  1  0  0  0  0
M  END
>  <CHROM.1>
-30.43596455,17.24826921,-16.58246422,1.66899983,1.01149025,-1.02445034

>  <Name>
lig.pdb

>  <RI>
0

>  <Rbt.Current_Directory>
/home/itssahil/PROJECTS/Mol_Feturizer/New_Systems/rnas/5uza

>  <Rbt.Executable>
rbdock ($Id: //depot/dev/client3/rdock/2013.1/src/exe/rbdock.cxx#4 $)

>  <Rbt.Library>
libRbt.so (2013.1, Build901 2013/11/27)

>  <Rbt.Parameter_File>
/export/apps/rDock/src/rDock_2013.1_src/data/scripts/dock_solv.prm

>  <Rbt.Receptor>
prm/pocket_docking_3.prm

>  <SCORE>
-33.8897

>  <SCORE.INTER>
-33.8897

>  <SCORE.INTER.CONST>
1

>  <SCORE.INTER.POLAR>
-3.03763

>  <SCORE.INTER.ROT>
0

>  <SCORE.INTER.SOLV>
12.071

>  <SCORE.INTER.VDW>
-20.0913

>  <SCORE.INTER.norm>
-3.38897

>  <SCORE.INTRA>
0

>  <SCORE.INTRA.DIHEDRAL>
0

>  <SCORE.INTRA.DIHEDRAL.0>
0

>  <SCORE.INTRA.POLAR>
0

>  <SCORE.INTRA.POLAR.0>
0

>  <SCORE.INTRA.REPUL>
0

>  <SCORE.INTRA.REPUL.0>
0

>  <SCORE.INTRA.SOLV>
0

>  <SCORE.INTRA.SOLV.lig_0>
-14.8845

>  <SCORE.INTRA.VDW>
0

>  <SCORE.INTRA.VDW.0>
0

>  <SCORE.INTRA.norm>
0

>  <SCORE.RESTR>
0

>  <SCORE.RESTR.CAVITY>
0

>  <SCORE.RESTR.norm>
0

>  <SCORE.SYSTEM>
0

>  <SCORE.SYSTEM.CONST>
0

>  <SCORE.SYSTEM.DIHEDRAL>
0

>  <SCORE.SYSTEM.SOLV>
0

>  <SCORE.SYSTEM.norm>
0

>  <SCORE.heavy>
10

>  <SCORE.norm>
-3.38897

>  <RMSD>
0.321

$$$$
lig.pdb
 OpenBabel11021811523D
libRbt.so/2013.1/901 2013/11/27
 10 11  0  0  0  0  0  0  0  0999 V2000
  -30.8913   18.8739  -17.9651 N   0  0  0  0  0  0  0  0  0  0  0  0
  -30.1844   18.1042  -18.8477 C   0  0  0  0  0  0  0  0  0  0  0  0
  -29.7358   16.9842  -18.3331 N   0  0  0  0  0  0  0  0  0  0  0  0
  -30.1773   17.0209  -17.0212 C   0  0  0  0  0  0  0  0  0  0  0  0
  -30.0343   16.1230  -15.9474 C   0  0  0  0  0  0  0  0  0  0  0  0
  -29.3672   14.9680  -16.0413 N   0  0  0  0  0  0  0  0  0  0  0  0
  -30.6007   16.4607  -14.7683 N   0  0  0  0  0  0  0  0  0  0  0  0
  -31.2638   17.6190  -14.6803 C   0  0  0  0  0  0  0  0  0  0  0  0
  -31.4661   18.5424  -15.6194 N   0  0  0  0  0  0  0  0  0  0  0  0
  -30.8919   18.1787  -16.7772 C   0  0  0  0  0  0  0  0  0  0  0  0
  1 10  1  0  0  0  0
  2  3  2  0  0  0  0
  2  1  1  0  0  0  0
  3  4  1  0  0  0  0
  4 10  2  0  0  0  0
  4  5  1  0  0  0  0
  5  7  2  0  0  0  0
  6  5  1  0  0  0  0
  7  8  1  0  0  0  0
  9  8  2  0  0  0  0
 10  9  1  0  0  0  0
M  END
>  <CHROM.1>
-30.44192093,17.24661490,-16.59054114,1.67592887,1.00366658,-1.03889858

>  <Name>
lig.pdb

>  <RI>
9.24451e+06

>  <Rbt.Current_Directory>
/home/itssahil/PROJECTS/Mol_Feturizer/New_Systems/rnas/5uza

>  <Rbt.Executable>
rbdock ($Id: //depot/dev/client3/rdock/2013.1/src/exe/rbdock.cxx#4 $)

>  <Rbt.Library>
libRbt.so (2013.1, Build901 2013/11/27)

>  <Rbt.Parameter_File>
/export/apps/rDock/src/rDock_2013.1_src/data/scripts/dock_solv.prm

>  <Rbt.Receptor>
prm/pocket_docking_4.prm

>  <SCORE>
-33.9041

>  <SCORE.INTER>
-33.9041

>  <SCORE.INTER.CONST>
1

>  <SCORE.INTER.POLAR>
-3.03763

>  <SCORE.INTER.ROT>
0

>  <SCORE.INTER.SOLV>
12.0325

>  <SCORE.INTER.VDW>
-20.0881

>  <SCORE.INTER.norm>
-3.39041

>  <SCORE.INTRA>
0

>  <SCORE.INTRA.DIHEDRAL>
0

>  <SCORE.INTRA.DIHEDRAL.0>
0

>  <SCORE.INTRA.POLAR>
0

>  <SCORE.INTRA.POLAR.0>
0

>  <SCORE.INTRA.REPUL>
0

>  <SCORE.INTRA.REPUL.0>
0

>  <SCORE.INTRA.SOLV>
0

>  <SCORE.INTRA.SOLV.lig_0>
-14.8845

>  <SCORE.INTRA.VDW>
0

>  <SCORE.INTRA.VDW.0>
0

>  <SCORE.INTRA.norm>
0

>  <SCORE.RESTR>
0

>  <SCORE.RESTR.CAVITY>
0

>  <SCORE.RESTR.norm>
0

>  <SCORE.SYSTEM>
0

>  <SCORE.SYSTEM.CONST>
0

>  <SCORE.SYSTEM.DIHEDRAL>
0

>  <SCORE.SYSTEM.SOLV>
0

>  <SCORE.SYSTEM.norm>
0

>  <SCORE.heavy>
10

>  <SCORE.norm>
-3.39041

>  <RMSD>
0.323

$$$$
lig.pdb
 OpenBabel11021811523D
libRbt.so/2013.1/901 2013/11/27
 10 11  0  0  0  0  0  0  0  0999 V2000
  -30.8655   18.9057  -17.9287 N   0  0  0  0  0  0  0  0  0  0  0  0
  -30.1804   18.1342  -18.8267 C   0  0  0  0  0  0  0  0  0  0  0  0
  -29.7505   16.9987  -18.3305 N   0  0  0  0  0  0  0  0  0  0  0  0
  -30.1816   17.0264  -17.0150 C   0  0  0  0  0  0  0  0  0  0  0  0
  -30.0487   16.1115  -15.9543 C   0  0  0  0  0  0  0  0  0  0  0  0
  -29.4054   14.9449  -16.0685 N   0  0  0  0  0  0  0  0  0  0  0  0
  -30.5998   16.4444  -14.7665 N   0  0  0  0  0  0  0  0  0  0  0  0
  -31.2391   17.6143  -14.6582 C   0  0  0  0  0  0  0  0  0  0  0  0
  -31.4298   18.5541  -15.5834 N   0  0  0  0  0  0  0  0  0  0  0  0
  -30.8713   18.1948  -16.7502 C   0  0  0  0  0  0  0  0  0  0  0  0
  1 10  1  0  0  0  0
  2  3  2  0  0  0  0
  2  1  1  0  0  0  0
  3  4  1  0  0  0  0
  4 10  2  0  0  0  0
  4  5  1  0  0  0  0
  5  7  2  0  0  0  0
  6  5  1  0  0  0  0
  7  8  1  0  0  0  0
  9  8  2  0  0  0  0
 10  9  1  0  0  0  0
M  END
>  <CHROM.1>
-30.43859362,17.25153900,-16.57933959,1.66854163,1.02443759,-1.01922992

>  <Name>
lig.pdb

>  <RI>
0

>  <Rbt.Current_Directory>
/home/itssahil/PROJECTS/Mol_Feturizer/New_Systems/rnas/5uza

>  <Rbt.Executable>
rbdock ($Id: //depot/dev/client3/rdock/2013.1/src/exe/rbdock.cxx#4 $)

>  <Rbt.Library>
libRbt.so (2013.1, Build901 2013/11/27)

>  <Rbt.Parameter_File>
/export/apps/rDock/src/rDock_2013.1_src/data/scripts/dock_solv.prm

>  <Rbt.Receptor>
prm/pocket_docking_3.prm

>  <SCORE>
-33.9023

>  <SCORE.INTER>
-33.9023

>  <SCORE.INTER.CONST>
1

>  <SCORE.INTER.POLAR>
-3.03763

>  <SCORE.INTER.ROT>
0

>  <SCORE.INTER.SOLV>
12.1066

>  <SCORE.INTER.VDW>
-20.1117

>  <SCORE.INTER.norm>
-3.39023

>  <SCORE.INTRA>
0

>  <SCORE.INTRA.DIHEDRAL>
0

>  <SCORE.INTRA.DIHEDRAL.0>
0

>  <SCORE.INTRA.POLAR>
0

>  <SCORE.INTRA.POLAR.0>
0

>  <SCORE.INTRA.REPUL>
0

>  <SCORE.INTRA.REPUL.0>
0

>  <SCORE.INTRA.SOLV>
0

>  <SCORE.INTRA.SOLV.lig_0>
-14.8845

>  <SCORE.INTRA.VDW>
0

>  <SCORE.INTRA.VDW.0>
0

>  <SCORE.INTRA.norm>
0

>  <SCORE.RESTR>
0

>  <SCORE.RESTR.CAVITY>
0

>  <SCORE.RESTR.norm>
0

>  <SCORE.SYSTEM>
0

>  <SCORE.SYSTEM.CONST>
0

>  <SCORE.SYSTEM.DIHEDRAL>
0

>  <SCORE.SYSTEM.SOLV>
0

>  <SCORE.SYSTEM.norm>
0

>  <SCORE.heavy>
10

>  <SCORE.norm>
-3.39023

>  <RMSD>
0.324

$$$$
lig.pdb
 OpenBabel11021811523D
libRbt.so/2013.1/901 2013/11/27
 10 11  0  0  0  0  0  0  0  0999 V2000
  -30.8601   18.8977  -17.9339 N   0  0  0  0  0  0  0  0  0  0  0  0
  -30.1663   18.1303  -18.8288 C   0  0  0  0  0  0  0  0  0  0  0  0
  -29.7359   16.9953  -18.3319 N   0  0  0  0  0  0  0  0  0  0  0  0
  -30.1762   17.0189  -17.0193 C   0  0  0  0  0  0  0  0  0  0  0  0
  -30.0474   16.1023  -15.9596 C   0  0  0  0  0  0  0  0  0  0  0  0
  -29.3993   14.9381  -16.0717 N   0  0  0  0  0  0  0  0  0  0  0  0
  -30.6077   16.4309  -14.7750 N   0  0  0  0  0  0  0  0  0  0  0  0
  -31.2518   17.5984  -14.6687 C   0  0  0  0  0  0  0  0  0  0  0  0
  -31.4393   18.5394  -15.5933 N   0  0  0  0  0  0  0  0  0  0  0  0
  -30.8716   18.1844  -16.7569 C   0  0  0  0  0  0  0  0  0  0  0  0
  1 10  1  0  0  0  0
  2  3  2  0  0  0  0
  2  1  1  0  0  0  0
  3  4  1  0  0  0  0
  4 10  2  0  0  0  0
  4  5  1  0  0  0  0
  5  7  2  0  0  0  0
  6  5  1  0  0  0  0
  7  8  1  0  0  0  0
  9  8  2  0  0  0  0
 10  9  1  0  0  0  0
M  END
>  <CHROM.1>
-30.43686665,17.24224967,-16.58498445,1.66080367,1.01791944,-1.01060836

>  <Name>
lig.pdb

>  <RI>
0

>  <Rbt.Current_Directory>
/home/itssahil/PROJECTS/Mol_Feturizer/New_Systems/rnas/5uza

>  <Rbt.Executable>
rbdock ($Id: //depot/dev/client3/rdock/2013.1/src/exe/rbdock.cxx#4 $)

>  <Rbt.Library>
libRbt.so (2013.1, Build901 2013/11/27)

>  <Rbt.Parameter_File>
/export/apps/rDock/src/rDock_2013.1_src/data/scripts/dock_solv.prm

>  <Rbt.Receptor>
prm/pocket_docking_3.prm

>  <SCORE>
-33.8996

>  <SCORE.INTER>
-33.8996

>  <SCORE.INTER.CONST>
1

>  <SCORE.INTER.POLAR>
-3.03763

>  <SCORE.INTER.ROT>
0

>  <SCORE.INTER.SOLV>
12.1118

>  <SCORE.INTER.VDW>
-20.1116

>  <SCORE.INTER.norm>
-3.38996

>  <SCORE.INTRA>
0

>  <SCORE.INTRA.DIHEDRAL>
0

>  <SCORE.INTRA.DIHEDRAL.0>
0

>  <SCORE.INTRA.POLAR>
0

>  <SCORE.INTRA.POLAR.0>
0

>  <SCORE.INTRA.REPUL>
0

>  <SCORE.INTRA.REPUL.0>
0

>  <SCORE.INTRA.SOLV>
0

>  <SCORE.INTRA.SOLV.lig_0>
-14.8845

>  <SCORE.INTRA.VDW>
0

>  <SCORE.INTRA.VDW.0>
0

>  <SCORE.INTRA.norm>
0

>  <SCORE.RESTR>
0

>  <SCORE.RESTR.CAVITY>
0

>  <SCORE.RESTR.norm>
0

>  <SCORE.SYSTEM>
0

>  <SCORE.SYSTEM.CONST>
0

>  <SCORE.SYSTEM.DIHEDRAL>
0

>  <SCORE.SYSTEM.SOLV>
0

>  <SCORE.SYSTEM.norm>
0

>  <SCORE.heavy>
10

>  <SCORE.norm>
-3.38996

>  <RMSD>
0.326

$$$$
lig.pdb
 OpenBabel11021811523D
libRbt.so/2013.1/901 2013/11/27
 10 11  0  0  0  0  0  0  0  0999 V2000
  -30.8616   18.8958  -17.9366 N   0  0  0  0  0  0  0  0  0  0  0  0
  -30.1713   18.1239  -18.8303 C   0  0  0  0  0  0  0  0  0  0  0  0
  -29.7440   16.9888  -18.3310 N   0  0  0  0  0  0  0  0  0  0  0  0
  -30.1827   17.0172  -17.0179 C   0  0  0  0  0  0  0  0  0  0  0  0
  -30.0556   16.1029  -15.9560 C   0  0  0  0  0  0  0  0  0  0  0  0
  -29.4115   14.9363  -16.0659 N   0  0  0  0  0  0  0  0  0  0  0  0
  -30.6135   16.4364  -14.7716 N   0  0  0  0  0  0  0  0  0  0  0  0
  -31.2536   17.6063  -14.6676 C   0  0  0  0  0  0  0  0  0  0  0  0
  -31.4392   18.5454  -15.5944 N   0  0  0  0  0  0  0  0  0  0  0  0
  -30.8740   18.1855  -16.7577 C   0  0  0  0  0  0  0  0  0  0  0  0
  1 10  1  0  0  0  0
  2  3  2  0  0  0  0
  2  1  1  0  0  0  0
  3  4  1  0  0  0  0
  4 10  2  0  0  0  0
  4  5  1  0  0  0  0
  5  7  2  0  0  0  0
  6  5  1  0  0  0  0
  7  8  1  0  0  0  0
  9  8  2  0  0  0  0
 10  9  1  0  0  0  0
M  END
>  <CHROM.1>
-30.44212356,17.24247531,-16.58390272,1.65941264,1.02128342,-1.01202091

>  <Name>
lig.pdb

>  <RI>
0

>  <Rbt.Current_Directory>
/home/itssahil/PROJECTS/Mol_Feturizer/New_Systems/rnas/5uza

>  <Rbt.Executable>
rbdock ($Id: //depot/dev/client3/rdock/2013.1/src/exe/rbdock.cxx#4 $)

>  <Rbt.Library>
libRbt.so (2013.1, Build901 2013/11/27)

>  <Rbt.Parameter_File>
/export/apps/rDock/src/rDock_2013.1_src/data/scripts/dock_solv.prm

>  <Rbt.Receptor>
prm/pocket_docking_3.prm

>  <SCORE>
-33.896

>  <SCORE.INTER>
-33.896

>  <SCORE.INTER.CONST>
1

>  <SCORE.INTER.POLAR>
-3.03763

>  <SCORE.INTER.ROT>
0

>  <SCORE.INTER.SOLV>
12.1221

>  <SCORE.INTER.VDW>
-20.1126

>  <SCORE.INTER.norm>
-3.3896

>  <SCORE.INTRA>
0

>  <SCORE.INTRA.DIHEDRAL>
0

>  <SCORE.INTRA.DIHEDRAL.0>
0

>  <SCORE.INTRA.POLAR>
0

>  <SCORE.INTRA.POLAR.0>
0

>  <SCORE.INTRA.REPUL>
0

>  <SCORE.INTRA.REPUL.0>
0

>  <SCORE.INTRA.SOLV>
0

>  <SCORE.INTRA.SOLV.lig_0>
-14.8845

>  <SCORE.INTRA.VDW>
0

>  <SCORE.INTRA.VDW.0>
0

>  <SCORE.INTRA.norm>
0

>  <SCORE.RESTR>
0

>  <SCORE.RESTR.CAVITY>
0

>  <SCORE.RESTR.norm>
0

>  <SCORE.SYSTEM>
0

>  <SCORE.SYSTEM.CONST>
0

>  <SCORE.SYSTEM.DIHEDRAL>
0

>  <SCORE.SYSTEM.SOLV>
0

>  <SCORE.SYSTEM.norm>
0

>  <SCORE.heavy>
10

>  <SCORE.norm>
-3.3896

>  <RMSD>
0.330

$$$$
lig.pdb
 OpenBabel11021811523D
libRbt.so/2013.1/901 2013/11/27
 10 11  0  0  0  0  0  0  0  0999 V2000
  -30.8629   18.8693  -17.9685 N   0  0  0  0  0  0  0  0  0  0  0  0
  -30.1703   18.0959  -18.8591 C   0  0  0  0  0  0  0  0  0  0  0  0
  -29.7358   16.9661  -18.3540 N   0  0  0  0  0  0  0  0  0  0  0  0
  -30.1718   16.9998  -17.0402 C   0  0  0  0  0  0  0  0  0  0  0  0
  -30.0375   16.0926  -15.9732 C   0  0  0  0  0  0  0  0  0  0  0  0
  -29.3872   14.9289  -16.0776 N   0  0  0  0  0  0  0  0  0  0  0  0
  -30.5947   16.4300  -14.7895 N   0  0  0  0  0  0  0  0  0  0  0  0
  -31.2409   17.5970  -14.6910 C   0  0  0  0  0  0  0  0  0  0  0  0
  -31.4336   18.5296  -15.6230 N   0  0  0  0  0  0  0  0  0  0  0  0
  -30.8690   18.1659  -16.7854 C   0  0  0  0  0  0  0  0  0  0  0  0
  1 10  1  0  0  0  0
  2  3  2  0  0  0  0
  2  1  1  0  0  0  0
  3  4  1  0  0  0  0
  4 10  2  0  0  0  0
  4  5  1  0  0  0  0
  5  7  2  0  0  0  0
  6  5  1  0  0  0  0
  7  8  1  0  0  0  0
  9  8  2  0  0  0  0
 10  9  1  0  0  0  0
M  END
>  <CHROM.1>
-30.43156277,17.22630506,-16.60694359,1.66836706,1.01776763,-1.02555225

>  <Name>
lig.pdb

>  <RI>
9.24451e+06

>  <Rbt.Current_Directory>
/home/itssahil/PROJECTS/Mol_Feturizer/New_Systems/rnas/5uza

>  <Rbt.Executable>
rbdock ($Id: //depot/dev/client3/rdock/2013.1/src/exe/rbdock.cxx#4 $)

>  <Rbt.Library>
libRbt.so (2013.1, Build901 2013/11/27)

>  <Rbt.Parameter_File>
/export/apps/rDock/src/rDock_2013.1_src/data/scripts/dock_solv.prm

>  <Rbt.Receptor>
prm/pocket_docking_4.prm

>  <SCORE>
-33.9116

>  <SCORE.INTER>
-33.9116

>  <SCORE.INTER.CONST>
1

>  <SCORE.INTER.POLAR>
-3.03763

>  <SCORE.INTER.ROT>
0

>  <SCORE.INTER.SOLV>
12.0703

>  <SCORE.INTER.VDW>
-20.1057

>  <SCORE.INTER.norm>
-3.39116

>  <SCORE.INTRA>
0

>  <SCORE.INTRA.DIHEDRAL>
0

>  <SCORE.INTRA.DIHEDRAL.0>
0

>  <SCORE.INTRA.POLAR>
0

>  <SCORE.INTRA.POLAR.0>
0

>  <SCORE.INTRA.REPUL>
0

>  <SCORE.INTRA.REPUL.0>
0

>  <SCORE.INTRA.SOLV>
0

>  <SCORE.INTRA.SOLV.lig_0>
-14.8845

>  <SCORE.INTRA.VDW>
0

>  <SCORE.INTRA.VDW.0>
0

>  <SCORE.INTRA.norm>
0

>  <SCORE.RESTR>
0

>  <SCORE.RESTR.CAVITY>
0

>  <SCORE.RESTR.norm>
0

>  <SCORE.SYSTEM>
0

>  <SCORE.SYSTEM.CONST>
0

>  <SCORE.SYSTEM.DIHEDRAL>
0

>  <SCORE.SYSTEM.SOLV>
0

>  <SCORE.SYSTEM.norm>
0

>  <SCORE.heavy>
10

>  <SCORE.norm>
-3.39116

>  <RMSD>
0.333

$$$$
lig.pdb
 OpenBabel11021811523D
libRbt.so/2013.1/901 2013/11/27
 10 11  0  0  0  0  0  0  0  0999 V2000
  -30.8804   18.8924  -17.9542 N   0  0  0  0  0  0  0  0  0  0  0  0
  -30.1793   18.1238  -18.8422 C   0  0  0  0  0  0  0  0  0  0  0  0
  -29.7454   16.9935  -18.3376 N   0  0  0  0  0  0  0  0  0  0  0  0
  -30.1912   17.0218  -17.0270 C   0  0  0  0  0  0  0  0  0  0  0  0
  -30.0623   16.1113  -15.9620 C   0  0  0  0  0  0  0  0  0  0  0  0
  -29.4082   14.9497  -16.0654 N   0  0  0  0  0  0  0  0  0  0  0  0
  -30.6290   16.4434  -14.7813 N   0  0  0  0  0  0  0  0  0  0  0  0
  -31.2791   17.6084  -14.6838 C   0  0  0  0  0  0  0  0  0  0  0  0
  -31.4674   18.5436  -15.6140 N   0  0  0  0  0  0  0  0  0  0  0  0
  -30.8933   18.1852  -16.7735 C   0  0  0  0  0  0  0  0  0  0  0  0
  1 10  1  0  0  0  0
  2  3  2  0  0  0  0
  2  1  1  0  0  0  0
  3  4  1  0  0  0  0
  4 10  2  0  0  0  0
  4  5  1  0  0  0  0
  5  7  2  0  0  0  0
  6  5  1  0  0  0  0
  7  8  1  0  0  0  0
  9  8  2  0  0  0  0
 10  9  1  0  0  0  0
M  END
>  <CHROM.1>
-30.45468070,17.24610735,-16.59487915,1.65913675,1.01169540,-1.01442510

>  <Name>
lig.pdb

>  <RI>
9.24451e+06

>  <Rbt.Current_Directory>
/home/itssahil/PROJECTS/Mol_Feturizer/New_Systems/rnas/5uza

>  <Rbt.Executable>
rbdock ($Id: //depot/dev/client3/rdock/2013.1/src/exe/rbdock.cxx#4 $)

>  <Rbt.Library>
libRbt.so (2013.1, Build901 2013/11/27)

>  <Rbt.Parameter_File>
/export/apps/rDock/src/rDock_2013.1_src/data/scripts/dock_solv.prm

>  <Rbt.Receptor>
prm/pocket_docking_4.prm

>  <SCORE>
-33.927

>  <SCORE.INTER>
-33.927

>  <SCORE.INTER.CONST>
1

>  <SCORE.INTER.POLAR>
-3.03763

>  <SCORE.INTER.ROT>
0

>  <SCORE.INTER.SOLV>
12.1092

>  <SCORE.INTER.VDW>
-20.129

>  <SCORE.INTER.norm>
-3.3927

>  <SCORE.INTRA>
0

>  <SCORE.INTRA.DIHEDRAL>
0

>  <SCORE.INTRA.DIHEDRAL.0>
0

>  <SCORE.INTRA.POLAR>
0

>  <SCORE.INTRA.POLAR.0>
0

>  <SCORE.INTRA.REPUL>
0

>  <SCORE.INTRA.REPUL.0>
0

>  <SCORE.INTRA.SOLV>
0

>  <SCORE.INTRA.SOLV.lig_0>
-14.8845

>  <SCORE.INTRA.VDW>
0

>  <SCORE.INTRA.VDW.0>
0

>  <SCORE.INTRA.norm>
0

>  <SCORE.RESTR>
0

>  <SCORE.RESTR.CAVITY>
0

>  <SCORE.RESTR.norm>
0

>  <SCORE.SYSTEM>
0

>  <SCORE.SYSTEM.CONST>
0

>  <SCORE.SYSTEM.DIHEDRAL>
0

>  <SCORE.SYSTEM.SOLV>
0

>  <SCORE.SYSTEM.norm>
0

>  <SCORE.heavy>
10

>  <SCORE.norm>
-3.3927

>  <RMSD>
0.337

$$$$
lig.pdb
 OpenBabel11021811523D
libRbt.so/2013.1/901 2013/11/27
 10 11  0  0  0  0  0  0  0  0999 V2000
  -30.8276   18.8826  -17.9316 N   0  0  0  0  0  0  0  0  0  0  0  0
  -30.1482   18.1106  -18.8334 C   0  0  0  0  0  0  0  0  0  0  0  0
  -29.7367   16.9644  -18.3461 N   0  0  0  0  0  0  0  0  0  0  0  0
  -30.1750   16.9852  -17.0327 C   0  0  0  0  0  0  0  0  0  0  0  0
  -30.0607   16.0581  -15.9805 C   0  0  0  0  0  0  0  0  0  0  0  0
  -29.4328   14.8839  -16.1027 N   0  0  0  0  0  0  0  0  0  0  0  0
  -30.6138   16.3870  -14.7925 N   0  0  0  0  0  0  0  0  0  0  0  0
  -31.2376   17.5645  -14.6762 C   0  0  0  0  0  0  0  0  0  0  0  0
  -31.4101   18.5158  -15.5931 N   0  0  0  0  0  0  0  0  0  0  0  0
  -30.8500   18.1603  -16.7602 C   0  0  0  0  0  0  0  0  0  0  0  0
  1 10  1  0  0  0  0
  2  3  2  0  0  0  0
  2  1  1  0  0  0  0
  3  4  1  0  0  0  0
  4 10  2  0  0  0  0
  4  5  1  0  0  0  0
  5  7  2  0  0  0  0
  6  5  1  0  0  0  0
  7  8  1  0  0  0  0
  9  8  2  0  0  0  0
 10  9  1  0  0  0  0
M  END
>  <CHROM.1>
-30.43126563,17.20952175,-16.59633074,1.64498769,1.03305844,-0.98918846

>  <Name>
lig.pdb

>  <RI>
0

>  <Rbt.Current_Directory>
/home/itssahil/PROJECTS/Mol_Feturizer/New_Systems/rnas/5uza

>  <Rbt.Executable>
rbdock ($Id: //depot/dev/client3/rdock/2013.1/src/exe/rbdock.cxx#4 $)

>  <Rbt.Library>
libRbt.so (2013.1, Build901 2013/11/27)

>  <Rbt.Parameter_File>
/export/apps/rDock/src/rDock_2013.1_src/data/scripts/dock_solv.prm

>  <Rbt.Receptor>
prm/pocket_docking_3.prm

>  <SCORE>
-33.885

>  <SCORE.INTER>
-33.885

>  <SCORE.INTER.CONST>
1

>  <SCORE.INTER.POLAR>
-3.03763

>  <SCORE.INTER.ROT>
0

>  <SCORE.INTER.SOLV>
12.1786

>  <SCORE.INTER.VDW>
-20.1241

>  <SCORE.INTER.norm>
-3.3885

>  <SCORE.INTRA>
0

>  <SCORE.INTRA.DIHEDRAL>
0

>  <SCORE.INTRA.DIHEDRAL.0>
0

>  <SCORE.INTRA.POLAR>
0

>  <SCORE.INTRA.POLAR.0>
0

>  <SCORE.INTRA.REPUL>
0

>  <SCORE.INTRA.REPUL.0>
0

>  <SCORE.INTRA.SOLV>
0

>  <SCORE.INTRA.SOLV.lig_0>
-14.8845

>  <SCORE.INTRA.VDW>
0

>  <SCORE.INTRA.VDW.0>
0

>  <SCORE.INTRA.norm>
0

>  <SCORE.RESTR>
0

>  <SCORE.RESTR.CAVITY>
0

>  <SCORE.RESTR.norm>
0

>  <SCORE.SYSTEM>
0

>  <SCORE.SYSTEM.CONST>
0

>  <SCORE.SYSTEM.DIHEDRAL>
0

>  <SCORE.SYSTEM.SOLV>
0

>  <SCORE.SYSTEM.norm>
0

>  <SCORE.heavy>
10

>  <SCORE.norm>
-3.3885

>  <RMSD>
0.341

$$$$
lig.pdb
 OpenBabel11021811523D
libRbt.so/2013.1/901 2013/11/27
 10 11  0  0  0  0  0  0  0  0999 V2000
  -30.8354   18.8873  -17.9343 N   0  0  0  0  0  0  0  0  0  0  0  0
  -30.1494   18.1174  -18.8331 C   0  0  0  0  0  0  0  0  0  0  0  0
  -29.7383   16.9717  -18.3445 N   0  0  0  0  0  0  0  0  0  0  0  0
  -30.1837   16.9904  -17.0336 C   0  0  0  0  0  0  0  0  0  0  0  0
  -30.0731   16.0627  -15.9815 C   0  0  0  0  0  0  0  0  0  0  0  0
  -29.4423   14.8899  -16.1013 N   0  0  0  0  0  0  0  0  0  0  0  0
  -30.6334   16.3893  -14.7963 N   0  0  0  0  0  0  0  0  0  0  0  0
  -31.2602   17.5654  -14.6823 C   0  0  0  0  0  0  0  0  0  0  0  0
  -31.4297   18.5172  -15.5993 N   0  0  0  0  0  0  0  0  0  0  0  0
  -30.8626   18.1639  -16.7637 C   0  0  0  0  0  0  0  0  0  0  0  0
  1 10  1  0  0  0  0
  2  3  2  0  0  0  0
  2  1  1  0  0  0  0
  3  4  1  0  0  0  0
  4 10  2  0  0  0  0
  4  5  1  0  0  0  0
  5  7  2  0  0  0  0
  6  5  1  0  0  0  0
  7  8  1  0  0  0  0
  9  8  2  0  0  0  0
 10  9  1  0  0  0  0
M  END
>  <CHROM.1>
-30.44277347,17.21383271,-16.59836891,1.63841749,1.02836633,-0.98268149

>  <Name>
lig.pdb

>  <RI>
0

>  <Rbt.Current_Directory>
/home/itssahil/PROJECTS/Mol_Feturizer/New_Systems/rnas/5uza

>  <Rbt.Executable>
rbdock ($Id: //depot/dev/client3/rdock/2013.1/src/exe/rbdock.cxx#4 $)

>  <Rbt.Library>
libRbt.so (2013.1, Build901 2013/11/27)

>  <Rbt.Parameter_File>
/export/apps/rDock/src/rDock_2013.1_src/data/scripts/dock_solv.prm

>  <Rbt.Receptor>
prm/pocket_docking_3.prm

>  <SCORE>
-33.8859

>  <SCORE.INTER>
-33.8859

>  <SCORE.INTER.CONST>
1

>  <SCORE.INTER.POLAR>
-3.03763

>  <SCORE.INTER.ROT>
0

>  <SCORE.INTER.SOLV>
12.1984

>  <SCORE.INTER.VDW>
-20.1313

>  <SCORE.INTER.norm>
-3.38859

>  <SCORE.INTRA>
0

>  <SCORE.INTRA.DIHEDRAL>
0

>  <SCORE.INTRA.DIHEDRAL.0>
0

>  <SCORE.INTRA.POLAR>
0

>  <SCORE.INTRA.POLAR.0>
0

>  <SCORE.INTRA.REPUL>
0

>  <SCORE.INTRA.REPUL.0>
0

>  <SCORE.INTRA.SOLV>
0

>  <SCORE.INTRA.SOLV.lig_0>
-14.8845

>  <SCORE.INTRA.VDW>
0

>  <SCORE.INTRA.VDW.0>
0

>  <SCORE.INTRA.norm>
0

>  <SCORE.RESTR>
0

>  <SCORE.RESTR.CAVITY>
0

>  <SCORE.RESTR.norm>
0

>  <SCORE.SYSTEM>
0

>  <SCORE.SYSTEM.CONST>
0

>  <SCORE.SYSTEM.DIHEDRAL>
0

>  <SCORE.SYSTEM.SOLV>
0

>  <SCORE.SYSTEM.norm>
0

>  <SCORE.heavy>
10

>  <SCORE.norm>
-3.38859

>  <RMSD>
0.346

$$$$
lig.pdb
 OpenBabel11021811523D
libRbt.so/2013.1/901 2013/11/27
 10 11  0  0  0  0  0  0  0  0999 V2000
  -30.8400   18.8975  -17.9268 N   0  0  0  0  0  0  0  0  0  0  0  0
  -30.1610   18.1299  -18.8328 C   0  0  0  0  0  0  0  0  0  0  0  0
  -29.7503   16.9809  -18.3518 N   0  0  0  0  0  0  0  0  0  0  0  0
  -30.1885   16.9947  -17.0384 C   0  0  0  0  0  0  0  0  0  0  0  0
  -30.0748   16.0619  -15.9912 C   0  0  0  0  0  0  0  0  0  0  0  0
  -29.4477   14.8880  -16.1198 N   0  0  0  0  0  0  0  0  0  0  0  0
  -30.6279   16.3845  -14.8015 N   0  0  0  0  0  0  0  0  0  0  0  0
  -31.2509   17.5618  -14.6787 C   0  0  0  0  0  0  0  0  0  0  0  0
  -31.4228   18.5182  -15.5904 N   0  0  0  0  0  0  0  0  0  0  0  0
  -30.8629   18.1687  -16.7594 C   0  0  0  0  0  0  0  0  0  0  0  0
  1 10  1  0  0  0  0
  2  3  2  0  0  0  0
  2  1  1  0  0  0  0
  3  4  1  0  0  0  0
  4 10  2  0  0  0  0
  4  5  1  0  0  0  0
  5  7  2  0  0  0  0
  6  5  1  0  0  0  0
  7  8  1  0  0  0  0
  9  8  2  0  0  0  0
 10  9  1  0  0  0  0
M  END
>  <CHROM.1>
-30.44472582,17.21684653,-16.60075810,1.64427416,1.03354335,-0.98309667

>  <Name>
lig.pdb

>  <RI>
9.24451e+06

>  <Rbt.Current_Directory>
/home/itssahil/PROJECTS/Mol_Feturizer/New_Systems/rnas/5uza

>  <Rbt.Executable>
rbdock ($Id: //depot/dev/client3/rdock/2013.1/src/exe/rbdock.cxx#4 $)

>  <Rbt.Library>
libRbt.so (2013.1, Build901 2013/11/27)

>  <Rbt.Parameter_File>
/export/apps/rDock/src/rDock_2013.1_src/data/scripts/dock_solv.prm

>  <Rbt.Receptor>
prm/pocket_docking_4.prm

>  <SCORE>
-33.9008

>  <SCORE.INTER>
-33.9008

>  <SCORE.INTER.CONST>
1

>  <SCORE.INTER.POLAR>
-3.03763

>  <SCORE.INTER.ROT>
0

>  <SCORE.INTER.SOLV>
12.2014

>  <SCORE.INTER.VDW>
-20.1422

>  <SCORE.INTER.norm>
-3.39008

>  <SCORE.INTRA>
0

>  <SCORE.INTRA.DIHEDRAL>
0

>  <SCORE.INTRA.DIHEDRAL.0>
0

>  <SCORE.INTRA.POLAR>
0

>  <SCORE.INTRA.POLAR.0>
0

>  <SCORE.INTRA.REPUL>
0

>  <SCORE.INTRA.REPUL.0>
0

>  <SCORE.INTRA.SOLV>
0

>  <SCORE.INTRA.SOLV.lig_0>
-14.8845

>  <SCORE.INTRA.VDW>
0

>  <SCORE.INTRA.VDW.0>
0

>  <SCORE.INTRA.norm>
0

>  <SCORE.RESTR>
0

>  <SCORE.RESTR.CAVITY>
0

>  <SCORE.RESTR.norm>
0

>  <SCORE.SYSTEM>
0

>  <SCORE.SYSTEM.CONST>
0

>  <SCORE.SYSTEM.DIHEDRAL>
0

>  <SCORE.SYSTEM.SOLV>
0

>  <SCORE.SYSTEM.norm>
0

>  <SCORE.heavy>
10

>  <SCORE.norm>
-3.39008

>  <RMSD>
0.346

$$$$
lig.pdb
 OpenBabel11021811523D
libRbt.so/2013.1/901 2013/11/27
 10 11  0  0  0  0  0  0  0  0999 V2000
  -30.8474   18.9091  -17.9270 N   0  0  0  0  0  0  0  0  0  0  0  0
  -30.1782   18.1348  -18.8345 C   0  0  0  0  0  0  0  0  0  0  0  0
  -29.7731   16.9840  -18.3527 N   0  0  0  0  0  0  0  0  0  0  0  0
  -30.2048   17.0039  -17.0372 C   0  0  0  0  0  0  0  0  0  0  0  0
  -30.0925   16.0727  -15.9884 C   0  0  0  0  0  0  0  0  0  0  0  0
  -29.4742   14.8942  -16.1173 N   0  0  0  0  0  0  0  0  0  0  0  0
  -30.6374   16.4020  -14.7968 N   0  0  0  0  0  0  0  0  0  0  0  0
  -31.2517   17.5838  -14.6737 C   0  0  0  0  0  0  0  0  0  0  0  0
  -31.4214   18.5393  -15.5868 N   0  0  0  0  0  0  0  0  0  0  0  0
  -30.8696   18.1833  -16.7577 C   0  0  0  0  0  0  0  0  0  0  0  0
  1 10  1  0  0  0  0
  2  3  2  0  0  0  0
  2  1  1  0  0  0  0
  3  4  1  0  0  0  0
  4 10  2  0  0  0  0
  4  5  1  0  0  0  0
  5  7  2  0  0  0  0
  6  5  1  0  0  0  0
  7  8  1  0  0  0  0
  9  8  2  0  0  0  0
 10  9  1  0  0  0  0
M  END
>  <CHROM.1>
-30.45731682,17.22884515,-16.59886573,1.64470587,1.04204996,-0.98581157

>  <Name>
lig.pdb

>  <RI>
0

>  <Rbt.Current_Directory>
/home/itssahil/PROJECTS/Mol_Feturizer/New_Systems/rnas/5uza

>  <Rbt.Executable>
rbdock ($Id: //depot/dev/client3/rdock/2013.1/src/exe/rbdock.cxx#4 $)

>  <Rbt.Library>
libRbt.so (2013.1, Build901 2013/11/27)

>  <Rbt.Parameter_File>
/export/apps/rDock/src/rDock_2013.1_src/data/scripts/dock_solv.prm

>  <Rbt.Receptor>
prm/pocket_docking_3.prm

>  <SCORE>
-33.8947

>  <SCORE.INTER>
-33.8947

>  <SCORE.INTER.CONST>
1

>  <SCORE.INTER.POLAR>
-3.03763

>  <SCORE.INTER.ROT>
0

>  <SCORE.INTER.SOLV>
12.225

>  <SCORE.INTER.VDW>
-20.1461

>  <SCORE.INTER.norm>
-3.38947

>  <SCORE.INTRA>
0

>  <SCORE.INTRA.DIHEDRAL>
0

>  <SCORE.INTRA.DIHEDRAL.0>
0

>  <SCORE.INTRA.POLAR>
0

>  <SCORE.INTRA.POLAR.0>
0

>  <SCORE.INTRA.REPUL>
0

>  <SCORE.INTRA.REPUL.0>
0

>  <SCORE.INTRA.SOLV>
0

>  <SCORE.INTRA.SOLV.lig_0>
-14.8845

>  <SCORE.INTRA.VDW>
0

>  <SCORE.INTRA.VDW.0>
0

>  <SCORE.INTRA.norm>
0

>  <SCORE.RESTR>
0

>  <SCORE.RESTR.CAVITY>
0

>  <SCORE.RESTR.norm>
0

>  <SCORE.SYSTEM>
0

>  <SCORE.SYSTEM.CONST>
0

>  <SCORE.SYSTEM.DIHEDRAL>
0

>  <SCORE.SYSTEM.SOLV>
0

>  <SCORE.SYSTEM.norm>
0

>  <SCORE.heavy>
10

>  <SCORE.norm>
-3.38947

>  <RMSD>
0.353

$$$$
lig.pdb
 OpenBabel11021811523D
libRbt.so/2013.1/901 2013/11/27
 10 11  0  0  0  0  0  0  0  0999 V2000
  -30.8955   18.8879  -17.3914 N   0  0  0  0  0  0  0  0  0  0  0  0
  -30.2453   18.1277  -18.3244 C   0  0  0  0  0  0  0  0  0  0  0  0
  -29.8964   16.9401  -17.8907 N   0  0  0  0  0  0  0  0  0  0  0  0
  -30.3473   16.9186  -16.5816 C   0  0  0  0  0  0  0  0  0  0  0  0
  -30.2904   15.9368  -15.5754 C   0  0  0  0  0  0  0  0  0  0  0  0
  -29.7201   14.7401  -15.7499 N   0  0  0  0  0  0  0  0  0  0  0  0
  -30.8394   16.2346  -14.3774 N   0  0  0  0  0  0  0  0  0  0  0  0
  -31.4054   17.4347  -14.2084 C   0  0  0  0  0  0  0  0  0  0  0  0
  -31.5207   18.4370  -15.0788 N   0  0  0  0  0  0  0  0  0  0  0  0
  -30.9662   18.1113  -16.2573 C   0  0  0  0  0  0  0  0  0  0  0  0
  1 10  1  0  0  0  0
  2  3  2  0  0  0  0
  2  1  1  0  0  0  0
  3  4  1  0  0  0  0
  4 10  2  0  0  0  0
  4  5  1  0  0  0  0
  5  7  2  0  0  0  0
  6  5  1  0  0  0  0
  7  8  1  0  0  0  0
  9  8  2  0  0  0  0
 10  9  1  0  0  0  0
M  END
>  <CHROM.1>
-30.59685540,17.13396275,-16.13687816,1.56982457,1.06728004,-0.87492778

>  <Name>
lig.pdb

>  <RI>
2.34257e+07

>  <Rbt.Current_Directory>
/home/itssahil/PROJECTS/Mol_Feturizer/New_Systems/rnas/5uza

>  <Rbt.Executable>
rbdock ($Id: //depot/dev/client3/rdock/2013.1/src/exe/rbdock.cxx#4 $)

>  <Rbt.Library>
libRbt.so (2013.1, Build901 2013/11/27)

>  <Rbt.Parameter_File>
/export/apps/rDock/src/rDock_2013.1_src/data/scripts/dock_solv.prm

>  <Rbt.Receptor>
prm/blind_docking_40.prm

>  <SCORE>
-31.4559

>  <SCORE.INTER>
-32.9963

>  <SCORE.INTER.CONST>
1

>  <SCORE.INTER.POLAR>
-3.03763

>  <SCORE.INTER.ROT>
0

>  <SCORE.INTER.SOLV>
12.6705

>  <SCORE.INTER.VDW>
-19.6956

>  <SCORE.INTER.norm>
-3.29963

>  <SCORE.INTRA>
0

>  <SCORE.INTRA.DIHEDRAL>
0

>  <SCORE.INTRA.DIHEDRAL.0>
0

>  <SCORE.INTRA.POLAR>
0

>  <SCORE.INTRA.POLAR.0>
0

>  <SCORE.INTRA.REPUL>
0

>  <SCORE.INTRA.REPUL.0>
0

>  <SCORE.INTRA.SOLV>
0

>  <SCORE.INTRA.SOLV.lig_0>
-14.8845

>  <SCORE.INTRA.VDW>
0

>  <SCORE.INTRA.VDW.0>
0

>  <SCORE.INTRA.norm>
0

>  <SCORE.RESTR>
1.54041

>  <SCORE.RESTR.CAVITY>
1.54041

>  <SCORE.RESTR.norm>
0.154041

>  <SCORE.SYSTEM>
0

>  <SCORE.SYSTEM.CONST>
0

>  <SCORE.SYSTEM.DIHEDRAL>
0

>  <SCORE.SYSTEM.SOLV>
0

>  <SCORE.SYSTEM.norm>
0

>  <SCORE.heavy>
10

>  <SCORE.norm>
-3.14559

>  <RMSD>
0.519

$$$$
lig.pdb
 OpenBabel11021811523D
libRbt.so/2013.1/901 2013/11/27
 10 11  0  0  0  0  0  0  0  0999 V2000
  -30.1985   17.8293  -18.0176 N   0  0  0  0  0  0  0  0  0  0  0  0
  -31.2120   18.7076  -17.7483 C   0  0  0  0  0  0  0  0  0  0  0  0
  -31.5655   18.7379  -16.4856 N   0  0  0  0  0  0  0  0  0  0  0  0
  -30.7273   17.8148  -15.8835 C   0  0  0  0  0  0  0  0  0  0  0  0
  -30.5954   17.3815  -14.5514 C   0  0  0  0  0  0  0  0  0  0  0  0
  -31.3521   17.8450  -13.5512 N   0  0  0  0  0  0  0  0  0  0  0  0
  -29.6562   16.4471  -14.2862 N   0  0  0  0  0  0  0  0  0  0  0  0
  -28.9048   15.9853  -15.2918 C   0  0  0  0  0  0  0  0  0  0  0  0
  -28.9357   16.3170  -16.5820 N   0  0  0  0  0  0  0  0  0  0  0  0
  -29.8775   17.2453  -16.8133 C   0  0  0  0  0  0  0  0  0  0  0  0
  1 10  1  0  0  0  0
  2  3  2  0  0  0  0
  2  1  1  0  0  0  0
  3  4  1  0  0  0  0
  4 10  2  0  0  0  0
  4  5  1  0  0  0  0
  5  7  2  0  0  0  0
  6  5  1  0  0  0  0
  7  8  1  0  0  0  0
  9  8  2  0  0  0  0
 10  9  1  0  0  0  0
M  END
>  <CHROM.1>
-30.32115767,17.43856984,-15.87946643,-1.78397900,-0.73485284,1.80247756

>  <Name>
lig.pdb

>  <RI>
1.17775e+07

>  <Rbt.Current_Directory>
/home/itssahil/PROJECTS/Mol_Feturizer/New_Systems/rnas/5uza

>  <Rbt.Executable>
rbdock ($Id: //depot/dev/client3/rdock/2013.1/src/exe/rbdock.cxx#4 $)

>  <Rbt.Library>
libRbt.so (2013.1, Build901 2013/11/27)

>  <Rbt.Parameter_File>
/export/apps/rDock/src/rDock_2013.1_src/data/scripts/dock_solv.prm

>  <Rbt.Receptor>
prm/pocket_docking_8.prm

>  <SCORE>
-34.0749

>  <SCORE.INTER>
-34.0749

>  <SCORE.INTER.CONST>
1

>  <SCORE.INTER.POLAR>
-3.50364

>  <SCORE.INTER.ROT>
0

>  <SCORE.INTER.SOLV>
11.0178

>  <SCORE.INTER.VDW>
-18.3104

>  <SCORE.INTER.norm>
-3.40749

>  <SCORE.INTRA>
0

>  <SCORE.INTRA.DIHEDRAL>
0

>  <SCORE.INTRA.DIHEDRAL.0>
0

>  <SCORE.INTRA.POLAR>
0

>  <SCORE.INTRA.POLAR.0>
0

>  <SCORE.INTRA.REPUL>
0

>  <SCORE.INTRA.REPUL.0>
0

>  <SCORE.INTRA.SOLV>
0

>  <SCORE.INTRA.SOLV.lig_0>
-14.8845

>  <SCORE.INTRA.VDW>
0

>  <SCORE.INTRA.VDW.0>
0

>  <SCORE.INTRA.norm>
0

>  <SCORE.RESTR>
0

>  <SCORE.RESTR.CAVITY>
0

>  <SCORE.RESTR.norm>
0

>  <SCORE.SYSTEM>
0

>  <SCORE.SYSTEM.CONST>
0

>  <SCORE.SYSTEM.DIHEDRAL>
0

>  <SCORE.SYSTEM.SOLV>
0

>  <SCORE.SYSTEM.norm>
0

>  <SCORE.heavy>
10

>  <SCORE.norm>
-3.40749

>  <RMSD>
2.454

$$$$
lig.pdb
 OpenBabel11021811523D
libRbt.so/2013.1/901 2013/11/27
 10 11  0  0  0  0  0  0  0  0999 V2000
  -30.2103   17.8415  -18.0104 N   0  0  0  0  0  0  0  0  0  0  0  0
  -31.2247   18.7189  -17.7419 C   0  0  0  0  0  0  0  0  0  0  0  0
  -31.5799   18.7481  -16.4796 N   0  0  0  0  0  0  0  0  0  0  0  0
  -30.7419   17.8251  -15.8770 C   0  0  0  0  0  0  0  0  0  0  0  0
  -30.6114   17.3910  -14.5450 C   0  0  0  0  0  0  0  0  0  0  0  0
  -31.3698   17.8532  -13.5455 N   0  0  0  0  0  0  0  0  0  0  0  0
  -29.6720   16.4570  -14.2793 N   0  0  0  0  0  0  0  0  0  0  0  0
  -28.9190   15.9965  -15.2843 C   0  0  0  0  0  0  0  0  0  0  0  0
  -28.9483   16.3290  -16.5742 N   0  0  0  0  0  0  0  0  0  0  0  0
  -29.8905   17.2569  -16.8061 C   0  0  0  0  0  0  0  0  0  0  0  0
  1 10  1  0  0  0  0
  2  3  2  0  0  0  0
  2  1  1  0  0  0  0
  3  4  1  0  0  0  0
  4 10  2  0  0  0  0
  4  5  1  0  0  0  0
  5  7  2  0  0  0  0
  6  5  1  0  0  0  0
  7  8  1  0  0  0  0
  9  8  2  0  0  0  0
 10  9  1  0  0  0  0
M  END
>  <CHROM.1>
-30.33550581,17.44916760,-15.87274032,-1.78244290,-0.73387602,1.80421719

>  <Name>
lig.pdb

>  <RI>
0

>  <Rbt.Current_Directory>
/home/itssahil/PROJECTS/Mol_Feturizer/New_Systems/rnas/5uza

>  <Rbt.Executable>
rbdock ($Id: //depot/dev/client3/rdock/2013.1/src/exe/rbdock.cxx#4 $)

>  <Rbt.Library>
libRbt.so (2013.1, Build901 2013/11/27)

>  <Rbt.Parameter_File>
/export/apps/rDock/src/rDock_2013.1_src/data/scripts/dock_solv.prm

>  <Rbt.Receptor>
prm/pocket_docking_3.prm

>  <SCORE>
-34.0629

>  <SCORE.INTER>
-34.0629

>  <SCORE.INTER.CONST>
1

>  <SCORE.INTER.POLAR>
-3.50498

>  <SCORE.INTER.ROT>
0

>  <SCORE.INTER.SOLV>
11.0159

>  <SCORE.INTER.VDW>
-18.2973

>  <SCORE.INTER.norm>
-3.40629

>  <SCORE.INTRA>
0

>  <SCORE.INTRA.DIHEDRAL>
0

>  <SCORE.INTRA.DIHEDRAL.0>
0

>  <SCORE.INTRA.POLAR>
0

>  <SCORE.INTRA.POLAR.0>
0

>  <SCORE.INTRA.REPUL>
0

>  <SCORE.INTRA.REPUL.0>
0

>  <SCORE.INTRA.SOLV>
0

>  <SCORE.INTRA.SOLV.lig_0>
-14.8845

>  <SCORE.INTRA.VDW>
0

>  <SCORE.INTRA.VDW.0>
0

>  <SCORE.INTRA.norm>
0

>  <SCORE.RESTR>
0

>  <SCORE.RESTR.CAVITY>
0

>  <SCORE.RESTR.norm>
0

>  <SCORE.SYSTEM>
0

>  <SCORE.SYSTEM.CONST>
0

>  <SCORE.SYSTEM.DIHEDRAL>
0

>  <SCORE.SYSTEM.SOLV>
0

>  <SCORE.SYSTEM.norm>
0

>  <SCORE.heavy>
10

>  <SCORE.norm>
-3.40629

>  <RMSD>
2.456

$$$$
lig.pdb
 OpenBabel11021811523D
libRbt.so/2013.1/901 2013/11/27
 10 11  0  0  0  0  0  0  0  0999 V2000
  -30.2059   17.8897  -18.0133 N   0  0  0  0  0  0  0  0  0  0  0  0
  -31.2129   18.7708  -17.7296 C   0  0  0  0  0  0  0  0  0  0  0  0
  -31.5608   18.7887  -16.4650 N   0  0  0  0  0  0  0  0  0  0  0  0
  -30.7255   17.8538  -15.8772 C   0  0  0  0  0  0  0  0  0  0  0  0
  -30.5905   17.4045  -14.5508 C   0  0  0  0  0  0  0  0  0  0  0  0
  -31.3401   17.8609  -13.5420 N   0  0  0  0  0  0  0  0  0  0  0  0
  -29.6558   16.4616  -14.3005 N   0  0  0  0  0  0  0  0  0  0  0  0
  -28.9115   16.0070  -15.3146 C   0  0  0  0  0  0  0  0  0  0  0  0
  -28.9459   16.3536  -16.6007 N   0  0  0  0  0  0  0  0  0  0  0  0
  -29.8832   17.2901  -16.8172 C   0  0  0  0  0  0  0  0  0  0  0  0
  1 10  1  0  0  0  0
  2  3  2  0  0  0  0
  2  1  1  0  0  0  0
  3  4  1  0  0  0  0
  4 10  2  0  0  0  0
  4  5  1  0  0  0  0
  5  7  2  0  0  0  0
  6  5  1  0  0  0  0
  7  8  1  0  0  0  0
  9  8  2  0  0  0  0
 10  9  1  0  0  0  0
M  END
>  <CHROM.1>
-30.32165031,17.47519810,-15.87930449,-1.78781955,-0.74163867,1.81137054

>  <Name>
lig.pdb

>  <RI>
1.17775e+07

>  <Rbt.Current_Directory>
/home/itssahil/PROJECTS/Mol_Feturizer/New_Systems/rnas/5uza

>  <Rbt.Executable>
rbdock ($Id: //depot/dev/client3/rdock/2013.1/src/exe/rbdock.cxx#4 $)

>  <Rbt.Library>
libRbt.so (2013.1, Build901 2013/11/27)

>  <Rbt.Parameter_File>
/export/apps/rDock/src/rDock_2013.1_src/data/scripts/dock_solv.prm

>  <Rbt.Receptor>
prm/pocket_docking_8.prm

>  <SCORE>
-34.0372

>  <SCORE.INTER>
-34.0372

>  <SCORE.INTER.CONST>
1

>  <SCORE.INTER.POLAR>
-3.4987

>  <SCORE.INTER.ROT>
0

>  <SCORE.INTER.SOLV>
11.0481

>  <SCORE.INTER.VDW>
-18.3118

>  <SCORE.INTER.norm>
-3.40372

>  <SCORE.INTRA>
0

>  <SCORE.INTRA.DIHEDRAL>
0

>  <SCORE.INTRA.DIHEDRAL.0>
0

>  <SCORE.INTRA.POLAR>
0

>  <SCORE.INTRA.POLAR.0>
0

>  <SCORE.INTRA.REPUL>
0

>  <SCORE.INTRA.REPUL.0>
0

>  <SCORE.INTRA.SOLV>
0

>  <SCORE.INTRA.SOLV.lig_0>
-14.8845

>  <SCORE.INTRA.VDW>
0

>  <SCORE.INTRA.VDW.0>
0

>  <SCORE.INTRA.norm>
0

>  <SCORE.RESTR>
0

>  <SCORE.RESTR.CAVITY>
0

>  <SCORE.RESTR.norm>
0

>  <SCORE.SYSTEM>
0

>  <SCORE.SYSTEM.CONST>
0

>  <SCORE.SYSTEM.DIHEDRAL>
0

>  <SCORE.SYSTEM.SOLV>
0

>  <SCORE.SYSTEM.norm>
0

>  <SCORE.heavy>
10

>  <SCORE.norm>
-3.40372

>  <RMSD>
2.456

$$$$
lig.pdb
 OpenBabel11021811523D
libRbt.so/2013.1/901 2013/11/27
 10 11  0  0  0  0  0  0  0  0999 V2000
  -30.1848   17.8367  -18.0019 N   0  0  0  0  0  0  0  0  0  0  0  0
  -31.2004   18.7142  -17.7383 C   0  0  0  0  0  0  0  0  0  0  0  0
  -31.5589   18.7464  -16.4770 N   0  0  0  0  0  0  0  0  0  0  0  0
  -30.7219   17.8255  -15.8699 C   0  0  0  0  0  0  0  0  0  0  0  0
  -30.5946   17.3949  -14.5365 C   0  0  0  0  0  0  0  0  0  0  0  0
  -31.3559   17.8592  -13.5401 N   0  0  0  0  0  0  0  0  0  0  0  0
  -29.6553   16.4622  -14.2659 N   0  0  0  0  0  0  0  0  0  0  0  0
  -28.8993   15.9996  -15.2677 C   0  0  0  0  0  0  0  0  0  0  0  0
  -28.9256   16.3288  -16.5586 N   0  0  0  0  0  0  0  0  0  0  0  0
  -29.8677   17.2555  -16.7953 C   0  0  0  0  0  0  0  0  0  0  0  0
  1 10  1  0  0  0  0
  2  3  2  0  0  0  0
  2  1  1  0  0  0  0
  3  4  1  0  0  0  0
  4 10  2  0  0  0  0
  4  5  1  0  0  0  0
  5  7  2  0  0  0  0
  6  5  1  0  0  0  0
  7  8  1  0  0  0  0
  9  8  2  0  0  0  0
 10  9  1  0  0  0  0
M  END
>  <CHROM.1>
-30.31528122,17.44984072,-15.86358658,-1.77926521,-0.73266467,1.80377691

>  <Name>
lig.pdb

>  <RI>
1.17431e+07

>  <Rbt.Current_Directory>
/home/itssahil/PROJECTS/Mol_Feturizer/New_Systems/rnas/5uza

>  <Rbt.Executable>
rbdock ($Id: //depot/dev/client3/rdock/2013.1/src/exe/rbdock.cxx#4 $)

>  <Rbt.Library>
libRbt.so (2013.1, Build901 2013/11/27)

>  <Rbt.Parameter_File>
/export/apps/rDock/src/rDock_2013.1_src/data/scripts/dock_solv.prm

>  <Rbt.Receptor>
prm/pocket_docking_6.prm

>  <SCORE>
-34.0757

>  <SCORE.INTER>
-34.0757

>  <SCORE.INTER.CONST>
1

>  <SCORE.INTER.POLAR>
-3.52761

>  <SCORE.INTER.ROT>
0

>  <SCORE.INTER.SOLV>
11.0385

>  <SCORE.INTER.VDW>
-18.2379

>  <SCORE.INTER.norm>
-3.40757

>  <SCORE.INTRA>
0

>  <SCORE.INTRA.DIHEDRAL>
0

>  <SCORE.INTRA.DIHEDRAL.0>
0

>  <SCORE.INTRA.POLAR>
0

>  <SCORE.INTRA.POLAR.0>
0

>  <SCORE.INTRA.REPUL>
0

>  <SCORE.INTRA.REPUL.0>
0

>  <SCORE.INTRA.SOLV>
0

>  <SCORE.INTRA.SOLV.lig_0>
-14.8845

>  <SCORE.INTRA.VDW>
0

>  <SCORE.INTRA.VDW.0>
0

>  <SCORE.INTRA.norm>
0

>  <SCORE.RESTR>
0

>  <SCORE.RESTR.CAVITY>
0

>  <SCORE.RESTR.norm>
0

>  <SCORE.SYSTEM>
0

>  <SCORE.SYSTEM.CONST>
0

>  <SCORE.SYSTEM.DIHEDRAL>
0

>  <SCORE.SYSTEM.SOLV>
0

>  <SCORE.SYSTEM.norm>
0

>  <SCORE.heavy>
10

>  <SCORE.norm>
-3.40757

>  <RMSD>
2.458

$$$$
lig.pdb
 OpenBabel11021811523D
libRbt.so/2013.1/901 2013/11/27
 10 11  0  0  0  0  0  0  0  0999 V2000
  -30.3665   17.5769  -18.0237 N   0  0  0  0  0  0  0  0  0  0  0  0
  -31.4531   18.3666  -17.7655 C   0  0  0  0  0  0  0  0  0  0  0  0
  -31.7517   18.4573  -16.4915 N   0  0  0  0  0  0  0  0  0  0  0  0
  -30.7960   17.6719  -15.8694 C   0  0  0  0  0  0  0  0  0  0  0  0
  -30.5609   17.3568  -14.5184 C   0  0  0  0  0  0  0  0  0  0  0  0
  -31.3168   17.8166  -13.5160 N   0  0  0  0  0  0  0  0  0  0  0  0
  -29.5186   16.5447  -14.2364 N   0  0  0  0  0  0  0  0  0  0  0  0
  -28.7684   16.0857  -15.2442 C   0  0  0  0  0  0  0  0  0  0  0  0
  -28.8907   16.3133  -16.5513 N   0  0  0  0  0  0  0  0  0  0  0  0
  -29.9335   17.1217  -16.7990 C   0  0  0  0  0  0  0  0  0  0  0  0
  1 10  1  0  0  0  0
  2  3  2  0  0  0  0
  2  1  1  0  0  0  0
  3  4  1  0  0  0  0
  4 10  2  0  0  0  0
  4  5  1  0  0  0  0
  5  7  2  0  0  0  0
  6  5  1  0  0  0  0
  7  8  1  0  0  0  0
  9  8  2  0  0  0  0
 10  9  1  0  0  0  0
M  END
>  <CHROM.1>
-30.35311828,17.33988281,-15.85965626,-1.86767473,-0.64150885,1.67521289

>  <Name>
lig.pdb

>  <RI>
2.34257e+07

>  <Rbt.Current_Directory>
/home/itssahil/PROJECTS/Mol_Feturizer/New_Systems/rnas/5uza

>  <Rbt.Executable>
rbdock ($Id: //depot/dev/client3/rdock/2013.1/src/exe/rbdock.cxx#4 $)

>  <Rbt.Library>
libRbt.so (2013.1, Build901 2013/11/27)

>  <Rbt.Parameter_File>
/export/apps/rDock/src/rDock_2013.1_src/data/scripts/dock_solv.prm

>  <Rbt.Receptor>
prm/blind_docking_40.prm

>  <SCORE>
-31.6675

>  <SCORE.INTER>
-33.0964

>  <SCORE.INTER.CONST>
1

>  <SCORE.INTER.POLAR>
-3.57615

>  <SCORE.INTER.ROT>
0

>  <SCORE.INTER.SOLV>
10.8224

>  <SCORE.INTER.VDW>
-17.3512

>  <SCORE.INTER.norm>
-3.30964

>  <SCORE.INTRA>
0

>  <SCORE.INTRA.DIHEDRAL>
0

>  <SCORE.INTRA.DIHEDRAL.0>
0

>  <SCORE.INTRA.POLAR>
0

>  <SCORE.INTRA.POLAR.0>
0

>  <SCORE.INTRA.REPUL>
0

>  <SCORE.INTRA.REPUL.0>
0

>  <SCORE.INTRA.SOLV>
0

>  <SCORE.INTRA.SOLV.lig_0>
-14.8845

>  <SCORE.INTRA.VDW>
0

>  <SCORE.INTRA.VDW.0>
0

>  <SCORE.INTRA.norm>
0

>  <SCORE.RESTR>
1.42893

>  <SCORE.RESTR.CAVITY>
1.42893

>  <SCORE.RESTR.norm>
0.142893

>  <SCORE.SYSTEM>
0

>  <SCORE.SYSTEM.CONST>
0

>  <SCORE.SYSTEM.DIHEDRAL>
0

>  <SCORE.SYSTEM.SOLV>
0

>  <SCORE.SYSTEM.norm>
0

>  <SCORE.heavy>
10

>  <SCORE.norm>
-3.16675

>  <RMSD>
2.470

$$$$
lig.pdb
 OpenBabel11021811523D
libRbt.so/2013.1/901 2013/11/27
 10 11  0  0  0  0  0  0  0  0999 V2000
  -30.2789   17.6008  -17.9908 N   0  0  0  0  0  0  0  0  0  0  0  0
  -31.2791   18.4949  -17.7243 C   0  0  0  0  0  0  0  0  0  0  0  0
  -31.5730   18.5972  -16.4501 N   0  0  0  0  0  0  0  0  0  0  0  0
  -30.7069   17.7077  -15.8368 C   0  0  0  0  0  0  0  0  0  0  0  0
  -30.5124   17.3500  -14.4900 C   0  0  0  0  0  0  0  0  0  0  0  0
  -31.2216   17.8707  -13.4832 N   0  0  0  0  0  0  0  0  0  0  0  0
  -29.5613   16.4301  -14.2169 N   0  0  0  0  0  0  0  0  0  0  0  0
  -28.8577   15.9108  -15.2290 C   0  0  0  0  0  0  0  0  0  0  0  0
  -28.9493   16.1692  -16.5330 N   0  0  0  0  0  0  0  0  0  0  0  0
  -29.9014   17.0850  -16.7718 C   0  0  0  0  0  0  0  0  0  0  0  0
  1 10  1  0  0  0  0
  2  3  2  0  0  0  0
  2  1  1  0  0  0  0
  3  4  1  0  0  0  0
  4 10  2  0  0  0  0
  4  5  1  0  0  0  0
  5  7  2  0  0  0  0
  6  5  1  0  0  0  0
  7  8  1  0  0  0  0
  9  8  2  0  0  0  0
 10  9  1  0  0  0  0
M  END
>  <CHROM.1>
-30.30085415,17.33150509,-15.83063849,-1.84630138,-0.74411283,1.70401151

>  <Name>
lig.pdb

>  <RI>
2.34257e+07

>  <Rbt.Current_Directory>
/home/itssahil/PROJECTS/Mol_Feturizer/New_Systems/rnas/5uza

>  <Rbt.Executable>
rbdock ($Id: //depot/dev/client3/rdock/2013.1/src/exe/rbdock.cxx#4 $)

>  <Rbt.Library>
libRbt.so (2013.1, Build901 2013/11/27)

>  <Rbt.Parameter_File>
/export/apps/rDock/src/rDock_2013.1_src/data/scripts/dock_solv.prm

>  <Rbt.Receptor>
prm/blind_docking_40.prm

>  <SCORE>
-31.669

>  <SCORE.INTER>
-33.11

>  <SCORE.INTER.CONST>
1

>  <SCORE.INTER.POLAR>
-3.50869

>  <SCORE.INTER.ROT>
0

>  <SCORE.INTER.SOLV>
10.8752

>  <SCORE.INTER.VDW>
-17.6028

>  <SCORE.INTER.norm>
-3.311

>  <SCORE.INTRA>
0

>  <SCORE.INTRA.DIHEDRAL>
0

>  <SCORE.INTRA.DIHEDRAL.0>
0

>  <SCORE.INTRA.POLAR>
0

>  <SCORE.INTRA.POLAR.0>
0

>  <SCORE.INTRA.REPUL>
0

>  <SCORE.INTRA.REPUL.0>
0

>  <SCORE.INTRA.SOLV>
0

>  <SCORE.INTRA.SOLV.lig_0>
-14.8845

>  <SCORE.INTRA.VDW>
0

>  <SCORE.INTRA.VDW.0>
0

>  <SCORE.INTRA.norm>
0

>  <SCORE.RESTR>
1.441

>  <SCORE.RESTR.CAVITY>
1.441

>  <SCORE.RESTR.norm>
0.1441

>  <SCORE.SYSTEM>
0

>  <SCORE.SYSTEM.CONST>
0

>  <SCORE.SYSTEM.DIHEDRAL>
0

>  <SCORE.SYSTEM.SOLV>
0

>  <SCORE.SYSTEM.norm>
0

>  <SCORE.heavy>
10

>  <SCORE.norm>
-3.1669

>  <RMSD>
2.471

$$$$
lig.pdb
 OpenBabel11021811523D
libRbt.so/2013.1/901 2013/11/27
 10 11  0  0  0  0  0  0  0  0999 V2000
  -30.2835   17.5998  -17.9872 N   0  0  0  0  0  0  0  0  0  0  0  0
  -31.2874   18.4889  -17.7175 C   0  0  0  0  0  0  0  0  0  0  0  0
  -31.5770   18.5905  -16.4423 N   0  0  0  0  0  0  0  0  0  0  0  0
  -30.7039   17.7061  -15.8317 C   0  0  0  0  0  0  0  0  0  0  0  0
  -30.5024   17.3503  -14.4854 C   0  0  0  0  0  0  0  0  0  0  0  0
  -31.2105   17.8679  -13.4763 N   0  0  0  0  0  0  0  0  0  0  0  0
  -29.5454   16.4356  -14.2153 N   0  0  0  0  0  0  0  0  0  0  0  0
  -28.8429   15.9193  -15.2297 C   0  0  0  0  0  0  0  0  0  0  0  0
  -28.9408   16.1764  -16.5335 N   0  0  0  0  0  0  0  0  0  0  0  0
  -29.8987   17.0869  -16.7693 C   0  0  0  0  0  0  0  0  0  0  0  0
  1 10  1  0  0  0  0
  2  3  2  0  0  0  0
  2  1  1  0  0  0  0
  3  4  1  0  0  0  0
  4 10  2  0  0  0  0
  4  5  1  0  0  0  0
  5  7  2  0  0  0  0
  6  5  1  0  0  0  0
  7  8  1  0  0  0  0
  9  8  2  0  0  0  0
 10  9  1  0  0  0  0
M  END
>  <CHROM.1>
-30.29584704,17.33197810,-15.82679460,-1.85233545,-0.73936091,1.69923946

>  <Name>
lig.pdb

>  <RI>
2.34257e+07

>  <Rbt.Current_Directory>
/home/itssahil/PROJECTS/Mol_Feturizer/New_Systems/rnas/5uza

>  <Rbt.Executable>
rbdock ($Id: //depot/dev/client3/rdock/2013.1/src/exe/rbdock.cxx#4 $)

>  <Rbt.Library>
libRbt.so (2013.1, Build901 2013/11/27)

>  <Rbt.Parameter_File>
/export/apps/rDock/src/rDock_2013.1_src/data/scripts/dock_solv.prm

>  <Rbt.Receptor>
prm/blind_docking_40.prm

>  <SCORE>
-31.6306

>  <SCORE.INTER>
-33.0585

>  <SCORE.INTER.CONST>
1

>  <SCORE.INTER.POLAR>
-3.51205

>  <SCORE.INTER.ROT>
0

>  <SCORE.INTER.SOLV>
10.869

>  <SCORE.INTER.VDW>
-17.5551

>  <SCORE.INTER.norm>
-3.30585

>  <SCORE.INTRA>
0

>  <SCORE.INTRA.DIHEDRAL>
0

>  <SCORE.INTRA.DIHEDRAL.0>
0

>  <SCORE.INTRA.POLAR>
0

>  <SCORE.INTRA.POLAR.0>
0

>  <SCORE.INTRA.REPUL>
0

>  <SCORE.INTRA.REPUL.0>
0

>  <SCORE.INTRA.SOLV>
0

>  <SCORE.INTRA.SOLV.lig_0>
-14.8845

>  <SCORE.INTRA.VDW>
0

>  <SCORE.INTRA.VDW.0>
0

>  <SCORE.INTRA.norm>
0

>  <SCORE.RESTR>
1.4279

>  <SCORE.RESTR.CAVITY>
1.4279

>  <SCORE.RESTR.norm>
0.14279

>  <SCORE.SYSTEM>
0

>  <SCORE.SYSTEM.CONST>
0

>  <SCORE.SYSTEM.DIHEDRAL>
0

>  <SCORE.SYSTEM.SOLV>
0

>  <SCORE.SYSTEM.norm>
0

>  <SCORE.heavy>
10

>  <SCORE.norm>
-3.16306

>  <RMSD>
2.473

$$$$
lig.pdb
 OpenBabel11021811523D
libRbt.so/2013.1/901 2013/11/27
 10 11  0  0  0  0  0  0  0  0999 V2000
  -30.3600   17.5895  -18.0077 N   0  0  0  0  0  0  0  0  0  0  0  0
  -31.4403   18.3871  -17.7472 C   0  0  0  0  0  0  0  0  0  0  0  0
  -31.7386   18.4759  -16.4731 N   0  0  0  0  0  0  0  0  0  0  0  0
  -30.7895   17.6807  -15.8533 C   0  0  0  0  0  0  0  0  0  0  0  0
  -30.5574   17.3592  -14.5033 C   0  0  0  0  0  0  0  0  0  0  0  0
  -31.3100   17.8217  -13.4995 N   0  0  0  0  0  0  0  0  0  0  0  0
  -29.5218   16.5378  -14.2236 N   0  0  0  0  0  0  0  0  0  0  0  0
  -28.7749   16.0762  -15.2326 C   0  0  0  0  0  0  0  0  0  0  0  0
  -28.8949   16.3091  -16.5391 N   0  0  0  0  0  0  0  0  0  0  0  0
  -29.9310   17.1268  -16.7844 C   0  0  0  0  0  0  0  0  0  0  0  0
  1 10  1  0  0  0  0
  2  3  2  0  0  0  0
  2  1  1  0  0  0  0
  3  4  1  0  0  0  0
  4 10  2  0  0  0  0
  4  5  1  0  0  0  0
  5  7  2  0  0  0  0
  6  5  1  0  0  0  0
  7  8  1  0  0  0  0
  9  8  2  0  0  0  0
 10  9  1  0  0  0  0
M  END
>  <CHROM.1>
-30.34923936,17.34513247,-15.84445584,-1.86616366,-0.64946095,1.67949013

>  <Name>
lig.pdb

>  <RI>
2.34257e+07

>  <Rbt.Current_Directory>
/home/itssahil/PROJECTS/Mol_Feturizer/New_Systems/rnas/5uza

>  <Rbt.Executable>
rbdock ($Id: //depot/dev/client3/rdock/2013.1/src/exe/rbdock.cxx#4 $)

>  <Rbt.Library>
libRbt.so (2013.1, Build901 2013/11/27)

>  <Rbt.Parameter_File>
/export/apps/rDock/src/rDock_2013.1_src/data/scripts/dock_solv.prm

>  <Rbt.Receptor>
prm/blind_docking_40.prm

>  <SCORE>
-31.6746

>  <SCORE.INTER>
-33.1061

>  <SCORE.INTER.CONST>
1

>  <SCORE.INTER.POLAR>
-3.57255

>  <SCORE.INTER.ROT>
0

>  <SCORE.INTER.SOLV>
10.8279

>  <SCORE.INTER.VDW>
-17.3715

>  <SCORE.INTER.norm>
-3.31061

>  <SCORE.INTRA>
0

>  <SCORE.INTRA.DIHEDRAL>
0

>  <SCORE.INTRA.DIHEDRAL.0>
0

>  <SCORE.INTRA.POLAR>
0

>  <SCORE.INTRA.POLAR.0>
0

>  <SCORE.INTRA.REPUL>
0

>  <SCORE.INTRA.REPUL.0>
0

>  <SCORE.INTRA.SOLV>
0

>  <SCORE.INTRA.SOLV.lig_0>
-14.8845

>  <SCORE.INTRA.VDW>
0

>  <SCORE.INTRA.VDW.0>
0

>  <SCORE.INTRA.norm>
0

>  <SCORE.RESTR>
1.43144

>  <SCORE.RESTR.CAVITY>
1.43144

>  <SCORE.RESTR.norm>
0.143144

>  <SCORE.SYSTEM>
0

>  <SCORE.SYSTEM.CONST>
0

>  <SCORE.SYSTEM.DIHEDRAL>
0

>  <SCORE.SYSTEM.SOLV>
0

>  <SCORE.SYSTEM.norm>
0

>  <SCORE.heavy>
10

>  <SCORE.norm>
-3.16746

>  <RMSD>
2.473

$$$$
lig.pdb
 OpenBabel11021811523D
libRbt.so/2013.1/901 2013/11/27
 10 11  0  0  0  0  0  0  0  0999 V2000
  -30.7153   17.9597  -17.7412 N   0  0  0  0  0  0  0  0  0  0  0  0
  -31.9456   18.4994  -17.4842 C   0  0  0  0  0  0  0  0  0  0  0  0
  -32.3293   18.3736  -16.2362 N   0  0  0  0  0  0  0  0  0  0  0  0
  -31.2791   17.7039  -15.6315 C   0  0  0  0  0  0  0  0  0  0  0  0
  -31.0668   17.2701  -14.3099 C   0  0  0  0  0  0  0  0  0  0  0  0
  -31.9534   17.4549  -13.3262 N   0  0  0  0  0  0  0  0  0  0  0  0
  -29.9070   16.6327  -14.0380 N   0  0  0  0  0  0  0  0  0  0  0  0
  -29.0259   16.4483  -15.0274 C   0  0  0  0  0  0  0  0  0  0  0  0
  -29.1134   16.8119  -16.3063 N   0  0  0  0  0  0  0  0  0  0  0  0
  -30.2751   17.4412  -16.5446 C   0  0  0  0  0  0  0  0  0  0  0  0
  1 10  1  0  0  0  0
  2  3  2  0  0  0  0
  2  1  1  0  0  0  0
  3  4  1  0  0  0  0
  4 10  2  0  0  0  0
  4  5  1  0  0  0  0
  5  7  2  0  0  0  0
  6  5  1  0  0  0  0
  7  8  1  0  0  0  0
  9  8  2  0  0  0  0
 10  9  1  0  0  0  0
M  END
>  <CHROM.1>
-30.78232018,17.45963170,-15.62348085,-1.82586868,-0.44410303,1.81729274

>  <Name>
lig.pdb

>  <RI>
2.26746e+07

>  <Rbt.Current_Directory>
/home/itssahil/PROJECTS/Mol_Feturizer/New_Systems/rnas/5uza

>  <Rbt.Executable>
rbdock ($Id: //depot/dev/client3/rdock/2013.1/src/exe/rbdock.cxx#4 $)

>  <Rbt.Library>
libRbt.so (2013.1, Build901 2013/11/27)

>  <Rbt.Parameter_File>
/export/apps/rDock/src/rDock_2013.1_src/data/scripts/dock_solv.prm

>  <Rbt.Receptor>
prm/blind_docking_100.prm

>  <SCORE>
-36.6539

>  <SCORE.INTER>
-36.6539

>  <SCORE.INTER.CONST>
1

>  <SCORE.INTER.POLAR>
-4.32361

>  <SCORE.INTER.ROT>
0

>  <SCORE.INTER.SOLV>
10.7461

>  <SCORE.INTER.VDW>
-17.2059

>  <SCORE.INTER.norm>
-3.66539

>  <SCORE.INTRA>
0

>  <SCORE.INTRA.DIHEDRAL>
0

>  <SCORE.INTRA.DIHEDRAL.0>
0

>  <SCORE.INTRA.POLAR>
0

>  <SCORE.INTRA.POLAR.0>
0

>  <SCORE.INTRA.REPUL>
0

>  <SCORE.INTRA.REPUL.0>
0

>  <SCORE.INTRA.SOLV>
0

>  <SCORE.INTRA.SOLV.lig_0>
-14.8845

>  <SCORE.INTRA.VDW>
0

>  <SCORE.INTRA.VDW.0>
0

>  <SCORE.INTRA.norm>
0

>  <SCORE.RESTR>
0

>  <SCORE.RESTR.CAVITY>
0

>  <SCORE.RESTR.norm>
0

>  <SCORE.SYSTEM>
0

>  <SCORE.SYSTEM.CONST>
0

>  <SCORE.SYSTEM.DIHEDRAL>
0

>  <SCORE.SYSTEM.SOLV>
0

>  <SCORE.SYSTEM.norm>
0

>  <SCORE.heavy>
10

>  <SCORE.norm>
-3.66539

>  <RMSD>
2.525

$$$$
lig.pdb
 OpenBabel11021811523D
libRbt.so/2013.1/901 2013/11/27
 10 11  0  0  0  0  0  0  0  0999 V2000
  -30.7414   17.9562  -17.7500 N   0  0  0  0  0  0  0  0  0  0  0  0
  -31.9740   18.4869  -17.4850 C   0  0  0  0  0  0  0  0  0  0  0  0
  -32.3474   18.3609  -16.2340 N   0  0  0  0  0  0  0  0  0  0  0  0
  -31.2876   17.7006  -15.6356 C   0  0  0  0  0  0  0  0  0  0  0  0
  -31.0623   17.2713  -14.3147 C   0  0  0  0  0  0  0  0  0  0  0  0
  -31.9429   17.4515  -13.3248 N   0  0  0  0  0  0  0  0  0  0  0  0
  -29.8956   16.6435  -14.0501 N   0  0  0  0  0  0  0  0  0  0  0  0
  -29.0204   16.4637  -15.0455 C   0  0  0  0  0  0  0  0  0  0  0  0
  -29.1202   16.8238  -16.3245 N   0  0  0  0  0  0  0  0  0  0  0  0
  -30.2884   17.4437  -16.5556 C   0  0  0  0  0  0  0  0  0  0  0  0
  1 10  1  0  0  0  0
  2  3  2  0  0  0  0
  2  1  1  0  0  0  0
  3  4  1  0  0  0  0
  4 10  2  0  0  0  0
  4  5  1  0  0  0  0
  5  7  2  0  0  0  0
  6  5  1  0  0  0  0
  7  8  1  0  0  0  0
  9  8  2  0  0  0  0
 10  9  1  0  0  0  0
M  END
>  <CHROM.1>
-30.78894387,17.46020998,-15.63075083,-1.83586826,-0.43840270,1.81086057

>  <Name>
lig.pdb

>  <RI>
1.17775e+07

>  <Rbt.Current_Directory>
/home/itssahil/PROJECTS/Mol_Feturizer/New_Systems/rnas/5uza

>  <Rbt.Executable>
rbdock ($Id: //depot/dev/client3/rdock/2013.1/src/exe/rbdock.cxx#4 $)

>  <Rbt.Library>
libRbt.so (2013.1, Build901 2013/11/27)

>  <Rbt.Parameter_File>
/export/apps/rDock/src/rDock_2013.1_src/data/scripts/dock_solv.prm

>  <Rbt.Receptor>
prm/pocket_docking_8.prm

>  <SCORE>
-36.7126

>  <SCORE.INTER>
-36.7126

>  <SCORE.INTER.CONST>
1

>  <SCORE.INTER.POLAR>
-4.33389

>  <SCORE.INTER.ROT>
0

>  <SCORE.INTER.SOLV>
10.7292

>  <SCORE.INTER.VDW>
-17.2052

>  <SCORE.INTER.norm>
-3.67126

>  <SCORE.INTRA>
0

>  <SCORE.INTRA.DIHEDRAL>
0

>  <SCORE.INTRA.DIHEDRAL.0>
0

>  <SCORE.INTRA.POLAR>
0

>  <SCORE.INTRA.POLAR.0>
0

>  <SCORE.INTRA.REPUL>
0

>  <SCORE.INTRA.REPUL.0>
0

>  <SCORE.INTRA.SOLV>
0

>  <SCORE.INTRA.SOLV.lig_0>
-14.8845

>  <SCORE.INTRA.VDW>
0

>  <SCORE.INTRA.VDW.0>
0

>  <SCORE.INTRA.norm>
0

>  <SCORE.RESTR>
0

>  <SCORE.RESTR.CAVITY>
0

>  <SCORE.RESTR.norm>
0

>  <SCORE.SYSTEM>
0

>  <SCORE.SYSTEM.CONST>
0

>  <SCORE.SYSTEM.DIHEDRAL>
0

>  <SCORE.SYSTEM.SOLV>
0

>  <SCORE.SYSTEM.norm>
0

>  <SCORE.heavy>
10

>  <SCORE.norm>
-3.67126

>  <RMSD>
2.525

$$$$
lig.pdb
 OpenBabel11021811523D
libRbt.so/2013.1/901 2013/11/27
 10 11  0  0  0  0  0  0  0  0999 V2000
  -30.7408   17.9582  -17.7472 N   0  0  0  0  0  0  0  0  0  0  0  0
  -31.9737   18.4883  -17.4826 C   0  0  0  0  0  0  0  0  0  0  0  0
  -32.3478   18.3616  -16.2319 N   0  0  0  0  0  0  0  0  0  0  0  0
  -31.2880   17.7015  -15.6332 C   0  0  0  0  0  0  0  0  0  0  0  0
  -31.0631   17.2718  -14.3125 C   0  0  0  0  0  0  0  0  0  0  0  0
  -31.9443   17.4511  -13.3229 N   0  0  0  0  0  0  0  0  0  0  0  0
  -29.8963   16.6443  -14.0475 N   0  0  0  0  0  0  0  0  0  0  0  0
  -29.0206   16.4653  -15.0426 C   0  0  0  0  0  0  0  0  0  0  0  0
  -29.1198   16.8259  -16.3215 N   0  0  0  0  0  0  0  0  0  0  0  0
  -30.2882   17.4454  -16.5528 C   0  0  0  0  0  0  0  0  0  0  0  0
  1 10  1  0  0  0  0
  2  3  2  0  0  0  0
  2  1  1  0  0  0  0
  3  4  1  0  0  0  0
  4 10  2  0  0  0  0
  4  5  1  0  0  0  0
  5  7  2  0  0  0  0
  6  5  1  0  0  0  0
  7  8  1  0  0  0  0
  9  8  2  0  0  0  0
 10  9  1  0  0  0  0
M  END
>  <CHROM.1>
-30.78920014,17.46131998,-15.62826085,-1.83543406,-0.43787446,1.81147570

>  <Name>
lig.pdb

>  <RI>
2.26746e+07

>  <Rbt.Current_Directory>
/home/itssahil/PROJECTS/Mol_Feturizer/New_Systems/rnas/5uza

>  <Rbt.Executable>
rbdock ($Id: //depot/dev/client3/rdock/2013.1/src/exe/rbdock.cxx#4 $)

>  <Rbt.Library>
libRbt.so (2013.1, Build901 2013/11/27)

>  <Rbt.Parameter_File>
/export/apps/rDock/src/rDock_2013.1_src/data/scripts/dock_solv.prm

>  <Rbt.Receptor>
prm/blind_docking_100.prm

>  <SCORE>
-36.7175

>  <SCORE.INTER>
-36.7175

>  <SCORE.INTER.CONST>
1

>  <SCORE.INTER.POLAR>
-4.33886

>  <SCORE.INTER.ROT>
0

>  <SCORE.INTER.SOLV>
10.7303

>  <SCORE.INTER.VDW>
-17.1922

>  <SCORE.INTER.norm>
-3.67175

>  <SCORE.INTRA>
0

>  <SCORE.INTRA.DIHEDRAL>
0

>  <SCORE.INTRA.DIHEDRAL.0>
0

>  <SCORE.INTRA.POLAR>
0

>  <SCORE.INTRA.POLAR.0>
0

>  <SCORE.INTRA.REPUL>
0

>  <SCORE.INTRA.REPUL.0>
0

>  <SCORE.INTRA.SOLV>
0

>  <SCORE.INTRA.SOLV.lig_0>
-14.8845

>  <SCORE.INTRA.VDW>
0

>  <SCORE.INTRA.VDW.0>
0

>  <SCORE.INTRA.norm>
0

>  <SCORE.RESTR>
0

>  <SCORE.RESTR.CAVITY>
0

>  <SCORE.RESTR.norm>
0

>  <SCORE.SYSTEM>
0

>  <SCORE.SYSTEM.CONST>
0

>  <SCORE.SYSTEM.DIHEDRAL>
0

>  <SCORE.SYSTEM.SOLV>
0

>  <SCORE.SYSTEM.norm>
0

>  <SCORE.heavy>
10

>  <SCORE.norm>
-3.67175

>  <RMSD>
2.526

$$$$
lig.pdb
 OpenBabel11021811523D
libRbt.so/2013.1/901 2013/11/27
 10 11  0  0  0  0  0  0  0  0999 V2000
  -30.7367   17.9685  -17.7419 N   0  0  0  0  0  0  0  0  0  0  0  0
  -31.9699   18.4980  -17.4776 C   0  0  0  0  0  0  0  0  0  0  0  0
  -32.3461   18.3672  -16.2279 N   0  0  0  0  0  0  0  0  0  0  0  0
  -31.2875   17.7048  -15.6297 C   0  0  0  0  0  0  0  0  0  0  0  0
  -31.0650   17.2705  -14.3100 C   0  0  0  0  0  0  0  0  0  0  0  0
  -31.9479   17.4467  -13.3214 N   0  0  0  0  0  0  0  0  0  0  0  0
  -29.8988   16.6418  -14.0452 N   0  0  0  0  0  0  0  0  0  0  0  0
  -29.0215   16.4659  -15.0393 C   0  0  0  0  0  0  0  0  0  0  0  0
  -29.1185   16.8309  -16.3172 N   0  0  0  0  0  0  0  0  0  0  0  0
  -30.2862   17.4515  -16.5485 C   0  0  0  0  0  0  0  0  0  0  0  0
  1 10  1  0  0  0  0
  2  3  2  0  0  0  0
  2  1  1  0  0  0  0
  3  4  1  0  0  0  0
  4 10  2  0  0  0  0
  4  5  1  0  0  0  0
  5  7  2  0  0  0  0
  6  5  1  0  0  0  0
  7  8  1  0  0  0  0
  9  8  2  0  0  0  0
 10  9  1  0  0  0  0
M  END
>  <CHROM.1>
-30.78881515,17.46441659,-15.62468856,-1.83352412,-0.43774611,1.81567509

>  <Name>
lig.pdb

>  <RI>
2.26746e+07

>  <Rbt.Current_Directory>
/home/itssahil/PROJECTS/Mol_Feturizer/New_Systems/rnas/5uza

>  <Rbt.Executable>
rbdock ($Id: //depot/dev/client3/rdock/2013.1/src/exe/rbdock.cxx#4 $)

>  <Rbt.Library>
libRbt.so (2013.1, Build901 2013/11/27)

>  <Rbt.Parameter_File>
/export/apps/rDock/src/rDock_2013.1_src/data/scripts/dock_solv.prm

>  <Rbt.Receptor>
prm/blind_docking_100.prm

>  <SCORE>
-36.7205

>  <SCORE.INTER>
-36.7205

>  <SCORE.INTER.CONST>
1

>  <SCORE.INTER.POLAR>
-4.34817

>  <SCORE.INTER.ROT>
0

>  <SCORE.INTER.SOLV>
10.7389

>  <SCORE.INTER.VDW>
-17.1661

>  <SCORE.INTER.norm>
-3.67205

>  <SCORE.INTRA>
0

>  <SCORE.INTRA.DIHEDRAL>
0

>  <SCORE.INTRA.DIHEDRAL.0>
0

>  <SCORE.INTRA.POLAR>
0

>  <SCORE.INTRA.POLAR.0>
0

>  <SCORE.INTRA.REPUL>
0

>  <SCORE.INTRA.REPUL.0>
0

>  <SCORE.INTRA.SOLV>
0

>  <SCORE.INTRA.SOLV.lig_0>
-14.8845

>  <SCORE.INTRA.VDW>
0

>  <SCORE.INTRA.VDW.0>
0

>  <SCORE.INTRA.norm>
0

>  <SCORE.RESTR>
0

>  <SCORE.RESTR.CAVITY>
0

>  <SCORE.RESTR.norm>
0

>  <SCORE.SYSTEM>
0

>  <SCORE.SYSTEM.CONST>
0

>  <SCORE.SYSTEM.DIHEDRAL>
0

>  <SCORE.SYSTEM.SOLV>
0

>  <SCORE.SYSTEM.norm>
0

>  <SCORE.heavy>
10

>  <SCORE.norm>
-3.67205

>  <RMSD>
2.526

$$$$
lig.pdb
 OpenBabel11021811523D
libRbt.so/2013.1/901 2013/11/27
 10 11  0  0  0  0  0  0  0  0999 V2000
  -30.7397   17.9599  -17.7465 N   0  0  0  0  0  0  0  0  0  0  0  0
  -31.9723   18.4907  -17.4819 C   0  0  0  0  0  0  0  0  0  0  0  0
  -32.3470   18.3629  -16.2314 N   0  0  0  0  0  0  0  0  0  0  0  0
  -31.2879   17.7013  -15.6330 C   0  0  0  0  0  0  0  0  0  0  0  0
  -31.0640   17.2700  -14.3126 C   0  0  0  0  0  0  0  0  0  0  0  0
  -31.9455   17.4489  -13.3233 N   0  0  0  0  0  0  0  0  0  0  0  0
  -29.8978   16.6414  -14.0478 N   0  0  0  0  0  0  0  0  0  0  0  0
  -29.0218   16.4627  -15.0427 C   0  0  0  0  0  0  0  0  0  0  0  0
  -29.1202   16.8248  -16.3212 N   0  0  0  0  0  0  0  0  0  0  0  0
  -30.2880   17.4454  -16.5525 C   0  0  0  0  0  0  0  0  0  0  0  0
  1 10  1  0  0  0  0
  2  3  2  0  0  0  0
  2  1  1  0  0  0  0
  3  4  1  0  0  0  0
  4 10  2  0  0  0  0
  4  5  1  0  0  0  0
  5  7  2  0  0  0  0
  6  5  1  0  0  0  0
  7  8  1  0  0  0  0
  9  8  2  0  0  0  0
 10  9  1  0  0  0  0
M  END
>  <CHROM.1>
-30.78937238,17.46074482,-15.62808039,-1.83475091,-0.43853153,1.81285174

>  <Name>
lig.pdb

>  <RI>
2.26746e+07

>  <Rbt.Current_Directory>
/home/itssahil/PROJECTS/Mol_Feturizer/New_Systems/rnas/5uza

>  <Rbt.Executable>
rbdock ($Id: //depot/dev/client3/rdock/2013.1/src/exe/rbdock.cxx#4 $)

>  <Rbt.Library>
libRbt.so (2013.1, Build901 2013/11/27)

>  <Rbt.Parameter_File>
/export/apps/rDock/src/rDock_2013.1_src/data/scripts/dock_solv.prm

>  <Rbt.Receptor>
prm/blind_docking_100.prm

>  <SCORE>
-36.7156

>  <SCORE.INTER>
-36.7156

>  <SCORE.INTER.CONST>
1

>  <SCORE.INTER.POLAR>
-4.34057

>  <SCORE.INTER.ROT>
0

>  <SCORE.INTER.SOLV>
10.733

>  <SCORE.INTER.VDW>
-17.1861

>  <SCORE.INTER.norm>
-3.67156

>  <SCORE.INTRA>
0

>  <SCORE.INTRA.DIHEDRAL>
0

>  <SCORE.INTRA.DIHEDRAL.0>
0

>  <SCORE.INTRA.POLAR>
0

>  <SCORE.INTRA.POLAR.0>
0

>  <SCORE.INTRA.REPUL>
0

>  <SCORE.INTRA.REPUL.0>
0

>  <SCORE.INTRA.SOLV>
0

>  <SCORE.INTRA.SOLV.lig_0>
-14.8845

>  <SCORE.INTRA.VDW>
0

>  <SCORE.INTRA.VDW.0>
0

>  <SCORE.INTRA.norm>
0

>  <SCORE.RESTR>
0

>  <SCORE.RESTR.CAVITY>
0

>  <SCORE.RESTR.norm>
0

>  <SCORE.SYSTEM>
0

>  <SCORE.SYSTEM.CONST>
0

>  <SCORE.SYSTEM.DIHEDRAL>
0

>  <SCORE.SYSTEM.SOLV>
0

>  <SCORE.SYSTEM.norm>
0

>  <SCORE.heavy>
10

>  <SCORE.norm>
-3.67156

>  <RMSD>
2.526

$$$$
lig.pdb
 OpenBabel11021811523D
libRbt.so/2013.1/901 2013/11/27
 10 11  0  0  0  0  0  0  0  0999 V2000
  -30.7407   17.9566  -17.7472 N   0  0  0  0  0  0  0  0  0  0  0  0
  -31.9733   18.4873  -17.4827 C   0  0  0  0  0  0  0  0  0  0  0  0
  -32.3475   18.3610  -16.2320 N   0  0  0  0  0  0  0  0  0  0  0  0
  -31.2880   17.7004  -15.6332 C   0  0  0  0  0  0  0  0  0  0  0  0
  -31.0635   17.2707  -14.3124 C   0  0  0  0  0  0  0  0  0  0  0  0
  -31.9446   17.4506  -13.3229 N   0  0  0  0  0  0  0  0  0  0  0  0
  -29.8970   16.6427  -14.0473 N   0  0  0  0  0  0  0  0  0  0  0  0
  -29.0213   16.4630  -15.0423 C   0  0  0  0  0  0  0  0  0  0  0  0
  -29.1203   16.8236  -16.3212 N   0  0  0  0  0  0  0  0  0  0  0  0
  -30.2884   17.4436  -16.5527 C   0  0  0  0  0  0  0  0  0  0  0  0
  1 10  1  0  0  0  0
  2  3  2  0  0  0  0
  2  1  1  0  0  0  0
  3  4  1  0  0  0  0
  4 10  2  0  0  0  0
  4  5  1  0  0  0  0
  5  7  2  0  0  0  0
  6  5  1  0  0  0  0
  7  8  1  0  0  0  0
  9  8  2  0  0  0  0
 10  9  1  0  0  0  0
M  END
>  <CHROM.1>
-30.78940165,17.45992669,-15.62817814,-1.83524228,-0.43837730,1.81145041

>  <Name>
lig.pdb

>  <RI>
0

>  <Rbt.Current_Directory>
/home/itssahil/PROJECTS/Mol_Feturizer/New_Systems/rnas/5uza

>  <Rbt.Executable>
rbdock ($Id: //depot/dev/client3/rdock/2013.1/src/exe/rbdock.cxx#4 $)

>  <Rbt.Library>
libRbt.so (2013.1, Build901 2013/11/27)

>  <Rbt.Parameter_File>
/export/apps/rDock/src/rDock_2013.1_src/data/scripts/dock_solv.prm

>  <Rbt.Receptor>
prm/blind_docking_60.prm

>  <SCORE>
-36.7157

>  <SCORE.INTER>
-36.7157

>  <SCORE.INTER.CONST>
1

>  <SCORE.INTER.POLAR>
-4.33916

>  <SCORE.INTER.ROT>
0

>  <SCORE.INTER.SOLV>
10.7299

>  <SCORE.INTER.VDW>
-17.1899

>  <SCORE.INTER.norm>
-3.67157

>  <SCORE.INTRA>
0

>  <SCORE.INTRA.DIHEDRAL>
0

>  <SCORE.INTRA.DIHEDRAL.0>
0

>  <SCORE.INTRA.POLAR>
0

>  <SCORE.INTRA.POLAR.0>
0

>  <SCORE.INTRA.REPUL>
0

>  <SCORE.INTRA.REPUL.0>
0

>  <SCORE.INTRA.SOLV>
0

>  <SCORE.INTRA.SOLV.lig_0>
-14.8845

>  <SCORE.INTRA.VDW>
0

>  <SCORE.INTRA.VDW.0>
0

>  <SCORE.INTRA.norm>
0

>  <SCORE.RESTR>
0

>  <SCORE.RESTR.CAVITY>
0

>  <SCORE.RESTR.norm>
0

>  <SCORE.SYSTEM>
0

>  <SCORE.SYSTEM.CONST>
0

>  <SCORE.SYSTEM.DIHEDRAL>
0

>  <SCORE.SYSTEM.SOLV>
0

>  <SCORE.SYSTEM.norm>
0

>  <SCORE.heavy>
10

>  <SCORE.norm>
-3.67157

>  <RMSD>
2.526

$$$$
lig.pdb
 OpenBabel11021811523D
libRbt.so/2013.1/901 2013/11/27
 10 11  0  0  0  0  0  0  0  0999 V2000
  -30.7388   17.9597  -17.7472 N   0  0  0  0  0  0  0  0  0  0  0  0
  -31.9714   18.4904  -17.4827 C   0  0  0  0  0  0  0  0  0  0  0  0
  -32.3462   18.3630  -16.2322 N   0  0  0  0  0  0  0  0  0  0  0  0
  -31.2871   17.7016  -15.6337 C   0  0  0  0  0  0  0  0  0  0  0  0
  -31.0632   17.2706  -14.3131 C   0  0  0  0  0  0  0  0  0  0  0  0
  -31.9447   17.4497  -13.3239 N   0  0  0  0  0  0  0  0  0  0  0  0
  -29.8970   16.6420  -14.0482 N   0  0  0  0  0  0  0  0  0  0  0  0
  -29.0209   16.4632  -15.0430 C   0  0  0  0  0  0  0  0  0  0  0  0
  -29.1193   16.8250  -16.3216 N   0  0  0  0  0  0  0  0  0  0  0  0
  -30.2871   17.4455  -16.5530 C   0  0  0  0  0  0  0  0  0  0  0  0
  1 10  1  0  0  0  0
  2  3  2  0  0  0  0
  2  1  1  0  0  0  0
  3  4  1  0  0  0  0
  4 10  2  0  0  0  0
  4  5  1  0  0  0  0
  5  7  2  0  0  0  0
  6  5  1  0  0  0  0
  7  8  1  0  0  0  0
  9  8  2  0  0  0  0
 10  9  1  0  0  0  0
M  END
>  <CHROM.1>
-30.78853462,17.46102395,-15.62865702,-1.83474334,-0.43847478,1.81262444

>  <Name>
lig.pdb

>  <RI>
0

>  <Rbt.Current_Directory>
/home/itssahil/PROJECTS/Mol_Feturizer/New_Systems/rnas/5uza

>  <Rbt.Executable>
rbdock ($Id: //depot/dev/client3/rdock/2013.1/src/exe/rbdock.cxx#4 $)

>  <Rbt.Library>
libRbt.so (2013.1, Build901 2013/11/27)

>  <Rbt.Parameter_File>
/export/apps/rDock/src/rDock_2013.1_src/data/scripts/dock_solv.prm

>  <Rbt.Receptor>
prm/blind_docking_60.prm

>  <SCORE>
-36.7156

>  <SCORE.INTER>
-36.7156

>  <SCORE.INTER.CONST>
1

>  <SCORE.INTER.POLAR>
-4.33834

>  <SCORE.INTER.ROT>
0

>  <SCORE.INTER.SOLV>
10.7329

>  <SCORE.INTER.VDW>
-17.1935

>  <SCORE.INTER.norm>
-3.67156

>  <SCORE.INTRA>
0

>  <SCORE.INTRA.DIHEDRAL>
0

>  <SCORE.INTRA.DIHEDRAL.0>
0

>  <SCORE.INTRA.POLAR>
0

>  <SCORE.INTRA.POLAR.0>
0

>  <SCORE.INTRA.REPUL>
0

>  <SCORE.INTRA.REPUL.0>
0

>  <SCORE.INTRA.SOLV>
0

>  <SCORE.INTRA.SOLV.lig_0>
-14.8845

>  <SCORE.INTRA.VDW>
0

>  <SCORE.INTRA.VDW.0>
0

>  <SCORE.INTRA.norm>
0

>  <SCORE.RESTR>
0

>  <SCORE.RESTR.CAVITY>
0

>  <SCORE.RESTR.norm>
0

>  <SCORE.SYSTEM>
0

>  <SCORE.SYSTEM.CONST>
0

>  <SCORE.SYSTEM.DIHEDRAL>
0

>  <SCORE.SYSTEM.SOLV>
0

>  <SCORE.SYSTEM.norm>
0

>  <SCORE.heavy>
10

>  <SCORE.norm>
-3.67156

>  <RMSD>
2.526

$$$$
lig.pdb
 OpenBabel11021811523D
libRbt.so/2013.1/901 2013/11/27
 10 11  0  0  0  0  0  0  0  0999 V2000
  -30.7374   17.9567  -17.7480 N   0  0  0  0  0  0  0  0  0  0  0  0
  -31.9700   18.4882  -17.4848 C   0  0  0  0  0  0  0  0  0  0  0  0
  -32.3449   18.3631  -16.2341 N   0  0  0  0  0  0  0  0  0  0  0  0
  -31.2861   17.7026  -15.6342 C   0  0  0  0  0  0  0  0  0  0  0  0
  -31.0625   17.2739  -14.3128 C   0  0  0  0  0  0  0  0  0  0  0  0
  -31.9442   17.4550  -13.3241 N   0  0  0  0  0  0  0  0  0  0  0  0
  -29.8964   16.6457  -14.0465 N   0  0  0  0  0  0  0  0  0  0  0  0
  -29.0202   16.4649  -15.0408 C   0  0  0  0  0  0  0  0  0  0  0  0
  -29.1183   16.8244  -16.3201 N   0  0  0  0  0  0  0  0  0  0  0  0
  -30.2860   17.4447  -16.5529 C   0  0  0  0  0  0  0  0  0  0  0  0
  1 10  1  0  0  0  0
  2  3  2  0  0  0  0
  2  1  1  0  0  0  0
  3  4  1  0  0  0  0
  4 10  2  0  0  0  0
  4  5  1  0  0  0  0
  5  7  2  0  0  0  0
  6  5  1  0  0  0  0
  7  8  1  0  0  0  0
  9  8  2  0  0  0  0
 10  9  1  0  0  0  0
M  END
>  <CHROM.1>
-30.78758157,17.46195962,-15.62862486,-1.83450073,-0.43859136,1.81090064

>  <Name>
lig.pdb

>  <RI>
0

>  <Rbt.Current_Directory>
/home/itssahil/PROJECTS/Mol_Feturizer/New_Systems/rnas/5uza

>  <Rbt.Executable>
rbdock ($Id: //depot/dev/client3/rdock/2013.1/src/exe/rbdock.cxx#4 $)

>  <Rbt.Library>
libRbt.so (2013.1, Build901 2013/11/27)

>  <Rbt.Parameter_File>
/export/apps/rDock/src/rDock_2013.1_src/data/scripts/dock_solv.prm

>  <Rbt.Receptor>
prm/blind_docking_60.prm

>  <SCORE>
-36.7076

>  <SCORE.INTER>
-36.7076

>  <SCORE.INTER.CONST>
1

>  <SCORE.INTER.POLAR>
-4.33122

>  <SCORE.INTER.ROT>
0

>  <SCORE.INTER.SOLV>
10.7296

>  <SCORE.INTER.VDW>
-17.2108

>  <SCORE.INTER.norm>
-3.67076

>  <SCORE.INTRA>
0

>  <SCORE.INTRA.DIHEDRAL>
0

>  <SCORE.INTRA.DIHEDRAL.0>
0

>  <SCORE.INTRA.POLAR>
0

>  <SCORE.INTRA.POLAR.0>
0

>  <SCORE.INTRA.REPUL>
0

>  <SCORE.INTRA.REPUL.0>
0

>  <SCORE.INTRA.SOLV>
0

>  <SCORE.INTRA.SOLV.lig_0>
-14.8845

>  <SCORE.INTRA.VDW>
0

>  <SCORE.INTRA.VDW.0>
0

>  <SCORE.INTRA.norm>
0

>  <SCORE.RESTR>
0

>  <SCORE.RESTR.CAVITY>
0

>  <SCORE.RESTR.norm>
0

>  <SCORE.SYSTEM>
0

>  <SCORE.SYSTEM.CONST>
0

>  <SCORE.SYSTEM.DIHEDRAL>
0

>  <SCORE.SYSTEM.SOLV>
0

>  <SCORE.SYSTEM.norm>
0

>  <SCORE.heavy>
10

>  <SCORE.norm>
-3.67076

>  <RMSD>
2.526

$$$$
lig.pdb
 OpenBabel11021811523D
libRbt.so/2013.1/901 2013/11/27
 10 11  0  0  0  0  0  0  0  0999 V2000
  -30.7301   17.9568  -17.7427 N   0  0  0  0  0  0  0  0  0  0  0  0
  -31.9639   18.4877  -17.4841 C   0  0  0  0  0  0  0  0  0  0  0  0
  -32.3440   18.3612  -16.2351 N   0  0  0  0  0  0  0  0  0  0  0  0
  -31.2876   17.7002  -15.6315 C   0  0  0  0  0  0  0  0  0  0  0  0
  -31.0695   17.2702  -14.3096 C   0  0  0  0  0  0  0  0  0  0  0  0
  -31.9554   17.4500  -13.3244 N   0  0  0  0  0  0  0  0  0  0  0  0
  -29.9044   16.6419  -14.0391 N   0  0  0  0  0  0  0  0  0  0  0  0
  -29.0240   16.4623  -15.0299 C   0  0  0  0  0  0  0  0  0  0  0  0
  -29.1168   16.8232  -16.3093 N   0  0  0  0  0  0  0  0  0  0  0  0
  -30.2836   17.4435  -16.5462 C   0  0  0  0  0  0  0  0  0  0  0  0
  1 10  1  0  0  0  0
  2  3  2  0  0  0  0
  2  1  1  0  0  0  0
  3  4  1  0  0  0  0
  4 10  2  0  0  0  0
  4  5  1  0  0  0  0
  5  7  2  0  0  0  0
  6  5  1  0  0  0  0
  7  8  1  0  0  0  0
  9  8  2  0  0  0  0
 10  9  1  0  0  0  0
M  END
>  <CHROM.1>
-30.78907192,17.45967666,-15.62409140,-1.83005474,-0.43741356,1.81386798

>  <Name>
lig.pdb

>  <RI>
0

>  <Rbt.Current_Directory>
/home/itssahil/PROJECTS/Mol_Feturizer/New_Systems/rnas/5uza

>  <Rbt.Executable>
rbdock ($Id: //depot/dev/client3/rdock/2013.1/src/exe/rbdock.cxx#4 $)

>  <Rbt.Library>
libRbt.so (2013.1, Build901 2013/11/27)

>  <Rbt.Parameter_File>
/export/apps/rDock/src/rDock_2013.1_src/data/scripts/dock_solv.prm

>  <Rbt.Receptor>
prm/blind_docking_80.prm

>  <SCORE>
-36.6951

>  <SCORE.INTER>
-36.6951

>  <SCORE.INTER.CONST>
1

>  <SCORE.INTER.POLAR>
-4.32704

>  <SCORE.INTER.ROT>
0

>  <SCORE.INTER.SOLV>
10.7387

>  <SCORE.INTER.VDW>
-17.2195

>  <SCORE.INTER.norm>
-3.66951

>  <SCORE.INTRA>
0

>  <SCORE.INTRA.DIHEDRAL>
0

>  <SCORE.INTRA.DIHEDRAL.0>
0

>  <SCORE.INTRA.POLAR>
0

>  <SCORE.INTRA.POLAR.0>
0

>  <SCORE.INTRA.REPUL>
0

>  <SCORE.INTRA.REPUL.0>
0

>  <SCORE.INTRA.SOLV>
0

>  <SCORE.INTRA.SOLV.lig_0>
-14.8845

>  <SCORE.INTRA.VDW>
0

>  <SCORE.INTRA.VDW.0>
0

>  <SCORE.INTRA.norm>
0

>  <SCORE.RESTR>
0

>  <SCORE.RESTR.CAVITY>
0

>  <SCORE.RESTR.norm>
0

>  <SCORE.SYSTEM>
0

>  <SCORE.SYSTEM.CONST>
0

>  <SCORE.SYSTEM.DIHEDRAL>
0

>  <SCORE.SYSTEM.SOLV>
0

>  <SCORE.SYSTEM.norm>
0

>  <SCORE.heavy>
10

>  <SCORE.norm>
-3.66951

>  <RMSD>
2.526

$$$$
lig.pdb
 OpenBabel11021811523D
libRbt.so/2013.1/901 2013/11/27
 10 11  0  0  0  0  0  0  0  0999 V2000
  -30.7422   17.9520  -17.7501 N   0  0  0  0  0  0  0  0  0  0  0  0
  -31.9746   18.4832  -17.4854 C   0  0  0  0  0  0  0  0  0  0  0  0
  -32.3479   18.3583  -16.2342 N   0  0  0  0  0  0  0  0  0  0  0  0
  -31.2881   17.6984  -15.6354 C   0  0  0  0  0  0  0  0  0  0  0  0
  -31.0626   17.2702  -14.3142 C   0  0  0  0  0  0  0  0  0  0  0  0
  -31.9431   17.4513  -13.3244 N   0  0  0  0  0  0  0  0  0  0  0  0
  -29.8960   16.6424  -14.0492 N   0  0  0  0  0  0  0  0  0  0  0  0
  -29.0210   16.4616  -15.0447 C   0  0  0  0  0  0  0  0  0  0  0  0
  -29.1209   16.8206  -16.3240 N   0  0  0  0  0  0  0  0  0  0  0  0
  -30.2890   17.4405  -16.5554 C   0  0  0  0  0  0  0  0  0  0  0  0
  1 10  1  0  0  0  0
  2  3  2  0  0  0  0
  2  1  1  0  0  0  0
  3  4  1  0  0  0  0
  4 10  2  0  0  0  0
  4  5  1  0  0  0  0
  5  7  2  0  0  0  0
  6  5  1  0  0  0  0
  7  8  1  0  0  0  0
  9  8  2  0  0  0  0
 10  9  1  0  0  0  0
M  END
>  <CHROM.1>
-30.78943879,17.45788074,-15.63047188,-1.83598742,-0.43860594,1.80996358

>  <Name>
lig.pdb

>  <RI>
0

>  <Rbt.Current_Directory>
/home/itssahil/PROJECTS/Mol_Feturizer/New_Systems/rnas/5uza

>  <Rbt.Executable>
rbdock ($Id: //depot/dev/client3/rdock/2013.1/src/exe/rbdock.cxx#4 $)

>  <Rbt.Library>
libRbt.so (2013.1, Build901 2013/11/27)

>  <Rbt.Parameter_File>
/export/apps/rDock/src/rDock_2013.1_src/data/scripts/dock_solv.prm

>  <Rbt.Receptor>
prm/blind_docking_80.prm

>  <SCORE>
-36.7126

>  <SCORE.INTER>
-36.7126

>  <SCORE.INTER.CONST>
1

>  <SCORE.INTER.POLAR>
-4.33452

>  <SCORE.INTER.ROT>
0

>  <SCORE.INTER.SOLV>
10.727

>  <SCORE.INTER.VDW>
-17.2023

>  <SCORE.INTER.norm>
-3.67126

>  <SCORE.INTRA>
0

>  <SCORE.INTRA.DIHEDRAL>
0

>  <SCORE.INTRA.DIHEDRAL.0>
0

>  <SCORE.INTRA.POLAR>
0

>  <SCORE.INTRA.POLAR.0>
0

>  <SCORE.INTRA.REPUL>
0

>  <SCORE.INTRA.REPUL.0>
0

>  <SCORE.INTRA.SOLV>
0

>  <SCORE.INTRA.SOLV.lig_0>
-14.8845

>  <SCORE.INTRA.VDW>
0

>  <SCORE.INTRA.VDW.0>
0

>  <SCORE.INTRA.norm>
0

>  <SCORE.RESTR>
0

>  <SCORE.RESTR.CAVITY>
0

>  <SCORE.RESTR.norm>
0

>  <SCORE.SYSTEM>
0

>  <SCORE.SYSTEM.CONST>
0

>  <SCORE.SYSTEM.DIHEDRAL>
0

>  <SCORE.SYSTEM.SOLV>
0

>  <SCORE.SYSTEM.norm>
0

>  <SCORE.heavy>
10

>  <SCORE.norm>
-3.67126

>  <RMSD>
2.526

$$$$
lig.pdb
 OpenBabel11021811523D
libRbt.so/2013.1/901 2013/11/27
 10 11  0  0  0  0  0  0  0  0999 V2000
  -30.7384   17.9667  -17.7437 N   0  0  0  0  0  0  0  0  0  0  0  0
  -31.9715   18.4963  -17.4790 C   0  0  0  0  0  0  0  0  0  0  0  0
  -32.3470   18.3663  -16.2290 N   0  0  0  0  0  0  0  0  0  0  0  0
  -31.2880   17.7043  -15.6310 C   0  0  0  0  0  0  0  0  0  0  0  0
  -31.0647   17.2709  -14.3111 C   0  0  0  0  0  0  0  0  0  0  0  0
  -31.9469   17.4477  -13.3221 N   0  0  0  0  0  0  0  0  0  0  0  0
  -29.8983   16.6425  -14.0466 N   0  0  0  0  0  0  0  0  0  0  0  0
  -29.0214   16.4660  -15.0412 C   0  0  0  0  0  0  0  0  0  0  0  0
  -29.1192   16.8302  -16.3192 N   0  0  0  0  0  0  0  0  0  0  0  0
  -30.2872   17.4505  -16.5502 C   0  0  0  0  0  0  0  0  0  0  0  0
  1 10  1  0  0  0  0
  2  3  2  0  0  0  0
  2  1  1  0  0  0  0
  3  4  1  0  0  0  0
  4 10  2  0  0  0  0
  4  5  1  0  0  0  0
  5  7  2  0  0  0  0
  6  5  1  0  0  0  0
  7  8  1  0  0  0  0
  9  8  2  0  0  0  0
 10  9  1  0  0  0  0
M  END
>  <CHROM.1>
-30.78924782,17.46401073,-15.62611626,-1.83419085,-0.43780071,1.81475936

>  <Name>
lig.pdb

>  <RI>
0

>  <Rbt.Current_Directory>
/home/itssahil/PROJECTS/Mol_Feturizer/New_Systems/rnas/5uza

>  <Rbt.Executable>
rbdock ($Id: //depot/dev/client3/rdock/2013.1/src/exe/rbdock.cxx#4 $)

>  <Rbt.Library>
libRbt.so (2013.1, Build901 2013/11/27)

>  <Rbt.Parameter_File>
/export/apps/rDock/src/rDock_2013.1_src/data/scripts/dock_solv.prm

>  <Rbt.Receptor>
prm/pocket_docking_3.prm

>  <SCORE>
-36.7196

>  <SCORE.INTER>
-36.7196

>  <SCORE.INTER.CONST>
1

>  <SCORE.INTER.POLAR>
-4.34559

>  <SCORE.INTER.ROT>
0

>  <SCORE.INTER.SOLV>
10.737

>  <SCORE.INTER.VDW>
-17.1734

>  <SCORE.INTER.norm>
-3.67196

>  <SCORE.INTRA>
0

>  <SCORE.INTRA.DIHEDRAL>
0

>  <SCORE.INTRA.DIHEDRAL.0>
0

>  <SCORE.INTRA.POLAR>
0

>  <SCORE.INTRA.POLAR.0>
0

>  <SCORE.INTRA.REPUL>
0

>  <SCORE.INTRA.REPUL.0>
0

>  <SCORE.INTRA.SOLV>
0

>  <SCORE.INTRA.SOLV.lig_0>
-14.8845

>  <SCORE.INTRA.VDW>
0

>  <SCORE.INTRA.VDW.0>
0

>  <SCORE.INTRA.norm>
0

>  <SCORE.RESTR>
0

>  <SCORE.RESTR.CAVITY>
0

>  <SCORE.RESTR.norm>
0

>  <SCORE.SYSTEM>
0

>  <SCORE.SYSTEM.CONST>
0

>  <SCORE.SYSTEM.DIHEDRAL>
0

>  <SCORE.SYSTEM.SOLV>
0

>  <SCORE.SYSTEM.norm>
0

>  <SCORE.heavy>
10

>  <SCORE.norm>
-3.67196

>  <RMSD>
2.526

$$$$
lig.pdb
 OpenBabel11021811523D
libRbt.so/2013.1/901 2013/11/27
 10 11  0  0  0  0  0  0  0  0999 V2000
  -30.7407   17.9575  -17.7486 N   0  0  0  0  0  0  0  0  0  0  0  0
  -31.9733   18.4883  -17.4839 C   0  0  0  0  0  0  0  0  0  0  0  0
  -32.3474   18.3617  -16.2331 N   0  0  0  0  0  0  0  0  0  0  0  0
  -31.2879   17.7009  -15.6346 C   0  0  0  0  0  0  0  0  0  0  0  0
  -31.0633   17.2709  -14.3139 C   0  0  0  0  0  0  0  0  0  0  0  0
  -31.9444   17.4506  -13.3243 N   0  0  0  0  0  0  0  0  0  0  0  0
  -29.8968   16.6428  -14.0490 N   0  0  0  0  0  0  0  0  0  0  0  0
  -29.0212   16.4634  -15.0441 C   0  0  0  0  0  0  0  0  0  0  0  0
  -29.1203   16.8242  -16.3230 N   0  0  0  0  0  0  0  0  0  0  0  0
  -30.2883   17.4444  -16.5542 C   0  0  0  0  0  0  0  0  0  0  0  0
  1 10  1  0  0  0  0
  2  3  2  0  0  0  0
  2  1  1  0  0  0  0
  3  4  1  0  0  0  0
  4 10  2  0  0  0  0
  4  5  1  0  0  0  0
  5  7  2  0  0  0  0
  6  5  1  0  0  0  0
  7  8  1  0  0  0  0
  9  8  2  0  0  0  0
 10  9  1  0  0  0  0
M  END
>  <CHROM.1>
-30.78930045,17.46046097,-15.62964754,-1.83532093,-0.43842215,1.81162979

>  <Name>
lig.pdb

>  <RI>
0

>  <Rbt.Current_Directory>
/home/itssahil/PROJECTS/Mol_Feturizer/New_Systems/rnas/5uza

>  <Rbt.Executable>
rbdock ($Id: //depot/dev/client3/rdock/2013.1/src/exe/rbdock.cxx#4 $)

>  <Rbt.Library>
libRbt.so (2013.1, Build901 2013/11/27)

>  <Rbt.Parameter_File>
/export/apps/rDock/src/rDock_2013.1_src/data/scripts/dock_solv.prm

>  <Rbt.Receptor>
prm/pocket_docking_3.prm

>  <SCORE>
-36.7131

>  <SCORE.INTER>
-36.7131

>  <SCORE.INTER.CONST>
1

>  <SCORE.INTER.POLAR>
-4.33616

>  <SCORE.INTER.ROT>
0

>  <SCORE.INTER.SOLV>
10.7307

>  <SCORE.INTER.VDW>
-17.1985

>  <SCORE.INTER.norm>
-3.67131

>  <SCORE.INTRA>
0

>  <SCORE.INTRA.DIHEDRAL>
0

>  <SCORE.INTRA.DIHEDRAL.0>
0

>  <SCORE.INTRA.POLAR>
0

>  <SCORE.INTRA.POLAR.0>
0

>  <SCORE.INTRA.REPUL>
0

>  <SCORE.INTRA.REPUL.0>
0

>  <SCORE.INTRA.SOLV>
0

>  <SCORE.INTRA.SOLV.lig_0>
-14.8845

>  <SCORE.INTRA.VDW>
0

>  <SCORE.INTRA.VDW.0>
0

>  <SCORE.INTRA.norm>
0

>  <SCORE.RESTR>
0

>  <SCORE.RESTR.CAVITY>
0

>  <SCORE.RESTR.norm>
0

>  <SCORE.SYSTEM>
0

>  <SCORE.SYSTEM.CONST>
0

>  <SCORE.SYSTEM.DIHEDRAL>
0

>  <SCORE.SYSTEM.SOLV>
0

>  <SCORE.SYSTEM.norm>
0

>  <SCORE.heavy>
10

>  <SCORE.norm>
-3.67131

>  <RMSD>
2.526

$$$$
lig.pdb
 OpenBabel11021811523D
libRbt.so/2013.1/901 2013/11/27
 10 11  0  0  0  0  0  0  0  0999 V2000
  -30.7372   17.9613  -17.7437 N   0  0  0  0  0  0  0  0  0  0  0  0
  -31.9701   18.4917  -17.4802 C   0  0  0  0  0  0  0  0  0  0  0  0
  -32.3461   18.3636  -16.2301 N   0  0  0  0  0  0  0  0  0  0  0  0
  -31.2875   17.7022  -15.6308 C   0  0  0  0  0  0  0  0  0  0  0  0
  -31.0648   17.2706  -14.3103 C   0  0  0  0  0  0  0  0  0  0  0  0
  -31.9473   17.4492  -13.3218 N   0  0  0  0  0  0  0  0  0  0  0  0
  -29.8986   16.6422  -14.0444 N   0  0  0  0  0  0  0  0  0  0  0  0
  -29.0216   16.4640  -15.0385 C   0  0  0  0  0  0  0  0  0  0  0  0
  -29.1188   16.8263  -16.3170 N   0  0  0  0  0  0  0  0  0  0  0  0
  -30.2865   17.4467  -16.5493 C   0  0  0  0  0  0  0  0  0  0  0  0
  1 10  1  0  0  0  0
  2  3  2  0  0  0  0
  2  1  1  0  0  0  0
  3  4  1  0  0  0  0
  4 10  2  0  0  0  0
  4  5  1  0  0  0  0
  5  7  2  0  0  0  0
  6  5  1  0  0  0  0
  7  8  1  0  0  0  0
  9  8  2  0  0  0  0
 10  9  1  0  0  0  0
M  END
>  <CHROM.1>
-30.78884120,17.46171049,-15.62542837,-1.83375127,-0.43805149,1.81346873

>  <Name>
lig.pdb

>  <RI>
0

>  <Rbt.Current_Directory>
/home/itssahil/PROJECTS/Mol_Feturizer/New_Systems/rnas/5uza

>  <Rbt.Executable>
rbdock ($Id: //depot/dev/client3/rdock/2013.1/src/exe/rbdock.cxx#4 $)

>  <Rbt.Library>
libRbt.so (2013.1, Build901 2013/11/27)

>  <Rbt.Parameter_File>
/export/apps/rDock/src/rDock_2013.1_src/data/scripts/dock_solv.prm

>  <Rbt.Receptor>
prm/pocket_docking_3.prm

>  <SCORE>
-36.7153

>  <SCORE.INTER>
-36.7153

>  <SCORE.INTER.CONST>
1

>  <SCORE.INTER.POLAR>
-4.34291

>  <SCORE.INTER.ROT>
0

>  <SCORE.INTER.SOLV>
10.7344

>  <SCORE.INTER.VDW>
-17.1787

>  <SCORE.INTER.norm>
-3.67153

>  <SCORE.INTRA>
0

>  <SCORE.INTRA.DIHEDRAL>
0

>  <SCORE.INTRA.DIHEDRAL.0>
0

>  <SCORE.INTRA.POLAR>
0

>  <SCORE.INTRA.POLAR.0>
0

>  <SCORE.INTRA.REPUL>
0

>  <SCORE.INTRA.REPUL.0>
0

>  <SCORE.INTRA.SOLV>
0

>  <SCORE.INTRA.SOLV.lig_0>
-14.8845

>  <SCORE.INTRA.VDW>
0

>  <SCORE.INTRA.VDW.0>
0

>  <SCORE.INTRA.norm>
0

>  <SCORE.RESTR>
0

>  <SCORE.RESTR.CAVITY>
0

>  <SCORE.RESTR.norm>
0

>  <SCORE.SYSTEM>
0

>  <SCORE.SYSTEM.CONST>
0

>  <SCORE.SYSTEM.DIHEDRAL>
0

>  <SCORE.SYSTEM.SOLV>
0

>  <SCORE.SYSTEM.norm>
0

>  <SCORE.heavy>
10

>  <SCORE.norm>
-3.67153

>  <RMSD>
2.526

$$$$
lig.pdb
 OpenBabel11021811523D
libRbt.so/2013.1/901 2013/11/27
 10 11  0  0  0  0  0  0  0  0999 V2000
  -30.7401   17.9585  -17.7457 N   0  0  0  0  0  0  0  0  0  0  0  0
  -31.9725   18.4898  -17.4814 C   0  0  0  0  0  0  0  0  0  0  0  0
  -32.3475   18.3625  -16.2310 N   0  0  0  0  0  0  0  0  0  0  0  0
  -31.2888   17.7007  -15.6323 C   0  0  0  0  0  0  0  0  0  0  0  0
  -31.0652   17.2696  -14.3117 C   0  0  0  0  0  0  0  0  0  0  0  0
  -31.9468   17.4491  -13.3226 N   0  0  0  0  0  0  0  0  0  0  0  0
  -29.8993   16.6406  -14.0466 N   0  0  0  0  0  0  0  0  0  0  0  0
  -29.0232   16.4614  -15.0413 C   0  0  0  0  0  0  0  0  0  0  0  0
  -29.1213   16.8232  -16.3200 N   0  0  0  0  0  0  0  0  0  0  0  0
  -30.2888   17.4442  -16.5515 C   0  0  0  0  0  0  0  0  0  0  0  0
  1 10  1  0  0  0  0
  2  3  2  0  0  0  0
  2  1  1  0  0  0  0
  3  4  1  0  0  0  0
  4 10  2  0  0  0  0
  4  5  1  0  0  0  0
  5  7  2  0  0  0  0
  6  5  1  0  0  0  0
  7  8  1  0  0  0  0
  9  8  2  0  0  0  0
 10  9  1  0  0  0  0
M  END
>  <CHROM.1>
-30.79031163,17.45990827,-15.62721925,-1.83450023,-0.43885798,1.81272309

>  <Name>
lig.pdb

>  <RI>
0

>  <Rbt.Current_Directory>
/home/itssahil/PROJECTS/Mol_Feturizer/New_Systems/rnas/5uza

>  <Rbt.Executable>
rbdock ($Id: //depot/dev/client3/rdock/2013.1/src/exe/rbdock.cxx#4 $)

>  <Rbt.Library>
libRbt.so (2013.1, Build901 2013/11/27)

>  <Rbt.Parameter_File>
/export/apps/rDock/src/rDock_2013.1_src/data/scripts/dock_solv.prm

>  <Rbt.Receptor>
prm/pocket_docking_3.prm

>  <SCORE>
-36.7127

>  <SCORE.INTER>
-36.7127

>  <SCORE.INTER.CONST>
1

>  <SCORE.INTER.POLAR>
-4.34166

>  <SCORE.INTER.ROT>
0

>  <SCORE.INTER.SOLV>
10.7322

>  <SCORE.INTER.VDW>
-17.1803

>  <SCORE.INTER.norm>
-3.67127

>  <SCORE.INTRA>
0

>  <SCORE.INTRA.DIHEDRAL>
0

>  <SCORE.INTRA.DIHEDRAL.0>
0

>  <SCORE.INTRA.POLAR>
0

>  <SCORE.INTRA.POLAR.0>
0

>  <SCORE.INTRA.REPUL>
0

>  <SCORE.INTRA.REPUL.0>
0

>  <SCORE.INTRA.SOLV>
0

>  <SCORE.INTRA.SOLV.lig_0>
-14.8845

>  <SCORE.INTRA.VDW>
0

>  <SCORE.INTRA.VDW.0>
0

>  <SCORE.INTRA.norm>
0

>  <SCORE.RESTR>
0

>  <SCORE.RESTR.CAVITY>
0

>  <SCORE.RESTR.norm>
0

>  <SCORE.SYSTEM>
0

>  <SCORE.SYSTEM.CONST>
0

>  <SCORE.SYSTEM.DIHEDRAL>
0

>  <SCORE.SYSTEM.SOLV>
0

>  <SCORE.SYSTEM.norm>
0

>  <SCORE.heavy>
10

>  <SCORE.norm>
-3.67127

>  <RMSD>
2.526

$$$$
lig.pdb
 OpenBabel11021811523D
libRbt.so/2013.1/901 2013/11/27
 10 11  0  0  0  0  0  0  0  0999 V2000
  -30.7374   17.9687  -17.7423 N   0  0  0  0  0  0  0  0  0  0  0  0
  -31.9707   18.4977  -17.4778 C   0  0  0  0  0  0  0  0  0  0  0  0
  -32.3468   18.3667  -16.2281 N   0  0  0  0  0  0  0  0  0  0  0  0
  -31.2879   17.7045  -15.6301 C   0  0  0  0  0  0  0  0  0  0  0  0
  -31.0652   17.2702  -14.3105 C   0  0  0  0  0  0  0  0  0  0  0  0
  -31.9480   17.4460  -13.3218 N   0  0  0  0  0  0  0  0  0  0  0  0
  -29.8987   16.6419  -14.0458 N   0  0  0  0  0  0  0  0  0  0  0  0
  -29.0214   16.4664  -15.0401 C   0  0  0  0  0  0  0  0  0  0  0  0
  -29.1186   16.8315  -16.3179 N   0  0  0  0  0  0  0  0  0  0  0  0
  -30.2866   17.4517  -16.5490 C   0  0  0  0  0  0  0  0  0  0  0  0
  1 10  1  0  0  0  0
  2  3  2  0  0  0  0
  2  1  1  0  0  0  0
  3  4  1  0  0  0  0
  4 10  2  0  0  0  0
  4  5  1  0  0  0  0
  5  7  2  0  0  0  0
  6  5  1  0  0  0  0
  7  8  1  0  0  0  0
  9  8  2  0  0  0  0
 10  9  1  0  0  0  0
M  END
>  <CHROM.1>
-30.78912791,17.46434202,-15.62517494,-1.83371953,-0.43741394,1.81571092

>  <Name>
lig.pdb

>  <RI>
9.24451e+06

>  <Rbt.Current_Directory>
/home/itssahil/PROJECTS/Mol_Feturizer/New_Systems/rnas/5uza

>  <Rbt.Executable>
rbdock ($Id: //depot/dev/client3/rdock/2013.1/src/exe/rbdock.cxx#4 $)

>  <Rbt.Library>
libRbt.so (2013.1, Build901 2013/11/27)

>  <Rbt.Parameter_File>
/export/apps/rDock/src/rDock_2013.1_src/data/scripts/dock_solv.prm

>  <Rbt.Receptor>
prm/pocket_docking_4.prm

>  <SCORE>
-36.7187

>  <SCORE.INTER>
-36.7187

>  <SCORE.INTER.CONST>
1

>  <SCORE.INTER.POLAR>
-4.34761

>  <SCORE.INTER.ROT>
0

>  <SCORE.INTER.SOLV>
10.7392

>  <SCORE.INTER.VDW>
-17.1669

>  <SCORE.INTER.norm>
-3.67187

>  <SCORE.INTRA>
0

>  <SCORE.INTRA.DIHEDRAL>
0

>  <SCORE.INTRA.DIHEDRAL.0>
0

>  <SCORE.INTRA.POLAR>
0

>  <SCORE.INTRA.POLAR.0>
0

>  <SCORE.INTRA.REPUL>
0

>  <SCORE.INTRA.REPUL.0>
0

>  <SCORE.INTRA.SOLV>
0

>  <SCORE.INTRA.SOLV.lig_0>
-14.8845

>  <SCORE.INTRA.VDW>
0

>  <SCORE.INTRA.VDW.0>
0

>  <SCORE.INTRA.norm>
0

>  <SCORE.RESTR>
0

>  <SCORE.RESTR.CAVITY>
0

>  <SCORE.RESTR.norm>
0

>  <SCORE.SYSTEM>
0

>  <SCORE.SYSTEM.CONST>
0

>  <SCORE.SYSTEM.DIHEDRAL>
0

>  <SCORE.SYSTEM.SOLV>
0

>  <SCORE.SYSTEM.norm>
0

>  <SCORE.heavy>
10

>  <SCORE.norm>
-3.67187

>  <RMSD>
2.526

$$$$
lig.pdb
 OpenBabel11021811523D
libRbt.so/2013.1/901 2013/11/27
 10 11  0  0  0  0  0  0  0  0999 V2000
  -30.7392   17.9617  -17.7461 N   0  0  0  0  0  0  0  0  0  0  0  0
  -31.9722   18.4914  -17.4815 C   0  0  0  0  0  0  0  0  0  0  0  0
  -32.3470   18.3632  -16.2311 N   0  0  0  0  0  0  0  0  0  0  0  0
  -31.2875   17.7024  -15.6327 C   0  0  0  0  0  0  0  0  0  0  0  0
  -31.0634   17.2710  -14.3123 C   0  0  0  0  0  0  0  0  0  0  0  0
  -31.9452   17.4491  -13.3231 N   0  0  0  0  0  0  0  0  0  0  0  0
  -29.8968   16.6432  -14.0475 N   0  0  0  0  0  0  0  0  0  0  0  0
  -29.0205   16.4654  -15.0423 C   0  0  0  0  0  0  0  0  0  0  0  0
  -29.1190   16.8276  -16.3208 N   0  0  0  0  0  0  0  0  0  0  0  0
  -30.2872   17.4474  -16.5521 C   0  0  0  0  0  0  0  0  0  0  0  0
  1 10  1  0  0  0  0
  2  3  2  0  0  0  0
  2  1  1  0  0  0  0
  3  4  1  0  0  0  0
  4 10  2  0  0  0  0
  4  5  1  0  0  0  0
  5  7  2  0  0  0  0
  6  5  1  0  0  0  0
  7  8  1  0  0  0  0
  9  8  2  0  0  0  0
 10  9  1  0  0  0  0
M  END
>  <CHROM.1>
-30.78877873,17.46216557,-15.62774570,-1.83482118,-0.43774385,1.81296976

>  <Name>
lig.pdb

>  <RI>
9.24451e+06

>  <Rbt.Current_Directory>
/home/itssahil/PROJECTS/Mol_Feturizer/New_Systems/rnas/5uza

>  <Rbt.Executable>
rbdock ($Id: //depot/dev/client3/rdock/2013.1/src/exe/rbdock.cxx#4 $)

>  <Rbt.Library>
libRbt.so (2013.1, Build901 2013/11/27)

>  <Rbt.Parameter_File>
/export/apps/rDock/src/rDock_2013.1_src/data/scripts/dock_solv.prm

>  <Rbt.Receptor>
prm/pocket_docking_4.prm

>  <SCORE>
-36.7184

>  <SCORE.INTER>
-36.7184

>  <SCORE.INTER.CONST>
1

>  <SCORE.INTER.POLAR>
-4.34081

>  <SCORE.INTER.ROT>
0

>  <SCORE.INTER.SOLV>
10.7337

>  <SCORE.INTER.VDW>
-17.1875

>  <SCORE.INTER.norm>
-3.67184

>  <SCORE.INTRA>
0

>  <SCORE.INTRA.DIHEDRAL>
0

>  <SCORE.INTRA.DIHEDRAL.0>
0

>  <SCORE.INTRA.POLAR>
0

>  <SCORE.INTRA.POLAR.0>
0

>  <SCORE.INTRA.REPUL>
0

>  <SCORE.INTRA.REPUL.0>
0

>  <SCORE.INTRA.SOLV>
0

>  <SCORE.INTRA.SOLV.lig_0>
-14.8845

>  <SCORE.INTRA.VDW>
0

>  <SCORE.INTRA.VDW.0>
0

>  <SCORE.INTRA.norm>
0

>  <SCORE.RESTR>
0

>  <SCORE.RESTR.CAVITY>
0

>  <SCORE.RESTR.norm>
0

>  <SCORE.SYSTEM>
0

>  <SCORE.SYSTEM.CONST>
0

>  <SCORE.SYSTEM.DIHEDRAL>
0

>  <SCORE.SYSTEM.SOLV>
0

>  <SCORE.SYSTEM.norm>
0

>  <SCORE.heavy>
10

>  <SCORE.norm>
-3.67184

>  <RMSD>
2.526

$$$$
lig.pdb
 OpenBabel11021811523D
libRbt.so/2013.1/901 2013/11/27
 10 11  0  0  0  0  0  0  0  0999 V2000
  -30.7379   17.9671  -17.7437 N   0  0  0  0  0  0  0  0  0  0  0  0
  -31.9710   18.4966  -17.4789 C   0  0  0  0  0  0  0  0  0  0  0  0
  -32.3464   18.3664  -16.2289 N   0  0  0  0  0  0  0  0  0  0  0  0
  -31.2874   17.7045  -15.6310 C   0  0  0  0  0  0  0  0  0  0  0  0
  -31.0640   17.2709  -14.3112 C   0  0  0  0  0  0  0  0  0  0  0  0
  -31.9463   17.4475  -13.3222 N   0  0  0  0  0  0  0  0  0  0  0  0
  -29.8976   16.6426  -14.0468 N   0  0  0  0  0  0  0  0  0  0  0  0
  -29.0208   16.4663  -15.0414 C   0  0  0  0  0  0  0  0  0  0  0  0
  -29.1186   16.8306  -16.3194 N   0  0  0  0  0  0  0  0  0  0  0  0
  -30.2866   17.4508  -16.5503 C   0  0  0  0  0  0  0  0  0  0  0  0
  1 10  1  0  0  0  0
  2  3  2  0  0  0  0
  2  1  1  0  0  0  0
  3  4  1  0  0  0  0
  4 10  2  0  0  0  0
  4  5  1  0  0  0  0
  5  7  2  0  0  0  0
  6  5  1  0  0  0  0
  7  8  1  0  0  0  0
  9  8  2  0  0  0  0
 10  9  1  0  0  0  0
M  END
>  <CHROM.1>
-30.78865148,17.46419347,-15.62618788,-1.83421921,-0.43773381,1.81485073

>  <Name>
lig.pdb

>  <RI>
9.24451e+06

>  <Rbt.Current_Directory>
/home/itssahil/PROJECTS/Mol_Feturizer/New_Systems/rnas/5uza

>  <Rbt.Executable>
rbdock ($Id: //depot/dev/client3/rdock/2013.1/src/exe/rbdock.cxx#4 $)

>  <Rbt.Library>
libRbt.so (2013.1, Build901 2013/11/27)

>  <Rbt.Parameter_File>
/export/apps/rDock/src/rDock_2013.1_src/data/scripts/dock_solv.prm

>  <Rbt.Receptor>
prm/pocket_docking_4.prm

>  <SCORE>
-36.7217

>  <SCORE.INTER>
-36.7217

>  <SCORE.INTER.CONST>
1

>  <SCORE.INTER.POLAR>
-4.34576

>  <SCORE.INTER.ROT>
0

>  <SCORE.INTER.SOLV>
10.7374

>  <SCORE.INTER.VDW>
-17.1744

>  <SCORE.INTER.norm>
-3.67217

>  <SCORE.INTRA>
0

>  <SCORE.INTRA.DIHEDRAL>
0

>  <SCORE.INTRA.DIHEDRAL.0>
0

>  <SCORE.INTRA.POLAR>
0

>  <SCORE.INTRA.POLAR.0>
0

>  <SCORE.INTRA.REPUL>
0

>  <SCORE.INTRA.REPUL.0>
0

>  <SCORE.INTRA.SOLV>
0

>  <SCORE.INTRA.SOLV.lig_0>
-14.8845

>  <SCORE.INTRA.VDW>
0

>  <SCORE.INTRA.VDW.0>
0

>  <SCORE.INTRA.norm>
0

>  <SCORE.RESTR>
0

>  <SCORE.RESTR.CAVITY>
0

>  <SCORE.RESTR.norm>
0

>  <SCORE.SYSTEM>
0

>  <SCORE.SYSTEM.CONST>
0

>  <SCORE.SYSTEM.DIHEDRAL>
0

>  <SCORE.SYSTEM.SOLV>
0

>  <SCORE.SYSTEM.norm>
0

>  <SCORE.heavy>
10

>  <SCORE.norm>
-3.67217

>  <RMSD>
2.526

$$$$
lig.pdb
 OpenBabel11021811523D
libRbt.so/2013.1/901 2013/11/27
 10 11  0  0  0  0  0  0  0  0999 V2000
  -30.7345   17.9621  -17.7434 N   0  0  0  0  0  0  0  0  0  0  0  0
  -31.9670   18.4938  -17.4805 C   0  0  0  0  0  0  0  0  0  0  0  0
  -32.3439   18.3656  -16.2307 N   0  0  0  0  0  0  0  0  0  0  0  0
  -31.2864   17.7026  -15.6310 C   0  0  0  0  0  0  0  0  0  0  0  0
  -31.0650   17.2702  -14.3105 C   0  0  0  0  0  0  0  0  0  0  0  0
  -31.9480   17.4493  -13.3225 N   0  0  0  0  0  0  0  0  0  0  0  0
  -29.8998   16.6404  -14.0443 N   0  0  0  0  0  0  0  0  0  0  0  0
  -29.0223   16.4616  -15.0378 C   0  0  0  0  0  0  0  0  0  0  0  0
  -29.1183   16.8247  -16.3163 N   0  0  0  0  0  0  0  0  0  0  0  0
  -30.2852   17.4465  -16.5490 C   0  0  0  0  0  0  0  0  0  0  0  0
  1 10  1  0  0  0  0
  2  3  2  0  0  0  0
  2  1  1  0  0  0  0
  3  4  1  0  0  0  0
  4 10  2  0  0  0  0
  4  5  1  0  0  0  0
  5  7  2  0  0  0  0
  6  5  1  0  0  0  0
  7  8  1  0  0  0  0
  9  8  2  0  0  0  0
 10  9  1  0  0  0  0
M  END
>  <CHROM.1>
-30.78807714,17.46161281,-15.62544262,-1.83276994,-0.43898643,1.81436323

>  <Name>
lig.pdb

>  <RI>
9.24451e+06

>  <Rbt.Current_Directory>
/home/itssahil/PROJECTS/Mol_Feturizer/New_Systems/rnas/5uza

>  <Rbt.Executable>
rbdock ($Id: //depot/dev/client3/rdock/2013.1/src/exe/rbdock.cxx#4 $)

>  <Rbt.Library>
libRbt.so (2013.1, Build901 2013/11/27)

>  <Rbt.Parameter_File>
/export/apps/rDock/src/rDock_2013.1_src/data/scripts/dock_solv.prm

>  <Rbt.Receptor>
prm/pocket_docking_4.prm

>  <SCORE>
-36.7114

>  <SCORE.INTER>
-36.7114

>  <SCORE.INTER.CONST>
1

>  <SCORE.INTER.POLAR>
-4.34128

>  <SCORE.INTER.ROT>
0

>  <SCORE.INTER.SOLV>
10.7363

>  <SCORE.INTER.VDW>
-17.1821

>  <SCORE.INTER.norm>
-3.67114

>  <SCORE.INTRA>
0

>  <SCORE.INTRA.DIHEDRAL>
0

>  <SCORE.INTRA.DIHEDRAL.0>
0

>  <SCORE.INTRA.POLAR>
0

>  <SCORE.INTRA.POLAR.0>
0

>  <SCORE.INTRA.REPUL>
0

>  <SCORE.INTRA.REPUL.0>
0

>  <SCORE.INTRA.SOLV>
0

>  <SCORE.INTRA.SOLV.lig_0>
-14.8845

>  <SCORE.INTRA.VDW>
0

>  <SCORE.INTRA.VDW.0>
0

>  <SCORE.INTRA.norm>
0

>  <SCORE.RESTR>
0

>  <SCORE.RESTR.CAVITY>
0

>  <SCORE.RESTR.norm>
0

>  <SCORE.SYSTEM>
0

>  <SCORE.SYSTEM.CONST>
0

>  <SCORE.SYSTEM.DIHEDRAL>
0

>  <SCORE.SYSTEM.SOLV>
0

>  <SCORE.SYSTEM.norm>
0

>  <SCORE.heavy>
10

>  <SCORE.norm>
-3.67114

>  <RMSD>
2.526

$$$$
lig.pdb
 OpenBabel11021811523D
libRbt.so/2013.1/901 2013/11/27
 10 11  0  0  0  0  0  0  0  0999 V2000
  -30.7355   17.9700  -17.7431 N   0  0  0  0  0  0  0  0  0  0  0  0
  -31.9684   18.5000  -17.4786 C   0  0  0  0  0  0  0  0  0  0  0  0
  -32.3447   18.3688  -16.2290 N   0  0  0  0  0  0  0  0  0  0  0  0
  -31.2864   17.7057  -15.6310 C   0  0  0  0  0  0  0  0  0  0  0  0
  -31.0641   17.2709  -14.3115 C   0  0  0  0  0  0  0  0  0  0  0  0
  -31.9469   17.4471  -13.3228 N   0  0  0  0  0  0  0  0  0  0  0  0
  -29.8982   16.6417  -14.0469 N   0  0  0  0  0  0  0  0  0  0  0  0
  -29.0209   16.4658  -15.0411 C   0  0  0  0  0  0  0  0  0  0  0  0
  -29.1177   16.8313  -16.3188 N   0  0  0  0  0  0  0  0  0  0  0  0
  -30.2852   17.4524  -16.5499 C   0  0  0  0  0  0  0  0  0  0  0  0
  1 10  1  0  0  0  0
  2  3  2  0  0  0  0
  2  1  1  0  0  0  0
  3  4  1  0  0  0  0
  4 10  2  0  0  0  0
  4  5  1  0  0  0  0
  5  7  2  0  0  0  0
  6  5  1  0  0  0  0
  7  8  1  0  0  0  0
  9  8  2  0  0  0  0
 10  9  1  0  0  0  0
M  END
>  <CHROM.1>
-30.78782943,17.46519868,-15.62608286,-1.83340989,-0.43812669,1.81609835

>  <Name>
lig.pdb

>  <RI>
9.24451e+06

>  <Rbt.Current_Directory>
/home/itssahil/PROJECTS/Mol_Feturizer/New_Systems/rnas/5uza

>  <Rbt.Executable>
rbdock ($Id: //depot/dev/client3/rdock/2013.1/src/exe/rbdock.cxx#4 $)

>  <Rbt.Library>
libRbt.so (2013.1, Build901 2013/11/27)

>  <Rbt.Parameter_File>
/export/apps/rDock/src/rDock_2013.1_src/data/scripts/dock_solv.prm

>  <Rbt.Receptor>
prm/pocket_docking_4.prm

>  <SCORE>
-36.7185

>  <SCORE.INTER>
-36.7185

>  <SCORE.INTER.CONST>
1

>  <SCORE.INTER.POLAR>
-4.34501

>  <SCORE.INTER.ROT>
0

>  <SCORE.INTER.SOLV>
10.7402

>  <SCORE.INTER.VDW>
-17.1757

>  <SCORE.INTER.norm>
-3.67185

>  <SCORE.INTRA>
0

>  <SCORE.INTRA.DIHEDRAL>
0

>  <SCORE.INTRA.DIHEDRAL.0>
0

>  <SCORE.INTRA.POLAR>
0

>  <SCORE.INTRA.POLAR.0>
0

>  <SCORE.INTRA.REPUL>
0

>  <SCORE.INTRA.REPUL.0>
0

>  <SCORE.INTRA.SOLV>
0

>  <SCORE.INTRA.SOLV.lig_0>
-14.8845

>  <SCORE.INTRA.VDW>
0

>  <SCORE.INTRA.VDW.0>
0

>  <SCORE.INTRA.norm>
0

>  <SCORE.RESTR>
0

>  <SCORE.RESTR.CAVITY>
0

>  <SCORE.RESTR.norm>
0

>  <SCORE.SYSTEM>
0

>  <SCORE.SYSTEM.CONST>
0

>  <SCORE.SYSTEM.DIHEDRAL>
0

>  <SCORE.SYSTEM.SOLV>
0

>  <SCORE.SYSTEM.norm>
0

>  <SCORE.heavy>
10

>  <SCORE.norm>
-3.67185

>  <RMSD>
2.526

$$$$
lig.pdb
 OpenBabel11021811523D
libRbt.so/2013.1/901 2013/11/27
 10 11  0  0  0  0  0  0  0  0999 V2000
  -30.7389   17.9649  -17.7440 N   0  0  0  0  0  0  0  0  0  0  0  0
  -31.9720   18.4945  -17.4793 C   0  0  0  0  0  0  0  0  0  0  0  0
  -32.3472   18.3650  -16.2292 N   0  0  0  0  0  0  0  0  0  0  0  0
  -31.2880   17.7033  -15.6312 C   0  0  0  0  0  0  0  0  0  0  0  0
  -31.0644   17.2705  -14.3112 C   0  0  0  0  0  0  0  0  0  0  0  0
  -31.9465   17.4476  -13.3220 N   0  0  0  0  0  0  0  0  0  0  0  0
  -29.8979   16.6423  -14.0466 N   0  0  0  0  0  0  0  0  0  0  0  0
  -29.0212   16.4655  -15.0413 C   0  0  0  0  0  0  0  0  0  0  0  0
  -29.1193   16.8291  -16.3194 N   0  0  0  0  0  0  0  0  0  0  0  0
  -30.2874   17.4493  -16.5504 C   0  0  0  0  0  0  0  0  0  0  0  0
  1 10  1  0  0  0  0
  2  3  2  0  0  0  0
  2  1  1  0  0  0  0
  3  4  1  0  0  0  0
  4 10  2  0  0  0  0
  4  5  1  0  0  0  0
  5  7  2  0  0  0  0
  6  5  1  0  0  0  0
  7  8  1  0  0  0  0
  9  8  2  0  0  0  0
 10  9  1  0  0  0  0
M  END
>  <CHROM.1>
-30.78923898,17.46309223,-15.62627941,-1.83442865,-0.43775487,1.81423922

>  <Name>
lig.pdb

>  <RI>
9.24451e+06

>  <Rbt.Current_Directory>
/home/itssahil/PROJECTS/Mol_Feturizer/New_Systems/rnas/5uza

>  <Rbt.Executable>
rbdock ($Id: //depot/dev/client3/rdock/2013.1/src/exe/rbdock.cxx#4 $)

>  <Rbt.Library>
libRbt.so (2013.1, Build901 2013/11/27)

>  <Rbt.Parameter_File>
/export/apps/rDock/src/rDock_2013.1_src/data/scripts/dock_solv.prm

>  <Rbt.Receptor>
prm/pocket_docking_4.prm

>  <SCORE>
-36.721

>  <SCORE.INTER>
-36.721

>  <SCORE.INTER.CONST>
1

>  <SCORE.INTER.POLAR>
-4.34557

>  <SCORE.INTER.ROT>
0

>  <SCORE.INTER.SOLV>
10.7359

>  <SCORE.INTER.VDW>
-17.1741

>  <SCORE.INTER.norm>
-3.6721

>  <SCORE.INTRA>
0

>  <SCORE.INTRA.DIHEDRAL>
0

>  <SCORE.INTRA.DIHEDRAL.0>
0

>  <SCORE.INTRA.POLAR>
0

>  <SCORE.INTRA.POLAR.0>
0

>  <SCORE.INTRA.REPUL>
0

>  <SCORE.INTRA.REPUL.0>
0

>  <SCORE.INTRA.SOLV>
0

>  <SCORE.INTRA.SOLV.lig_0>
-14.8845

>  <SCORE.INTRA.VDW>
0

>  <SCORE.INTRA.VDW.0>
0

>  <SCORE.INTRA.norm>
0

>  <SCORE.RESTR>
0

>  <SCORE.RESTR.CAVITY>
0

>  <SCORE.RESTR.norm>
0

>  <SCORE.SYSTEM>
0

>  <SCORE.SYSTEM.CONST>
0

>  <SCORE.SYSTEM.DIHEDRAL>
0

>  <SCORE.SYSTEM.SOLV>
0

>  <SCORE.SYSTEM.norm>
0

>  <SCORE.heavy>
10

>  <SCORE.norm>
-3.6721

>  <RMSD>
2.526

$$$$
lig.pdb
 OpenBabel11021811523D
libRbt.so/2013.1/901 2013/11/27
 10 11  0  0  0  0  0  0  0  0999 V2000
  -30.7360   17.9701  -17.7421 N   0  0  0  0  0  0  0  0  0  0  0  0
  -31.9690   18.4999  -17.4777 C   0  0  0  0  0  0  0  0  0  0  0  0
  -32.3454   18.3687  -16.2281 N   0  0  0  0  0  0  0  0  0  0  0  0
  -31.2870   17.7057  -15.6300 C   0  0  0  0  0  0  0  0  0  0  0  0
  -31.0648   17.2709  -14.3105 C   0  0  0  0  0  0  0  0  0  0  0  0
  -31.9477   17.4469  -13.3219 N   0  0  0  0  0  0  0  0  0  0  0  0
  -29.8988   16.6418  -14.0458 N   0  0  0  0  0  0  0  0  0  0  0  0
  -29.0214   16.4660  -15.0400 C   0  0  0  0  0  0  0  0  0  0  0  0
  -29.1182   16.8315  -16.3177 N   0  0  0  0  0  0  0  0  0  0  0  0
  -30.2858   17.4525  -16.5488 C   0  0  0  0  0  0  0  0  0  0  0  0
  1 10  1  0  0  0  0
  2  3  2  0  0  0  0
  2  1  1  0  0  0  0
  3  4  1  0  0  0  0
  4 10  2  0  0  0  0
  4  5  1  0  0  0  0
  5  7  2  0  0  0  0
  6  5  1  0  0  0  0
  7  8  1  0  0  0  0
  9  8  2  0  0  0  0
 10  9  1  0  0  0  0
M  END
>  <CHROM.1>
-30.78842435,17.46523381,-15.62507109,-1.83336356,-0.43799703,1.81614606

>  <Name>
lig.pdb

>  <RI>
0

>  <Rbt.Current_Directory>
/home/itssahil/PROJECTS/Mol_Feturizer/New_Systems/rnas/5uza

>  <Rbt.Executable>
rbdock ($Id: //depot/dev/client3/rdock/2013.1/src/exe/rbdock.cxx#4 $)

>  <Rbt.Library>
libRbt.so (2013.1, Build901 2013/11/27)

>  <Rbt.Parameter_File>
/export/apps/rDock/src/rDock_2013.1_src/data/scripts/dock_solv.prm

>  <Rbt.Receptor>
prm/pocket_docking_5.prm

>  <SCORE>
-36.7194

>  <SCORE.INTER>
-36.7194

>  <SCORE.INTER.CONST>
1

>  <SCORE.INTER.POLAR>
-4.34731

>  <SCORE.INTER.ROT>
0

>  <SCORE.INTER.SOLV>
10.74

>  <SCORE.INTER.VDW>
-17.1685

>  <SCORE.INTER.norm>
-3.67194

>  <SCORE.INTRA>
0

>  <SCORE.INTRA.DIHEDRAL>
0

>  <SCORE.INTRA.DIHEDRAL.0>
0

>  <SCORE.INTRA.POLAR>
0

>  <SCORE.INTRA.POLAR.0>
0

>  <SCORE.INTRA.REPUL>
0

>  <SCORE.INTRA.REPUL.0>
0

>  <SCORE.INTRA.SOLV>
0

>  <SCORE.INTRA.SOLV.lig_0>
-14.8845

>  <SCORE.INTRA.VDW>
0

>  <SCORE.INTRA.VDW.0>
0

>  <SCORE.INTRA.norm>
0

>  <SCORE.RESTR>
0

>  <SCORE.RESTR.CAVITY>
0

>  <SCORE.RESTR.norm>
0

>  <SCORE.SYSTEM>
0

>  <SCORE.SYSTEM.CONST>
0

>  <SCORE.SYSTEM.DIHEDRAL>
0

>  <SCORE.SYSTEM.SOLV>
0

>  <SCORE.SYSTEM.norm>
0

>  <SCORE.heavy>
10

>  <SCORE.norm>
-3.67194

>  <RMSD>
2.526

$$$$
lig.pdb
 OpenBabel11021811523D
libRbt.so/2013.1/901 2013/11/27
 10 11  0  0  0  0  0  0  0  0999 V2000
  -30.7401   17.9588  -17.7488 N   0  0  0  0  0  0  0  0  0  0  0  0
  -31.9728   18.4893  -17.4846 C   0  0  0  0  0  0  0  0  0  0  0  0
  -32.3471   18.3632  -16.2338 N   0  0  0  0  0  0  0  0  0  0  0  0
  -31.2876   17.7030  -15.6348 C   0  0  0  0  0  0  0  0  0  0  0  0
  -31.0631   17.2737  -14.3138 C   0  0  0  0  0  0  0  0  0  0  0  0
  -31.9444   17.4536  -13.3245 N   0  0  0  0  0  0  0  0  0  0  0  0
  -29.8965   16.6461  -14.0484 N   0  0  0  0  0  0  0  0  0  0  0  0
  -29.0206   16.4664  -15.0433 C   0  0  0  0  0  0  0  0  0  0  0  0
  -29.1196   16.8266  -16.3223 N   0  0  0  0  0  0  0  0  0  0  0  0
  -30.2878   17.4463  -16.5541 C   0  0  0  0  0  0  0  0  0  0  0  0
  1 10  1  0  0  0  0
  2  3  2  0  0  0  0
  2  1  1  0  0  0  0
  3  4  1  0  0  0  0
  4 10  2  0  0  0  0
  4  5  1  0  0  0  0
  5  7  2  0  0  0  0
  6  5  1  0  0  0  0
  7  8  1  0  0  0  0
  9  8  2  0  0  0  0
 10  9  1  0  0  0  0
M  END
>  <CHROM.1>
-30.78892083,17.46270827,-15.62963010,-1.83518531,-0.43809725,1.81122944

>  <Name>
lig.pdb

>  <RI>
1.17431e+07

>  <Rbt.Current_Directory>
/home/itssahil/PROJECTS/Mol_Feturizer/New_Systems/rnas/5uza

>  <Rbt.Executable>
rbdock ($Id: //depot/dev/client3/rdock/2013.1/src/exe/rbdock.cxx#4 $)

>  <Rbt.Library>
libRbt.so (2013.1, Build901 2013/11/27)

>  <Rbt.Parameter_File>
/export/apps/rDock/src/rDock_2013.1_src/data/scripts/dock_solv.prm

>  <Rbt.Receptor>
prm/pocket_docking_6.prm

>  <SCORE>
-36.7078

>  <SCORE.INTER>
-36.7078

>  <SCORE.INTER.CONST>
1

>  <SCORE.INTER.POLAR>
-4.33218

>  <SCORE.INTER.ROT>
0

>  <SCORE.INTER.SOLV>
10.7302

>  <SCORE.INTER.VDW>
-17.208

>  <SCORE.INTER.norm>
-3.67078

>  <SCORE.INTRA>
0

>  <SCORE.INTRA.DIHEDRAL>
0

>  <SCORE.INTRA.DIHEDRAL.0>
0

>  <SCORE.INTRA.POLAR>
0

>  <SCORE.INTRA.POLAR.0>
0

>  <SCORE.INTRA.REPUL>
0

>  <SCORE.INTRA.REPUL.0>
0

>  <SCORE.INTRA.SOLV>
0

>  <SCORE.INTRA.SOLV.lig_0>
-14.8845

>  <SCORE.INTRA.VDW>
0

>  <SCORE.INTRA.VDW.0>
0

>  <SCORE.INTRA.norm>
0

>  <SCORE.RESTR>
0

>  <SCORE.RESTR.CAVITY>
0

>  <SCORE.RESTR.norm>
0

>  <SCORE.SYSTEM>
0

>  <SCORE.SYSTEM.CONST>
0

>  <SCORE.SYSTEM.DIHEDRAL>
0

>  <SCORE.SYSTEM.SOLV>
0

>  <SCORE.SYSTEM.norm>
0

>  <SCORE.heavy>
10

>  <SCORE.norm>
-3.67078

>  <RMSD>
2.526

$$$$
lig.pdb
 OpenBabel11021811523D
libRbt.so/2013.1/901 2013/11/27
 10 11  0  0  0  0  0  0  0  0999 V2000
  -30.7394   17.9613  -17.7461 N   0  0  0  0  0  0  0  0  0  0  0  0
  -31.9723   18.4912  -17.4816 C   0  0  0  0  0  0  0  0  0  0  0  0
  -32.3470   18.3635  -16.2312 N   0  0  0  0  0  0  0  0  0  0  0  0
  -31.2875   17.7027  -15.6326 C   0  0  0  0  0  0  0  0  0  0  0  0
  -31.0633   17.2717  -14.3121 C   0  0  0  0  0  0  0  0  0  0  0  0
  -31.9450   17.4502  -13.3229 N   0  0  0  0  0  0  0  0  0  0  0  0
  -29.8967   16.6439  -14.0472 N   0  0  0  0  0  0  0  0  0  0  0  0
  -29.0205   16.4657  -15.0420 C   0  0  0  0  0  0  0  0  0  0  0  0
  -29.1192   16.8275  -16.3206 N   0  0  0  0  0  0  0  0  0  0  0  0
  -30.2873   17.4473  -16.5520 C   0  0  0  0  0  0  0  0  0  0  0  0
  1 10  1  0  0  0  0
  2  3  2  0  0  0  0
  2  1  1  0  0  0  0
  3  4  1  0  0  0  0
  4 10  2  0  0  0  0
  4  5  1  0  0  0  0
  5  7  2  0  0  0  0
  6  5  1  0  0  0  0
  7  8  1  0  0  0  0
  9  8  2  0  0  0  0
 10  9  1  0  0  0  0
M  END
>  <CHROM.1>
-30.78877827,17.46244551,-15.62764255,-1.83490204,-0.43786270,1.81262357

>  <Name>
lig.pdb

>  <RI>
1.17431e+07

>  <Rbt.Current_Directory>
/home/itssahil/PROJECTS/Mol_Feturizer/New_Systems/rnas/5uza

>  <Rbt.Executable>
rbdock ($Id: //depot/dev/client3/rdock/2013.1/src/exe/rbdock.cxx#4 $)

>  <Rbt.Library>
libRbt.so (2013.1, Build901 2013/11/27)

>  <Rbt.Parameter_File>
/export/apps/rDock/src/rDock_2013.1_src/data/scripts/dock_solv.prm

>  <Rbt.Receptor>
prm/pocket_docking_6.prm

>  <SCORE>
-36.7183

>  <SCORE.INTER>
-36.7183

>  <SCORE.INTER.CONST>
1

>  <SCORE.INTER.POLAR>
-4.34032

>  <SCORE.INTER.ROT>
0

>  <SCORE.INTER.SOLV>
10.7328

>  <SCORE.INTER.VDW>
-17.1887

>  <SCORE.INTER.norm>
-3.67183

>  <SCORE.INTRA>
0

>  <SCORE.INTRA.DIHEDRAL>
0

>  <SCORE.INTRA.DIHEDRAL.0>
0

>  <SCORE.INTRA.POLAR>
0

>  <SCORE.INTRA.POLAR.0>
0

>  <SCORE.INTRA.REPUL>
0

>  <SCORE.INTRA.REPUL.0>
0

>  <SCORE.INTRA.SOLV>
0

>  <SCORE.INTRA.SOLV.lig_0>
-14.8845

>  <SCORE.INTRA.VDW>
0

>  <SCORE.INTRA.VDW.0>
0

>  <SCORE.INTRA.norm>
0

>  <SCORE.RESTR>
0

>  <SCORE.RESTR.CAVITY>
0

>  <SCORE.RESTR.norm>
0

>  <SCORE.SYSTEM>
0

>  <SCORE.SYSTEM.CONST>
0

>  <SCORE.SYSTEM.DIHEDRAL>
0

>  <SCORE.SYSTEM.SOLV>
0

>  <SCORE.SYSTEM.norm>
0

>  <SCORE.heavy>
10

>  <SCORE.norm>
-3.67183

>  <RMSD>
2.526

$$$$
lig.pdb
 OpenBabel11021811523D
libRbt.so/2013.1/901 2013/11/27
 10 11  0  0  0  0  0  0  0  0999 V2000
  -30.7431   17.9453  -17.7511 N   0  0  0  0  0  0  0  0  0  0  0  0
  -31.9753   18.4772  -17.4874 C   0  0  0  0  0  0  0  0  0  0  0  0
  -32.3482   18.3558  -16.2357 N   0  0  0  0  0  0  0  0  0  0  0  0
  -31.2882   17.6974  -15.6355 C   0  0  0  0  0  0  0  0  0  0  0  0
  -31.0623   17.2727  -14.3133 C   0  0  0  0  0  0  0  0  0  0  0  0
  -31.9424   17.4566  -13.3236 N   0  0  0  0  0  0  0  0  0  0  0  0
  -29.8956   16.6456  -14.0470 N   0  0  0  0  0  0  0  0  0  0  0  0
  -29.0210   16.4621  -15.0422 C   0  0  0  0  0  0  0  0  0  0  0  0
  -29.1213   16.8177  -16.3224 N   0  0  0  0  0  0  0  0  0  0  0  0
  -30.2895   17.4370  -16.5551 C   0  0  0  0  0  0  0  0  0  0  0  0
  1 10  1  0  0  0  0
  2  3  2  0  0  0  0
  2  1  1  0  0  0  0
  3  4  1  0  0  0  0
  4 10  2  0  0  0  0
  4  5  1  0  0  0  0
  5  7  2  0  0  0  0
  6  5  1  0  0  0  0
  7  8  1  0  0  0  0
  9  8  2  0  0  0  0
 10  9  1  0  0  0  0
M  END
>  <CHROM.1>
-30.78961560,17.45687219,-15.63009649,-1.83634116,-0.43872652,1.80711951

>  <Name>
lig.pdb

>  <RI>
1.17431e+07

>  <Rbt.Current_Directory>
/home/itssahil/PROJECTS/Mol_Feturizer/New_Systems/rnas/5uza

>  <Rbt.Executable>
rbdock ($Id: //depot/dev/client3/rdock/2013.1/src/exe/rbdock.cxx#4 $)

>  <Rbt.Library>
libRbt.so (2013.1, Build901 2013/11/27)

>  <Rbt.Parameter_File>
/export/apps/rDock/src/rDock_2013.1_src/data/scripts/dock_solv.prm

>  <Rbt.Receptor>
prm/pocket_docking_6.prm

>  <SCORE>
-36.7043

>  <SCORE.INTER>
-36.7043

>  <SCORE.INTER.CONST>
1

>  <SCORE.INTER.POLAR>
-4.32922

>  <SCORE.INTER.ROT>
0

>  <SCORE.INTER.SOLV>
10.7207

>  <SCORE.INTER.VDW>
-17.2123

>  <SCORE.INTER.norm>
-3.67043

>  <SCORE.INTRA>
0

>  <SCORE.INTRA.DIHEDRAL>
0

>  <SCORE.INTRA.DIHEDRAL.0>
0

>  <SCORE.INTRA.POLAR>
0

>  <SCORE.INTRA.POLAR.0>
0

>  <SCORE.INTRA.REPUL>
0

>  <SCORE.INTRA.REPUL.0>
0

>  <SCORE.INTRA.SOLV>
0

>  <SCORE.INTRA.SOLV.lig_0>
-14.8845

>  <SCORE.INTRA.VDW>
0

>  <SCORE.INTRA.VDW.0>
0

>  <SCORE.INTRA.norm>
0

>  <SCORE.RESTR>
0

>  <SCORE.RESTR.CAVITY>
0

>  <SCORE.RESTR.norm>
0

>  <SCORE.SYSTEM>
0

>  <SCORE.SYSTEM.CONST>
0

>  <SCORE.SYSTEM.DIHEDRAL>
0

>  <SCORE.SYSTEM.SOLV>
0

>  <SCORE.SYSTEM.norm>
0

>  <SCORE.heavy>
10

>  <SCORE.norm>
-3.67043

>  <RMSD>
2.526

$$$$
lig.pdb
 OpenBabel11021811523D
libRbt.so/2013.1/901 2013/11/27
 10 11  0  0  0  0  0  0  0  0999 V2000
  -30.7268   17.9436  -17.7445 N   0  0  0  0  0  0  0  0  0  0  0  0
  -31.9605   18.4761  -17.4887 C   0  0  0  0  0  0  0  0  0  0  0  0
  -32.3413   18.3550  -16.2394 N   0  0  0  0  0  0  0  0  0  0  0  0
  -31.2855   17.6962  -15.6324 C   0  0  0  0  0  0  0  0  0  0  0  0
  -31.0681   17.2717  -14.3087 C   0  0  0  0  0  0  0  0  0  0  0  0
  -31.9544   17.4561  -13.3247 N   0  0  0  0  0  0  0  0  0  0  0  0
  -29.9034   16.6442  -14.0349 N   0  0  0  0  0  0  0  0  0  0  0  0
  -29.0226   16.4601  -15.0246 C   0  0  0  0  0  0  0  0  0  0  0  0
  -29.1146   16.8155  -16.3055 N   0  0  0  0  0  0  0  0  0  0  0  0
  -30.2811   17.4353  -16.5456 C   0  0  0  0  0  0  0  0  0  0  0  0
  1 10  1  0  0  0  0
  2  3  2  0  0  0  0
  2  1  1  0  0  0  0
  3  4  1  0  0  0  0
  4 10  2  0  0  0  0
  4  5  1  0  0  0  0
  5  7  2  0  0  0  0
  6  5  1  0  0  0  0
  7  8  1  0  0  0  0
  9  8  2  0  0  0  0
 10  9  1  0  0  0  0
M  END
>  <CHROM.1>
-30.78699447,17.45556001,-15.62380306,-1.82943916,-0.43764729,1.80988373

>  <Name>
lig.pdb

>  <RI>
1.17431e+07

>  <Rbt.Current_Directory>
/home/itssahil/PROJECTS/Mol_Feturizer/New_Systems/rnas/5uza

>  <Rbt.Executable>
rbdock ($Id: //depot/dev/client3/rdock/2013.1/src/exe/rbdock.cxx#4 $)

>  <Rbt.Library>
libRbt.so (2013.1, Build901 2013/11/27)

>  <Rbt.Parameter_File>
/export/apps/rDock/src/rDock_2013.1_src/data/scripts/dock_solv.prm

>  <Rbt.Receptor>
prm/pocket_docking_6.prm

>  <SCORE>
-36.675

>  <SCORE.INTER>
-36.675

>  <SCORE.INTER.CONST>
1

>  <SCORE.INTER.POLAR>
-4.31552

>  <SCORE.INTER.ROT>
0

>  <SCORE.INTER.SOLV>
10.7326

>  <SCORE.INTER.VDW>
-17.2425

>  <SCORE.INTER.norm>
-3.6675

>  <SCORE.INTRA>
0

>  <SCORE.INTRA.DIHEDRAL>
0

>  <SCORE.INTRA.DIHEDRAL.0>
0

>  <SCORE.INTRA.POLAR>
0

>  <SCORE.INTRA.POLAR.0>
0

>  <SCORE.INTRA.REPUL>
0

>  <SCORE.INTRA.REPUL.0>
0

>  <SCORE.INTRA.SOLV>
0

>  <SCORE.INTRA.SOLV.lig_0>
-14.8845

>  <SCORE.INTRA.VDW>
0

>  <SCORE.INTRA.VDW.0>
0

>  <SCORE.INTRA.norm>
0

>  <SCORE.RESTR>
0

>  <SCORE.RESTR.CAVITY>
0

>  <SCORE.RESTR.norm>
0

>  <SCORE.SYSTEM>
0

>  <SCORE.SYSTEM.CONST>
0

>  <SCORE.SYSTEM.DIHEDRAL>
0

>  <SCORE.SYSTEM.SOLV>
0

>  <SCORE.SYSTEM.norm>
0

>  <SCORE.heavy>
10

>  <SCORE.norm>
-3.6675

>  <RMSD>
2.526

$$$$
lig.pdb
 OpenBabel11021811523D
libRbt.so/2013.1/901 2013/11/27
 10 11  0  0  0  0  0  0  0  0999 V2000
  -30.7426   17.9500  -17.7497 N   0  0  0  0  0  0  0  0  0  0  0  0
  -31.9751   18.4812  -17.4855 C   0  0  0  0  0  0  0  0  0  0  0  0
  -32.3484   18.3574  -16.2342 N   0  0  0  0  0  0  0  0  0  0  0  0
  -31.2884   17.6982  -15.6348 C   0  0  0  0  0  0  0  0  0  0  0  0
  -31.0628   17.2714  -14.3132 C   0  0  0  0  0  0  0  0  0  0  0  0
  -31.9433   17.4533  -13.3235 N   0  0  0  0  0  0  0  0  0  0  0  0
  -29.8961   16.6441  -14.0476 N   0  0  0  0  0  0  0  0  0  0  0  0
  -29.0211   16.4625  -15.0429 C   0  0  0  0  0  0  0  0  0  0  0  0
  -29.1211   16.8203  -16.3225 N   0  0  0  0  0  0  0  0  0  0  0  0
  -30.2893   17.4397  -16.5545 C   0  0  0  0  0  0  0  0  0  0  0  0
  1 10  1  0  0  0  0
  2  3  2  0  0  0  0
  2  1  1  0  0  0  0
  3  4  1  0  0  0  0
  4 10  2  0  0  0  0
  4  5  1  0  0  0  0
  5  7  2  0  0  0  0
  6  5  1  0  0  0  0
  7  8  1  0  0  0  0
  9  8  2  0  0  0  0
 10  9  1  0  0  0  0
M  END
>  <CHROM.1>
-30.78973250,17.45788046,-15.62963865,-1.83605589,-0.43840575,1.80897930

>  <Name>
lig.pdb

>  <RI>
2.12818e+07

>  <Rbt.Current_Directory>
/home/itssahil/PROJECTS/Mol_Feturizer/New_Systems/rnas/5uza

>  <Rbt.Executable>
rbdock ($Id: //depot/dev/client3/rdock/2013.1/src/exe/rbdock.cxx#4 $)

>  <Rbt.Library>
libRbt.so (2013.1, Build901 2013/11/27)

>  <Rbt.Parameter_File>
/export/apps/rDock/src/rDock_2013.1_src/data/scripts/dock_solv.prm

>  <Rbt.Receptor>
prm/pocket_docking_7.prm

>  <SCORE>
-36.7111

>  <SCORE.INTER>
-36.7111

>  <SCORE.INTER.CONST>
1

>  <SCORE.INTER.POLAR>
-4.33388

>  <SCORE.INTER.ROT>
0

>  <SCORE.INTER.SOLV>
10.7248

>  <SCORE.INTER.VDW>
-17.2027

>  <SCORE.INTER.norm>
-3.67111

>  <SCORE.INTRA>
0

>  <SCORE.INTRA.DIHEDRAL>
0

>  <SCORE.INTRA.DIHEDRAL.0>
0

>  <SCORE.INTRA.POLAR>
0

>  <SCORE.INTRA.POLAR.0>
0

>  <SCORE.INTRA.REPUL>
0

>  <SCORE.INTRA.REPUL.0>
0

>  <SCORE.INTRA.SOLV>
0

>  <SCORE.INTRA.SOLV.lig_0>
-14.8845

>  <SCORE.INTRA.VDW>
0

>  <SCORE.INTRA.VDW.0>
0

>  <SCORE.INTRA.norm>
0

>  <SCORE.RESTR>
0

>  <SCORE.RESTR.CAVITY>
0

>  <SCORE.RESTR.norm>
0

>  <SCORE.SYSTEM>
0

>  <SCORE.SYSTEM.CONST>
0

>  <SCORE.SYSTEM.DIHEDRAL>
0

>  <SCORE.SYSTEM.SOLV>
0

>  <SCORE.SYSTEM.norm>
0

>  <SCORE.heavy>
10

>  <SCORE.norm>
-3.67111

>  <RMSD>
2.526

$$$$
lig.pdb
 OpenBabel11021811523D
libRbt.so/2013.1/901 2013/11/27
 10 11  0  0  0  0  0  0  0  0999 V2000
  -30.7382   17.9667  -17.7428 N   0  0  0  0  0  0  0  0  0  0  0  0
  -31.9712   18.4965  -17.4783 C   0  0  0  0  0  0  0  0  0  0  0  0
  -32.3472   18.3661  -16.2285 N   0  0  0  0  0  0  0  0  0  0  0  0
  -31.2886   17.7036  -15.6304 C   0  0  0  0  0  0  0  0  0  0  0  0
  -31.0659   17.2697  -14.3106 C   0  0  0  0  0  0  0  0  0  0  0  0
  -31.9485   17.4463  -13.3219 N   0  0  0  0  0  0  0  0  0  0  0  0
  -29.8997   16.6409  -14.0459 N   0  0  0  0  0  0  0  0  0  0  0  0
  -29.0226   16.4645  -15.0402 C   0  0  0  0  0  0  0  0  0  0  0  0
  -29.1198   16.8292  -16.3181 N   0  0  0  0  0  0  0  0  0  0  0  0
  -30.2875   17.4499  -16.5493 C   0  0  0  0  0  0  0  0  0  0  0  0
  1 10  1  0  0  0  0
  2  3  2  0  0  0  0
  2  1  1  0  0  0  0
  3  4  1  0  0  0  0
  4 10  2  0  0  0  0
  4  5  1  0  0  0  0
  5  7  2  0  0  0  0
  6  5  1  0  0  0  0
  7  8  1  0  0  0  0
  9  8  2  0  0  0  0
 10  9  1  0  0  0  0
M  END
>  <CHROM.1>
-30.78990955,17.46320515,-15.62542580,-1.83371774,-0.43796553,1.81533468

>  <Name>
lig.pdb

>  <RI>
1.17775e+07

>  <Rbt.Current_Directory>
/home/itssahil/PROJECTS/Mol_Feturizer/New_Systems/rnas/5uza

>  <Rbt.Executable>
rbdock ($Id: //depot/dev/client3/rdock/2013.1/src/exe/rbdock.cxx#4 $)

>  <Rbt.Library>
libRbt.so (2013.1, Build901 2013/11/27)

>  <Rbt.Parameter_File>
/export/apps/rDock/src/rDock_2013.1_src/data/scripts/dock_solv.prm

>  <Rbt.Receptor>
prm/pocket_docking_8.prm

>  <SCORE>
-36.7167

>  <SCORE.INTER>
-36.7167

>  <SCORE.INTER.CONST>
1

>  <SCORE.INTER.POLAR>
-4.34709

>  <SCORE.INTER.ROT>
0

>  <SCORE.INTER.SOLV>
10.738

>  <SCORE.INTER.VDW>
-17.1669

>  <SCORE.INTER.norm>
-3.67167

>  <SCORE.INTRA>
0

>  <SCORE.INTRA.DIHEDRAL>
0

>  <SCORE.INTRA.DIHEDRAL.0>
0

>  <SCORE.INTRA.POLAR>
0

>  <SCORE.INTRA.POLAR.0>
0

>  <SCORE.INTRA.REPUL>
0

>  <SCORE.INTRA.REPUL.0>
0

>  <SCORE.INTRA.SOLV>
0

>  <SCORE.INTRA.SOLV.lig_0>
-14.8845

>  <SCORE.INTRA.VDW>
0

>  <SCORE.INTRA.VDW.0>
0

>  <SCORE.INTRA.norm>
0

>  <SCORE.RESTR>
0

>  <SCORE.RESTR.CAVITY>
0

>  <SCORE.RESTR.norm>
0

>  <SCORE.SYSTEM>
0

>  <SCORE.SYSTEM.CONST>
0

>  <SCORE.SYSTEM.DIHEDRAL>
0

>  <SCORE.SYSTEM.SOLV>
0

>  <SCORE.SYSTEM.norm>
0

>  <SCORE.heavy>
10

>  <SCORE.norm>
-3.67167

>  <RMSD>
2.526

$$$$
lig.pdb
 OpenBabel11021811523D
libRbt.so/2013.1/901 2013/11/27
 10 11  0  0  0  0  0  0  0  0999 V2000
  -30.7401   17.9559  -17.7451 N   0  0  0  0  0  0  0  0  0  0  0  0
  -31.9727   18.4871  -17.4813 C   0  0  0  0  0  0  0  0  0  0  0  0
  -32.3476   18.3611  -16.2307 N   0  0  0  0  0  0  0  0  0  0  0  0
  -31.2886   17.7003  -15.6313 C   0  0  0  0  0  0  0  0  0  0  0  0
  -31.0648   17.2708  -14.3102 C   0  0  0  0  0  0  0  0  0  0  0  0
  -31.9464   17.4511  -13.3213 N   0  0  0  0  0  0  0  0  0  0  0  0
  -29.8986   16.6425  -14.0444 N   0  0  0  0  0  0  0  0  0  0  0  0
  -29.0225   16.4625  -15.0390 C   0  0  0  0  0  0  0  0  0  0  0  0
  -29.1208   16.8228  -16.3181 N   0  0  0  0  0  0  0  0  0  0  0  0
  -30.2885   17.4431  -16.5503 C   0  0  0  0  0  0  0  0  0  0  0  0
  1 10  1  0  0  0  0
  2  3  2  0  0  0  0
  2  1  1  0  0  0  0
  3  4  1  0  0  0  0
  4 10  2  0  0  0  0
  4  5  1  0  0  0  0
  5  7  2  0  0  0  0
  6  5  1  0  0  0  0
  7  8  1  0  0  0  0
  9  8  2  0  0  0  0
 10  9  1  0  0  0  0
M  END
>  <CHROM.1>
-30.79003055,17.45971416,-15.62596172,-1.83464485,-0.43851345,1.81150528

>  <Name>
lig.pdb

>  <RI>
2.26746e+07

>  <Rbt.Current_Directory>
/home/itssahil/PROJECTS/Mol_Feturizer/New_Systems/rnas/5uza

>  <Rbt.Executable>
rbdock ($Id: //depot/dev/client3/rdock/2013.1/src/exe/rbdock.cxx#4 $)

>  <Rbt.Library>
libRbt.so (2013.1, Build901 2013/11/27)

>  <Rbt.Parameter_File>
/export/apps/rDock/src/rDock_2013.1_src/data/scripts/dock_solv.prm

>  <Rbt.Receptor>
prm/blind_docking_100.prm

>  <SCORE>
-36.7146

>  <SCORE.INTER>
-36.7146

>  <SCORE.INTER.CONST>
1

>  <SCORE.INTER.POLAR>
-4.34194

>  <SCORE.INTER.ROT>
0

>  <SCORE.INTER.SOLV>
10.7295

>  <SCORE.INTER.VDW>
-17.1798

>  <SCORE.INTER.norm>
-3.67146

>  <SCORE.INTRA>
0

>  <SCORE.INTRA.DIHEDRAL>
0

>  <SCORE.INTRA.DIHEDRAL.0>
0

>  <SCORE.INTRA.POLAR>
0

>  <SCORE.INTRA.POLAR.0>
0

>  <SCORE.INTRA.REPUL>
0

>  <SCORE.INTRA.REPUL.0>
0

>  <SCORE.INTRA.SOLV>
0

>  <SCORE.INTRA.SOLV.lig_0>
-14.8845

>  <SCORE.INTRA.VDW>
0

>  <SCORE.INTRA.VDW.0>
0

>  <SCORE.INTRA.norm>
0

>  <SCORE.RESTR>
0

>  <SCORE.RESTR.CAVITY>
0

>  <SCORE.RESTR.norm>
0

>  <SCORE.SYSTEM>
0

>  <SCORE.SYSTEM.CONST>
0

>  <SCORE.SYSTEM.DIHEDRAL>
0

>  <SCORE.SYSTEM.SOLV>
0

>  <SCORE.SYSTEM.norm>
0

>  <SCORE.heavy>
10

>  <SCORE.norm>
-3.67146

>  <RMSD>
2.527

$$$$
lig.pdb
 OpenBabel11021811523D
libRbt.so/2013.1/901 2013/11/27
 10 11  0  0  0  0  0  0  0  0999 V2000
  -30.7388   17.9598  -17.7442 N   0  0  0  0  0  0  0  0  0  0  0  0
  -31.9719   18.4899  -17.4806 C   0  0  0  0  0  0  0  0  0  0  0  0
  -32.3471   18.3630  -16.2303 N   0  0  0  0  0  0  0  0  0  0  0  0
  -31.2880   17.7026  -15.6308 C   0  0  0  0  0  0  0  0  0  0  0  0
  -31.0644   17.2725  -14.3099 C   0  0  0  0  0  0  0  0  0  0  0  0
  -31.9465   17.4517  -13.3212 N   0  0  0  0  0  0  0  0  0  0  0  0
  -29.8979   16.6449  -14.0440 N   0  0  0  0  0  0  0  0  0  0  0  0
  -29.0213   16.4660  -15.0383 C   0  0  0  0  0  0  0  0  0  0  0  0
  -29.1193   16.8269  -16.3172 N   0  0  0  0  0  0  0  0  0  0  0  0
  -30.2874   17.4466  -16.5495 C   0  0  0  0  0  0  0  0  0  0  0  0
  1 10  1  0  0  0  0
  2  3  2  0  0  0  0
  2  1  1  0  0  0  0
  3  4  1  0  0  0  0
  4 10  2  0  0  0  0
  4  5  1  0  0  0  0
  5  7  2  0  0  0  0
  6  5  1  0  0  0  0
  7  8  1  0  0  0  0
  9  8  2  0  0  0  0
 10  9  1  0  0  0  0
M  END
>  <CHROM.1>
-30.78923886,17.46235388,-15.62541013,-1.83439124,-0.43777767,1.81217081

>  <Name>
lig.pdb

>  <RI>
0

>  <Rbt.Current_Directory>
/home/itssahil/PROJECTS/Mol_Feturizer/New_Systems/rnas/5uza

>  <Rbt.Executable>
rbdock ($Id: //depot/dev/client3/rdock/2013.1/src/exe/rbdock.cxx#4 $)

>  <Rbt.Library>
libRbt.so (2013.1, Build901 2013/11/27)

>  <Rbt.Parameter_File>
/export/apps/rDock/src/rDock_2013.1_src/data/scripts/dock_solv.prm

>  <Rbt.Receptor>
prm/blind_docking_60.prm

>  <SCORE>
-36.7152

>  <SCORE.INTER>
-36.7152

>  <SCORE.INTER.CONST>
1

>  <SCORE.INTER.POLAR>
-4.34157

>  <SCORE.INTER.ROT>
0

>  <SCORE.INTER.SOLV>
10.7315

>  <SCORE.INTER.VDW>
-17.1821

>  <SCORE.INTER.norm>
-3.67152

>  <SCORE.INTRA>
0

>  <SCORE.INTRA.DIHEDRAL>
0

>  <SCORE.INTRA.DIHEDRAL.0>
0

>  <SCORE.INTRA.POLAR>
0

>  <SCORE.INTRA.POLAR.0>
0

>  <SCORE.INTRA.REPUL>
0

>  <SCORE.INTRA.REPUL.0>
0

>  <SCORE.INTRA.SOLV>
0

>  <SCORE.INTRA.SOLV.lig_0>
-14.8845

>  <SCORE.INTRA.VDW>
0

>  <SCORE.INTRA.VDW.0>
0

>  <SCORE.INTRA.norm>
0

>  <SCORE.RESTR>
0

>  <SCORE.RESTR.CAVITY>
0

>  <SCORE.RESTR.norm>
0

>  <SCORE.SYSTEM>
0

>  <SCORE.SYSTEM.CONST>
0

>  <SCORE.SYSTEM.DIHEDRAL>
0

>  <SCORE.SYSTEM.SOLV>
0

>  <SCORE.SYSTEM.norm>
0

>  <SCORE.heavy>
10

>  <SCORE.norm>
-3.67152

>  <RMSD>
2.527

$$$$
lig.pdb
 OpenBabel11021811523D
libRbt.so/2013.1/901 2013/11/27
 10 11  0  0  0  0  0  0  0  0999 V2000
  -30.7407   17.9551  -17.7457 N   0  0  0  0  0  0  0  0  0  0  0  0
  -31.9733   18.4862  -17.4819 C   0  0  0  0  0  0  0  0  0  0  0  0
  -32.3479   18.3606  -16.2312 N   0  0  0  0  0  0  0  0  0  0  0  0
  -31.2887   17.7002  -15.6317 C   0  0  0  0  0  0  0  0  0  0  0  0
  -31.0646   17.2713  -14.3105 C   0  0  0  0  0  0  0  0  0  0  0  0
  -31.9460   17.4518  -13.3215 N   0  0  0  0  0  0  0  0  0  0  0  0
  -29.8982   16.6433  -14.0447 N   0  0  0  0  0  0  0  0  0  0  0  0
  -29.0223   16.4630  -15.0394 C   0  0  0  0  0  0  0  0  0  0  0  0
  -29.1209   16.8228  -16.3186 N   0  0  0  0  0  0  0  0  0  0  0  0
  -30.2888   17.4429  -16.5508 C   0  0  0  0  0  0  0  0  0  0  0  0
  1 10  1  0  0  0  0
  2  3  2  0  0  0  0
  2  1  1  0  0  0  0
  3  4  1  0  0  0  0
  4 10  2  0  0  0  0
  4  5  1  0  0  0  0
  5  7  2  0  0  0  0
  6  5  1  0  0  0  0
  7  8  1  0  0  0  0
  9  8  2  0  0  0  0
 10  9  1  0  0  0  0
M  END
>  <CHROM.1>
-30.79010115,17.45974872,-15.62639063,-1.83490398,-0.43840742,1.81101644

>  <Name>
lig.pdb

>  <RI>
0

>  <Rbt.Current_Directory>
/home/itssahil/PROJECTS/Mol_Feturizer/New_Systems/rnas/5uza

>  <Rbt.Executable>
rbdock ($Id: //depot/dev/client3/rdock/2013.1/src/exe/rbdock.cxx#4 $)

>  <Rbt.Library>
libRbt.so (2013.1, Build901 2013/11/27)

>  <Rbt.Parameter_File>
/export/apps/rDock/src/rDock_2013.1_src/data/scripts/dock_solv.prm

>  <Rbt.Receptor>
prm/blind_docking_60.prm

>  <SCORE>
-36.714

>  <SCORE.INTER>
-36.714

>  <SCORE.INTER.CONST>
1

>  <SCORE.INTER.POLAR>
-4.34065

>  <SCORE.INTER.ROT>
0

>  <SCORE.INTER.SOLV>
10.7286

>  <SCORE.INTER.VDW>
-17.1834

>  <SCORE.INTER.norm>
-3.6714

>  <SCORE.INTRA>
0

>  <SCORE.INTRA.DIHEDRAL>
0

>  <SCORE.INTRA.DIHEDRAL.0>
0

>  <SCORE.INTRA.POLAR>
0

>  <SCORE.INTRA.POLAR.0>
0

>  <SCORE.INTRA.REPUL>
0

>  <SCORE.INTRA.REPUL.0>
0

>  <SCORE.INTRA.SOLV>
0

>  <SCORE.INTRA.SOLV.lig_0>
-14.8845

>  <SCORE.INTRA.VDW>
0

>  <SCORE.INTRA.VDW.0>
0

>  <SCORE.INTRA.norm>
0

>  <SCORE.RESTR>
0

>  <SCORE.RESTR.CAVITY>
0

>  <SCORE.RESTR.norm>
0

>  <SCORE.SYSTEM>
0

>  <SCORE.SYSTEM.CONST>
0

>  <SCORE.SYSTEM.DIHEDRAL>
0

>  <SCORE.SYSTEM.SOLV>
0

>  <SCORE.SYSTEM.norm>
0

>  <SCORE.heavy>
10

>  <SCORE.norm>
-3.6714

>  <RMSD>
2.527

$$$$
lig.pdb
 OpenBabel11021811523D
libRbt.so/2013.1/901 2013/11/27
 10 11  0  0  0  0  0  0  0  0999 V2000
  -30.7408   17.9554  -17.7460 N   0  0  0  0  0  0  0  0  0  0  0  0
  -31.9737   18.4860  -17.4823 C   0  0  0  0  0  0  0  0  0  0  0  0
  -32.3480   18.3610  -16.2315 N   0  0  0  0  0  0  0  0  0  0  0  0
  -31.2884   17.7015  -15.6318 C   0  0  0  0  0  0  0  0  0  0  0  0
  -31.0639   17.2734  -14.3104 C   0  0  0  0  0  0  0  0  0  0  0  0
  -31.9453   17.4541  -13.3213 N   0  0  0  0  0  0  0  0  0  0  0  0
  -29.8972   16.6462  -14.0444 N   0  0  0  0  0  0  0  0  0  0  0  0
  -29.0213   16.4657  -15.0390 C   0  0  0  0  0  0  0  0  0  0  0  0
  -29.1203   16.8247  -16.3184 N   0  0  0  0  0  0  0  0  0  0  0  0
  -30.2885   17.4441  -16.5508 C   0  0  0  0  0  0  0  0  0  0  0  0
  1 10  1  0  0  0  0
  2  3  2  0  0  0  0
  2  1  1  0  0  0  0
  3  4  1  0  0  0  0
  4 10  2  0  0  0  0
  4  5  1  0  0  0  0
  5  7  2  0  0  0  0
  6  5  1  0  0  0  0
  7  8  1  0  0  0  0
  9  8  2  0  0  0  0
 10  9  1  0  0  0  0
M  END
>  <CHROM.1>
-30.78969465,17.46123648,-15.62637593,-1.83518242,-0.43795369,1.81030654

>  <Name>
lig.pdb

>  <RI>
0

>  <Rbt.Current_Directory>
/home/itssahil/PROJECTS/Mol_Feturizer/New_Systems/rnas/5uza

>  <Rbt.Executable>
rbdock ($Id: //depot/dev/client3/rdock/2013.1/src/exe/rbdock.cxx#4 $)

>  <Rbt.Library>
libRbt.so (2013.1, Build901 2013/11/27)

>  <Rbt.Parameter_File>
/export/apps/rDock/src/rDock_2013.1_src/data/scripts/dock_solv.prm

>  <Rbt.Receptor>
prm/blind_docking_60.prm

>  <SCORE>
-36.7135

>  <SCORE.INTER>
-36.7135

>  <SCORE.INTER.CONST>
1

>  <SCORE.INTER.POLAR>
-4.33853

>  <SCORE.INTER.ROT>
0

>  <SCORE.INTER.SOLV>
10.7273

>  <SCORE.INTER.VDW>
-17.1896

>  <SCORE.INTER.norm>
-3.67135

>  <SCORE.INTRA>
0

>  <SCORE.INTRA.DIHEDRAL>
0

>  <SCORE.INTRA.DIHEDRAL.0>
0

>  <SCORE.INTRA.POLAR>
0

>  <SCORE.INTRA.POLAR.0>
0

>  <SCORE.INTRA.REPUL>
0

>  <SCORE.INTRA.REPUL.0>
0

>  <SCORE.INTRA.SOLV>
0

>  <SCORE.INTRA.SOLV.lig_0>
-14.8845

>  <SCORE.INTRA.VDW>
0

>  <SCORE.INTRA.VDW.0>
0

>  <SCORE.INTRA.norm>
0

>  <SCORE.RESTR>
0

>  <SCORE.RESTR.CAVITY>
0

>  <SCORE.RESTR.norm>
0

>  <SCORE.SYSTEM>
0

>  <SCORE.SYSTEM.CONST>
0

>  <SCORE.SYSTEM.DIHEDRAL>
0

>  <SCORE.SYSTEM.SOLV>
0

>  <SCORE.SYSTEM.norm>
0

>  <SCORE.heavy>
10

>  <SCORE.norm>
-3.67135

>  <RMSD>
2.527

$$$$
lig.pdb
 OpenBabel11021811523D
libRbt.so/2013.1/901 2013/11/27
 10 11  0  0  0  0  0  0  0  0999 V2000
  -30.7431   17.9680  -17.7412 N   0  0  0  0  0  0  0  0  0  0  0  0
  -31.9765   18.4964  -17.4754 C   0  0  0  0  0  0  0  0  0  0  0  0
  -32.3509   18.3655  -16.2252 N   0  0  0  0  0  0  0  0  0  0  0  0
  -31.2909   17.7043  -15.6282 C   0  0  0  0  0  0  0  0  0  0  0  0
  -31.0663   17.2705  -14.3087 C   0  0  0  0  0  0  0  0  0  0  0  0
  -31.9480   17.4462  -13.3190 N   0  0  0  0  0  0  0  0  0  0  0  0
  -29.8991   16.6431  -14.0452 N   0  0  0  0  0  0  0  0  0  0  0  0
  -29.0229   16.4678  -15.0405 C   0  0  0  0  0  0  0  0  0  0  0  0
  -29.1219   16.8324  -16.3183 N   0  0  0  0  0  0  0  0  0  0  0  0
  -30.2906   17.4517  -16.5482 C   0  0  0  0  0  0  0  0  0  0  0  0
  1 10  1  0  0  0  0
  2  3  2  0  0  0  0
  2  1  1  0  0  0  0
  3  4  1  0  0  0  0
  4 10  2  0  0  0  0
  4  5  1  0  0  0  0
  5  7  2  0  0  0  0
  6  5  1  0  0  0  0
  7  8  1  0  0  0  0
  9  8  2  0  0  0  0
 10  9  1  0  0  0  0
M  END
>  <CHROM.1>
-30.79197796,17.46441127,-15.62379320,-1.83517878,-0.43709306,1.81471897

>  <Name>
lig.pdb

>  <RI>
0

>  <Rbt.Current_Directory>
/home/itssahil/PROJECTS/Mol_Feturizer/New_Systems/rnas/5uza

>  <Rbt.Executable>
rbdock ($Id: //depot/dev/client3/rdock/2013.1/src/exe/rbdock.cxx#4 $)

>  <Rbt.Library>
libRbt.so (2013.1, Build901 2013/11/27)

>  <Rbt.Parameter_File>
/export/apps/rDock/src/rDock_2013.1_src/data/scripts/dock_solv.prm

>  <Rbt.Receptor>
prm/blind_docking_80.prm

>  <SCORE>
-36.7177

>  <SCORE.INTER>
-36.7177

>  <SCORE.INTER.CONST>
1

>  <SCORE.INTER.POLAR>
-4.35499

>  <SCORE.INTER.ROT>
0

>  <SCORE.INTER.SOLV>
10.7355

>  <SCORE.INTER.VDW>
-17.1404

>  <SCORE.INTER.norm>
-3.67177

>  <SCORE.INTRA>
0

>  <SCORE.INTRA.DIHEDRAL>
0

>  <SCORE.INTRA.DIHEDRAL.0>
0

>  <SCORE.INTRA.POLAR>
0

>  <SCORE.INTRA.POLAR.0>
0

>  <SCORE.INTRA.REPUL>
0

>  <SCORE.INTRA.REPUL.0>
0

>  <SCORE.INTRA.SOLV>
0

>  <SCORE.INTRA.SOLV.lig_0>
-14.8845

>  <SCORE.INTRA.VDW>
0

>  <SCORE.INTRA.VDW.0>
0

>  <SCORE.INTRA.norm>
0

>  <SCORE.RESTR>
0

>  <SCORE.RESTR.CAVITY>
0

>  <SCORE.RESTR.norm>
0

>  <SCORE.SYSTEM>
0

>  <SCORE.SYSTEM.CONST>
0

>  <SCORE.SYSTEM.DIHEDRAL>
0

>  <SCORE.SYSTEM.SOLV>
0

>  <SCORE.SYSTEM.norm>
0

>  <SCORE.heavy>
10

>  <SCORE.norm>
-3.67177

>  <RMSD>
2.527

$$$$
lig.pdb
 OpenBabel11021811523D
libRbt.so/2013.1/901 2013/11/27
 10 11  0  0  0  0  0  0  0  0999 V2000
  -30.7377   17.9692  -17.7426 N   0  0  0  0  0  0  0  0  0  0  0  0
  -31.9716   18.4974  -17.4789 C   0  0  0  0  0  0  0  0  0  0  0  0
  -32.3471   18.3688  -16.2288 N   0  0  0  0  0  0  0  0  0  0  0  0
  -31.2872   17.7093  -15.6296 C   0  0  0  0  0  0  0  0  0  0  0  0
  -31.0636   17.2782  -14.3090 C   0  0  0  0  0  0  0  0  0  0  0  0
  -31.9463   17.4553  -13.3205 N   0  0  0  0  0  0  0  0  0  0  0  0
  -29.8963   16.6519  -14.0433 N   0  0  0  0  0  0  0  0  0  0  0  0
  -29.0191   16.4752  -15.0375 C   0  0  0  0  0  0  0  0  0  0  0  0
  -29.1171   16.8372  -16.3161 N   0  0  0  0  0  0  0  0  0  0  0  0
  -30.2860   17.4555  -16.5482 C   0  0  0  0  0  0  0  0  0  0  0  0
  1 10  1  0  0  0  0
  2  3  2  0  0  0  0
  2  1  1  0  0  0  0
  3  4  1  0  0  0  0
  4 10  2  0  0  0  0
  4  5  1  0  0  0  0
  5  7  2  0  0  0  0
  6  5  1  0  0  0  0
  7  8  1  0  0  0  0
  9  8  2  0  0  0  0
 10  9  1  0  0  0  0
M  END
>  <CHROM.1>
-30.78818225,17.46969404,-15.62426882,-1.83437874,-0.43636219,1.81312111

>  <Name>
lig.pdb

>  <RI>
0

>  <Rbt.Current_Directory>
/home/itssahil/PROJECTS/Mol_Feturizer/New_Systems/rnas/5uza

>  <Rbt.Executable>
rbdock ($Id: //depot/dev/client3/rdock/2013.1/src/exe/rbdock.cxx#4 $)

>  <Rbt.Library>
libRbt.so (2013.1, Build901 2013/11/27)

>  <Rbt.Parameter_File>
/export/apps/rDock/src/rDock_2013.1_src/data/scripts/dock_solv.prm

>  <Rbt.Receptor>
prm/pocket_docking_3.prm

>  <SCORE>
-36.6861

>  <SCORE.INTER>
-36.6861

>  <SCORE.INTER.CONST>
1

>  <SCORE.INTER.POLAR>
-4.34061

>  <SCORE.INTER.ROT>
0

>  <SCORE.INTER.SOLV>
10.7344

>  <SCORE.INTER.VDW>
-17.1668

>  <SCORE.INTER.norm>
-3.66861

>  <SCORE.INTRA>
0

>  <SCORE.INTRA.DIHEDRAL>
0

>  <SCORE.INTRA.DIHEDRAL.0>
0

>  <SCORE.INTRA.POLAR>
0

>  <SCORE.INTRA.POLAR.0>
0

>  <SCORE.INTRA.REPUL>
0

>  <SCORE.INTRA.REPUL.0>
0

>  <SCORE.INTRA.SOLV>
0

>  <SCORE.INTRA.SOLV.lig_0>
-14.8845

>  <SCORE.INTRA.VDW>
0

>  <SCORE.INTRA.VDW.0>
0

>  <SCORE.INTRA.norm>
0

>  <SCORE.RESTR>
0

>  <SCORE.RESTR.CAVITY>
0

>  <SCORE.RESTR.norm>
0

>  <SCORE.SYSTEM>
0

>  <SCORE.SYSTEM.CONST>
0

>  <SCORE.SYSTEM.DIHEDRAL>
0

>  <SCORE.SYSTEM.SOLV>
0

>  <SCORE.SYSTEM.norm>
0

>  <SCORE.heavy>
10

>  <SCORE.norm>
-3.66861

>  <RMSD>
2.527

$$$$
lig.pdb
 OpenBabel11021811523D
libRbt.so/2013.1/901 2013/11/27
 10 11  0  0  0  0  0  0  0  0999 V2000
  -30.7370   17.9422  -17.7474 N   0  0  0  0  0  0  0  0  0  0  0  0
  -31.9719   18.4685  -17.4848 C   0  0  0  0  0  0  0  0  0  0  0  0
  -32.3433   18.3497  -16.2325 N   0  0  0  0  0  0  0  0  0  0  0  0
  -31.2793   17.6993  -15.6306 C   0  0  0  0  0  0  0  0  0  0  0  0
  -31.0502   17.2810  -14.3069 C   0  0  0  0  0  0  0  0  0  0  0  0
  -31.9306   17.4637  -13.3173 N   0  0  0  0  0  0  0  0  0  0  0  0
  -29.8799   16.6612  -14.0390 N   0  0  0  0  0  0  0  0  0  0  0  0
  -29.0050   16.4787  -15.0342 C   0  0  0  0  0  0  0  0  0  0  0  0
  -29.1082   16.8288  -16.3157 N   0  0  0  0  0  0  0  0  0  0  0  0
  -30.2799   17.4409  -16.5499 C   0  0  0  0  0  0  0  0  0  0  0  0
  1 10  1  0  0  0  0
  2  3  2  0  0  0  0
  2  1  1  0  0  0  0
  3  4  1  0  0  0  0
  4 10  2  0  0  0  0
  4  5  1  0  0  0  0
  5  7  2  0  0  0  0
  6  5  1  0  0  0  0
  7  8  1  0  0  0  0
  9  8  2  0  0  0  0
 10  9  1  0  0  0  0
M  END
>  <CHROM.1>
-30.77939189,17.46160249,-15.62458173,-1.83849051,-0.43360867,1.80242977

>  <Name>
lig.pdb

>  <RI>
0

>  <Rbt.Current_Directory>
/home/itssahil/PROJECTS/Mol_Feturizer/New_Systems/rnas/5uza

>  <Rbt.Executable>
rbdock ($Id: //depot/dev/client3/rdock/2013.1/src/exe/rbdock.cxx#4 $)

>  <Rbt.Library>
libRbt.so (2013.1, Build901 2013/11/27)

>  <Rbt.Parameter_File>
/export/apps/rDock/src/rDock_2013.1_src/data/scripts/dock_solv.prm

>  <Rbt.Receptor>
prm/pocket_docking_3.prm

>  <SCORE>
-36.6549

>  <SCORE.INTER>
-36.6549

>  <SCORE.INTER.CONST>
1

>  <SCORE.INTER.POLAR>
-4.33603

>  <SCORE.INTER.ROT>
0

>  <SCORE.INTER.SOLV>
10.7138

>  <SCORE.INTER.VDW>
-17.1544

>  <SCORE.INTER.norm>
-3.66549

>  <SCORE.INTRA>
0

>  <SCORE.INTRA.DIHEDRAL>
0

>  <SCORE.INTRA.DIHEDRAL.0>
0

>  <SCORE.INTRA.POLAR>
0

>  <SCORE.INTRA.POLAR.0>
0

>  <SCORE.INTRA.REPUL>
0

>  <SCORE.INTRA.REPUL.0>
0

>  <SCORE.INTRA.SOLV>
0

>  <SCORE.INTRA.SOLV.lig_0>
-14.8845

>  <SCORE.INTRA.VDW>
0

>  <SCORE.INTRA.VDW.0>
0

>  <SCORE.INTRA.norm>
0

>  <SCORE.RESTR>
0

>  <SCORE.RESTR.CAVITY>
0

>  <SCORE.RESTR.norm>
0

>  <SCORE.SYSTEM>
0

>  <SCORE.SYSTEM.CONST>
0

>  <SCORE.SYSTEM.DIHEDRAL>
0

>  <SCORE.SYSTEM.SOLV>
0

>  <SCORE.SYSTEM.norm>
0

>  <SCORE.heavy>
10

>  <SCORE.norm>
-3.66549

>  <RMSD>
2.527

$$$$
lig.pdb
 OpenBabel11021811523D
libRbt.so/2013.1/901 2013/11/27
 10 11  0  0  0  0  0  0  0  0999 V2000
  -30.7388   17.9606  -17.7442 N   0  0  0  0  0  0  0  0  0  0  0  0
  -31.9716   18.4910  -17.4802 C   0  0  0  0  0  0  0  0  0  0  0  0
  -32.3470   18.3633  -16.2300 N   0  0  0  0  0  0  0  0  0  0  0  0
  -31.2880   17.7022  -15.6310 C   0  0  0  0  0  0  0  0  0  0  0  0
  -31.0647   17.2711  -14.3103 C   0  0  0  0  0  0  0  0  0  0  0  0
  -31.9467   17.4499  -13.3215 N   0  0  0  0  0  0  0  0  0  0  0  0
  -29.8984   16.6429  -14.0448 N   0  0  0  0  0  0  0  0  0  0  0  0
  -29.0217   16.4644  -15.0393 C   0  0  0  0  0  0  0  0  0  0  0  0
  -29.1196   16.8262  -16.3179 N   0  0  0  0  0  0  0  0  0  0  0  0
  -30.2875   17.4465  -16.5498 C   0  0  0  0  0  0  0  0  0  0  0  0
  1 10  1  0  0  0  0
  2  3  2  0  0  0  0
  2  1  1  0  0  0  0
  3  4  1  0  0  0  0
  4 10  2  0  0  0  0
  4  5  1  0  0  0  0
  5  7  2  0  0  0  0
  6  5  1  0  0  0  0
  7  8  1  0  0  0  0
  9  8  2  0  0  0  0
 10  9  1  0  0  0  0
M  END
>  <CHROM.1>
-30.78938276,17.46173690,-15.62571155,-1.83428549,-0.43808423,1.81291053

>  <Name>
lig.pdb

>  <RI>
0

>  <Rbt.Current_Directory>
/home/itssahil/PROJECTS/Mol_Feturizer/New_Systems/rnas/5uza

>  <Rbt.Executable>
rbdock ($Id: //depot/dev/client3/rdock/2013.1/src/exe/rbdock.cxx#4 $)

>  <Rbt.Library>
libRbt.so (2013.1, Build901 2013/11/27)

>  <Rbt.Parameter_File>
/export/apps/rDock/src/rDock_2013.1_src/data/scripts/dock_solv.prm

>  <Rbt.Receptor>
prm/pocket_docking_3.prm

>  <SCORE>
-36.717

>  <SCORE.INTER>
-36.717

>  <SCORE.INTER.CONST>
1

>  <SCORE.INTER.POLAR>
-4.34331

>  <SCORE.INTER.ROT>
0

>  <SCORE.INTER.SOLV>
10.7329

>  <SCORE.INTER.VDW>
-17.178

>  <SCORE.INTER.norm>
-3.6717

>  <SCORE.INTRA>
0

>  <SCORE.INTRA.DIHEDRAL>
0

>  <SCORE.INTRA.DIHEDRAL.0>
0

>  <SCORE.INTRA.POLAR>
0

>  <SCORE.INTRA.POLAR.0>
0

>  <SCORE.INTRA.REPUL>
0

>  <SCORE.INTRA.REPUL.0>
0

>  <SCORE.INTRA.SOLV>
0

>  <SCORE.INTRA.SOLV.lig_0>
-14.8845

>  <SCORE.INTRA.VDW>
0

>  <SCORE.INTRA.VDW.0>
0

>  <SCORE.INTRA.norm>
0

>  <SCORE.RESTR>
0

>  <SCORE.RESTR.CAVITY>
0

>  <SCORE.RESTR.norm>
0

>  <SCORE.SYSTEM>
0

>  <SCORE.SYSTEM.CONST>
0

>  <SCORE.SYSTEM.DIHEDRAL>
0

>  <SCORE.SYSTEM.SOLV>
0

>  <SCORE.SYSTEM.norm>
0

>  <SCORE.heavy>
10

>  <SCORE.norm>
-3.6717

>  <RMSD>
2.527

$$$$
lig.pdb
 OpenBabel11021811523D
libRbt.so/2013.1/901 2013/11/27
 10 11  0  0  0  0  0  0  0  0999 V2000
  -30.7398   17.9598  -17.7448 N   0  0  0  0  0  0  0  0  0  0  0  0
  -31.9726   18.4903  -17.4806 C   0  0  0  0  0  0  0  0  0  0  0  0
  -32.3475   18.3630  -16.2302 N   0  0  0  0  0  0  0  0  0  0  0  0
  -31.2883   17.7020  -15.6313 C   0  0  0  0  0  0  0  0  0  0  0  0
  -31.0645   17.2713  -14.3106 C   0  0  0  0  0  0  0  0  0  0  0  0
  -31.9462   17.4504  -13.3216 N   0  0  0  0  0  0  0  0  0  0  0  0
  -29.8981   16.6433  -14.0454 N   0  0  0  0  0  0  0  0  0  0  0  0
  -29.0218   16.4645  -15.0400 C   0  0  0  0  0  0  0  0  0  0  0  0
  -29.1201   16.8260  -16.3187 N   0  0  0  0  0  0  0  0  0  0  0  0
  -30.2881   17.4461  -16.5504 C   0  0  0  0  0  0  0  0  0  0  0  0
  1 10  1  0  0  0  0
  2  3  2  0  0  0  0
  2  1  1  0  0  0  0
  3  4  1  0  0  0  0
  4 10  2  0  0  0  0
  4  5  1  0  0  0  0
  5  7  2  0  0  0  0
  6  5  1  0  0  0  0
  7  8  1  0  0  0  0
  9  8  2  0  0  0  0
 10  9  1  0  0  0  0
M  END
>  <CHROM.1>
-30.78964030,17.46162341,-15.62616344,-1.83465843,-0.43813636,1.81244966

>  <Name>
lig.pdb

>  <RI>
9.24451e+06

>  <Rbt.Current_Directory>
/home/itssahil/PROJECTS/Mol_Feturizer/New_Systems/rnas/5uza

>  <Rbt.Executable>
rbdock ($Id: //depot/dev/client3/rdock/2013.1/src/exe/rbdock.cxx#4 $)

>  <Rbt.Library>
libRbt.so (2013.1, Build901 2013/11/27)

>  <Rbt.Parameter_File>
/export/apps/rDock/src/rDock_2013.1_src/data/scripts/dock_solv.prm

>  <Rbt.Receptor>
prm/pocket_docking_4.prm

>  <SCORE>
-36.7171

>  <SCORE.INTER>
-36.7171

>  <SCORE.INTER.CONST>
1

>  <SCORE.INTER.POLAR>
-4.34275

>  <SCORE.INTER.ROT>
0

>  <SCORE.INTER.SOLV>
10.7318

>  <SCORE.INTER.VDW>
-17.1795

>  <SCORE.INTER.norm>
-3.67171

>  <SCORE.INTRA>
0

>  <SCORE.INTRA.DIHEDRAL>
0

>  <SCORE.INTRA.DIHEDRAL.0>
0

>  <SCORE.INTRA.POLAR>
0

>  <SCORE.INTRA.POLAR.0>
0

>  <SCORE.INTRA.REPUL>
0

>  <SCORE.INTRA.REPUL.0>
0

>  <SCORE.INTRA.SOLV>
0

>  <SCORE.INTRA.SOLV.lig_0>
-14.8845

>  <SCORE.INTRA.VDW>
0

>  <SCORE.INTRA.VDW.0>
0

>  <SCORE.INTRA.norm>
0

>  <SCORE.RESTR>
0

>  <SCORE.RESTR.CAVITY>
0

>  <SCORE.RESTR.norm>
0

>  <SCORE.SYSTEM>
0

>  <SCORE.SYSTEM.CONST>
0

>  <SCORE.SYSTEM.DIHEDRAL>
0

>  <SCORE.SYSTEM.SOLV>
0

>  <SCORE.SYSTEM.norm>
0

>  <SCORE.heavy>
10

>  <SCORE.norm>
-3.67171

>  <RMSD>
2.527

$$$$
lig.pdb
 OpenBabel11021811523D
libRbt.so/2013.1/901 2013/11/27
 10 11  0  0  0  0  0  0  0  0999 V2000
  -30.7399   17.9587  -17.7448 N   0  0  0  0  0  0  0  0  0  0  0  0
  -31.9726   18.4894  -17.4807 C   0  0  0  0  0  0  0  0  0  0  0  0
  -32.3475   18.3622  -16.2302 N   0  0  0  0  0  0  0  0  0  0  0  0
  -31.2885   17.7011  -15.6313 C   0  0  0  0  0  0  0  0  0  0  0  0
  -31.0647   17.2705  -14.3106 C   0  0  0  0  0  0  0  0  0  0  0  0
  -31.9464   17.4497  -13.3216 N   0  0  0  0  0  0  0  0  0  0  0  0
  -29.8984   16.6422  -14.0453 N   0  0  0  0  0  0  0  0  0  0  0  0
  -29.0221   16.4633  -15.0399 C   0  0  0  0  0  0  0  0  0  0  0  0
  -29.1204   16.8247  -16.3187 N   0  0  0  0  0  0  0  0  0  0  0  0
  -30.2883   17.4450  -16.5504 C   0  0  0  0  0  0  0  0  0  0  0  0
  1 10  1  0  0  0  0
  2  3  2  0  0  0  0
  2  1  1  0  0  0  0
  3  4  1  0  0  0  0
  4 10  2  0  0  0  0
  4  5  1  0  0  0  0
  5  7  2  0  0  0  0
  6  5  1  0  0  0  0
  7  8  1  0  0  0  0
  9  8  2  0  0  0  0
 10  9  1  0  0  0  0
M  END
>  <CHROM.1>
-30.78983540,17.46063485,-15.62616394,-1.83461650,-0.43826921,1.81240987

>  <Name>
lig.pdb

>  <RI>
9.24451e+06

>  <Rbt.Current_Directory>
/home/itssahil/PROJECTS/Mol_Feturizer/New_Systems/rnas/5uza

>  <Rbt.Executable>
rbdock ($Id: //depot/dev/client3/rdock/2013.1/src/exe/rbdock.cxx#4 $)

>  <Rbt.Library>
libRbt.so (2013.1, Build901 2013/11/27)

>  <Rbt.Parameter_File>
/export/apps/rDock/src/rDock_2013.1_src/data/scripts/dock_solv.prm

>  <Rbt.Receptor>
prm/pocket_docking_4.prm

>  <SCORE>
-36.7175

>  <SCORE.INTER>
-36.7175

>  <SCORE.INTER.CONST>
1

>  <SCORE.INTER.POLAR>
-4.34335

>  <SCORE.INTER.ROT>
0

>  <SCORE.INTER.SOLV>
10.7316

>  <SCORE.INTER.VDW>
-17.1777

>  <SCORE.INTER.norm>
-3.67175

>  <SCORE.INTRA>
0

>  <SCORE.INTRA.DIHEDRAL>
0

>  <SCORE.INTRA.DIHEDRAL.0>
0

>  <SCORE.INTRA.POLAR>
0

>  <SCORE.INTRA.POLAR.0>
0

>  <SCORE.INTRA.REPUL>
0

>  <SCORE.INTRA.REPUL.0>
0

>  <SCORE.INTRA.SOLV>
0

>  <SCORE.INTRA.SOLV.lig_0>
-14.8845

>  <SCORE.INTRA.VDW>
0

>  <SCORE.INTRA.VDW.0>
0

>  <SCORE.INTRA.norm>
0

>  <SCORE.RESTR>
0

>  <SCORE.RESTR.CAVITY>
0

>  <SCORE.RESTR.norm>
0

>  <SCORE.SYSTEM>
0

>  <SCORE.SYSTEM.CONST>
0

>  <SCORE.SYSTEM.DIHEDRAL>
0

>  <SCORE.SYSTEM.SOLV>
0

>  <SCORE.SYSTEM.norm>
0

>  <SCORE.heavy>
10

>  <SCORE.norm>
-3.67175

>  <RMSD>
2.527

$$$$
lig.pdb
 OpenBabel11021811523D
libRbt.so/2013.1/901 2013/11/27
 10 11  0  0  0  0  0  0  0  0999 V2000
  -30.7368   17.9629  -17.7448 N   0  0  0  0  0  0  0  0  0  0  0  0
  -31.9693   18.4943  -17.4812 C   0  0  0  0  0  0  0  0  0  0  0  0
  -32.3447   18.3674  -16.2308 N   0  0  0  0  0  0  0  0  0  0  0  0
  -31.2864   17.7056  -15.6316 C   0  0  0  0  0  0  0  0  0  0  0  0
  -31.0634   17.2748  -14.3108 C   0  0  0  0  0  0  0  0  0  0  0  0
  -31.9454   17.4546  -13.3221 N   0  0  0  0  0  0  0  0  0  0  0  0
  -29.8976   16.6457  -14.0450 N   0  0  0  0  0  0  0  0  0  0  0  0
  -29.0211   16.4662  -15.0394 C   0  0  0  0  0  0  0  0  0  0  0  0
  -29.1186   16.8277  -16.3181 N   0  0  0  0  0  0  0  0  0  0  0  0
  -30.2860   17.4488  -16.5503 C   0  0  0  0  0  0  0  0  0  0  0  0
  1 10  1  0  0  0  0
  2  3  2  0  0  0  0
  2  1  1  0  0  0  0
  3  4  1  0  0  0  0
  4 10  2  0  0  0  0
  4  5  1  0  0  0  0
  5  7  2  0  0  0  0
  6  5  1  0  0  0  0
  7  8  1  0  0  0  0
  9  8  2  0  0  0  0
 10  9  1  0  0  0  0
M  END
>  <CHROM.1>
-30.78790208,17.46477428,-15.62622078,-1.83403200,-0.43884694,1.81267937

>  <Name>
lig.pdb

>  <RI>
9.24451e+06

>  <Rbt.Current_Directory>
/home/itssahil/PROJECTS/Mol_Feturizer/New_Systems/rnas/5uza

>  <Rbt.Executable>
rbdock ($Id: //depot/dev/client3/rdock/2013.1/src/exe/rbdock.cxx#4 $)

>  <Rbt.Library>
libRbt.so (2013.1, Build901 2013/11/27)

>  <Rbt.Parameter_File>
/export/apps/rDock/src/rDock_2013.1_src/data/scripts/dock_solv.prm

>  <Rbt.Receptor>
prm/pocket_docking_4.prm

>  <SCORE>
-36.7064

>  <SCORE.INTER>
-36.7064

>  <SCORE.INTER.CONST>
1

>  <SCORE.INTER.POLAR>
-4.33681

>  <SCORE.INTER.ROT>
0

>  <SCORE.INTER.SOLV>
10.7325

>  <SCORE.INTER.VDW>
-17.1924

>  <SCORE.INTER.norm>
-3.67064

>  <SCORE.INTRA>
0

>  <SCORE.INTRA.DIHEDRAL>
0

>  <SCORE.INTRA.DIHEDRAL.0>
0

>  <SCORE.INTRA.POLAR>
0

>  <SCORE.INTRA.POLAR.0>
0

>  <SCORE.INTRA.REPUL>
0

>  <SCORE.INTRA.REPUL.0>
0

>  <SCORE.INTRA.SOLV>
0

>  <SCORE.INTRA.SOLV.lig_0>
-14.8845

>  <SCORE.INTRA.VDW>
0

>  <SCORE.INTRA.VDW.0>
0

>  <SCORE.INTRA.norm>
0

>  <SCORE.RESTR>
0

>  <SCORE.RESTR.CAVITY>
0

>  <SCORE.RESTR.norm>
0

>  <SCORE.SYSTEM>
0

>  <SCORE.SYSTEM.CONST>
0

>  <SCORE.SYSTEM.DIHEDRAL>
0

>  <SCORE.SYSTEM.SOLV>
0

>  <SCORE.SYSTEM.norm>
0

>  <SCORE.heavy>
10

>  <SCORE.norm>
-3.67064

>  <RMSD>
2.527

$$$$
lig.pdb
 OpenBabel11021811523D
libRbt.so/2013.1/901 2013/11/27
 10 11  0  0  0  0  0  0  0  0999 V2000
  -30.7377   17.9639  -17.7424 N   0  0  0  0  0  0  0  0  0  0  0  0
  -31.9706   18.4943  -17.4784 C   0  0  0  0  0  0  0  0  0  0  0  0
  -32.3464   18.3653  -16.2284 N   0  0  0  0  0  0  0  0  0  0  0  0
  -31.2880   17.7031  -15.6297 C   0  0  0  0  0  0  0  0  0  0  0  0
  -31.0653   17.2704  -14.3095 C   0  0  0  0  0  0  0  0  0  0  0  0
  -31.9478   17.4484  -13.3209 N   0  0  0  0  0  0  0  0  0  0  0  0
  -29.8993   16.6416  -14.0443 N   0  0  0  0  0  0  0  0  0  0  0  0
  -29.0223   16.4639  -15.0385 C   0  0  0  0  0  0  0  0  0  0  0  0
  -29.1196   16.8273  -16.3168 N   0  0  0  0  0  0  0  0  0  0  0  0
  -30.2871   17.4482  -16.5485 C   0  0  0  0  0  0  0  0  0  0  0  0
  1 10  1  0  0  0  0
  2  3  2  0  0  0  0
  2  1  1  0  0  0  0
  3  4  1  0  0  0  0
  4 10  2  0  0  0  0
  4  5  1  0  0  0  0
  5  7  2  0  0  0  0
  6  5  1  0  0  0  0
  7  8  1  0  0  0  0
  9  8  2  0  0  0  0
 10  9  1  0  0  0  0
M  END
>  <CHROM.1>
-30.78940909,17.46254998,-15.62454127,-1.83374023,-0.43828701,1.81430743

>  <Name>
lig.pdb

>  <RI>
9.24451e+06

>  <Rbt.Current_Directory>
/home/itssahil/PROJECTS/Mol_Feturizer/New_Systems/rnas/5uza

>  <Rbt.Executable>
rbdock ($Id: //depot/dev/client3/rdock/2013.1/src/exe/rbdock.cxx#4 $)

>  <Rbt.Library>
libRbt.so (2013.1, Build901 2013/11/27)

>  <Rbt.Parameter_File>
/export/apps/rDock/src/rDock_2013.1_src/data/scripts/dock_solv.prm

>  <Rbt.Receptor>
prm/pocket_docking_4.prm

>  <SCORE>
-36.7185

>  <SCORE.INTER>
-36.7185

>  <SCORE.INTER.CONST>
1

>  <SCORE.INTER.POLAR>
-4.34706

>  <SCORE.INTER.ROT>
0

>  <SCORE.INTER.SOLV>
10.7356

>  <SCORE.INTER.VDW>
-17.1673

>  <SCORE.INTER.norm>
-3.67185

>  <SCORE.INTRA>
0

>  <SCORE.INTRA.DIHEDRAL>
0

>  <SCORE.INTRA.DIHEDRAL.0>
0

>  <SCORE.INTRA.POLAR>
0

>  <SCORE.INTRA.POLAR.0>
0

>  <SCORE.INTRA.REPUL>
0

>  <SCORE.INTRA.REPUL.0>
0

>  <SCORE.INTRA.SOLV>
0

>  <SCORE.INTRA.SOLV.lig_0>
-14.8845

>  <SCORE.INTRA.VDW>
0

>  <SCORE.INTRA.VDW.0>
0

>  <SCORE.INTRA.norm>
0

>  <SCORE.RESTR>
0

>  <SCORE.RESTR.CAVITY>
0

>  <SCORE.RESTR.norm>
0

>  <SCORE.SYSTEM>
0

>  <SCORE.SYSTEM.CONST>
0

>  <SCORE.SYSTEM.DIHEDRAL>
0

>  <SCORE.SYSTEM.SOLV>
0

>  <SCORE.SYSTEM.norm>
0

>  <SCORE.heavy>
10

>  <SCORE.norm>
-3.67185

>  <RMSD>
2.527

$$$$
lig.pdb
 OpenBabel11021811523D
libRbt.so/2013.1/901 2013/11/27
 10 11  0  0  0  0  0  0  0  0999 V2000
  -30.7386   17.9642  -17.7430 N   0  0  0  0  0  0  0  0  0  0  0  0
  -31.9718   18.4937  -17.4789 C   0  0  0  0  0  0  0  0  0  0  0  0
  -32.3473   18.3648  -16.2289 N   0  0  0  0  0  0  0  0  0  0  0  0
  -31.2882   17.7036  -15.6302 C   0  0  0  0  0  0  0  0  0  0  0  0
  -31.0648   17.2715  -14.3099 C   0  0  0  0  0  0  0  0  0  0  0  0
  -31.9472   17.4490  -13.3211 N   0  0  0  0  0  0  0  0  0  0  0  0
  -29.8983   16.6438  -14.0447 N   0  0  0  0  0  0  0  0  0  0  0  0
  -29.0213   16.4666  -15.0390 C   0  0  0  0  0  0  0  0  0  0  0  0
  -29.1191   16.8295  -16.3174 N   0  0  0  0  0  0  0  0  0  0  0  0
  -30.2873   17.4493  -16.5491 C   0  0  0  0  0  0  0  0  0  0  0  0
  1 10  1  0  0  0  0
  2  3  2  0  0  0  0
  2  1  1  0  0  0  0
  3  4  1  0  0  0  0
  4 10  2  0  0  0  0
  4  5  1  0  0  0  0
  5  7  2  0  0  0  0
  6  5  1  0  0  0  0
  7  8  1  0  0  0  0
  9  8  2  0  0  0  0
 10  9  1  0  0  0  0
M  END
>  <CHROM.1>
-30.78937617,17.46350098,-15.62503665,-1.83419062,-0.43750373,1.81381176

>  <Name>
lig.pdb

>  <RI>
9.24451e+06

>  <Rbt.Current_Directory>
/home/itssahil/PROJECTS/Mol_Feturizer/New_Systems/rnas/5uza

>  <Rbt.Executable>
rbdock ($Id: //depot/dev/client3/rdock/2013.1/src/exe/rbdock.cxx#4 $)

>  <Rbt.Library>
libRbt.so (2013.1, Build901 2013/11/27)

>  <Rbt.Parameter_File>
/export/apps/rDock/src/rDock_2013.1_src/data/scripts/dock_solv.prm

>  <Rbt.Receptor>
prm/pocket_docking_4.prm

>  <SCORE>
-36.7186

>  <SCORE.INTER>
-36.7186

>  <SCORE.INTER.CONST>
1

>  <SCORE.INTER.POLAR>
-4.34545

>  <SCORE.INTER.ROT>
0

>  <SCORE.INTER.SOLV>
10.735

>  <SCORE.INTER.VDW>
-17.1726

>  <SCORE.INTER.norm>
-3.67186

>  <SCORE.INTRA>
0

>  <SCORE.INTRA.DIHEDRAL>
0

>  <SCORE.INTRA.DIHEDRAL.0>
0

>  <SCORE.INTRA.POLAR>
0

>  <SCORE.INTRA.POLAR.0>
0

>  <SCORE.INTRA.REPUL>
0

>  <SCORE.INTRA.REPUL.0>
0

>  <SCORE.INTRA.SOLV>
0

>  <SCORE.INTRA.SOLV.lig_0>
-14.8845

>  <SCORE.INTRA.VDW>
0

>  <SCORE.INTRA.VDW.0>
0

>  <SCORE.INTRA.norm>
0

>  <SCORE.RESTR>
0

>  <SCORE.RESTR.CAVITY>
0

>  <SCORE.RESTR.norm>
0

>  <SCORE.SYSTEM>
0

>  <SCORE.SYSTEM.CONST>
0

>  <SCORE.SYSTEM.DIHEDRAL>
0

>  <SCORE.SYSTEM.SOLV>
0

>  <SCORE.SYSTEM.norm>
0

>  <SCORE.heavy>
10

>  <SCORE.norm>
-3.67186

>  <RMSD>
2.527

$$$$
lig.pdb
 OpenBabel11021811523D
libRbt.so/2013.1/901 2013/11/27
 10 11  0  0  0  0  0  0  0  0999 V2000
  -30.7375   17.9674  -17.7419 N   0  0  0  0  0  0  0  0  0  0  0  0
  -31.9706   18.4971  -17.4776 C   0  0  0  0  0  0  0  0  0  0  0  0
  -32.3465   18.3672  -16.2277 N   0  0  0  0  0  0  0  0  0  0  0  0
  -31.2878   17.7051  -15.6294 C   0  0  0  0  0  0  0  0  0  0  0  0
  -31.0649   17.2717  -14.3094 C   0  0  0  0  0  0  0  0  0  0  0  0
  -31.9475   17.4486  -13.3207 N   0  0  0  0  0  0  0  0  0  0  0  0
  -29.8987   16.6432  -14.0445 N   0  0  0  0  0  0  0  0  0  0  0  0
  -29.0216   16.4666  -15.0388 C   0  0  0  0  0  0  0  0  0  0  0  0
  -29.1189   16.8307  -16.3168 N   0  0  0  0  0  0  0  0  0  0  0  0
  -30.2867   17.4512  -16.5482 C   0  0  0  0  0  0  0  0  0  0  0  0
  1 10  1  0  0  0  0
  2  3  2  0  0  0  0
  2  1  1  0  0  0  0
  3  4  1  0  0  0  0
  4 10  2  0  0  0  0
  4  5  1  0  0  0  0
  5  7  2  0  0  0  0
  6  5  1  0  0  0  0
  7  8  1  0  0  0  0
  9  8  2  0  0  0  0
 10  9  1  0  0  0  0
M  END
>  <CHROM.1>
-30.78906656,17.46474680,-15.62431266,-1.83380645,-0.43782352,1.81488848

>  <Name>
lig.pdb

>  <RI>
9.24451e+06

>  <Rbt.Current_Directory>
/home/itssahil/PROJECTS/Mol_Feturizer/New_Systems/rnas/5uza

>  <Rbt.Executable>
rbdock ($Id: //depot/dev/client3/rdock/2013.1/src/exe/rbdock.cxx#4 $)

>  <Rbt.Library>
libRbt.so (2013.1, Build901 2013/11/27)

>  <Rbt.Parameter_File>
/export/apps/rDock/src/rDock_2013.1_src/data/scripts/dock_solv.prm

>  <Rbt.Receptor>
prm/pocket_docking_4.prm

>  <SCORE>
-36.7198

>  <SCORE.INTER>
-36.7198

>  <SCORE.INTER.CONST>
1

>  <SCORE.INTER.POLAR>
-4.34774

>  <SCORE.INTER.ROT>
0

>  <SCORE.INTER.SOLV>
10.737

>  <SCORE.INTER.VDW>
-17.1664

>  <SCORE.INTER.norm>
-3.67198

>  <SCORE.INTRA>
0

>  <SCORE.INTRA.DIHEDRAL>
0

>  <SCORE.INTRA.DIHEDRAL.0>
0

>  <SCORE.INTRA.POLAR>
0

>  <SCORE.INTRA.POLAR.0>
0

>  <SCORE.INTRA.REPUL>
0

>  <SCORE.INTRA.REPUL.0>
0

>  <SCORE.INTRA.SOLV>
0

>  <SCORE.INTRA.SOLV.lig_0>
-14.8845

>  <SCORE.INTRA.VDW>
0

>  <SCORE.INTRA.VDW.0>
0

>  <SCORE.INTRA.norm>
0

>  <SCORE.RESTR>
0

>  <SCORE.RESTR.CAVITY>
0

>  <SCORE.RESTR.norm>
0

>  <SCORE.SYSTEM>
0

>  <SCORE.SYSTEM.CONST>
0

>  <SCORE.SYSTEM.DIHEDRAL>
0

>  <SCORE.SYSTEM.SOLV>
0

>  <SCORE.SYSTEM.norm>
0

>  <SCORE.heavy>
10

>  <SCORE.norm>
-3.67198

>  <RMSD>
2.527

$$$$
lig.pdb
 OpenBabel11021811523D
libRbt.so/2013.1/901 2013/11/27
 10 11  0  0  0  0  0  0  0  0999 V2000
  -30.7402   17.9570  -17.7454 N   0  0  0  0  0  0  0  0  0  0  0  0
  -31.9729   18.4879  -17.4815 C   0  0  0  0  0  0  0  0  0  0  0  0
  -32.3478   18.3614  -16.2310 N   0  0  0  0  0  0  0  0  0  0  0  0
  -31.2888   17.7006  -15.6318 C   0  0  0  0  0  0  0  0  0  0  0  0
  -31.0650   17.2706  -14.3108 C   0  0  0  0  0  0  0  0  0  0  0  0
  -31.9467   17.4505  -13.3218 N   0  0  0  0  0  0  0  0  0  0  0  0
  -29.8987   16.6424  -14.0452 N   0  0  0  0  0  0  0  0  0  0  0  0
  -29.0225   16.4629  -15.0397 C   0  0  0  0  0  0  0  0  0  0  0  0
  -29.1208   16.8236  -16.3187 N   0  0  0  0  0  0  0  0  0  0  0  0
  -30.2886   17.4438  -16.5508 C   0  0  0  0  0  0  0  0  0  0  0  0
  1 10  1  0  0  0  0
  2  3  2  0  0  0  0
  2  1  1  0  0  0  0
  3  4  1  0  0  0  0
  4 10  2  0  0  0  0
  4  5  1  0  0  0  0
  5  7  2  0  0  0  0
  6  5  1  0  0  0  0
  7  8  1  0  0  0  0
  9  8  2  0  0  0  0
 10  9  1  0  0  0  0
M  END
>  <CHROM.1>
-30.79017800,17.46005473,-15.62647296,-1.83462000,-0.43836071,1.81186389

>  <Name>
lig.pdb

>  <RI>
0

>  <Rbt.Current_Directory>
/home/itssahil/PROJECTS/Mol_Feturizer/New_Systems/rnas/5uza

>  <Rbt.Executable>
rbdock ($Id: //depot/dev/client3/rdock/2013.1/src/exe/rbdock.cxx#4 $)

>  <Rbt.Library>
libRbt.so (2013.1, Build901 2013/11/27)

>  <Rbt.Parameter_File>
/export/apps/rDock/src/rDock_2013.1_src/data/scripts/dock_solv.prm

>  <Rbt.Receptor>
prm/pocket_docking_5.prm

>  <SCORE>
-36.7133

>  <SCORE.INTER>
-36.7133

>  <SCORE.INTER.CONST>
1

>  <SCORE.INTER.POLAR>
-4.34123

>  <SCORE.INTER.ROT>
0

>  <SCORE.INTER.SOLV>
10.7305

>  <SCORE.INTER.VDW>
-17.1816

>  <SCORE.INTER.norm>
-3.67133

>  <SCORE.INTRA>
0

>  <SCORE.INTRA.DIHEDRAL>
0

>  <SCORE.INTRA.DIHEDRAL.0>
0

>  <SCORE.INTRA.POLAR>
0

>  <SCORE.INTRA.POLAR.0>
0

>  <SCORE.INTRA.REPUL>
0

>  <SCORE.INTRA.REPUL.0>
0

>  <SCORE.INTRA.SOLV>
0

>  <SCORE.INTRA.SOLV.lig_0>
-14.8845

>  <SCORE.INTRA.VDW>
0

>  <SCORE.INTRA.VDW.0>
0

>  <SCORE.INTRA.norm>
0

>  <SCORE.RESTR>
0

>  <SCORE.RESTR.CAVITY>
0

>  <SCORE.RESTR.norm>
0

>  <SCORE.SYSTEM>
0

>  <SCORE.SYSTEM.CONST>
0

>  <SCORE.SYSTEM.DIHEDRAL>
0

>  <SCORE.SYSTEM.SOLV>
0

>  <SCORE.SYSTEM.norm>
0

>  <SCORE.heavy>
10

>  <SCORE.norm>
-3.67133

>  <RMSD>
2.527

$$$$
lig.pdb
 OpenBabel11021811523D
libRbt.so/2013.1/901 2013/11/27
 10 11  0  0  0  0  0  0  0  0999 V2000
  -30.7406   17.9529  -17.7467 N   0  0  0  0  0  0  0  0  0  0  0  0
  -31.9730   18.4847  -17.4831 C   0  0  0  0  0  0  0  0  0  0  0  0
  -32.3473   18.3606  -16.2321 N   0  0  0  0  0  0  0  0  0  0  0  0
  -31.2882   17.7004  -15.6323 C   0  0  0  0  0  0  0  0  0  0  0  0
  -31.0639   17.2727  -14.3107 C   0  0  0  0  0  0  0  0  0  0  0  0
  -31.9450   17.4547  -13.3216 N   0  0  0  0  0  0  0  0  0  0  0  0
  -29.8977   16.6446  -14.0446 N   0  0  0  0  0  0  0  0  0  0  0  0
  -29.0221   16.4629  -15.0393 C   0  0  0  0  0  0  0  0  0  0  0  0
  -29.1209   16.8214  -16.3188 N   0  0  0  0  0  0  0  0  0  0  0  0
  -30.2886   17.4417  -16.5513 C   0  0  0  0  0  0  0  0  0  0  0  0
  1 10  1  0  0  0  0
  2  3  2  0  0  0  0
  2  1  1  0  0  0  0
  3  4  1  0  0  0  0
  4 10  2  0  0  0  0
  4  5  1  0  0  0  0
  5  7  2  0  0  0  0
  6  5  1  0  0  0  0
  7  8  1  0  0  0  0
  9  8  2  0  0  0  0
 10  9  1  0  0  0  0
M  END
>  <CHROM.1>
-30.78964938,17.45972189,-15.62683096,-1.83509186,-0.43884076,1.80989410

>  <Name>
lig.pdb

>  <RI>
0

>  <Rbt.Current_Directory>
/home/itssahil/PROJECTS/Mol_Feturizer/New_Systems/rnas/5uza

>  <Rbt.Executable>
rbdock ($Id: //depot/dev/client3/rdock/2013.1/src/exe/rbdock.cxx#4 $)

>  <Rbt.Library>
libRbt.so (2013.1, Build901 2013/11/27)

>  <Rbt.Parameter_File>
/export/apps/rDock/src/rDock_2013.1_src/data/scripts/dock_solv.prm

>  <Rbt.Receptor>
prm/pocket_docking_5.prm

>  <SCORE>
-36.7082

>  <SCORE.INTER>
-36.7082

>  <SCORE.INTER.CONST>
1

>  <SCORE.INTER.POLAR>
-4.33667

>  <SCORE.INTER.ROT>
0

>  <SCORE.INTER.SOLV>
10.7261

>  <SCORE.INTER.VDW>
-17.1919

>  <SCORE.INTER.norm>
-3.67082

>  <SCORE.INTRA>
0

>  <SCORE.INTRA.DIHEDRAL>
0

>  <SCORE.INTRA.DIHEDRAL.0>
0

>  <SCORE.INTRA.POLAR>
0

>  <SCORE.INTRA.POLAR.0>
0

>  <SCORE.INTRA.REPUL>
0

>  <SCORE.INTRA.REPUL.0>
0

>  <SCORE.INTRA.SOLV>
0

>  <SCORE.INTRA.SOLV.lig_0>
-14.8845

>  <SCORE.INTRA.VDW>
0

>  <SCORE.INTRA.VDW.0>
0

>  <SCORE.INTRA.norm>
0

>  <SCORE.RESTR>
0

>  <SCORE.RESTR.CAVITY>
0

>  <SCORE.RESTR.norm>
0

>  <SCORE.SYSTEM>
0

>  <SCORE.SYSTEM.CONST>
0

>  <SCORE.SYSTEM.DIHEDRAL>
0

>  <SCORE.SYSTEM.SOLV>
0

>  <SCORE.SYSTEM.norm>
0

>  <SCORE.heavy>
10

>  <SCORE.norm>
-3.67082

>  <RMSD>
2.527

$$$$
lig.pdb
 OpenBabel11021811523D
libRbt.so/2013.1/901 2013/11/27
 10 11  0  0  0  0  0  0  0  0999 V2000
  -30.7418   17.9488  -17.7480 N   0  0  0  0  0  0  0  0  0  0  0  0
  -31.9740   18.4809  -17.4845 C   0  0  0  0  0  0  0  0  0  0  0  0
  -32.3481   18.3576  -16.2334 N   0  0  0  0  0  0  0  0  0  0  0  0
  -31.2889   17.6977  -15.6333 C   0  0  0  0  0  0  0  0  0  0  0  0
  -31.0644   17.2708  -14.3116 C   0  0  0  0  0  0  0  0  0  0  0  0
  -31.9453   17.4535  -13.3224 N   0  0  0  0  0  0  0  0  0  0  0  0
  -29.8982   16.6427  -14.0452 N   0  0  0  0  0  0  0  0  0  0  0  0
  -29.0228   16.4603  -15.0400 C   0  0  0  0  0  0  0  0  0  0  0  0
  -29.1219   16.8181  -16.3197 N   0  0  0  0  0  0  0  0  0  0  0  0
  -30.2895   17.4383  -16.5524 C   0  0  0  0  0  0  0  0  0  0  0  0
  1 10  1  0  0  0  0
  2  3  2  0  0  0  0
  2  1  1  0  0  0  0
  3  4  1  0  0  0  0
  4 10  2  0  0  0  0
  4  5  1  0  0  0  0
  5  7  2  0  0  0  0
  6  5  1  0  0  0  0
  7  8  1  0  0  0  0
  9  8  2  0  0  0  0
 10  9  1  0  0  0  0
M  END
>  <CHROM.1>
-30.79041868,17.45695567,-15.62783453,-1.83527620,-0.43899249,1.80919061

>  <Name>
lig.pdb

>  <RI>
0

>  <Rbt.Current_Directory>
/home/itssahil/PROJECTS/Mol_Feturizer/New_Systems/rnas/5uza

>  <Rbt.Executable>
rbdock ($Id: //depot/dev/client3/rdock/2013.1/src/exe/rbdock.cxx#4 $)

>  <Rbt.Library>
libRbt.so (2013.1, Build901 2013/11/27)

>  <Rbt.Parameter_File>
/export/apps/rDock/src/rDock_2013.1_src/data/scripts/dock_solv.prm

>  <Rbt.Receptor>
prm/pocket_docking_5.prm

>  <SCORE>
-36.7075

>  <SCORE.INTER>
-36.7075

>  <SCORE.INTER.CONST>
1

>  <SCORE.INTER.POLAR>
-4.33581

>  <SCORE.INTER.ROT>
0

>  <SCORE.INTER.SOLV>
10.7246

>  <SCORE.INTER.VDW>
-17.1938

>  <SCORE.INTER.norm>
-3.67075

>  <SCORE.INTRA>
0

>  <SCORE.INTRA.DIHEDRAL>
0

>  <SCORE.INTRA.DIHEDRAL.0>
0

>  <SCORE.INTRA.POLAR>
0

>  <SCORE.INTRA.POLAR.0>
0

>  <SCORE.INTRA.REPUL>
0

>  <SCORE.INTRA.REPUL.0>
0

>  <SCORE.INTRA.SOLV>
0

>  <SCORE.INTRA.SOLV.lig_0>
-14.8845

>  <SCORE.INTRA.VDW>
0

>  <SCORE.INTRA.VDW.0>
0

>  <SCORE.INTRA.norm>
0

>  <SCORE.RESTR>
0

>  <SCORE.RESTR.CAVITY>
0

>  <SCORE.RESTR.norm>
0

>  <SCORE.SYSTEM>
0

>  <SCORE.SYSTEM.CONST>
0

>  <SCORE.SYSTEM.DIHEDRAL>
0

>  <SCORE.SYSTEM.SOLV>
0

>  <SCORE.SYSTEM.norm>
0

>  <SCORE.heavy>
10

>  <SCORE.norm>
-3.67075

>  <RMSD>
2.527

$$$$
lig.pdb
 OpenBabel11021811523D
libRbt.so/2013.1/901 2013/11/27
 10 11  0  0  0  0  0  0  0  0999 V2000
  -30.7377   17.9641  -17.7413 N   0  0  0  0  0  0  0  0  0  0  0  0
  -31.9709   18.4940  -17.4777 C   0  0  0  0  0  0  0  0  0  0  0  0
  -32.3470   18.3652  -16.2277 N   0  0  0  0  0  0  0  0  0  0  0  0
  -31.2883   17.7037  -15.6286 C   0  0  0  0  0  0  0  0  0  0  0  0
  -31.0657   17.2715  -14.3083 C   0  0  0  0  0  0  0  0  0  0  0  0
  -31.9484   17.4493  -13.3198 N   0  0  0  0  0  0  0  0  0  0  0  0
  -29.8994   16.6433  -14.0426 N   0  0  0  0  0  0  0  0  0  0  0  0
  -29.0221   16.4658  -15.0366 C   0  0  0  0  0  0  0  0  0  0  0  0
  -29.1193   16.8288  -16.3150 N   0  0  0  0  0  0  0  0  0  0  0  0
  -30.2871   17.4490  -16.5471 C   0  0  0  0  0  0  0  0  0  0  0  0
  1 10  1  0  0  0  0
  2  3  2  0  0  0  0
  2  1  1  0  0  0  0
  3  4  1  0  0  0  0
  4 10  2  0  0  0  0
  4  5  1  0  0  0  0
  5  7  2  0  0  0  0
  6  5  1  0  0  0  0
  7  8  1  0  0  0  0
  9  8  2  0  0  0  0
 10  9  1  0  0  0  0
M  END
>  <CHROM.1>
-30.78958939,17.46337546,-15.62329065,-1.83365625,-0.43775115,1.81405865

>  <Name>
lig.pdb

>  <RI>
1.17431e+07

>  <Rbt.Current_Directory>
/home/itssahil/PROJECTS/Mol_Feturizer/New_Systems/rnas/5uza

>  <Rbt.Executable>
rbdock ($Id: //depot/dev/client3/rdock/2013.1/src/exe/rbdock.cxx#4 $)

>  <Rbt.Library>
libRbt.so (2013.1, Build901 2013/11/27)

>  <Rbt.Parameter_File>
/export/apps/rDock/src/rDock_2013.1_src/data/scripts/dock_solv.prm

>  <Rbt.Receptor>
prm/pocket_docking_6.prm

>  <SCORE>
-36.7185

>  <SCORE.INTER>
-36.7185

>  <SCORE.INTER.CONST>
1

>  <SCORE.INTER.POLAR>
-4.34799

>  <SCORE.INTER.ROT>
0

>  <SCORE.INTER.SOLV>
10.735

>  <SCORE.INTER.VDW>
-17.164

>  <SCORE.INTER.norm>
-3.67185

>  <SCORE.INTRA>
0

>  <SCORE.INTRA.DIHEDRAL>
0

>  <SCORE.INTRA.DIHEDRAL.0>
0

>  <SCORE.INTRA.POLAR>
0

>  <SCORE.INTRA.POLAR.0>
0

>  <SCORE.INTRA.REPUL>
0

>  <SCORE.INTRA.REPUL.0>
0

>  <SCORE.INTRA.SOLV>
0

>  <SCORE.INTRA.SOLV.lig_0>
-14.8845

>  <SCORE.INTRA.VDW>
0

>  <SCORE.INTRA.VDW.0>
0

>  <SCORE.INTRA.norm>
0

>  <SCORE.RESTR>
0

>  <SCORE.RESTR.CAVITY>
0

>  <SCORE.RESTR.norm>
0

>  <SCORE.SYSTEM>
0

>  <SCORE.SYSTEM.CONST>
0

>  <SCORE.SYSTEM.DIHEDRAL>
0

>  <SCORE.SYSTEM.SOLV>
0

>  <SCORE.SYSTEM.norm>
0

>  <SCORE.heavy>
10

>  <SCORE.norm>
-3.67185

>  <RMSD>
2.527

$$$$
lig.pdb
 OpenBabel11021811523D
libRbt.so/2013.1/901 2013/11/27
 10 11  0  0  0  0  0  0  0  0999 V2000
  -30.7370   17.9644  -17.7403 N   0  0  0  0  0  0  0  0  0  0  0  0
  -31.9701   18.4945  -17.4771 C   0  0  0  0  0  0  0  0  0  0  0  0
  -32.3466   18.3656  -16.2273 N   0  0  0  0  0  0  0  0  0  0  0  0
  -31.2882   17.7039  -15.6279 C   0  0  0  0  0  0  0  0  0  0  0  0
  -31.0660   17.2716  -14.3075 C   0  0  0  0  0  0  0  0  0  0  0  0
  -31.9490   17.4494  -13.3193 N   0  0  0  0  0  0  0  0  0  0  0  0
  -29.9000   16.6431  -14.0415 N   0  0  0  0  0  0  0  0  0  0  0  0
  -29.0224   16.4656  -15.0353 C   0  0  0  0  0  0  0  0  0  0  0  0
  -29.1191   16.8287  -16.3137 N   0  0  0  0  0  0  0  0  0  0  0  0
  -30.2868   17.4491  -16.5461 C   0  0  0  0  0  0  0  0  0  0  0  0
  1 10  1  0  0  0  0
  2  3  2  0  0  0  0
  2  1  1  0  0  0  0
  3  4  1  0  0  0  0
  4 10  2  0  0  0  0
  4  5  1  0  0  0  0
  5  7  2  0  0  0  0
  6  5  1  0  0  0  0
  7  8  1  0  0  0  0
  9  8  2  0  0  0  0
 10  9  1  0  0  0  0
M  END
>  <CHROM.1>
-30.78954846,17.46351311,-15.62241106,-1.83329115,-0.43783931,1.81429169

>  <Name>
lig.pdb

>  <RI>
1.17431e+07

>  <Rbt.Current_Directory>
/home/itssahil/PROJECTS/Mol_Feturizer/New_Systems/rnas/5uza

>  <Rbt.Executable>
rbdock ($Id: //depot/dev/client3/rdock/2013.1/src/exe/rbdock.cxx#4 $)

>  <Rbt.Library>
libRbt.so (2013.1, Build901 2013/11/27)

>  <Rbt.Parameter_File>
/export/apps/rDock/src/rDock_2013.1_src/data/scripts/dock_solv.prm

>  <Rbt.Receptor>
prm/pocket_docking_6.prm

>  <SCORE>
-36.7178

>  <SCORE.INTER>
-36.7178

>  <SCORE.INTER.CONST>
1

>  <SCORE.INTER.POLAR>
-4.34892

>  <SCORE.INTER.ROT>
0

>  <SCORE.INTER.SOLV>
10.7354

>  <SCORE.INTER.VDW>
-17.1606

>  <SCORE.INTER.norm>
-3.67178

>  <SCORE.INTRA>
0

>  <SCORE.INTRA.DIHEDRAL>
0

>  <SCORE.INTRA.DIHEDRAL.0>
0

>  <SCORE.INTRA.POLAR>
0

>  <SCORE.INTRA.POLAR.0>
0

>  <SCORE.INTRA.REPUL>
0

>  <SCORE.INTRA.REPUL.0>
0

>  <SCORE.INTRA.SOLV>
0

>  <SCORE.INTRA.SOLV.lig_0>
-14.8845

>  <SCORE.INTRA.VDW>
0

>  <SCORE.INTRA.VDW.0>
0

>  <SCORE.INTRA.norm>
0

>  <SCORE.RESTR>
0

>  <SCORE.RESTR.CAVITY>
0

>  <SCORE.RESTR.norm>
0

>  <SCORE.SYSTEM>
0

>  <SCORE.SYSTEM.CONST>
0

>  <SCORE.SYSTEM.DIHEDRAL>
0

>  <SCORE.SYSTEM.SOLV>
0

>  <SCORE.SYSTEM.norm>
0

>  <SCORE.heavy>
10

>  <SCORE.norm>
-3.67178

>  <RMSD>
2.527

$$$$
lig.pdb
 OpenBabel11021811523D
libRbt.so/2013.1/901 2013/11/27
 10 11  0  0  0  0  0  0  0  0999 V2000
  -30.7373   17.9673  -17.7413 N   0  0  0  0  0  0  0  0  0  0  0  0
  -31.9705   18.4970  -17.4771 C   0  0  0  0  0  0  0  0  0  0  0  0
  -32.3466   18.3666  -16.2274 N   0  0  0  0  0  0  0  0  0  0  0  0
  -31.2880   17.7044  -15.6290 C   0  0  0  0  0  0  0  0  0  0  0  0
  -31.0654   17.2706  -14.3092 C   0  0  0  0  0  0  0  0  0  0  0  0
  -31.9482   17.4471  -13.3206 N   0  0  0  0  0  0  0  0  0  0  0  0
  -29.8992   16.6420  -14.0442 N   0  0  0  0  0  0  0  0  0  0  0  0
  -29.0219   16.4657  -15.0384 C   0  0  0  0  0  0  0  0  0  0  0  0
  -29.1190   16.8303  -16.3164 N   0  0  0  0  0  0  0  0  0  0  0  0
  -30.2868   17.4508  -16.5478 C   0  0  0  0  0  0  0  0  0  0  0  0
  1 10  1  0  0  0  0
  2  3  2  0  0  0  0
  2  1  1  0  0  0  0
  3  4  1  0  0  0  0
  4 10  2  0  0  0  0
  4  5  1  0  0  0  0
  5  7  2  0  0  0  0
  6  5  1  0  0  0  0
  7  8  1  0  0  0  0
  9  8  2  0  0  0  0
 10  9  1  0  0  0  0
M  END
>  <CHROM.1>
-30.78931955,17.46403042,-15.62396279,-1.83360277,-0.43775146,1.81529963

>  <Name>
lig.pdb

>  <RI>
1.17775e+07

>  <Rbt.Current_Directory>
/home/itssahil/PROJECTS/Mol_Feturizer/New_Systems/rnas/5uza

>  <Rbt.Executable>
rbdock ($Id: //depot/dev/client3/rdock/2013.1/src/exe/rbdock.cxx#4 $)

>  <Rbt.Library>
libRbt.so (2013.1, Build901 2013/11/27)

>  <Rbt.Parameter_File>
/export/apps/rDock/src/rDock_2013.1_src/data/scripts/dock_solv.prm

>  <Rbt.Receptor>
prm/pocket_docking_8.prm

>  <SCORE>
-36.721

>  <SCORE.INTER>
-36.721

>  <SCORE.INTER.CONST>
1

>  <SCORE.INTER.POLAR>
-4.34948

>  <SCORE.INTER.ROT>
0

>  <SCORE.INTER.SOLV>
10.7378

>  <SCORE.INTER.VDW>
-17.1616

>  <SCORE.INTER.norm>
-3.6721

>  <SCORE.INTRA>
0

>  <SCORE.INTRA.DIHEDRAL>
0

>  <SCORE.INTRA.DIHEDRAL.0>
0

>  <SCORE.INTRA.POLAR>
0

>  <SCORE.INTRA.POLAR.0>
0

>  <SCORE.INTRA.REPUL>
0

>  <SCORE.INTRA.REPUL.0>
0

>  <SCORE.INTRA.SOLV>
0

>  <SCORE.INTRA.SOLV.lig_0>
-14.8845

>  <SCORE.INTRA.VDW>
0

>  <SCORE.INTRA.VDW.0>
0

>  <SCORE.INTRA.norm>
0

>  <SCORE.RESTR>
0

>  <SCORE.RESTR.CAVITY>
0

>  <SCORE.RESTR.norm>
0

>  <SCORE.SYSTEM>
0

>  <SCORE.SYSTEM.CONST>
0

>  <SCORE.SYSTEM.DIHEDRAL>
0

>  <SCORE.SYSTEM.SOLV>
0

>  <SCORE.SYSTEM.norm>
0

>  <SCORE.heavy>
10

>  <SCORE.norm>
-3.6721

>  <RMSD>
2.527

$$$$
lig.pdb
 OpenBabel11021811523D
libRbt.so/2013.1/901 2013/11/27
 10 11  0  0  0  0  0  0  0  0999 V2000
  -30.7411   17.9513  -17.7454 N   0  0  0  0  0  0  0  0  0  0  0  0
  -31.9736   18.4829  -17.4821 C   0  0  0  0  0  0  0  0  0  0  0  0
  -32.3482   18.3588  -16.2312 N   0  0  0  0  0  0  0  0  0  0  0  0
  -31.2892   17.6987  -15.6311 C   0  0  0  0  0  0  0  0  0  0  0  0
  -31.0651   17.2711  -14.3095 C   0  0  0  0  0  0  0  0  0  0  0  0
  -31.9465   17.4529  -13.3206 N   0  0  0  0  0  0  0  0  0  0  0  0
  -29.8989   16.6431  -14.0431 N   0  0  0  0  0  0  0  0  0  0  0  0
  -29.0230   16.4616  -15.0376 C   0  0  0  0  0  0  0  0  0  0  0  0
  -29.1216   16.8201  -16.3171 N   0  0  0  0  0  0  0  0  0  0  0  0
  -30.2893   17.4402  -16.5499 C   0  0  0  0  0  0  0  0  0  0  0  0
  1 10  1  0  0  0  0
  2  3  2  0  0  0  0
  2  1  1  0  0  0  0
  3  4  1  0  0  0  0
  4 10  2  0  0  0  0
  4  5  1  0  0  0  0
  5  7  2  0  0  0  0
  6  5  1  0  0  0  0
  7  8  1  0  0  0  0
  9  8  2  0  0  0  0
 10  9  1  0  0  0  0
M  END
>  <CHROM.1>
-30.79060661,17.45812963,-15.62555094,-1.83486183,-0.43865127,1.80999344

>  <Name>
lig.pdb

>  <RI>
1.17775e+07

>  <Rbt.Current_Directory>
/home/itssahil/PROJECTS/Mol_Feturizer/New_Systems/rnas/5uza

>  <Rbt.Executable>
rbdock ($Id: //depot/dev/client3/rdock/2013.1/src/exe/rbdock.cxx#4 $)

>  <Rbt.Library>
libRbt.so (2013.1, Build901 2013/11/27)

>  <Rbt.Parameter_File>
/export/apps/rDock/src/rDock_2013.1_src/data/scripts/dock_solv.prm

>  <Rbt.Receptor>
prm/pocket_docking_8.prm

>  <SCORE>
-36.7115

>  <SCORE.INTER>
-36.7115

>  <SCORE.INTER.CONST>
1

>  <SCORE.INTER.POLAR>
-4.34068

>  <SCORE.INTER.ROT>
0

>  <SCORE.INTER.SOLV>
10.726

>  <SCORE.INTER.VDW>
-17.1807

>  <SCORE.INTER.norm>
-3.67115

>  <SCORE.INTRA>
0

>  <SCORE.INTRA.DIHEDRAL>
0

>  <SCORE.INTRA.DIHEDRAL.0>
0

>  <SCORE.INTRA.POLAR>
0

>  <SCORE.INTRA.POLAR.0>
0

>  <SCORE.INTRA.REPUL>
0

>  <SCORE.INTRA.REPUL.0>
0

>  <SCORE.INTRA.SOLV>
0

>  <SCORE.INTRA.SOLV.lig_0>
-14.8845

>  <SCORE.INTRA.VDW>
0

>  <SCORE.INTRA.VDW.0>
0

>  <SCORE.INTRA.norm>
0

>  <SCORE.RESTR>
0

>  <SCORE.RESTR.CAVITY>
0

>  <SCORE.RESTR.norm>
0

>  <SCORE.SYSTEM>
0

>  <SCORE.SYSTEM.CONST>
0

>  <SCORE.SYSTEM.DIHEDRAL>
0

>  <SCORE.SYSTEM.SOLV>
0

>  <SCORE.SYSTEM.norm>
0

>  <SCORE.heavy>
10

>  <SCORE.norm>
-3.67115

>  <RMSD>
2.527

$$$$
lig.pdb
 OpenBabel11021811523D
libRbt.so/2013.1/901 2013/11/27
 10 11  0  0  0  0  0  0  0  0999 V2000
  -30.7326   17.9631  -17.7396 N   0  0  0  0  0  0  0  0  0  0  0  0
  -31.9653   18.4952  -17.4780 C   0  0  0  0  0  0  0  0  0  0  0  0
  -32.3432   18.3680  -16.2285 N   0  0  0  0  0  0  0  0  0  0  0  0
  -31.2863   17.7054  -15.6274 C   0  0  0  0  0  0  0  0  0  0  0  0
  -31.0661   17.2740  -14.3064 C   0  0  0  0  0  0  0  0  0  0  0  0
  -31.9498   17.4540  -13.3192 N   0  0  0  0  0  0  0  0  0  0  0  0
  -29.9012   16.6442  -14.0386 N   0  0  0  0  0  0  0  0  0  0  0  0
  -29.0229   16.4645  -15.0314 C   0  0  0  0  0  0  0  0  0  0  0  0
  -29.1178   16.8265  -16.3102 N   0  0  0  0  0  0  0  0  0  0  0  0
  -30.2844   17.4483  -16.5444 C   0  0  0  0  0  0  0  0  0  0  0  0
  1 10  1  0  0  0  0
  2  3  2  0  0  0  0
  2  1  1  0  0  0  0
  3  4  1  0  0  0  0
  4 10  2  0  0  0  0
  4  5  1  0  0  0  0
  5  7  2  0  0  0  0
  6  5  1  0  0  0  0
  7  8  1  0  0  0  0
  9  8  2  0  0  0  0
 10  9  1  0  0  0  0
M  END
>  <CHROM.1>
-30.78801794,17.46431088,-15.62121569,-1.83186455,-0.43896085,1.81393715

>  <Name>
lig.pdb

>  <RI>
2.26746e+07

>  <Rbt.Current_Directory>
/home/itssahil/PROJECTS/Mol_Feturizer/New_Systems/rnas/5uza

>  <Rbt.Executable>
rbdock ($Id: //depot/dev/client3/rdock/2013.1/src/exe/rbdock.cxx#4 $)

>  <Rbt.Library>
libRbt.so (2013.1, Build901 2013/11/27)

>  <Rbt.Parameter_File>
/export/apps/rDock/src/rDock_2013.1_src/data/scripts/dock_solv.prm

>  <Rbt.Receptor>
prm/blind_docking_100.prm

>  <SCORE>
-36.7071

>  <SCORE.INTER>
-36.7071

>  <SCORE.INTER.CONST>
1

>  <SCORE.INTER.POLAR>
-4.34333

>  <SCORE.INTER.ROT>
0

>  <SCORE.INTER.SOLV>
10.7353

>  <SCORE.INTER.VDW>
-17.1721

>  <SCORE.INTER.norm>
-3.67071

>  <SCORE.INTRA>
0

>  <SCORE.INTRA.DIHEDRAL>
0

>  <SCORE.INTRA.DIHEDRAL.0>
0

>  <SCORE.INTRA.POLAR>
0

>  <SCORE.INTRA.POLAR.0>
0

>  <SCORE.INTRA.REPUL>
0

>  <SCORE.INTRA.REPUL.0>
0

>  <SCORE.INTRA.SOLV>
0

>  <SCORE.INTRA.SOLV.lig_0>
-14.8845

>  <SCORE.INTRA.VDW>
0

>  <SCORE.INTRA.VDW.0>
0

>  <SCORE.INTRA.norm>
0

>  <SCORE.RESTR>
0

>  <SCORE.RESTR.CAVITY>
0

>  <SCORE.RESTR.norm>
0

>  <SCORE.SYSTEM>
0

>  <SCORE.SYSTEM.CONST>
0

>  <SCORE.SYSTEM.DIHEDRAL>
0

>  <SCORE.SYSTEM.SOLV>
0

>  <SCORE.SYSTEM.norm>
0

>  <SCORE.heavy>
10

>  <SCORE.norm>
-3.67071

>  <RMSD>
2.528

$$$$
lig.pdb
 OpenBabel11021811523D
libRbt.so/2013.1/901 2013/11/27
 10 11  0  0  0  0  0  0  0  0999 V2000
  -30.7239   17.9570  -17.7399 N   0  0  0  0  0  0  0  0  0  0  0  0
  -31.9624   18.4797  -17.4870 C   0  0  0  0  0  0  0  0  0  0  0  0
  -32.3446   18.3568  -16.2383 N   0  0  0  0  0  0  0  0  0  0  0  0
  -31.2846   17.7072  -15.6287 C   0  0  0  0  0  0  0  0  0  0  0  0
  -31.0664   17.2858  -14.3041 C   0  0  0  0  0  0  0  0  0  0  0  0
  -31.9560   17.4640  -13.3219 N   0  0  0  0  0  0  0  0  0  0  0  0
  -29.8971   16.6679  -14.0275 N   0  0  0  0  0  0  0  0  0  0  0  0
  -29.0130   16.4900  -15.0153 C   0  0  0  0  0  0  0  0  0  0  0  0
  -29.1055   16.8434  -16.2967 N   0  0  0  0  0  0  0  0  0  0  0  0
  -30.2764   17.4534  -16.5397 C   0  0  0  0  0  0  0  0  0  0  0  0
  1 10  1  0  0  0  0
  2  3  2  0  0  0  0
  2  1  1  0  0  0  0
  3  4  1  0  0  0  0
  4 10  2  0  0  0  0
  4  5  1  0  0  0  0
  5  7  2  0  0  0  0
  6  5  1  0  0  0  0
  7  8  1  0  0  0  0
  9  8  2  0  0  0  0
 10  9  1  0  0  0  0
M  END
>  <CHROM.1>
-30.78422103,17.47055203,-15.61884942,-1.82950369,-0.42935445,1.80884954

>  <Name>
lig.pdb

>  <RI>
2.26746e+07

>  <Rbt.Current_Directory>
/home/itssahil/PROJECTS/Mol_Feturizer/New_Systems/rnas/5uza

>  <Rbt.Executable>
rbdock ($Id: //depot/dev/client3/rdock/2013.1/src/exe/rbdock.cxx#4 $)

>  <Rbt.Library>
libRbt.so (2013.1, Build901 2013/11/27)

>  <Rbt.Parameter_File>
/export/apps/rDock/src/rDock_2013.1_src/data/scripts/dock_solv.prm

>  <Rbt.Receptor>
prm/blind_docking_100.prm

>  <SCORE>
-36.6351

>  <SCORE.INTER>
-36.6351

>  <SCORE.INTER.CONST>
1

>  <SCORE.INTER.POLAR>
-4.30667

>  <SCORE.INTER.ROT>
0

>  <SCORE.INTER.SOLV>
10.7375

>  <SCORE.INTER.VDW>
-17.247

>  <SCORE.INTER.norm>
-3.66351

>  <SCORE.INTRA>
0

>  <SCORE.INTRA.DIHEDRAL>
0

>  <SCORE.INTRA.DIHEDRAL.0>
0

>  <SCORE.INTRA.POLAR>
0

>  <SCORE.INTRA.POLAR.0>
0

>  <SCORE.INTRA.REPUL>
0

>  <SCORE.INTRA.REPUL.0>
0

>  <SCORE.INTRA.SOLV>
0

>  <SCORE.INTRA.SOLV.lig_0>
-14.8845

>  <SCORE.INTRA.VDW>
0

>  <SCORE.INTRA.VDW.0>
0

>  <SCORE.INTRA.norm>
0

>  <SCORE.RESTR>
0

>  <SCORE.RESTR.CAVITY>
0

>  <SCORE.RESTR.norm>
0

>  <SCORE.SYSTEM>
0

>  <SCORE.SYSTEM.CONST>
0

>  <SCORE.SYSTEM.DIHEDRAL>
0

>  <SCORE.SYSTEM.SOLV>
0

>  <SCORE.SYSTEM.norm>
0

>  <SCORE.heavy>
10

>  <SCORE.norm>
-3.66351

>  <RMSD>
2.528

$$$$
lig.pdb
 OpenBabel11021811523D
libRbt.so/2013.1/901 2013/11/27
 10 11  0  0  0  0  0  0  0  0999 V2000
  -30.7397   17.9547  -17.7432 N   0  0  0  0  0  0  0  0  0  0  0  0
  -31.9725   18.4859  -17.4804 C   0  0  0  0  0  0  0  0  0  0  0  0
  -32.3477   18.3611  -16.2298 N   0  0  0  0  0  0  0  0  0  0  0  0
  -31.2889   17.7011  -15.6294 C   0  0  0  0  0  0  0  0  0  0  0  0
  -31.0654   17.2729  -14.3079 C   0  0  0  0  0  0  0  0  0  0  0  0
  -31.9474   17.4540  -13.3194 N   0  0  0  0  0  0  0  0  0  0  0  0
  -29.8992   16.6451  -14.0411 N   0  0  0  0  0  0  0  0  0  0  0  0
  -29.0227   16.4643  -15.0351 C   0  0  0  0  0  0  0  0  0  0  0  0
  -29.1207   16.8233  -16.3146 N   0  0  0  0  0  0  0  0  0  0  0  0
  -30.2884   17.4432  -16.5478 C   0  0  0  0  0  0  0  0  0  0  0  0
  1 10  1  0  0  0  0
  2  3  2  0  0  0  0
  2  1  1  0  0  0  0
  3  4  1  0  0  0  0
  4 10  2  0  0  0  0
  4  5  1  0  0  0  0
  5  7  2  0  0  0  0
  6  5  1  0  0  0  0
  7  8  1  0  0  0  0
  9  8  2  0  0  0  0
 10  9  1  0  0  0  0
M  END
>  <CHROM.1>
-30.79024687,17.46059487,-15.62368038,-1.83432115,-0.43825406,1.81066546

>  <Name>
lig.pdb

>  <RI>
2.26746e+07

>  <Rbt.Current_Directory>
/home/itssahil/PROJECTS/Mol_Feturizer/New_Systems/rnas/5uza

>  <Rbt.Executable>
rbdock ($Id: //depot/dev/client3/rdock/2013.1/src/exe/rbdock.cxx#4 $)

>  <Rbt.Library>
libRbt.so (2013.1, Build901 2013/11/27)

>  <Rbt.Parameter_File>
/export/apps/rDock/src/rDock_2013.1_src/data/scripts/dock_solv.prm

>  <Rbt.Receptor>
prm/blind_docking_100.prm

>  <SCORE>
-36.7122

>  <SCORE.INTER>
-36.7122

>  <SCORE.INTER.CONST>
1

>  <SCORE.INTER.POLAR>
-4.34237

>  <SCORE.INTER.ROT>
0

>  <SCORE.INTER.SOLV>
10.7274

>  <SCORE.INTER.VDW>
-17.176

>  <SCORE.INTER.norm>
-3.67122

>  <SCORE.INTRA>
0

>  <SCORE.INTRA.DIHEDRAL>
0

>  <SCORE.INTRA.DIHEDRAL.0>
0

>  <SCORE.INTRA.POLAR>
0

>  <SCORE.INTRA.POLAR.0>
0

>  <SCORE.INTRA.REPUL>
0

>  <SCORE.INTRA.REPUL.0>
0

>  <SCORE.INTRA.SOLV>
0

>  <SCORE.INTRA.SOLV.lig_0>
-14.8845

>  <SCORE.INTRA.VDW>
0

>  <SCORE.INTRA.VDW.0>
0

>  <SCORE.INTRA.norm>
0

>  <SCORE.RESTR>
0

>  <SCORE.RESTR.CAVITY>
0

>  <SCORE.RESTR.norm>
0

>  <SCORE.SYSTEM>
0

>  <SCORE.SYSTEM.CONST>
0

>  <SCORE.SYSTEM.DIHEDRAL>
0

>  <SCORE.SYSTEM.SOLV>
0

>  <SCORE.SYSTEM.norm>
0

>  <SCORE.heavy>
10

>  <SCORE.norm>
-3.67122

>  <RMSD>
2.528

$$$$
lig.pdb
 OpenBabel11021811523D
libRbt.so/2013.1/901 2013/11/27
 10 11  0  0  0  0  0  0  0  0999 V2000
  -30.7367   17.9613  -17.7401 N   0  0  0  0  0  0  0  0  0  0  0  0
  -31.9696   18.4925  -17.4776 C   0  0  0  0  0  0  0  0  0  0  0  0
  -32.3462   18.3656  -16.2277 N   0  0  0  0  0  0  0  0  0  0  0  0
  -31.2882   17.7042  -15.6273 C   0  0  0  0  0  0  0  0  0  0  0  0
  -31.0663   17.2736  -14.3063 C   0  0  0  0  0  0  0  0  0  0  0  0
  -31.9493   17.4534  -13.3184 N   0  0  0  0  0  0  0  0  0  0  0  0
  -29.9006   16.6449  -14.0393 N   0  0  0  0  0  0  0  0  0  0  0  0
  -29.0231   16.4655  -15.0328 C   0  0  0  0  0  0  0  0  0  0  0  0
  -29.1196   16.8268  -16.3117 N   0  0  0  0  0  0  0  0  0  0  0  0
  -30.2869   17.4475  -16.5450 C   0  0  0  0  0  0  0  0  0  0  0  0
  1 10  1  0  0  0  0
  2  3  2  0  0  0  0
  2  1  1  0  0  0  0
  3  4  1  0  0  0  0
  4 10  2  0  0  0  0
  4  5  1  0  0  0  0
  5  7  2  0  0  0  0
  6  5  1  0  0  0  0
  7  8  1  0  0  0  0
  9  8  2  0  0  0  0
 10  9  1  0  0  0  0
M  END
>  <CHROM.1>
-30.78966804,17.46349876,-15.62143631,-1.83309244,-0.43835765,1.81292609

>  <Name>
lig.pdb

>  <RI>
0

>  <Rbt.Current_Directory>
/home/itssahil/PROJECTS/Mol_Feturizer/New_Systems/rnas/5uza

>  <Rbt.Executable>
rbdock ($Id: //depot/dev/client3/rdock/2013.1/src/exe/rbdock.cxx#4 $)

>  <Rbt.Library>
libRbt.so (2013.1, Build901 2013/11/27)

>  <Rbt.Parameter_File>
/export/apps/rDock/src/rDock_2013.1_src/data/scripts/dock_solv.prm

>  <Rbt.Receptor>
prm/blind_docking_60.prm

>  <SCORE>
-36.7124

>  <SCORE.INTER>
-36.7124

>  <SCORE.INTER.CONST>
1

>  <SCORE.INTER.POLAR>
-4.34624

>  <SCORE.INTER.ROT>
0

>  <SCORE.INTER.SOLV>
10.7323

>  <SCORE.INTER.VDW>
-17.1649

>  <SCORE.INTER.norm>
-3.67124

>  <SCORE.INTRA>
0

>  <SCORE.INTRA.DIHEDRAL>
0

>  <SCORE.INTRA.DIHEDRAL.0>
0

>  <SCORE.INTRA.POLAR>
0

>  <SCORE.INTRA.POLAR.0>
0

>  <SCORE.INTRA.REPUL>
0

>  <SCORE.INTRA.REPUL.0>
0

>  <SCORE.INTRA.SOLV>
0

>  <SCORE.INTRA.SOLV.lig_0>
-14.8845

>  <SCORE.INTRA.VDW>
0

>  <SCORE.INTRA.VDW.0>
0

>  <SCORE.INTRA.norm>
0

>  <SCORE.RESTR>
0

>  <SCORE.RESTR.CAVITY>
0

>  <SCORE.RESTR.norm>
0

>  <SCORE.SYSTEM>
0

>  <SCORE.SYSTEM.CONST>
0

>  <SCORE.SYSTEM.DIHEDRAL>
0

>  <SCORE.SYSTEM.SOLV>
0

>  <SCORE.SYSTEM.norm>
0

>  <SCORE.heavy>
10

>  <SCORE.norm>
-3.67124

>  <RMSD>
2.528

$$$$
lig.pdb
 OpenBabel11021811523D
libRbt.so/2013.1/901 2013/11/27
 10 11  0  0  0  0  0  0  0  0999 V2000
  -30.7369   17.9623  -17.7399 N   0  0  0  0  0  0  0  0  0  0  0  0
  -31.9698   18.4932  -17.4771 C   0  0  0  0  0  0  0  0  0  0  0  0
  -32.3464   18.3656  -16.2272 N   0  0  0  0  0  0  0  0  0  0  0  0
  -31.2883   17.7039  -15.6272 C   0  0  0  0  0  0  0  0  0  0  0  0
  -31.0664   17.2726  -14.3065 C   0  0  0  0  0  0  0  0  0  0  0  0
  -31.9493   17.4516  -13.3185 N   0  0  0  0  0  0  0  0  0  0  0  0
  -29.9006   16.6439  -14.0399 N   0  0  0  0  0  0  0  0  0  0  0  0
  -29.0231   16.4651  -15.0335 C   0  0  0  0  0  0  0  0  0  0  0  0
  -29.1196   16.8272  -16.3122 N   0  0  0  0  0  0  0  0  0  0  0  0
  -30.2870   17.4479  -16.5452 C   0  0  0  0  0  0  0  0  0  0  0  0
  1 10  1  0  0  0  0
  2  3  2  0  0  0  0
  2  1  1  0  0  0  0
  3  4  1  0  0  0  0
  4 10  2  0  0  0  0
  4  5  1  0  0  0  0
  5  7  2  0  0  0  0
  6  5  1  0  0  0  0
  7  8  1  0  0  0  0
  9  8  2  0  0  0  0
 10  9  1  0  0  0  0
M  END
>  <CHROM.1>
-30.78976199,17.46328302,-15.62155030,-1.83314484,-0.43825288,1.81350004

>  <Name>
lig.pdb

>  <RI>
0

>  <Rbt.Current_Directory>
/home/itssahil/PROJECTS/Mol_Feturizer/New_Systems/rnas/5uza

>  <Rbt.Executable>
rbdock ($Id: //depot/dev/client3/rdock/2013.1/src/exe/rbdock.cxx#4 $)

>  <Rbt.Library>
libRbt.so (2013.1, Build901 2013/11/27)

>  <Rbt.Parameter_File>
/export/apps/rDock/src/rDock_2013.1_src/data/scripts/dock_solv.prm

>  <Rbt.Receptor>
prm/blind_docking_60.prm

>  <SCORE>
-36.7153

>  <SCORE.INTER>
-36.7153

>  <SCORE.INTER.CONST>
1

>  <SCORE.INTER.POLAR>
-4.34822

>  <SCORE.INTER.ROT>
0

>  <SCORE.INTER.SOLV>
10.7334

>  <SCORE.INTER.VDW>
-17.1606

>  <SCORE.INTER.norm>
-3.67153

>  <SCORE.INTRA>
0

>  <SCORE.INTRA.DIHEDRAL>
0

>  <SCORE.INTRA.DIHEDRAL.0>
0

>  <SCORE.INTRA.POLAR>
0

>  <SCORE.INTRA.POLAR.0>
0

>  <SCORE.INTRA.REPUL>
0

>  <SCORE.INTRA.REPUL.0>
0

>  <SCORE.INTRA.SOLV>
0

>  <SCORE.INTRA.SOLV.lig_0>
-14.8845

>  <SCORE.INTRA.VDW>
0

>  <SCORE.INTRA.VDW.0>
0

>  <SCORE.INTRA.norm>
0

>  <SCORE.RESTR>
0

>  <SCORE.RESTR.CAVITY>
0

>  <SCORE.RESTR.norm>
0

>  <SCORE.SYSTEM>
0

>  <SCORE.SYSTEM.CONST>
0

>  <SCORE.SYSTEM.DIHEDRAL>
0

>  <SCORE.SYSTEM.SOLV>
0

>  <SCORE.SYSTEM.norm>
0

>  <SCORE.heavy>
10

>  <SCORE.norm>
-3.67153

>  <RMSD>
2.528

$$$$
lig.pdb
 OpenBabel11021811523D
libRbt.so/2013.1/901 2013/11/27
 10 11  0  0  0  0  0  0  0  0999 V2000
  -30.7365   17.9621  -17.7395 N   0  0  0  0  0  0  0  0  0  0  0  0
  -31.9694   18.4933  -17.4771 C   0  0  0  0  0  0  0  0  0  0  0  0
  -32.3461   18.3663  -16.2272 N   0  0  0  0  0  0  0  0  0  0  0  0
  -31.2882   17.7048  -15.6268 C   0  0  0  0  0  0  0  0  0  0  0  0
  -31.0664   17.2742  -14.3058 C   0  0  0  0  0  0  0  0  0  0  0  0
  -31.9494   17.4539  -13.3179 N   0  0  0  0  0  0  0  0  0  0  0  0
  -29.9007   16.6455  -14.0388 N   0  0  0  0  0  0  0  0  0  0  0  0
  -29.0232   16.4661  -15.0322 C   0  0  0  0  0  0  0  0  0  0  0  0
  -29.1195   16.8275  -16.3111 N   0  0  0  0  0  0  0  0  0  0  0  0
  -30.2868   17.4482  -16.5445 C   0  0  0  0  0  0  0  0  0  0  0  0
  1 10  1  0  0  0  0
  2  3  2  0  0  0  0
  2  1  1  0  0  0  0
  3  4  1  0  0  0  0
  4 10  2  0  0  0  0
  4  5  1  0  0  0  0
  5  7  2  0  0  0  0
  6  5  1  0  0  0  0
  7  8  1  0  0  0  0
  9  8  2  0  0  0  0
 10  9  1  0  0  0  0
M  END
>  <CHROM.1>
-30.78963668,17.46416884,-15.62092232,-1.83300862,-0.43835307,1.81303018

>  <Name>
lig.pdb

>  <RI>
0

>  <Rbt.Current_Directory>
/home/itssahil/PROJECTS/Mol_Feturizer/New_Systems/rnas/5uza

>  <Rbt.Executable>
rbdock ($Id: //depot/dev/client3/rdock/2013.1/src/exe/rbdock.cxx#4 $)

>  <Rbt.Library>
libRbt.so (2013.1, Build901 2013/11/27)

>  <Rbt.Parameter_File>
/export/apps/rDock/src/rDock_2013.1_src/data/scripts/dock_solv.prm

>  <Rbt.Receptor>
prm/blind_docking_60.prm

>  <SCORE>
-36.7116

>  <SCORE.INTER>
-36.7116

>  <SCORE.INTER.CONST>
1

>  <SCORE.INTER.POLAR>
-4.34667

>  <SCORE.INTER.ROT>
0

>  <SCORE.INTER.SOLV>
10.7324

>  <SCORE.INTER.VDW>
-17.163

>  <SCORE.INTER.norm>
-3.67116

>  <SCORE.INTRA>
0

>  <SCORE.INTRA.DIHEDRAL>
0

>  <SCORE.INTRA.DIHEDRAL.0>
0

>  <SCORE.INTRA.POLAR>
0

>  <SCORE.INTRA.POLAR.0>
0

>  <SCORE.INTRA.REPUL>
0

>  <SCORE.INTRA.REPUL.0>
0

>  <SCORE.INTRA.SOLV>
0

>  <SCORE.INTRA.SOLV.lig_0>
-14.8845

>  <SCORE.INTRA.VDW>
0

>  <SCORE.INTRA.VDW.0>
0

>  <SCORE.INTRA.norm>
0

>  <SCORE.RESTR>
0

>  <SCORE.RESTR.CAVITY>
0

>  <SCORE.RESTR.norm>
0

>  <SCORE.SYSTEM>
0

>  <SCORE.SYSTEM.CONST>
0

>  <SCORE.SYSTEM.DIHEDRAL>
0

>  <SCORE.SYSTEM.SOLV>
0

>  <SCORE.SYSTEM.norm>
0

>  <SCORE.heavy>
10

>  <SCORE.norm>
-3.67116

>  <RMSD>
2.528

$$$$
lig.pdb
 OpenBabel11021811523D
libRbt.so/2013.1/901 2013/11/27
 10 11  0  0  0  0  0  0  0  0999 V2000
  -30.7370   17.9617  -17.7400 N   0  0  0  0  0  0  0  0  0  0  0  0
  -31.9711   18.4893  -17.4764 C   0  0  0  0  0  0  0  0  0  0  0  0
  -32.3458   18.3622  -16.2259 N   0  0  0  0  0  0  0  0  0  0  0  0
  -31.2851   17.7045  -15.6263 C   0  0  0  0  0  0  0  0  0  0  0  0
  -31.0603   17.2756  -14.3052 C   0  0  0  0  0  0  0  0  0  0  0  0
  -31.9426   17.4534  -13.3164 N   0  0  0  0  0  0  0  0  0  0  0  0
  -29.8923   16.6506  -14.0392 N   0  0  0  0  0  0  0  0  0  0  0  0
  -29.0155   16.4732  -15.0336 C   0  0  0  0  0  0  0  0  0  0  0  0
  -29.1146   16.8332  -16.3127 N   0  0  0  0  0  0  0  0  0  0  0  0
  -30.2841   17.4502  -16.5451 C   0  0  0  0  0  0  0  0  0  0  0  0
  1 10  1  0  0  0  0
  2  3  2  0  0  0  0
  2  1  1  0  0  0  0
  3  4  1  0  0  0  0
  4 10  2  0  0  0  0
  4  5  1  0  0  0  0
  5  7  2  0  0  0  0
  6  5  1  0  0  0  0
  7  8  1  0  0  0  0
  9  8  2  0  0  0  0
 10  9  1  0  0  0  0
M  END
>  <CHROM.1>
-30.78582242,17.46531832,-15.62087620,-1.83521344,-0.43568814,1.81128637

>  <Name>
lig.pdb

>  <RI>
0

>  <Rbt.Current_Directory>
/home/itssahil/PROJECTS/Mol_Feturizer/New_Systems/rnas/5uza

>  <Rbt.Executable>
rbdock ($Id: //depot/dev/client3/rdock/2013.1/src/exe/rbdock.cxx#4 $)

>  <Rbt.Library>
libRbt.so (2013.1, Build901 2013/11/27)

>  <Rbt.Parameter_File>
/export/apps/rDock/src/rDock_2013.1_src/data/scripts/dock_solv.prm

>  <Rbt.Receptor>
prm/blind_docking_60.prm

>  <SCORE>
-36.6755

>  <SCORE.INTER>
-36.6755

>  <SCORE.INTER.CONST>
1

>  <SCORE.INTER.POLAR>
-4.35175

>  <SCORE.INTER.ROT>
0

>  <SCORE.INTER.SOLV>
10.73

>  <SCORE.INTER.VDW>
-17.1212

>  <SCORE.INTER.norm>
-3.66755

>  <SCORE.INTRA>
0

>  <SCORE.INTRA.DIHEDRAL>
0

>  <SCORE.INTRA.DIHEDRAL.0>
0

>  <SCORE.INTRA.POLAR>
0

>  <SCORE.INTRA.POLAR.0>
0

>  <SCORE.INTRA.REPUL>
0

>  <SCORE.INTRA.REPUL.0>
0

>  <SCORE.INTRA.SOLV>
0

>  <SCORE.INTRA.SOLV.lig_0>
-14.8845

>  <SCORE.INTRA.VDW>
0

>  <SCORE.INTRA.VDW.0>
0

>  <SCORE.INTRA.norm>
0

>  <SCORE.RESTR>
0

>  <SCORE.RESTR.CAVITY>
0

>  <SCORE.RESTR.norm>
0

>  <SCORE.SYSTEM>
0

>  <SCORE.SYSTEM.CONST>
0

>  <SCORE.SYSTEM.DIHEDRAL>
0

>  <SCORE.SYSTEM.SOLV>
0

>  <SCORE.SYSTEM.norm>
0

>  <SCORE.heavy>
10

>  <SCORE.norm>
-3.66755

>  <RMSD>
2.528

$$$$
lig.pdb
 OpenBabel11021811523D
libRbt.so/2013.1/901 2013/11/27
 10 11  0  0  0  0  0  0  0  0999 V2000
  -30.7354   17.9642  -17.7397 N   0  0  0  0  0  0  0  0  0  0  0  0
  -31.9708   18.4900  -17.4787 C   0  0  0  0  0  0  0  0  0  0  0  0
  -32.3483   18.3615  -16.2291 N   0  0  0  0  0  0  0  0  0  0  0  0
  -31.2881   17.7047  -15.6276 C   0  0  0  0  0  0  0  0  0  0  0  0
  -31.0658   17.2751  -14.3063 C   0  0  0  0  0  0  0  0  0  0  0  0
  -31.9506   17.4510  -13.3194 N   0  0  0  0  0  0  0  0  0  0  0  0
  -29.8977   16.6515  -14.0380 N   0  0  0  0  0  0  0  0  0  0  0  0
  -29.0183   16.4759  -15.0305 C   0  0  0  0  0  0  0  0  0  0  0  0
  -29.1149   16.8368  -16.3095 N   0  0  0  0  0  0  0  0  0  0  0  0
  -30.2846   17.4524  -16.5442 C   0  0  0  0  0  0  0  0  0  0  0  0
  1 10  1  0  0  0  0
  2  3  2  0  0  0  0
  2  1  1  0  0  0  0
  3  4  1  0  0  0  0
  4 10  2  0  0  0  0
  4  5  1  0  0  0  0
  5  7  2  0  0  0  0
  6  5  1  0  0  0  0
  7  8  1  0  0  0  0
  9  8  2  0  0  0  0
 10  9  1  0  0  0  0
M  END
>  <CHROM.1>
-30.78850788,17.46618011,-15.62114622,-1.83305561,-0.43383373,1.81294444

>  <Name>
lig.pdb

>  <RI>
0

>  <Rbt.Current_Directory>
/home/itssahil/PROJECTS/Mol_Feturizer/New_Systems/rnas/5uza

>  <Rbt.Executable>
rbdock ($Id: //depot/dev/client3/rdock/2013.1/src/exe/rbdock.cxx#4 $)

>  <Rbt.Library>
libRbt.so (2013.1, Build901 2013/11/27)

>  <Rbt.Parameter_File>
/export/apps/rDock/src/rDock_2013.1_src/data/scripts/dock_solv.prm

>  <Rbt.Receptor>
prm/blind_docking_80.prm

>  <SCORE>
-36.6749

>  <SCORE.INTER>
-36.6749

>  <SCORE.INTER.CONST>
1

>  <SCORE.INTER.POLAR>
-4.34077

>  <SCORE.INTER.ROT>
0

>  <SCORE.INTER.SOLV>
10.7363

>  <SCORE.INTER.VDW>
-17.1595

>  <SCORE.INTER.norm>
-3.66749

>  <SCORE.INTRA>
0

>  <SCORE.INTRA.DIHEDRAL>
0

>  <SCORE.INTRA.DIHEDRAL.0>
0

>  <SCORE.INTRA.POLAR>
0

>  <SCORE.INTRA.POLAR.0>
0

>  <SCORE.INTRA.REPUL>
0

>  <SCORE.INTRA.REPUL.0>
0

>  <SCORE.INTRA.SOLV>
0

>  <SCORE.INTRA.SOLV.lig_0>
-14.8845

>  <SCORE.INTRA.VDW>
0

>  <SCORE.INTRA.VDW.0>
0

>  <SCORE.INTRA.norm>
0

>  <SCORE.RESTR>
0

>  <SCORE.RESTR.CAVITY>
0

>  <SCORE.RESTR.norm>
0

>  <SCORE.SYSTEM>
0

>  <SCORE.SYSTEM.CONST>
0

>  <SCORE.SYSTEM.DIHEDRAL>
0

>  <SCORE.SYSTEM.SOLV>
0

>  <SCORE.SYSTEM.norm>
0

>  <SCORE.heavy>
10

>  <SCORE.norm>
-3.66749

>  <RMSD>
2.528

$$$$
lig.pdb
 OpenBabel11021811523D
libRbt.so/2013.1/901 2013/11/27
 10 11  0  0  0  0  0  0  0  0999 V2000
  -30.7396   17.9551  -17.7431 N   0  0  0  0  0  0  0  0  0  0  0  0
  -31.9720   18.4870  -17.4799 C   0  0  0  0  0  0  0  0  0  0  0  0
  -32.3473   18.3615  -16.2294 N   0  0  0  0  0  0  0  0  0  0  0  0
  -31.2889   17.7003  -15.6295 C   0  0  0  0  0  0  0  0  0  0  0  0
  -31.0658   17.2710  -14.3082 C   0  0  0  0  0  0  0  0  0  0  0  0
  -31.9476   17.4521  -13.3196 N   0  0  0  0  0  0  0  0  0  0  0  0
  -29.9000   16.6422  -14.0419 N   0  0  0  0  0  0  0  0  0  0  0  0
  -29.0237   16.4615  -15.0361 C   0  0  0  0  0  0  0  0  0  0  0  0
  -29.1213   16.8215  -16.3153 N   0  0  0  0  0  0  0  0  0  0  0  0
  -30.2886   17.4424  -16.5480 C   0  0  0  0  0  0  0  0  0  0  0  0
  1 10  1  0  0  0  0
  2  3  2  0  0  0  0
  2  1  1  0  0  0  0
  3  4  1  0  0  0  0
  4 10  2  0  0  0  0
  4  5  1  0  0  0  0
  5  7  2  0  0  0  0
  6  5  1  0  0  0  0
  7  8  1  0  0  0  0
  9  8  2  0  0  0  0
 10  9  1  0  0  0  0
M  END
>  <CHROM.1>
-30.79045832,17.45948163,-15.62389181,-1.83413170,-0.43894847,1.81148452

>  <Name>
lig.pdb

>  <RI>
0

>  <Rbt.Current_Directory>
/home/itssahil/PROJECTS/Mol_Feturizer/New_Systems/rnas/5uza

>  <Rbt.Executable>
rbdock ($Id: //depot/dev/client3/rdock/2013.1/src/exe/rbdock.cxx#4 $)

>  <Rbt.Library>
libRbt.so (2013.1, Build901 2013/11/27)

>  <Rbt.Parameter_File>
/export/apps/rDock/src/rDock_2013.1_src/data/scripts/dock_solv.prm

>  <Rbt.Receptor>
prm/blind_docking_80.prm

>  <SCORE>
-36.7116

>  <SCORE.INTER>
-36.7116

>  <SCORE.INTER.CONST>
1

>  <SCORE.INTER.POLAR>
-4.34423

>  <SCORE.INTER.ROT>
0

>  <SCORE.INTER.SOLV>
10.7287

>  <SCORE.INTER.VDW>
-17.1699

>  <SCORE.INTER.norm>
-3.67116

>  <SCORE.INTRA>
0

>  <SCORE.INTRA.DIHEDRAL>
0

>  <SCORE.INTRA.DIHEDRAL.0>
0

>  <SCORE.INTRA.POLAR>
0

>  <SCORE.INTRA.POLAR.0>
0

>  <SCORE.INTRA.REPUL>
0

>  <SCORE.INTRA.REPUL.0>
0

>  <SCORE.INTRA.SOLV>
0

>  <SCORE.INTRA.SOLV.lig_0>
-14.8845

>  <SCORE.INTRA.VDW>
0

>  <SCORE.INTRA.VDW.0>
0

>  <SCORE.INTRA.norm>
0

>  <SCORE.RESTR>
0

>  <SCORE.RESTR.CAVITY>
0

>  <SCORE.RESTR.norm>
0

>  <SCORE.SYSTEM>
0

>  <SCORE.SYSTEM.CONST>
0

>  <SCORE.SYSTEM.DIHEDRAL>
0

>  <SCORE.SYSTEM.SOLV>
0

>  <SCORE.SYSTEM.norm>
0

>  <SCORE.heavy>
10

>  <SCORE.norm>
-3.67116

>  <RMSD>
2.528

$$$$
lig.pdb
 OpenBabel11021811523D
libRbt.so/2013.1/901 2013/11/27
 10 11  0  0  0  0  0  0  0  0999 V2000
  -30.7372   17.9632  -17.7391 N   0  0  0  0  0  0  0  0  0  0  0  0
  -31.9701   18.4944  -17.4766 C   0  0  0  0  0  0  0  0  0  0  0  0
  -32.3467   18.3672  -16.2267 N   0  0  0  0  0  0  0  0  0  0  0  0
  -31.2888   17.7056  -15.6264 C   0  0  0  0  0  0  0  0  0  0  0  0
  -31.0670   17.2746  -14.3055 C   0  0  0  0  0  0  0  0  0  0  0  0
  -31.9500   17.4541  -13.3176 N   0  0  0  0  0  0  0  0  0  0  0  0
  -29.9014   16.6458  -14.0387 N   0  0  0  0  0  0  0  0  0  0  0  0
  -29.0238   16.4666  -15.0321 C   0  0  0  0  0  0  0  0  0  0  0  0
  -29.1202   16.8283  -16.3110 N   0  0  0  0  0  0  0  0  0  0  0  0
  -30.2875   17.4491  -16.5442 C   0  0  0  0  0  0  0  0  0  0  0  0
  1 10  1  0  0  0  0
  2  3  2  0  0  0  0
  2  1  1  0  0  0  0
  3  4  1  0  0  0  0
  4 10  2  0  0  0  0
  4  5  1  0  0  0  0
  5  7  2  0  0  0  0
  6  5  1  0  0  0  0
  7  8  1  0  0  0  0
  9  8  2  0  0  0  0
 10  9  1  0  0  0  0
M  END
>  <CHROM.1>
-30.79028657,17.46485261,-15.62062825,-1.83303163,-0.43839390,1.81322423

>  <Name>
lig.pdb

>  <RI>
0

>  <Rbt.Current_Directory>
/home/itssahil/PROJECTS/Mol_Feturizer/New_Systems/rnas/5uza

>  <Rbt.Executable>
rbdock ($Id: //depot/dev/client3/rdock/2013.1/src/exe/rbdock.cxx#4 $)

>  <Rbt.Library>
libRbt.so (2013.1, Build901 2013/11/27)

>  <Rbt.Parameter_File>
/export/apps/rDock/src/rDock_2013.1_src/data/scripts/dock_solv.prm

>  <Rbt.Receptor>
prm/blind_docking_80.prm

>  <SCORE>
-36.7094

>  <SCORE.INTER>
-36.7094

>  <SCORE.INTER.CONST>
1

>  <SCORE.INTER.POLAR>
-4.34726

>  <SCORE.INTER.ROT>
0

>  <SCORE.INTER.SOLV>
10.7324

>  <SCORE.INTER.VDW>
-17.1595

>  <SCORE.INTER.norm>
-3.67094

>  <SCORE.INTRA>
0

>  <SCORE.INTRA.DIHEDRAL>
0

>  <SCORE.INTRA.DIHEDRAL.0>
0

>  <SCORE.INTRA.POLAR>
0

>  <SCORE.INTRA.POLAR.0>
0

>  <SCORE.INTRA.REPUL>
0

>  <SCORE.INTRA.REPUL.0>
0

>  <SCORE.INTRA.SOLV>
0

>  <SCORE.INTRA.SOLV.lig_0>
-14.8845

>  <SCORE.INTRA.VDW>
0

>  <SCORE.INTRA.VDW.0>
0

>  <SCORE.INTRA.norm>
0

>  <SCORE.RESTR>
0

>  <SCORE.RESTR.CAVITY>
0

>  <SCORE.RESTR.norm>
0

>  <SCORE.SYSTEM>
0

>  <SCORE.SYSTEM.CONST>
0

>  <SCORE.SYSTEM.DIHEDRAL>
0

>  <SCORE.SYSTEM.SOLV>
0

>  <SCORE.SYSTEM.norm>
0

>  <SCORE.heavy>
10

>  <SCORE.norm>
-3.67094

>  <RMSD>
2.528

$$$$
lig.pdb
 OpenBabel11021811523D
libRbt.so/2013.1/901 2013/11/27
 10 11  0  0  0  0  0  0  0  0999 V2000
  -30.7361   17.9642  -17.7395 N   0  0  0  0  0  0  0  0  0  0  0  0
  -31.9693   18.4945  -17.4767 C   0  0  0  0  0  0  0  0  0  0  0  0
  -32.3463   18.3656  -16.2271 N   0  0  0  0  0  0  0  0  0  0  0  0
  -31.2883   17.7036  -15.6273 C   0  0  0  0  0  0  0  0  0  0  0  0
  -31.0667   17.2712  -14.3069 C   0  0  0  0  0  0  0  0  0  0  0  0
  -31.9501   17.4490  -13.3190 N   0  0  0  0  0  0  0  0  0  0  0  0
  -29.9009   16.6425  -14.0404 N   0  0  0  0  0  0  0  0  0  0  0  0
  -29.0229   16.4650  -15.0338 C   0  0  0  0  0  0  0  0  0  0  0  0
  -29.1190   16.8282  -16.3122 N   0  0  0  0  0  0  0  0  0  0  0  0
  -30.2865   17.4488  -16.5451 C   0  0  0  0  0  0  0  0  0  0  0  0
  1 10  1  0  0  0  0
  2  3  2  0  0  0  0
  2  1  1  0  0  0  0
  3  4  1  0  0  0  0
  4 10  2  0  0  0  0
  4  5  1  0  0  0  0
  5  7  2  0  0  0  0
  6  5  1  0  0  0  0
  7  8  1  0  0  0  0
  9  8  2  0  0  0  0
 10  9  1  0  0  0  0
M  END
>  <CHROM.1>
-30.78964224,17.46315414,-15.62164943,-1.83280113,-0.43787831,1.81457549

>  <Name>
lig.pdb

>  <RI>
0

>  <Rbt.Current_Directory>
/home/itssahil/PROJECTS/Mol_Feturizer/New_Systems/rnas/5uza

>  <Rbt.Executable>
rbdock ($Id: //depot/dev/client3/rdock/2013.1/src/exe/rbdock.cxx#4 $)

>  <Rbt.Library>
libRbt.so (2013.1, Build901 2013/11/27)

>  <Rbt.Parameter_File>
/export/apps/rDock/src/rDock_2013.1_src/data/scripts/dock_solv.prm

>  <Rbt.Receptor>
prm/pocket_docking_3.prm

>  <SCORE>
-36.715

>  <SCORE.INTER>
-36.715

>  <SCORE.INTER.CONST>
1

>  <SCORE.INTER.POLAR>
-4.34927

>  <SCORE.INTER.ROT>
0

>  <SCORE.INTER.SOLV>
10.736

>  <SCORE.INTER.VDW>
-17.1577

>  <SCORE.INTER.norm>
-3.6715

>  <SCORE.INTRA>
0

>  <SCORE.INTRA.DIHEDRAL>
0

>  <SCORE.INTRA.DIHEDRAL.0>
0

>  <SCORE.INTRA.POLAR>
0

>  <SCORE.INTRA.POLAR.0>
0

>  <SCORE.INTRA.REPUL>
0

>  <SCORE.INTRA.REPUL.0>
0

>  <SCORE.INTRA.SOLV>
0

>  <SCORE.INTRA.SOLV.lig_0>
-14.8845

>  <SCORE.INTRA.VDW>
0

>  <SCORE.INTRA.VDW.0>
0

>  <SCORE.INTRA.norm>
0

>  <SCORE.RESTR>
0

>  <SCORE.RESTR.CAVITY>
0

>  <SCORE.RESTR.norm>
0

>  <SCORE.SYSTEM>
0

>  <SCORE.SYSTEM.CONST>
0

>  <SCORE.SYSTEM.DIHEDRAL>
0

>  <SCORE.SYSTEM.SOLV>
0

>  <SCORE.SYSTEM.norm>
0

>  <SCORE.heavy>
10

>  <SCORE.norm>
-3.6715

>  <RMSD>
2.528

$$$$
lig.pdb
 OpenBabel11021811523D
libRbt.so/2013.1/901 2013/11/27
 10 11  0  0  0  0  0  0  0  0999 V2000
  -30.7365   17.9625  -17.7395 N   0  0  0  0  0  0  0  0  0  0  0  0
  -31.9695   18.4934  -17.4770 C   0  0  0  0  0  0  0  0  0  0  0  0
  -32.3462   18.3660  -16.2272 N   0  0  0  0  0  0  0  0  0  0  0  0
  -31.2882   17.7044  -15.6269 C   0  0  0  0  0  0  0  0  0  0  0  0
  -31.0665   17.2734  -14.3060 C   0  0  0  0  0  0  0  0  0  0  0  0
  -31.9496   17.4526  -13.3182 N   0  0  0  0  0  0  0  0  0  0  0  0
  -29.9007   16.6447  -14.0392 N   0  0  0  0  0  0  0  0  0  0  0  0
  -29.0231   16.4658  -15.0326 C   0  0  0  0  0  0  0  0  0  0  0  0
  -29.1194   16.8276  -16.3114 N   0  0  0  0  0  0  0  0  0  0  0  0
  -30.2867   17.4482  -16.5447 C   0  0  0  0  0  0  0  0  0  0  0  0
  1 10  1  0  0  0  0
  2  3  2  0  0  0  0
  2  1  1  0  0  0  0
  3  4  1  0  0  0  0
  4 10  2  0  0  0  0
  4  5  1  0  0  0  0
  5  7  2  0  0  0  0
  6  5  1  0  0  0  0
  7  8  1  0  0  0  0
  9  8  2  0  0  0  0
 10  9  1  0  0  0  0
M  END
>  <CHROM.1>
-30.78965890,17.46380343,-15.62111353,-1.83298974,-0.43821107,1.81337770

>  <Name>
lig.pdb

>  <RI>
0

>  <Rbt.Current_Directory>
/home/itssahil/PROJECTS/Mol_Feturizer/New_Systems/rnas/5uza

>  <Rbt.Executable>
rbdock ($Id: //depot/dev/client3/rdock/2013.1/src/exe/rbdock.cxx#4 $)

>  <Rbt.Library>
libRbt.so (2013.1, Build901 2013/11/27)

>  <Rbt.Parameter_File>
/export/apps/rDock/src/rDock_2013.1_src/data/scripts/dock_solv.prm

>  <Rbt.Receptor>
prm/pocket_docking_3.prm

>  <SCORE>
-36.7141

>  <SCORE.INTER>
-36.7141

>  <SCORE.INTER.CONST>
1

>  <SCORE.INTER.POLAR>
-4.34771

>  <SCORE.INTER.ROT>
0

>  <SCORE.INTER.SOLV>
10.7332

>  <SCORE.INTER.VDW>
-17.1615

>  <SCORE.INTER.norm>
-3.67141

>  <SCORE.INTRA>
0

>  <SCORE.INTRA.DIHEDRAL>
0

>  <SCORE.INTRA.DIHEDRAL.0>
0

>  <SCORE.INTRA.POLAR>
0

>  <SCORE.INTRA.POLAR.0>
0

>  <SCORE.INTRA.REPUL>
0

>  <SCORE.INTRA.REPUL.0>
0

>  <SCORE.INTRA.SOLV>
0

>  <SCORE.INTRA.SOLV.lig_0>
-14.8845

>  <SCORE.INTRA.VDW>
0

>  <SCORE.INTRA.VDW.0>
0

>  <SCORE.INTRA.norm>
0

>  <SCORE.RESTR>
0

>  <SCORE.RESTR.CAVITY>
0

>  <SCORE.RESTR.norm>
0

>  <SCORE.SYSTEM>
0

>  <SCORE.SYSTEM.CONST>
0

>  <SCORE.SYSTEM.DIHEDRAL>
0

>  <SCORE.SYSTEM.SOLV>
0

>  <SCORE.SYSTEM.norm>
0

>  <SCORE.heavy>
10

>  <SCORE.norm>
-3.67141

>  <RMSD>
2.528

$$$$
lig.pdb
 OpenBabel11021811523D
libRbt.so/2013.1/901 2013/11/27
 10 11  0  0  0  0  0  0  0  0999 V2000
  -30.7377   17.9490  -17.7445 N   0  0  0  0  0  0  0  0  0  0  0  0
  -31.9731   18.4739  -17.4813 C   0  0  0  0  0  0  0  0  0  0  0  0
  -32.3447   18.3527  -16.2293 N   0  0  0  0  0  0  0  0  0  0  0  0
  -31.2804   17.7021  -15.6282 C   0  0  0  0  0  0  0  0  0  0  0  0
  -31.0512   17.2816  -14.3052 C   0  0  0  0  0  0  0  0  0  0  0  0
  -31.9320   17.4621  -13.3155 N   0  0  0  0  0  0  0  0  0  0  0  0
  -29.8806   16.6623  -14.0382 N   0  0  0  0  0  0  0  0  0  0  0  0
  -29.0053   16.4820  -15.0334 C   0  0  0  0  0  0  0  0  0  0  0  0
  -29.1084   16.8343  -16.3143 N   0  0  0  0  0  0  0  0  0  0  0  0
  -30.2805   17.4459  -16.5477 C   0  0  0  0  0  0  0  0  0  0  0  0
  1 10  1  0  0  0  0
  2  3  2  0  0  0  0
  2  1  1  0  0  0  0
  3  4  1  0  0  0  0
  4 10  2  0  0  0  0
  4  5  1  0  0  0  0
  5  7  2  0  0  0  0
  6  5  1  0  0  0  0
  7  8  1  0  0  0  0
  9  8  2  0  0  0  0
 10  9  1  0  0  0  0
M  END
>  <CHROM.1>
-30.78027124,17.46469278,-15.62252900,-1.83843834,-0.43284929,1.80415541

>  <Name>
lig.pdb

>  <RI>
0

>  <Rbt.Current_Directory>
/home/itssahil/PROJECTS/Mol_Feturizer/New_Systems/rnas/5uza

>  <Rbt.Executable>
rbdock ($Id: //depot/dev/client3/rdock/2013.1/src/exe/rbdock.cxx#4 $)

>  <Rbt.Library>
libRbt.so (2013.1, Build901 2013/11/27)

>  <Rbt.Parameter_File>
/export/apps/rDock/src/rDock_2013.1_src/data/scripts/dock_solv.prm

>  <Rbt.Receptor>
prm/pocket_docking_3.prm

>  <SCORE>
-36.6638

>  <SCORE.INTER>
-36.6638

>  <SCORE.INTER.CONST>
1

>  <SCORE.INTER.POLAR>
-4.34316

>  <SCORE.INTER.ROT>
0

>  <SCORE.INTER.SOLV>
10.7174

>  <SCORE.INTER.VDW>
-17.1378

>  <SCORE.INTER.norm>
-3.66638

>  <SCORE.INTRA>
0

>  <SCORE.INTRA.DIHEDRAL>
0

>  <SCORE.INTRA.DIHEDRAL.0>
0

>  <SCORE.INTRA.POLAR>
0

>  <SCORE.INTRA.POLAR.0>
0

>  <SCORE.INTRA.REPUL>
0

>  <SCORE.INTRA.REPUL.0>
0

>  <SCORE.INTRA.SOLV>
0

>  <SCORE.INTRA.SOLV.lig_0>
-14.8845

>  <SCORE.INTRA.VDW>
0

>  <SCORE.INTRA.VDW.0>
0

>  <SCORE.INTRA.norm>
0

>  <SCORE.RESTR>
0

>  <SCORE.RESTR.CAVITY>
0

>  <SCORE.RESTR.norm>
0

>  <SCORE.SYSTEM>
0

>  <SCORE.SYSTEM.CONST>
0

>  <SCORE.SYSTEM.DIHEDRAL>
0

>  <SCORE.SYSTEM.SOLV>
0

>  <SCORE.SYSTEM.norm>
0

>  <SCORE.heavy>
10

>  <SCORE.norm>
-3.66638

>  <RMSD>
2.528

$$$$
lig.pdb
 OpenBabel11021811523D
libRbt.so/2013.1/901 2013/11/27
 10 11  0  0  0  0  0  0  0  0999 V2000
  -30.7386   17.9579  -17.7414 N   0  0  0  0  0  0  0  0  0  0  0  0
  -31.9715   18.4890  -17.4787 C   0  0  0  0  0  0  0  0  0  0  0  0
  -32.3473   18.3632  -16.2284 N   0  0  0  0  0  0  0  0  0  0  0  0
  -31.2888   17.7026  -15.6281 C   0  0  0  0  0  0  0  0  0  0  0  0
  -31.0660   17.2734  -14.3068 C   0  0  0  0  0  0  0  0  0  0  0  0
  -31.9484   17.4538  -13.3185 N   0  0  0  0  0  0  0  0  0  0  0  0
  -29.9000   16.6453  -14.0399 N   0  0  0  0  0  0  0  0  0  0  0  0
  -29.0230   16.4651  -15.0337 C   0  0  0  0  0  0  0  0  0  0  0  0
  -29.1203   16.8252  -16.3129 N   0  0  0  0  0  0  0  0  0  0  0  0
  -30.2879   17.4454  -16.5462 C   0  0  0  0  0  0  0  0  0  0  0  0
  1 10  1  0  0  0  0
  2  3  2  0  0  0  0
  2  1  1  0  0  0  0
  3  4  1  0  0  0  0
  4 10  2  0  0  0  0
  4  5  1  0  0  0  0
  5  7  2  0  0  0  0
  6  5  1  0  0  0  0
  7  8  1  0  0  0  0
  9  8  2  0  0  0  0
 10  9  1  0  0  0  0
M  END
>  <CHROM.1>
-30.79017607,17.46209194,-15.62228798,-1.83381192,-0.43824586,1.81167412

>  <Name>
lig.pdb

>  <RI>
0

>  <Rbt.Current_Directory>
/home/itssahil/PROJECTS/Mol_Feturizer/New_Systems/rnas/5uza

>  <Rbt.Executable>
rbdock ($Id: //depot/dev/client3/rdock/2013.1/src/exe/rbdock.cxx#4 $)

>  <Rbt.Library>
libRbt.so (2013.1, Build901 2013/11/27)

>  <Rbt.Parameter_File>
/export/apps/rDock/src/rDock_2013.1_src/data/scripts/dock_solv.prm

>  <Rbt.Receptor>
prm/pocket_docking_3.prm

>  <SCORE>
-36.7133

>  <SCORE.INTER>
-36.7133

>  <SCORE.INTER.CONST>
1

>  <SCORE.INTER.POLAR>
-4.34508

>  <SCORE.INTER.ROT>
0

>  <SCORE.INTER.SOLV>
10.7294

>  <SCORE.INTER.VDW>
-17.1684

>  <SCORE.INTER.norm>
-3.67133

>  <SCORE.INTRA>
0

>  <SCORE.INTRA.DIHEDRAL>
0

>  <SCORE.INTRA.DIHEDRAL.0>
0

>  <SCORE.INTRA.POLAR>
0

>  <SCORE.INTRA.POLAR.0>
0

>  <SCORE.INTRA.REPUL>
0

>  <SCORE.INTRA.REPUL.0>
0

>  <SCORE.INTRA.SOLV>
0

>  <SCORE.INTRA.SOLV.lig_0>
-14.8845

>  <SCORE.INTRA.VDW>
0

>  <SCORE.INTRA.VDW.0>
0

>  <SCORE.INTRA.norm>
0

>  <SCORE.RESTR>
0

>  <SCORE.RESTR.CAVITY>
0

>  <SCORE.RESTR.norm>
0

>  <SCORE.SYSTEM>
0

>  <SCORE.SYSTEM.CONST>
0

>  <SCORE.SYSTEM.DIHEDRAL>
0

>  <SCORE.SYSTEM.SOLV>
0

>  <SCORE.SYSTEM.norm>
0

>  <SCORE.heavy>
10

>  <SCORE.norm>
-3.67133

>  <RMSD>
2.528

$$$$
lig.pdb
 OpenBabel11021811523D
libRbt.so/2013.1/901 2013/11/27
 10 11  0  0  0  0  0  0  0  0999 V2000
  -30.7343   17.9622  -17.7390 N   0  0  0  0  0  0  0  0  0  0  0  0
  -31.9671   18.4938  -17.4773 C   0  0  0  0  0  0  0  0  0  0  0  0
  -32.3447   18.3667  -16.2276 N   0  0  0  0  0  0  0  0  0  0  0  0
  -31.2874   17.7046  -15.6267 C   0  0  0  0  0  0  0  0  0  0  0  0
  -31.0667   17.2735  -14.3056 C   0  0  0  0  0  0  0  0  0  0  0  0
  -31.9504   17.4533  -13.3183 N   0  0  0  0  0  0  0  0  0  0  0  0
  -29.9015   16.6443  -14.0380 N   0  0  0  0  0  0  0  0  0  0  0  0
  -29.0234   16.4648  -15.0308 C   0  0  0  0  0  0  0  0  0  0  0  0
  -29.1187   16.8265  -16.3097 N   0  0  0  0  0  0  0  0  0  0  0  0
  -30.2855   17.4478  -16.5438 C   0  0  0  0  0  0  0  0  0  0  0  0
  1 10  1  0  0  0  0
  2  3  2  0  0  0  0
  2  1  1  0  0  0  0
  3  4  1  0  0  0  0
  4 10  2  0  0  0  0
  4  5  1  0  0  0  0
  5  7  2  0  0  0  0
  6  5  1  0  0  0  0
  7  8  1  0  0  0  0
  9  8  2  0  0  0  0
 10  9  1  0  0  0  0
M  END
>  <CHROM.1>
-30.78902192,17.46371884,-15.62052589,-1.83217617,-0.43859513,1.81363397

>  <Name>
lig.pdb

>  <RI>
0

>  <Rbt.Current_Directory>
/home/itssahil/PROJECTS/Mol_Feturizer/New_Systems/rnas/5uza

>  <Rbt.Executable>
rbdock ($Id: //depot/dev/client3/rdock/2013.1/src/exe/rbdock.cxx#4 $)

>  <Rbt.Library>
libRbt.so (2013.1, Build901 2013/11/27)

>  <Rbt.Parameter_File>
/export/apps/rDock/src/rDock_2013.1_src/data/scripts/dock_solv.prm

>  <Rbt.Receptor>
prm/pocket_docking_3.prm

>  <SCORE>
-36.7093

>  <SCORE.INTER>
-36.7093

>  <SCORE.INTER.CONST>
1

>  <SCORE.INTER.POLAR>
-4.34598

>  <SCORE.INTER.ROT>
0

>  <SCORE.INTER.SOLV>
10.7344

>  <SCORE.INTER.VDW>
-17.1644

>  <SCORE.INTER.norm>
-3.67093

>  <SCORE.INTRA>
0

>  <SCORE.INTRA.DIHEDRAL>
0

>  <SCORE.INTRA.DIHEDRAL.0>
0

>  <SCORE.INTRA.POLAR>
0

>  <SCORE.INTRA.POLAR.0>
0

>  <SCORE.INTRA.REPUL>
0

>  <SCORE.INTRA.REPUL.0>
0

>  <SCORE.INTRA.SOLV>
0

>  <SCORE.INTRA.SOLV.lig_0>
-14.8845

>  <SCORE.INTRA.VDW>
0

>  <SCORE.INTRA.VDW.0>
0

>  <SCORE.INTRA.norm>
0

>  <SCORE.RESTR>
0

>  <SCORE.RESTR.CAVITY>
0

>  <SCORE.RESTR.norm>
0

>  <SCORE.SYSTEM>
0

>  <SCORE.SYSTEM.CONST>
0

>  <SCORE.SYSTEM.DIHEDRAL>
0

>  <SCORE.SYSTEM.SOLV>
0

>  <SCORE.SYSTEM.norm>
0

>  <SCORE.heavy>
10

>  <SCORE.norm>
-3.67093

>  <RMSD>
2.528

$$$$
lig.pdb
 OpenBabel11021811523D
libRbt.so/2013.1/901 2013/11/27
 10 11  0  0  0  0  0  0  0  0999 V2000
  -30.7392   17.9547  -17.7427 N   0  0  0  0  0  0  0  0  0  0  0  0
  -31.9719   18.4863  -17.4806 C   0  0  0  0  0  0  0  0  0  0  0  0
  -32.3474   18.3629  -16.2300 N   0  0  0  0  0  0  0  0  0  0  0  0
  -31.2887   17.7034  -15.6287 C   0  0  0  0  0  0  0  0  0  0  0  0
  -31.0656   17.2767  -14.3066 C   0  0  0  0  0  0  0  0  0  0  0  0
  -31.9477   17.4590  -13.3185 N   0  0  0  0  0  0  0  0  0  0  0  0
  -29.8995   16.6491  -14.0389 N   0  0  0  0  0  0  0  0  0  0  0  0
  -29.0228   16.4670  -15.0326 C   0  0  0  0  0  0  0  0  0  0  0  0
  -29.1205   16.8247  -16.3125 N   0  0  0  0  0  0  0  0  0  0  0  0
  -30.2881   17.4444  -16.5466 C   0  0  0  0  0  0  0  0  0  0  0  0
  1 10  1  0  0  0  0
  2  3  2  0  0  0  0
  2  1  1  0  0  0  0
  3  4  1  0  0  0  0
  4 10  2  0  0  0  0
  4  5  1  0  0  0  0
  5  7  2  0  0  0  0
  6  5  1  0  0  0  0
  7  8  1  0  0  0  0
  9  8  2  0  0  0  0
 10  9  1  0  0  0  0
M  END
>  <CHROM.1>
-30.79011927,17.46291380,-15.62256911,-1.83411344,-0.43831922,1.80966668

>  <Name>
lig.pdb

>  <RI>
9.24451e+06

>  <Rbt.Current_Directory>
/home/itssahil/PROJECTS/Mol_Feturizer/New_Systems/rnas/5uza

>  <Rbt.Executable>
rbdock ($Id: //depot/dev/client3/rdock/2013.1/src/exe/rbdock.cxx#4 $)

>  <Rbt.Library>
libRbt.so (2013.1, Build901 2013/11/27)

>  <Rbt.Parameter_File>
/export/apps/rDock/src/rDock_2013.1_src/data/scripts/dock_solv.prm

>  <Rbt.Receptor>
prm/pocket_docking_4.prm

>  <SCORE>
-36.705

>  <SCORE.INTER>
-36.705

>  <SCORE.INTER.CONST>
1

>  <SCORE.INTER.POLAR>
-4.33878

>  <SCORE.INTER.ROT>
0

>  <SCORE.INTER.SOLV>
10.7252

>  <SCORE.INTER.VDW>
-17.1825

>  <SCORE.INTER.norm>
-3.6705

>  <SCORE.INTRA>
0

>  <SCORE.INTRA.DIHEDRAL>
0

>  <SCORE.INTRA.DIHEDRAL.0>
0

>  <SCORE.INTRA.POLAR>
0

>  <SCORE.INTRA.POLAR.0>
0

>  <SCORE.INTRA.REPUL>
0

>  <SCORE.INTRA.REPUL.0>
0

>  <SCORE.INTRA.SOLV>
0

>  <SCORE.INTRA.SOLV.lig_0>
-14.8845

>  <SCORE.INTRA.VDW>
0

>  <SCORE.INTRA.VDW.0>
0

>  <SCORE.INTRA.norm>
0

>  <SCORE.RESTR>
0

>  <SCORE.RESTR.CAVITY>
0

>  <SCORE.RESTR.norm>
0

>  <SCORE.SYSTEM>
0

>  <SCORE.SYSTEM.CONST>
0

>  <SCORE.SYSTEM.DIHEDRAL>
0

>  <SCORE.SYSTEM.SOLV>
0

>  <SCORE.SYSTEM.norm>
0

>  <SCORE.heavy>
10

>  <SCORE.norm>
-3.6705

>  <RMSD>
2.528

$$$$
lig.pdb
 OpenBabel11021811523D
libRbt.so/2013.1/901 2013/11/27
 10 11  0  0  0  0  0  0  0  0999 V2000
  -30.7371   17.9621  -17.7396 N   0  0  0  0  0  0  0  0  0  0  0  0
  -31.9700   18.4930  -17.4767 C   0  0  0  0  0  0  0  0  0  0  0  0
  -32.3467   18.3650  -16.2269 N   0  0  0  0  0  0  0  0  0  0  0  0
  -31.2888   17.7030  -15.6271 C   0  0  0  0  0  0  0  0  0  0  0  0
  -31.0671   17.2712  -14.3064 C   0  0  0  0  0  0  0  0  0  0  0  0
  -31.9501   17.4500  -13.3184 N   0  0  0  0  0  0  0  0  0  0  0  0
  -29.9014   16.6423  -14.0399 N   0  0  0  0  0  0  0  0  0  0  0  0
  -29.0238   16.4638  -15.0335 C   0  0  0  0  0  0  0  0  0  0  0  0
  -29.1201   16.8263  -16.3121 N   0  0  0  0  0  0  0  0  0  0  0  0
  -30.2874   17.4472  -16.5450 C   0  0  0  0  0  0  0  0  0  0  0  0
  1 10  1  0  0  0  0
  2  3  2  0  0  0  0
  2  1  1  0  0  0  0
  3  4  1  0  0  0  0
  4 10  2  0  0  0  0
  4  5  1  0  0  0  0
  5  7  2  0  0  0  0
  6  5  1  0  0  0  0
  7  8  1  0  0  0  0
  9  8  2  0  0  0  0
 10  9  1  0  0  0  0
M  END
>  <CHROM.1>
-30.79028561,17.46231502,-15.62139494,-1.83299582,-0.43833604,1.81390536

>  <Name>
lig.pdb

>  <RI>
9.24451e+06

>  <Rbt.Current_Directory>
/home/itssahil/PROJECTS/Mol_Feturizer/New_Systems/rnas/5uza

>  <Rbt.Executable>
rbdock ($Id: //depot/dev/client3/rdock/2013.1/src/exe/rbdock.cxx#4 $)

>  <Rbt.Library>
libRbt.so (2013.1, Build901 2013/11/27)

>  <Rbt.Parameter_File>
/export/apps/rDock/src/rDock_2013.1_src/data/scripts/dock_solv.prm

>  <Rbt.Receptor>
prm/pocket_docking_4.prm

>  <SCORE>
-36.715

>  <SCORE.INTER>
-36.715

>  <SCORE.INTER.CONST>
1

>  <SCORE.INTER.POLAR>
-4.34983

>  <SCORE.INTER.ROT>
0

>  <SCORE.INTER.SOLV>
10.7341

>  <SCORE.INTER.VDW>
-17.1553

>  <SCORE.INTER.norm>
-3.6715

>  <SCORE.INTRA>
0

>  <SCORE.INTRA.DIHEDRAL>
0

>  <SCORE.INTRA.DIHEDRAL.0>
0

>  <SCORE.INTRA.POLAR>
0

>  <SCORE.INTRA.POLAR.0>
0

>  <SCORE.INTRA.REPUL>
0

>  <SCORE.INTRA.REPUL.0>
0

>  <SCORE.INTRA.SOLV>
0

>  <SCORE.INTRA.SOLV.lig_0>
-14.8845

>  <SCORE.INTRA.VDW>
0

>  <SCORE.INTRA.VDW.0>
0

>  <SCORE.INTRA.norm>
0

>  <SCORE.RESTR>
0

>  <SCORE.RESTR.CAVITY>
0

>  <SCORE.RESTR.norm>
0

>  <SCORE.SYSTEM>
0

>  <SCORE.SYSTEM.CONST>
0

>  <SCORE.SYSTEM.DIHEDRAL>
0

>  <SCORE.SYSTEM.SOLV>
0

>  <SCORE.SYSTEM.norm>
0

>  <SCORE.heavy>
10

>  <SCORE.norm>
-3.6715

>  <RMSD>
2.528

$$$$
lig.pdb
 OpenBabel11021811523D
libRbt.so/2013.1/901 2013/11/27
 10 11  0  0  0  0  0  0  0  0999 V2000
  -30.7429   17.9469  -17.7486 N   0  0  0  0  0  0  0  0  0  0  0  0
  -31.9756   18.4784  -17.4860 C   0  0  0  0  0  0  0  0  0  0  0  0
  -32.3491   18.3578  -16.2345 N   0  0  0  0  0  0  0  0  0  0  0  0
  -31.2892   17.7004  -15.6331 C   0  0  0  0  0  0  0  0  0  0  0  0
  -31.0639   17.2770  -14.3104 C   0  0  0  0  0  0  0  0  0  0  0  0
  -31.9446   17.4612  -13.3214 N   0  0  0  0  0  0  0  0  0  0  0  0
  -29.8970   16.6506  -14.0429 N   0  0  0  0  0  0  0  0  0  0  0  0
  -29.0217   16.4667  -15.0375 C   0  0  0  0  0  0  0  0  0  0  0  0
  -29.1215   16.8211  -16.3181 N   0  0  0  0  0  0  0  0  0  0  0  0
  -30.2898   17.4397  -16.5519 C   0  0  0  0  0  0  0  0  0  0  0  0
  1 10  1  0  0  0  0
  2  3  2  0  0  0  0
  2  1  1  0  0  0  0
  3  4  1  0  0  0  0
  4 10  2  0  0  0  0
  4  5  1  0  0  0  0
  5  7  2  0  0  0  0
  6  5  1  0  0  0  0
  7  8  1  0  0  0  0
  9  8  2  0  0  0  0
 10  9  1  0  0  0  0
M  END
>  <CHROM.1>
-30.79046120,17.46015999,-15.62720865,-1.83584664,-0.43814763,1.80650431

>  <Name>
lig.pdb

>  <RI>
9.24451e+06

>  <Rbt.Current_Directory>
/home/itssahil/PROJECTS/Mol_Feturizer/New_Systems/rnas/5uza

>  <Rbt.Executable>
rbdock ($Id: //depot/dev/client3/rdock/2013.1/src/exe/rbdock.cxx#4 $)

>  <Rbt.Library>
libRbt.so (2013.1, Build901 2013/11/27)

>  <Rbt.Parameter_File>
/export/apps/rDock/src/rDock_2013.1_src/data/scripts/dock_solv.prm

>  <Rbt.Receptor>
prm/pocket_docking_4.prm

>  <SCORE>
-36.6977

>  <SCORE.INTER>
-36.6977

>  <SCORE.INTER.CONST>
1

>  <SCORE.INTER.POLAR>
-4.3286

>  <SCORE.INTER.ROT>
0

>  <SCORE.INTER.SOLV>
10.719

>  <SCORE.INTER.VDW>
-17.2095

>  <SCORE.INTER.norm>
-3.66977

>  <SCORE.INTRA>
0

>  <SCORE.INTRA.DIHEDRAL>
0

>  <SCORE.INTRA.DIHEDRAL.0>
0

>  <SCORE.INTRA.POLAR>
0

>  <SCORE.INTRA.POLAR.0>
0

>  <SCORE.INTRA.REPUL>
0

>  <SCORE.INTRA.REPUL.0>
0

>  <SCORE.INTRA.SOLV>
0

>  <SCORE.INTRA.SOLV.lig_0>
-14.8845

>  <SCORE.INTRA.VDW>
0

>  <SCORE.INTRA.VDW.0>
0

>  <SCORE.INTRA.norm>
0

>  <SCORE.RESTR>
0

>  <SCORE.RESTR.CAVITY>
0

>  <SCORE.RESTR.norm>
0

>  <SCORE.SYSTEM>
0

>  <SCORE.SYSTEM.CONST>
0

>  <SCORE.SYSTEM.DIHEDRAL>
0

>  <SCORE.SYSTEM.SOLV>
0

>  <SCORE.SYSTEM.norm>
0

>  <SCORE.heavy>
10

>  <SCORE.norm>
-3.66977

>  <RMSD>
2.528

$$$$
lig.pdb
 OpenBabel11021811523D
libRbt.so/2013.1/901 2013/11/27
 10 11  0  0  0  0  0  0  0  0999 V2000
  -30.7405   17.9529  -17.7446 N   0  0  0  0  0  0  0  0  0  0  0  0
  -31.9733   18.4844  -17.4822 C   0  0  0  0  0  0  0  0  0  0  0  0
  -32.3482   18.3613  -16.2314 N   0  0  0  0  0  0  0  0  0  0  0  0
  -31.2892   17.7022  -15.6303 C   0  0  0  0  0  0  0  0  0  0  0  0
  -31.0654   17.2758  -14.3082 C   0  0  0  0  0  0  0  0  0  0  0  0
  -31.9471   17.4583  -13.3198 N   0  0  0  0  0  0  0  0  0  0  0  0
  -29.8991   16.6485  -14.0409 N   0  0  0  0  0  0  0  0  0  0  0  0
  -29.0228   16.4663  -15.0349 C   0  0  0  0  0  0  0  0  0  0  0  0
  -29.1211   16.8235  -16.3148 N   0  0  0  0  0  0  0  0  0  0  0  0
  -30.2889   17.4431  -16.5486 C   0  0  0  0  0  0  0  0  0  0  0  0
  1 10  1  0  0  0  0
  2  3  2  0  0  0  0
  2  1  1  0  0  0  0
  3  4  1  0  0  0  0
  4 10  2  0  0  0  0
  4  5  1  0  0  0  0
  5  7  2  0  0  0  0
  6  5  1  0  0  0  0
  7  8  1  0  0  0  0
  9  8  2  0  0  0  0
 10  9  1  0  0  0  0
M  END
>  <CHROM.1>
-30.79052726,17.46172816,-15.62437984,-1.83460228,-0.43827397,1.80916899

>  <Name>
lig.pdb

>  <RI>
0

>  <Rbt.Current_Directory>
/home/itssahil/PROJECTS/Mol_Feturizer/New_Systems/rnas/5uza

>  <Rbt.Executable>
rbdock ($Id: //depot/dev/client3/rdock/2013.1/src/exe/rbdock.cxx#4 $)

>  <Rbt.Library>
libRbt.so (2013.1, Build901 2013/11/27)

>  <Rbt.Parameter_File>
/export/apps/rDock/src/rDock_2013.1_src/data/scripts/dock_solv.prm

>  <Rbt.Receptor>
prm/pocket_docking_5.prm

>  <SCORE>
-36.7037

>  <SCORE.INTER>
-36.7037

>  <SCORE.INTER.CONST>
1

>  <SCORE.INTER.POLAR>
-4.33629

>  <SCORE.INTER.ROT>
0

>  <SCORE.INTER.SOLV>
10.7243

>  <SCORE.INTER.VDW>
-17.1896

>  <SCORE.INTER.norm>
-3.67037

>  <SCORE.INTRA>
0

>  <SCORE.INTRA.DIHEDRAL>
0

>  <SCORE.INTRA.DIHEDRAL.0>
0

>  <SCORE.INTRA.POLAR>
0

>  <SCORE.INTRA.POLAR.0>
0

>  <SCORE.INTRA.REPUL>
0

>  <SCORE.INTRA.REPUL.0>
0

>  <SCORE.INTRA.SOLV>
0

>  <SCORE.INTRA.SOLV.lig_0>
-14.8845

>  <SCORE.INTRA.VDW>
0

>  <SCORE.INTRA.VDW.0>
0

>  <SCORE.INTRA.norm>
0

>  <SCORE.RESTR>
0

>  <SCORE.RESTR.CAVITY>
0

>  <SCORE.RESTR.norm>
0

>  <SCORE.SYSTEM>
0

>  <SCORE.SYSTEM.CONST>
0

>  <SCORE.SYSTEM.DIHEDRAL>
0

>  <SCORE.SYSTEM.SOLV>
0

>  <SCORE.SYSTEM.norm>
0

>  <SCORE.heavy>
10

>  <SCORE.norm>
-3.67037

>  <RMSD>
2.528

$$$$
lig.pdb
 OpenBabel11021811523D
libRbt.so/2013.1/901 2013/11/27
 10 11  0  0  0  0  0  0  0  0999 V2000
  -30.7318   17.9522  -17.7435 N   0  0  0  0  0  0  0  0  0  0  0  0
  -31.9669   18.4803  -17.4855 C   0  0  0  0  0  0  0  0  0  0  0  0
  -32.3449   18.3582  -16.2354 N   0  0  0  0  0  0  0  0  0  0  0  0
  -31.2855   17.7034  -15.6303 C   0  0  0  0  0  0  0  0  0  0  0  0
  -31.0641   17.2800  -14.3069 C   0  0  0  0  0  0  0  0  0  0  0  0
  -31.9491   17.4615  -13.3212 N   0  0  0  0  0  0  0  0  0  0  0  0
  -29.8966   16.6567  -14.0352 N   0  0  0  0  0  0  0  0  0  0  0  0
  -29.0170   16.4755  -15.0264 C   0  0  0  0  0  0  0  0  0  0  0  0
  -29.1128   16.8303  -16.3072 N   0  0  0  0  0  0  0  0  0  0  0  0
  -30.2819   17.4458  -16.5453 C   0  0  0  0  0  0  0  0  0  0  0  0
  1 10  1  0  0  0  0
  2  3  2  0  0  0  0
  2  1  1  0  0  0  0
  3  4  1  0  0  0  0
  4 10  2  0  0  0  0
  4  5  1  0  0  0  0
  5  7  2  0  0  0  0
  6  5  1  0  0  0  0
  7  8  1  0  0  0  0
  9  8  2  0  0  0  0
 10  9  1  0  0  0  0
M  END
>  <CHROM.1>
-30.78615127,17.46447760,-15.62255945,-1.83242397,-0.43461583,1.80835804

>  <Name>
lig.pdb

>  <RI>
0

>  <Rbt.Current_Directory>
/home/itssahil/PROJECTS/Mol_Feturizer/New_Systems/rnas/5uza

>  <Rbt.Executable>
rbdock ($Id: //depot/dev/client3/rdock/2013.1/src/exe/rbdock.cxx#4 $)

>  <Rbt.Library>
libRbt.so (2013.1, Build901 2013/11/27)

>  <Rbt.Parameter_File>
/export/apps/rDock/src/rDock_2013.1_src/data/scripts/dock_solv.prm

>  <Rbt.Receptor>
prm/pocket_docking_5.prm

>  <SCORE>
-36.65

>  <SCORE.INTER>
-36.65

>  <SCORE.INTER.CONST>
1

>  <SCORE.INTER.POLAR>
-4.32154

>  <SCORE.INTER.ROT>
0

>  <SCORE.INTER.SOLV>
10.7285

>  <SCORE.INTER.VDW>
-17.2044

>  <SCORE.INTER.norm>
-3.665

>  <SCORE.INTRA>
0

>  <SCORE.INTRA.DIHEDRAL>
0

>  <SCORE.INTRA.DIHEDRAL.0>
0

>  <SCORE.INTRA.POLAR>
0

>  <SCORE.INTRA.POLAR.0>
0

>  <SCORE.INTRA.REPUL>
0

>  <SCORE.INTRA.REPUL.0>
0

>  <SCORE.INTRA.SOLV>
0

>  <SCORE.INTRA.SOLV.lig_0>
-14.8845

>  <SCORE.INTRA.VDW>
0

>  <SCORE.INTRA.VDW.0>
0

>  <SCORE.INTRA.norm>
0

>  <SCORE.RESTR>
0

>  <SCORE.RESTR.CAVITY>
0

>  <SCORE.RESTR.norm>
0

>  <SCORE.SYSTEM>
0

>  <SCORE.SYSTEM.CONST>
0

>  <SCORE.SYSTEM.DIHEDRAL>
0

>  <SCORE.SYSTEM.SOLV>
0

>  <SCORE.SYSTEM.norm>
0

>  <SCORE.heavy>
10

>  <SCORE.norm>
-3.665

>  <RMSD>
2.528

$$$$
lig.pdb
 OpenBabel11021811523D
libRbt.so/2013.1/901 2013/11/27
 10 11  0  0  0  0  0  0  0  0999 V2000
  -30.7295   17.9508  -17.7404 N   0  0  0  0  0  0  0  0  0  0  0  0
  -31.9650   18.4765  -17.4797 C   0  0  0  0  0  0  0  0  0  0  0  0
  -32.3393   18.3553  -16.2284 N   0  0  0  0  0  0  0  0  0  0  0  0
  -31.2767   17.7038  -15.6253 C   0  0  0  0  0  0  0  0  0  0  0  0
  -31.0507   17.2829  -14.3019 C   0  0  0  0  0  0  0  0  0  0  0  0
  -31.9334   17.4637  -13.3140 N   0  0  0  0  0  0  0  0  0  0  0  0
  -29.8811   16.6626  -14.0325 N   0  0  0  0  0  0  0  0  0  0  0  0
  -29.0038   16.4819  -15.0260 C   0  0  0  0  0  0  0  0  0  0  0  0
  -29.1040   16.8346  -16.3070 N   0  0  0  0  0  0  0  0  0  0  0  0
  -30.2752   17.4471  -16.5428 C   0  0  0  0  0  0  0  0  0  0  0  0
  1 10  1  0  0  0  0
  2  3  2  0  0  0  0
  2  1  1  0  0  0  0
  3  4  1  0  0  0  0
  4 10  2  0  0  0  0
  4  5  1  0  0  0  0
  5  7  2  0  0  0  0
  6  5  1  0  0  0  0
  7  8  1  0  0  0  0
  9  8  2  0  0  0  0
 10  9  1  0  0  0  0
M  END
>  <CHROM.1>
-30.77684043,17.46602266,-15.61859700,-1.83599634,-0.43308438,1.80540063

>  <Name>
lig.pdb

>  <RI>
0

>  <Rbt.Current_Directory>
/home/itssahil/PROJECTS/Mol_Feturizer/New_Systems/rnas/5uza

>  <Rbt.Executable>
rbdock ($Id: //depot/dev/client3/rdock/2013.1/src/exe/rbdock.cxx#4 $)

>  <Rbt.Library>
libRbt.so (2013.1, Build901 2013/11/27)

>  <Rbt.Parameter_File>
/export/apps/rDock/src/rDock_2013.1_src/data/scripts/dock_solv.prm

>  <Rbt.Receptor>
prm/pocket_docking_5.prm

>  <SCORE>
-36.6621

>  <SCORE.INTER>
-36.6621

>  <SCORE.INTER.CONST>
1

>  <SCORE.INTER.POLAR>
-4.3438

>  <SCORE.INTER.ROT>
0

>  <SCORE.INTER.SOLV>
10.7231

>  <SCORE.INTER.VDW>
-17.1365

>  <SCORE.INTER.norm>
-3.66621

>  <SCORE.INTRA>
0

>  <SCORE.INTRA.DIHEDRAL>
0

>  <SCORE.INTRA.DIHEDRAL.0>
0

>  <SCORE.INTRA.POLAR>
0

>  <SCORE.INTRA.POLAR.0>
0

>  <SCORE.INTRA.REPUL>
0

>  <SCORE.INTRA.REPUL.0>
0

>  <SCORE.INTRA.SOLV>
0

>  <SCORE.INTRA.SOLV.lig_0>
-14.8845

>  <SCORE.INTRA.VDW>
0

>  <SCORE.INTRA.VDW.0>
0

>  <SCORE.INTRA.norm>
0

>  <SCORE.RESTR>
0

>  <SCORE.RESTR.CAVITY>
0

>  <SCORE.RESTR.norm>
0

>  <SCORE.SYSTEM>
0

>  <SCORE.SYSTEM.CONST>
0

>  <SCORE.SYSTEM.DIHEDRAL>
0

>  <SCORE.SYSTEM.SOLV>
0

>  <SCORE.SYSTEM.norm>
0

>  <SCORE.heavy>
10

>  <SCORE.norm>
-3.66621

>  <RMSD>
2.528

$$$$
lig.pdb
 OpenBabel11021811523D
libRbt.so/2013.1/901 2013/11/27
 10 11  0  0  0  0  0  0  0  0999 V2000
  -30.7374   17.9628  -17.7397 N   0  0  0  0  0  0  0  0  0  0  0  0
  -31.9732   18.4869  -17.4768 C   0  0  0  0  0  0  0  0  0  0  0  0
  -32.3481   18.3589  -16.2264 N   0  0  0  0  0  0  0  0  0  0  0  0
  -31.2857   17.7044  -15.6263 C   0  0  0  0  0  0  0  0  0  0  0  0
  -31.0602   17.2764  -14.3050 C   0  0  0  0  0  0  0  0  0  0  0  0
  -31.9435   17.4518  -13.3166 N   0  0  0  0  0  0  0  0  0  0  0  0
  -29.8906   16.6549  -14.0384 N   0  0  0  0  0  0  0  0  0  0  0  0
  -29.0128   16.4798  -15.0323 C   0  0  0  0  0  0  0  0  0  0  0  0
  -29.1124   16.8393  -16.3115 N   0  0  0  0  0  0  0  0  0  0  0  0
  -30.2836   17.4528  -16.5446 C   0  0  0  0  0  0  0  0  0  0  0  0
  1 10  1  0  0  0  0
  2  3  2  0  0  0  0
  2  1  1  0  0  0  0
  3  4  1  0  0  0  0
  4 10  2  0  0  0  0
  4  5  1  0  0  0  0
  5  7  2  0  0  0  0
  6  5  1  0  0  0  0
  7  8  1  0  0  0  0
  9  8  2  0  0  0  0
 10  9  1  0  0  0  0
M  END
>  <CHROM.1>
-30.78572920,17.46668860,-15.62058085,-1.83548924,-0.43273643,1.81099367

>  <Name>
lig.pdb

>  <RI>
0

>  <Rbt.Current_Directory>
/home/itssahil/PROJECTS/Mol_Feturizer/New_Systems/rnas/5uza

>  <Rbt.Executable>
rbdock ($Id: //depot/dev/client3/rdock/2013.1/src/exe/rbdock.cxx#4 $)

>  <Rbt.Library>
libRbt.so (2013.1, Build901 2013/11/27)

>  <Rbt.Parameter_File>
/export/apps/rDock/src/rDock_2013.1_src/data/scripts/dock_solv.prm

>  <Rbt.Receptor>
prm/pocket_docking_5.prm

>  <SCORE>
-36.6715

>  <SCORE.INTER>
-36.6715

>  <SCORE.INTER.CONST>
1

>  <SCORE.INTER.POLAR>
-4.34966

>  <SCORE.INTER.ROT>
0

>  <SCORE.INTER.SOLV>
10.7319

>  <SCORE.INTER.VDW>
-17.1261

>  <SCORE.INTER.norm>
-3.66715

>  <SCORE.INTRA>
0

>  <SCORE.INTRA.DIHEDRAL>
0

>  <SCORE.INTRA.DIHEDRAL.0>
0

>  <SCORE.INTRA.POLAR>
0

>  <SCORE.INTRA.POLAR.0>
0

>  <SCORE.INTRA.REPUL>
0

>  <SCORE.INTRA.REPUL.0>
0

>  <SCORE.INTRA.SOLV>
0

>  <SCORE.INTRA.SOLV.lig_0>
-14.8845

>  <SCORE.INTRA.VDW>
0

>  <SCORE.INTRA.VDW.0>
0

>  <SCORE.INTRA.norm>
0

>  <SCORE.RESTR>
0

>  <SCORE.RESTR.CAVITY>
0

>  <SCORE.RESTR.norm>
0

>  <SCORE.SYSTEM>
0

>  <SCORE.SYSTEM.CONST>
0

>  <SCORE.SYSTEM.DIHEDRAL>
0

>  <SCORE.SYSTEM.SOLV>
0

>  <SCORE.SYSTEM.norm>
0

>  <SCORE.heavy>
10

>  <SCORE.norm>
-3.66715

>  <RMSD>
2.528

$$$$
lig.pdb
 OpenBabel11021811523D
libRbt.so/2013.1/901 2013/11/27
 10 11  0  0  0  0  0  0  0  0999 V2000
  -30.7388   17.9510  -17.7439 N   0  0  0  0  0  0  0  0  0  0  0  0
  -31.9714   18.4831  -17.4819 C   0  0  0  0  0  0  0  0  0  0  0  0
  -32.3469   18.3598  -16.2312 N   0  0  0  0  0  0  0  0  0  0  0  0
  -31.2885   17.6999  -15.6300 C   0  0  0  0  0  0  0  0  0  0  0  0
  -31.0656   17.2730  -14.3079 C   0  0  0  0  0  0  0  0  0  0  0  0
  -31.9476   17.4556  -13.3198 N   0  0  0  0  0  0  0  0  0  0  0  0
  -29.8997   16.6448  -14.0402 N   0  0  0  0  0  0  0  0  0  0  0  0
  -29.0231   16.4625  -15.0340 C   0  0  0  0  0  0  0  0  0  0  0  0
  -29.1206   16.8202  -16.3138 N   0  0  0  0  0  0  0  0  0  0  0  0
  -30.2880   17.4405  -16.5479 C   0  0  0  0  0  0  0  0  0  0  0  0
  1 10  1  0  0  0  0
  2  3  2  0  0  0  0
  2  1  1  0  0  0  0
  3  4  1  0  0  0  0
  4 10  2  0  0  0  0
  4  5  1  0  0  0  0
  5  7  2  0  0  0  0
  6  5  1  0  0  0  0
  7  8  1  0  0  0  0
  9  8  2  0  0  0  0
 10  9  1  0  0  0  0
M  END
>  <CHROM.1>
-30.79002247,17.45913145,-15.62387201,-1.83399793,-0.43872390,1.80974721

>  <Name>
lig.pdb

>  <RI>
1.17431e+07

>  <Rbt.Current_Directory>
/home/itssahil/PROJECTS/Mol_Feturizer/New_Systems/rnas/5uza

>  <Rbt.Executable>
rbdock ($Id: //depot/dev/client3/rdock/2013.1/src/exe/rbdock.cxx#4 $)

>  <Rbt.Library>
libRbt.so (2013.1, Build901 2013/11/27)

>  <Rbt.Parameter_File>
/export/apps/rDock/src/rDock_2013.1_src/data/scripts/dock_solv.prm

>  <Rbt.Receptor>
prm/pocket_docking_6.prm

>  <SCORE>
-36.7055

>  <SCORE.INTER>
-36.7055

>  <SCORE.INTER.CONST>
1

>  <SCORE.INTER.POLAR>
-4.33869

>  <SCORE.INTER.ROT>
0

>  <SCORE.INTER.SOLV>
10.7258

>  <SCORE.INTER.VDW>
-17.1833

>  <SCORE.INTER.norm>
-3.67055

>  <SCORE.INTRA>
0

>  <SCORE.INTRA.DIHEDRAL>
0

>  <SCORE.INTRA.DIHEDRAL.0>
0

>  <SCORE.INTRA.POLAR>
0

>  <SCORE.INTRA.POLAR.0>
0

>  <SCORE.INTRA.REPUL>
0

>  <SCORE.INTRA.REPUL.0>
0

>  <SCORE.INTRA.SOLV>
0

>  <SCORE.INTRA.SOLV.lig_0>
-14.8845

>  <SCORE.INTRA.VDW>
0

>  <SCORE.INTRA.VDW.0>
0

>  <SCORE.INTRA.norm>
0

>  <SCORE.RESTR>
0

>  <SCORE.RESTR.CAVITY>
0

>  <SCORE.RESTR.norm>
0

>  <SCORE.SYSTEM>
0

>  <SCORE.SYSTEM.CONST>
0

>  <SCORE.SYSTEM.DIHEDRAL>
0

>  <SCORE.SYSTEM.SOLV>
0

>  <SCORE.SYSTEM.norm>
0

>  <SCORE.heavy>
10

>  <SCORE.norm>
-3.67055

>  <RMSD>
2.528

$$$$
lig.pdb
 OpenBabel11021811523D
libRbt.so/2013.1/901 2013/11/27
 10 11  0  0  0  0  0  0  0  0999 V2000
  -30.7379   17.9619  -17.7411 N   0  0  0  0  0  0  0  0  0  0  0  0
  -31.9708   18.4925  -17.4778 C   0  0  0  0  0  0  0  0  0  0  0  0
  -32.3469   18.3647  -16.2278 N   0  0  0  0  0  0  0  0  0  0  0  0
  -31.2885   17.7033  -15.6282 C   0  0  0  0  0  0  0  0  0  0  0  0
  -31.0660   17.2720  -14.3075 C   0  0  0  0  0  0  0  0  0  0  0  0
  -31.9486   17.4508  -13.3192 N   0  0  0  0  0  0  0  0  0  0  0  0
  -29.9000   16.6435  -14.0414 N   0  0  0  0  0  0  0  0  0  0  0  0
  -29.0228   16.4650  -15.0353 C   0  0  0  0  0  0  0  0  0  0  0  0
  -29.1198   16.8270  -16.3140 N   0  0  0  0  0  0  0  0  0  0  0  0
  -30.2874   17.4475  -16.5465 C   0  0  0  0  0  0  0  0  0  0  0  0
  1 10  1  0  0  0  0
  2  3  2  0  0  0  0
  2  1  1  0  0  0  0
  3  4  1  0  0  0  0
  4 10  2  0  0  0  0
  4  5  1  0  0  0  0
  5  7  2  0  0  0  0
  6  5  1  0  0  0  0
  7  8  1  0  0  0  0
  9  8  2  0  0  0  0
 10  9  1  0  0  0  0
M  END
>  <CHROM.1>
-30.78986368,17.46275082,-15.62270296,-1.83358567,-0.43811244,1.81333344

>  <Name>
lig.pdb

>  <RI>
1.17431e+07

>  <Rbt.Current_Directory>
/home/itssahil/PROJECTS/Mol_Feturizer/New_Systems/rnas/5uza

>  <Rbt.Executable>
rbdock ($Id: //depot/dev/client3/rdock/2013.1/src/exe/rbdock.cxx#4 $)

>  <Rbt.Library>
libRbt.so (2013.1, Build901 2013/11/27)

>  <Rbt.Parameter_File>
/export/apps/rDock/src/rDock_2013.1_src/data/scripts/dock_solv.prm

>  <Rbt.Receptor>
prm/pocket_docking_6.prm

>  <SCORE>
-36.7169

>  <SCORE.INTER>
-36.7169

>  <SCORE.INTER.CONST>
1

>  <SCORE.INTER.POLAR>
-4.34755

>  <SCORE.INTER.ROT>
0

>  <SCORE.INTER.SOLV>
10.7331

>  <SCORE.INTER.VDW>
-17.1638

>  <SCORE.INTER.norm>
-3.67169

>  <SCORE.INTRA>
0

>  <SCORE.INTRA.DIHEDRAL>
0

>  <SCORE.INTRA.DIHEDRAL.0>
0

>  <SCORE.INTRA.POLAR>
0

>  <SCORE.INTRA.POLAR.0>
0

>  <SCORE.INTRA.REPUL>
0

>  <SCORE.INTRA.REPUL.0>
0

>  <SCORE.INTRA.SOLV>
0

>  <SCORE.INTRA.SOLV.lig_0>
-14.8845

>  <SCORE.INTRA.VDW>
0

>  <SCORE.INTRA.VDW.0>
0

>  <SCORE.INTRA.norm>
0

>  <SCORE.RESTR>
0

>  <SCORE.RESTR.CAVITY>
0

>  <SCORE.RESTR.norm>
0

>  <SCORE.SYSTEM>
0

>  <SCORE.SYSTEM.CONST>
0

>  <SCORE.SYSTEM.DIHEDRAL>
0

>  <SCORE.SYSTEM.SOLV>
0

>  <SCORE.SYSTEM.norm>
0

>  <SCORE.heavy>
10

>  <SCORE.norm>
-3.67169

>  <RMSD>
2.528

$$$$
lig.pdb
 OpenBabel11021811523D
libRbt.so/2013.1/901 2013/11/27
 10 11  0  0  0  0  0  0  0  0999 V2000
  -30.7382   17.9594  -17.7406 N   0  0  0  0  0  0  0  0  0  0  0  0
  -31.9743   18.4823  -17.4767 C   0  0  0  0  0  0  0  0  0  0  0  0
  -32.3465   18.3573  -16.2252 N   0  0  0  0  0  0  0  0  0  0  0  0
  -31.2818   17.7062  -15.6253 C   0  0  0  0  0  0  0  0  0  0  0  0
  -31.0531   17.2824  -14.3033 C   0  0  0  0  0  0  0  0  0  0  0  0
  -31.9346   17.4592  -13.3136 N   0  0  0  0  0  0  0  0  0  0  0  0
  -29.8819   16.6635  -14.0372 N   0  0  0  0  0  0  0  0  0  0  0  0
  -29.0059   16.4869  -15.0325 C   0  0  0  0  0  0  0  0  0  0  0  0
  -29.1086   16.8426  -16.3125 N   0  0  0  0  0  0  0  0  0  0  0  0
  -30.2812   17.4536  -16.5449 C   0  0  0  0  0  0  0  0  0  0  0  0
  1 10  1  0  0  0  0
  2  3  2  0  0  0  0
  2  1  1  0  0  0  0
  3  4  1  0  0  0  0
  4 10  2  0  0  0  0
  4  5  1  0  0  0  0
  5  7  2  0  0  0  0
  6  5  1  0  0  0  0
  7  8  1  0  0  0  0
  9  8  2  0  0  0  0
 10  9  1  0  0  0  0
M  END
>  <CHROM.1>
-30.78150707,17.46930357,-15.61995559,-1.83805806,-0.43169608,1.80703609

>  <Name>
lig.pdb

>  <RI>
1.17431e+07

>  <Rbt.Current_Directory>
/home/itssahil/PROJECTS/Mol_Feturizer/New_Systems/rnas/5uza

>  <Rbt.Executable>
rbdock ($Id: //depot/dev/client3/rdock/2013.1/src/exe/rbdock.cxx#4 $)

>  <Rbt.Library>
libRbt.so (2013.1, Build901 2013/11/27)

>  <Rbt.Parameter_File>
/export/apps/rDock/src/rDock_2013.1_src/data/scripts/dock_solv.prm

>  <Rbt.Receptor>
prm/pocket_docking_6.prm

>  <SCORE>
-36.6713

>  <SCORE.INTER>
-36.6713

>  <SCORE.INTER.CONST>
1

>  <SCORE.INTER.POLAR>
-4.35197

>  <SCORE.INTER.ROT>
0

>  <SCORE.INTER.SOLV>
10.7237

>  <SCORE.INTER.VDW>
-17.1156

>  <SCORE.INTER.norm>
-3.66713

>  <SCORE.INTRA>
0

>  <SCORE.INTRA.DIHEDRAL>
0

>  <SCORE.INTRA.DIHEDRAL.0>
0

>  <SCORE.INTRA.POLAR>
0

>  <SCORE.INTRA.POLAR.0>
0

>  <SCORE.INTRA.REPUL>
0

>  <SCORE.INTRA.REPUL.0>
0

>  <SCORE.INTRA.SOLV>
0

>  <SCORE.INTRA.SOLV.lig_0>
-14.8845

>  <SCORE.INTRA.VDW>
0

>  <SCORE.INTRA.VDW.0>
0

>  <SCORE.INTRA.norm>
0

>  <SCORE.RESTR>
0

>  <SCORE.RESTR.CAVITY>
0

>  <SCORE.RESTR.norm>
0

>  <SCORE.SYSTEM>
0

>  <SCORE.SYSTEM.CONST>
0

>  <SCORE.SYSTEM.DIHEDRAL>
0

>  <SCORE.SYSTEM.SOLV>
0

>  <SCORE.SYSTEM.norm>
0

>  <SCORE.heavy>
10

>  <SCORE.norm>
-3.66713

>  <RMSD>
2.528

$$$$
lig.pdb
 OpenBabel11021811523D
libRbt.so/2013.1/901 2013/11/27
 10 11  0  0  0  0  0  0  0  0999 V2000
  -30.7393   17.9547  -17.7426 N   0  0  0  0  0  0  0  0  0  0  0  0
  -31.9750   18.4785  -17.4787 C   0  0  0  0  0  0  0  0  0  0  0  0
  -32.3466   18.3552  -16.2268 N   0  0  0  0  0  0  0  0  0  0  0  0
  -31.2820   17.7041  -15.6267 C   0  0  0  0  0  0  0  0  0  0  0  0
  -31.0528   17.2817  -14.3044 C   0  0  0  0  0  0  0  0  0  0  0  0
  -31.9337   17.4600  -13.3144 N   0  0  0  0  0  0  0  0  0  0  0  0
  -29.8818   16.6625  -14.0382 N   0  0  0  0  0  0  0  0  0  0  0  0
  -29.0063   16.4843  -15.0337 C   0  0  0  0  0  0  0  0  0  0  0  0
  -29.1095   16.8387  -16.3140 N   0  0  0  0  0  0  0  0  0  0  0  0
  -30.2819   17.4500  -16.5465 C   0  0  0  0  0  0  0  0  0  0  0  0
  1 10  1  0  0  0  0
  2  3  2  0  0  0  0
  2  1  1  0  0  0  0
  3  4  1  0  0  0  0
  4 10  2  0  0  0  0
  4  5  1  0  0  0  0
  5  7  2  0  0  0  0
  6  5  1  0  0  0  0
  7  8  1  0  0  0  0
  9  8  2  0  0  0  0
 10  9  1  0  0  0  0
M  END
>  <CHROM.1>
-30.78178827,17.46700672,-15.62136319,-1.83845815,-0.43230162,1.80576089

>  <Name>
lig.pdb

>  <RI>
1.17431e+07

>  <Rbt.Current_Directory>
/home/itssahil/PROJECTS/Mol_Feturizer/New_Systems/rnas/5uza

>  <Rbt.Executable>
rbdock ($Id: //depot/dev/client3/rdock/2013.1/src/exe/rbdock.cxx#4 $)

>  <Rbt.Library>
libRbt.so (2013.1, Build901 2013/11/27)

>  <Rbt.Parameter_File>
/export/apps/rDock/src/rDock_2013.1_src/data/scripts/dock_solv.prm

>  <Rbt.Receptor>
prm/pocket_docking_6.prm

>  <SCORE>
-36.6684

>  <SCORE.INTER>
-36.6684

>  <SCORE.INTER.CONST>
1

>  <SCORE.INTER.POLAR>
-4.34879

>  <SCORE.INTER.ROT>
0

>  <SCORE.INTER.SOLV>
10.7204

>  <SCORE.INTER.VDW>
-17.1231

>  <SCORE.INTER.norm>
-3.66684

>  <SCORE.INTRA>
0

>  <SCORE.INTRA.DIHEDRAL>
0

>  <SCORE.INTRA.DIHEDRAL.0>
0

>  <SCORE.INTRA.POLAR>
0

>  <SCORE.INTRA.POLAR.0>
0

>  <SCORE.INTRA.REPUL>
0

>  <SCORE.INTRA.REPUL.0>
0

>  <SCORE.INTRA.SOLV>
0

>  <SCORE.INTRA.SOLV.lig_0>
-14.8845

>  <SCORE.INTRA.VDW>
0

>  <SCORE.INTRA.VDW.0>
0

>  <SCORE.INTRA.norm>
0

>  <SCORE.RESTR>
0

>  <SCORE.RESTR.CAVITY>
0

>  <SCORE.RESTR.norm>
0

>  <SCORE.SYSTEM>
0

>  <SCORE.SYSTEM.CONST>
0

>  <SCORE.SYSTEM.DIHEDRAL>
0

>  <SCORE.SYSTEM.SOLV>
0

>  <SCORE.SYSTEM.norm>
0

>  <SCORE.heavy>
10

>  <SCORE.norm>
-3.66684

>  <RMSD>
2.528

$$$$
lig.pdb
 OpenBabel11021811523D
libRbt.so/2013.1/901 2013/11/27
 10 11  0  0  0  0  0  0  0  0999 V2000
  -30.7367   17.9610  -17.7390 N   0  0  0  0  0  0  0  0  0  0  0  0
  -31.9695   18.4924  -17.4770 C   0  0  0  0  0  0  0  0  0  0  0  0
  -32.3467   18.3655  -16.2272 N   0  0  0  0  0  0  0  0  0  0  0  0
  -31.2891   17.7037  -15.6265 C   0  0  0  0  0  0  0  0  0  0  0  0
  -31.0679   17.2729  -14.3054 C   0  0  0  0  0  0  0  0  0  0  0  0
  -31.9512   17.4528  -13.3178 N   0  0  0  0  0  0  0  0  0  0  0  0
  -29.9025   16.6439  -14.0381 N   0  0  0  0  0  0  0  0  0  0  0  0
  -29.0246   16.4643  -15.0312 C   0  0  0  0  0  0  0  0  0  0  0  0
  -29.1205   16.8258  -16.3101 N   0  0  0  0  0  0  0  0  0  0  0  0
  -30.2875   17.4469  -16.5439 C   0  0  0  0  0  0  0  0  0  0  0  0
  1 10  1  0  0  0  0
  2  3  2  0  0  0  0
  2  1  1  0  0  0  0
  3  4  1  0  0  0  0
  4 10  2  0  0  0  0
  4  5  1  0  0  0  0
  5  7  2  0  0  0  0
  6  5  1  0  0  0  0
  7  8  1  0  0  0  0
  9  8  2  0  0  0  0
 10  9  1  0  0  0  0
M  END
>  <CHROM.1>
-30.79066571,17.46290622,-15.62044133,-1.83259261,-0.43854057,1.81326585

>  <Name>
lig.pdb

>  <RI>
2.12818e+07

>  <Rbt.Current_Directory>
/home/itssahil/PROJECTS/Mol_Feturizer/New_Systems/rnas/5uza

>  <Rbt.Executable>
rbdock ($Id: //depot/dev/client3/rdock/2013.1/src/exe/rbdock.cxx#4 $)

>  <Rbt.Library>
libRbt.so (2013.1, Build901 2013/11/27)

>  <Rbt.Parameter_File>
/export/apps/rDock/src/rDock_2013.1_src/data/scripts/dock_solv.prm

>  <Rbt.Receptor>
prm/pocket_docking_7.prm

>  <SCORE>
-36.708

>  <SCORE.INTER>
-36.708

>  <SCORE.INTER.CONST>
1

>  <SCORE.INTER.POLAR>
-4.34749

>  <SCORE.INTER.ROT>
0

>  <SCORE.INTER.SOLV>
10.7329

>  <SCORE.INTER.VDW>
-17.158

>  <SCORE.INTER.norm>
-3.6708

>  <SCORE.INTRA>
0

>  <SCORE.INTRA.DIHEDRAL>
0

>  <SCORE.INTRA.DIHEDRAL.0>
0

>  <SCORE.INTRA.POLAR>
0

>  <SCORE.INTRA.POLAR.0>
0

>  <SCORE.INTRA.REPUL>
0

>  <SCORE.INTRA.REPUL.0>
0

>  <SCORE.INTRA.SOLV>
0

>  <SCORE.INTRA.SOLV.lig_0>
-14.8845

>  <SCORE.INTRA.VDW>
0

>  <SCORE.INTRA.VDW.0>
0

>  <SCORE.INTRA.norm>
0

>  <SCORE.RESTR>
0

>  <SCORE.RESTR.CAVITY>
0

>  <SCORE.RESTR.norm>
0

>  <SCORE.SYSTEM>
0

>  <SCORE.SYSTEM.CONST>
0

>  <SCORE.SYSTEM.DIHEDRAL>
0

>  <SCORE.SYSTEM.SOLV>
0

>  <SCORE.SYSTEM.norm>
0

>  <SCORE.heavy>
10

>  <SCORE.norm>
-3.6708

>  <RMSD>
2.528

$$$$
lig.pdb
 OpenBabel11021811523D
libRbt.so/2013.1/901 2013/11/27
 10 11  0  0  0  0  0  0  0  0999 V2000
  -30.7404   17.9544  -17.7449 N   0  0  0  0  0  0  0  0  0  0  0  0
  -31.9731   18.4857  -17.4820 C   0  0  0  0  0  0  0  0  0  0  0  0
  -32.3478   18.3620  -16.2312 N   0  0  0  0  0  0  0  0  0  0  0  0
  -31.2887   17.7025  -15.6306 C   0  0  0  0  0  0  0  0  0  0  0  0
  -31.0647   17.2755  -14.3088 C   0  0  0  0  0  0  0  0  0  0  0  0
  -31.9463   17.4574  -13.3201 N   0  0  0  0  0  0  0  0  0  0  0  0
  -29.8984   16.6480  -14.0419 N   0  0  0  0  0  0  0  0  0  0  0  0
  -29.0223   16.4663  -15.0362 C   0  0  0  0  0  0  0  0  0  0  0  0
  -29.1207   16.8243  -16.3159 N   0  0  0  0  0  0  0  0  0  0  0  0
  -30.2886   17.4439  -16.5492 C   0  0  0  0  0  0  0  0  0  0  0  0
  1 10  1  0  0  0  0
  2  3  2  0  0  0  0
  2  1  1  0  0  0  0
  3  4  1  0  0  0  0
  4 10  2  0  0  0  0
  4  5  1  0  0  0  0
  5  7  2  0  0  0  0
  6  5  1  0  0  0  0
  7  8  1  0  0  0  0
  9  8  2  0  0  0  0
 10  9  1  0  0  0  0
M  END
>  <CHROM.1>
-30.79005705,17.46206425,-15.62487919,-1.83475283,-0.43829855,1.80963387

>  <Name>
lig.pdb

>  <RI>
2.12818e+07

>  <Rbt.Current_Directory>
/home/itssahil/PROJECTS/Mol_Feturizer/New_Systems/rnas/5uza

>  <Rbt.Executable>
rbdock ($Id: //depot/dev/client3/rdock/2013.1/src/exe/rbdock.cxx#4 $)

>  <Rbt.Library>
libRbt.so (2013.1, Build901 2013/11/27)

>  <Rbt.Parameter_File>
/export/apps/rDock/src/rDock_2013.1_src/data/scripts/dock_solv.prm

>  <Rbt.Receptor>
prm/pocket_docking_7.prm

>  <SCORE>
-36.7066

>  <SCORE.INTER>
-36.7066

>  <SCORE.INTER.CONST>
1

>  <SCORE.INTER.POLAR>
-4.33701

>  <SCORE.INTER.ROT>
0

>  <SCORE.INTER.SOLV>
10.7254

>  <SCORE.INTER.VDW>
-17.1895

>  <SCORE.INTER.norm>
-3.67066

>  <SCORE.INTRA>
0

>  <SCORE.INTRA.DIHEDRAL>
0

>  <SCORE.INTRA.DIHEDRAL.0>
0

>  <SCORE.INTRA.POLAR>
0

>  <SCORE.INTRA.POLAR.0>
0

>  <SCORE.INTRA.REPUL>
0

>  <SCORE.INTRA.REPUL.0>
0

>  <SCORE.INTRA.SOLV>
0

>  <SCORE.INTRA.SOLV.lig_0>
-14.8845

>  <SCORE.INTRA.VDW>
0

>  <SCORE.INTRA.VDW.0>
0

>  <SCORE.INTRA.norm>
0

>  <SCORE.RESTR>
0

>  <SCORE.RESTR.CAVITY>
0

>  <SCORE.RESTR.norm>
0

>  <SCORE.SYSTEM>
0

>  <SCORE.SYSTEM.CONST>
0

>  <SCORE.SYSTEM.DIHEDRAL>
0

>  <SCORE.SYSTEM.SOLV>
0

>  <SCORE.SYSTEM.norm>
0

>  <SCORE.heavy>
10

>  <SCORE.norm>
-3.67066

>  <RMSD>
2.528

$$$$
lig.pdb
 OpenBabel11021811523D
libRbt.so/2013.1/901 2013/11/27
 10 11  0  0  0  0  0  0  0  0999 V2000
  -30.7371   17.9439  -17.7407 N   0  0  0  0  0  0  0  0  0  0  0  0
  -31.9724   18.4697  -17.4788 C   0  0  0  0  0  0  0  0  0  0  0  0
  -32.3444   18.3507  -16.2267 N   0  0  0  0  0  0  0  0  0  0  0  0
  -31.2806   17.7007  -15.6242 C   0  0  0  0  0  0  0  0  0  0  0  0
  -31.0521   17.2823  -14.3004 C   0  0  0  0  0  0  0  0  0  0  0  0
  -31.9332   17.4648  -13.3113 N   0  0  0  0  0  0  0  0  0  0  0  0
  -29.8818   16.6630  -14.0318 N   0  0  0  0  0  0  0  0  0  0  0  0
  -29.0062   16.4808  -15.0265 C   0  0  0  0  0  0  0  0  0  0  0  0
  -29.1087   16.8310  -16.3080 N   0  0  0  0  0  0  0  0  0  0  0  0
  -30.2805   17.4426  -16.5429 C   0  0  0  0  0  0  0  0  0  0  0  0
  1 10  1  0  0  0  0
  2  3  2  0  0  0  0
  2  1  1  0  0  0  0
  3  4  1  0  0  0  0
  4 10  2  0  0  0  0
  4  5  1  0  0  0  0
  5  7  2  0  0  0  0
  6  5  1  0  0  0  0
  7  8  1  0  0  0  0
  9  8  2  0  0  0  0
 10  9  1  0  0  0  0
M  END
>  <CHROM.1>
-30.78059721,17.46312761,-15.61788703,-1.83793872,-0.43313920,1.80269979

>  <Name>
lig.pdb

>  <RI>
0

>  <Rbt.Current_Directory>
/home/itssahil/PROJECTS/Mol_Feturizer/New_Systems/rnas/5uza

>  <Rbt.Executable>
rbdock ($Id: //depot/dev/client3/rdock/2013.1/src/exe/rbdock.cxx#4 $)

>  <Rbt.Library>
libRbt.so (2013.1, Build901 2013/11/27)

>  <Rbt.Parameter_File>
/export/apps/rDock/src/rDock_2013.1_src/data/scripts/dock_solv.prm

>  <Rbt.Receptor>
prm/blind_docking_60.prm

>  <SCORE>
-36.6628

>  <SCORE.INTER>
-36.6628

>  <SCORE.INTER.CONST>
1

>  <SCORE.INTER.POLAR>
-4.34844

>  <SCORE.INTER.ROT>
0

>  <SCORE.INTER.SOLV>
10.7143

>  <SCORE.INTER.VDW>
-17.1185

>  <SCORE.INTER.norm>
-3.66628

>  <SCORE.INTRA>
0

>  <SCORE.INTRA.DIHEDRAL>
0

>  <SCORE.INTRA.DIHEDRAL.0>
0

>  <SCORE.INTRA.POLAR>
0

>  <SCORE.INTRA.POLAR.0>
0

>  <SCORE.INTRA.REPUL>
0

>  <SCORE.INTRA.REPUL.0>
0

>  <SCORE.INTRA.SOLV>
0

>  <SCORE.INTRA.SOLV.lig_0>
-14.8845

>  <SCORE.INTRA.VDW>
0

>  <SCORE.INTRA.VDW.0>
0

>  <SCORE.INTRA.norm>
0

>  <SCORE.RESTR>
0

>  <SCORE.RESTR.CAVITY>
0

>  <SCORE.RESTR.norm>
0

>  <SCORE.SYSTEM>
0

>  <SCORE.SYSTEM.CONST>
0

>  <SCORE.SYSTEM.DIHEDRAL>
0

>  <SCORE.SYSTEM.SOLV>
0

>  <SCORE.SYSTEM.norm>
0

>  <SCORE.heavy>
10

>  <SCORE.norm>
-3.66628

>  <RMSD>
2.529

$$$$
lig.pdb
 OpenBabel11021811523D
libRbt.so/2013.1/901 2013/11/27
 10 11  0  0  0  0  0  0  0  0999 V2000
  -30.7318   17.9558  -17.7385 N   0  0  0  0  0  0  0  0  0  0  0  0
  -31.9672   18.4811  -17.4763 C   0  0  0  0  0  0  0  0  0  0  0  0
  -32.3407   18.3582  -16.2250 N   0  0  0  0  0  0  0  0  0  0  0  0
  -31.2778   17.7058  -15.6234 C   0  0  0  0  0  0  0  0  0  0  0  0
  -31.0509   17.2831  -14.3007 C   0  0  0  0  0  0  0  0  0  0  0  0
  -31.9331   17.4625  -13.3120 N   0  0  0  0  0  0  0  0  0  0  0  0
  -29.8811   16.6625  -14.0329 N   0  0  0  0  0  0  0  0  0  0  0  0
  -29.0045   16.4833  -15.0271 C   0  0  0  0  0  0  0  0  0  0  0  0
  -29.1054   16.8377  -16.3076 N   0  0  0  0  0  0  0  0  0  0  0  0
  -30.2767   17.4505  -16.5418 C   0  0  0  0  0  0  0  0  0  0  0  0
  1 10  1  0  0  0  0
  2  3  2  0  0  0  0
  2  1  1  0  0  0  0
  3  4  1  0  0  0  0
  4 10  2  0  0  0  0
  4  5  1  0  0  0  0
  5  7  2  0  0  0  0
  6  5  1  0  0  0  0
  7  8  1  0  0  0  0
  9  8  2  0  0  0  0
 10  9  1  0  0  0  0
M  END
>  <CHROM.1>
-30.77785734,17.46809318,-15.61730290,-1.83663550,-0.43316796,1.80652600

>  <Name>
lig.pdb

>  <RI>
0

>  <Rbt.Current_Directory>
/home/itssahil/PROJECTS/Mol_Feturizer/New_Systems/rnas/5uza

>  <Rbt.Executable>
rbdock ($Id: //depot/dev/client3/rdock/2013.1/src/exe/rbdock.cxx#4 $)

>  <Rbt.Library>
libRbt.so (2013.1, Build901 2013/11/27)

>  <Rbt.Parameter_File>
/export/apps/rDock/src/rDock_2013.1_src/data/scripts/dock_solv.prm

>  <Rbt.Receptor>
prm/blind_docking_80.prm

>  <SCORE>
-36.6674

>  <SCORE.INTER>
-36.6674

>  <SCORE.INTER.CONST>
1

>  <SCORE.INTER.POLAR>
-4.3507

>  <SCORE.INTER.ROT>
0

>  <SCORE.INTER.SOLV>
10.724

>  <SCORE.INTER.VDW>
-17.1172

>  <SCORE.INTER.norm>
-3.66674

>  <SCORE.INTRA>
0

>  <SCORE.INTRA.DIHEDRAL>
0

>  <SCORE.INTRA.DIHEDRAL.0>
0

>  <SCORE.INTRA.POLAR>
0

>  <SCORE.INTRA.POLAR.0>
0

>  <SCORE.INTRA.REPUL>
0

>  <SCORE.INTRA.REPUL.0>
0

>  <SCORE.INTRA.SOLV>
0

>  <SCORE.INTRA.SOLV.lig_0>
-14.8845

>  <SCORE.INTRA.VDW>
0

>  <SCORE.INTRA.VDW.0>
0

>  <SCORE.INTRA.norm>
0

>  <SCORE.RESTR>
0

>  <SCORE.RESTR.CAVITY>
0

>  <SCORE.RESTR.norm>
0

>  <SCORE.SYSTEM>
0

>  <SCORE.SYSTEM.CONST>
0

>  <SCORE.SYSTEM.DIHEDRAL>
0

>  <SCORE.SYSTEM.SOLV>
0

>  <SCORE.SYSTEM.norm>
0

>  <SCORE.heavy>
10

>  <SCORE.norm>
-3.66674

>  <RMSD>
2.529

$$$$
lig.pdb
 OpenBabel11021811523D
libRbt.so/2013.1/901 2013/11/27
 10 11  0  0  0  0  0  0  0  0999 V2000
  -30.7356   17.9587  -17.7386 N   0  0  0  0  0  0  0  0  0  0  0  0
  -31.9683   18.4906  -17.4772 C   0  0  0  0  0  0  0  0  0  0  0  0
  -32.3456   18.3651  -16.2273 N   0  0  0  0  0  0  0  0  0  0  0  0
  -31.2882   17.7037  -15.6258 C   0  0  0  0  0  0  0  0  0  0  0  0
  -31.0672   17.2742  -14.3043 C   0  0  0  0  0  0  0  0  0  0  0  0
  -31.9506   17.4552  -13.3170 N   0  0  0  0  0  0  0  0  0  0  0  0
  -29.9019   16.6453  -14.0362 N   0  0  0  0  0  0  0  0  0  0  0  0
  -29.0240   16.4646  -15.0291 C   0  0  0  0  0  0  0  0  0  0  0  0
  -29.1196   16.8247  -16.3084 N   0  0  0  0  0  0  0  0  0  0  0  0
  -30.2866   17.4458  -16.5429 C   0  0  0  0  0  0  0  0  0  0  0  0
  1 10  1  0  0  0  0
  2  3  2  0  0  0  0
  2  1  1  0  0  0  0
  3  4  1  0  0  0  0
  4 10  2  0  0  0  0
  4  5  1  0  0  0  0
  5  7  2  0  0  0  0
  6  5  1  0  0  0  0
  7  8  1  0  0  0  0
  9  8  2  0  0  0  0
 10  9  1  0  0  0  0
M  END
>  <CHROM.1>
-30.78980082,17.46281240,-15.61953143,-1.83243849,-0.43866769,1.81231116

>  <Name>
lig.pdb

>  <RI>
0

>  <Rbt.Current_Directory>
/home/itssahil/PROJECTS/Mol_Feturizer/New_Systems/rnas/5uza

>  <Rbt.Executable>
rbdock ($Id: //depot/dev/client3/rdock/2013.1/src/exe/rbdock.cxx#4 $)

>  <Rbt.Library>
libRbt.so (2013.1, Build901 2013/11/27)

>  <Rbt.Parameter_File>
/export/apps/rDock/src/rDock_2013.1_src/data/scripts/dock_solv.prm

>  <Rbt.Receptor>
prm/blind_docking_80.prm

>  <SCORE>
-36.7082

>  <SCORE.INTER>
-36.7082

>  <SCORE.INTER.CONST>
1

>  <SCORE.INTER.POLAR>
-4.34638

>  <SCORE.INTER.ROT>
0

>  <SCORE.INTER.SOLV>
10.7313

>  <SCORE.INTER.VDW>
-17.1613

>  <SCORE.INTER.norm>
-3.67082

>  <SCORE.INTRA>
0

>  <SCORE.INTRA.DIHEDRAL>
0

>  <SCORE.INTRA.DIHEDRAL.0>
0

>  <SCORE.INTRA.POLAR>
0

>  <SCORE.INTRA.POLAR.0>
0

>  <SCORE.INTRA.REPUL>
0

>  <SCORE.INTRA.REPUL.0>
0

>  <SCORE.INTRA.SOLV>
0

>  <SCORE.INTRA.SOLV.lig_0>
-14.8845

>  <SCORE.INTRA.VDW>
0

>  <SCORE.INTRA.VDW.0>
0

>  <SCORE.INTRA.norm>
0

>  <SCORE.RESTR>
0

>  <SCORE.RESTR.CAVITY>
0

>  <SCORE.RESTR.norm>
0

>  <SCORE.SYSTEM>
0

>  <SCORE.SYSTEM.CONST>
0

>  <SCORE.SYSTEM.DIHEDRAL>
0

>  <SCORE.SYSTEM.SOLV>
0

>  <SCORE.SYSTEM.norm>
0

>  <SCORE.heavy>
10

>  <SCORE.norm>
-3.67082

>  <RMSD>
2.529

$$$$
lig.pdb
 OpenBabel11021811523D
libRbt.so/2013.1/901 2013/11/27
 10 11  0  0  0  0  0  0  0  0999 V2000
  -30.7359   17.9433  -17.7422 N   0  0  0  0  0  0  0  0  0  0  0  0
  -31.9691   18.4734  -17.4788 C   0  0  0  0  0  0  0  0  0  0  0  0
  -32.3398   18.3563  -16.2261 N   0  0  0  0  0  0  0  0  0  0  0  0
  -31.2773   17.7030  -15.6248 C   0  0  0  0  0  0  0  0  0  0  0  0
  -31.0484   17.2846  -14.3011 C   0  0  0  0  0  0  0  0  0  0  0  0
  -31.9275   17.4705  -13.3109 N   0  0  0  0  0  0  0  0  0  0  0  0
  -29.8798   16.6614  -14.0339 N   0  0  0  0  0  0  0  0  0  0  0  0
  -29.0062   16.4757  -15.0297 C   0  0  0  0  0  0  0  0  0  0  0  0
  -29.1093   16.8257  -16.3112 N   0  0  0  0  0  0  0  0  0  0  0  0
  -30.2794   17.4411  -16.5447 C   0  0  0  0  0  0  0  0  0  0  0  0
  1 10  1  0  0  0  0
  2  3  2  0  0  0  0
  2  1  1  0  0  0  0
  3  4  1  0  0  0  0
  4 10  2  0  0  0  0
  4  5  1  0  0  0  0
  5  7  2  0  0  0  0
  6  5  1  0  0  0  0
  7  8  1  0  0  0  0
  9  8  2  0  0  0  0
 10  9  1  0  0  0  0
M  END
>  <CHROM.1>
-30.77810033,17.46377489,-15.61907044,-1.83857962,-0.43673110,1.80193311

>  <Name>
lig.pdb

>  <RI>
0

>  <Rbt.Current_Directory>
/home/itssahil/PROJECTS/Mol_Feturizer/New_Systems/rnas/5uza

>  <Rbt.Executable>
rbdock ($Id: //depot/dev/client3/rdock/2013.1/src/exe/rbdock.cxx#4 $)

>  <Rbt.Library>
libRbt.so (2013.1, Build901 2013/11/27)

>  <Rbt.Parameter_File>
/export/apps/rDock/src/rDock_2013.1_src/data/scripts/dock_solv.prm

>  <Rbt.Receptor>
prm/blind_docking_80.prm

>  <SCORE>
-36.64

>  <SCORE.INTER>
-36.64

>  <SCORE.INTER.CONST>
1

>  <SCORE.INTER.POLAR>
-4.34169

>  <SCORE.INTER.ROT>
0

>  <SCORE.INTER.SOLV>
10.7101

>  <SCORE.INTER.VDW>
-17.1244

>  <SCORE.INTER.norm>
-3.664

>  <SCORE.INTRA>
0

>  <SCORE.INTRA.DIHEDRAL>
0

>  <SCORE.INTRA.DIHEDRAL.0>
0

>  <SCORE.INTRA.POLAR>
0

>  <SCORE.INTRA.POLAR.0>
0

>  <SCORE.INTRA.REPUL>
0

>  <SCORE.INTRA.REPUL.0>
0

>  <SCORE.INTRA.SOLV>
0

>  <SCORE.INTRA.SOLV.lig_0>
-14.8845

>  <SCORE.INTRA.VDW>
0

>  <SCORE.INTRA.VDW.0>
0

>  <SCORE.INTRA.norm>
0

>  <SCORE.RESTR>
0

>  <SCORE.RESTR.CAVITY>
0

>  <SCORE.RESTR.norm>
0

>  <SCORE.SYSTEM>
0

>  <SCORE.SYSTEM.CONST>
0

>  <SCORE.SYSTEM.DIHEDRAL>
0

>  <SCORE.SYSTEM.SOLV>
0

>  <SCORE.SYSTEM.norm>
0

>  <SCORE.heavy>
10

>  <SCORE.norm>
-3.664

>  <RMSD>
2.529

$$$$
lig.pdb
 OpenBabel11021811523D
libRbt.so/2013.1/901 2013/11/27
 10 11  0  0  0  0  0  0  0  0999 V2000
  -30.7343   17.9550  -17.7377 N   0  0  0  0  0  0  0  0  0  0  0  0
  -31.9681   18.4845  -17.4765 C   0  0  0  0  0  0  0  0  0  0  0  0
  -32.3442   18.3606  -16.2261 N   0  0  0  0  0  0  0  0  0  0  0  0
  -31.2847   17.7031  -15.6240 C   0  0  0  0  0  0  0  0  0  0  0  0
  -31.0616   17.2769  -14.3018 C   0  0  0  0  0  0  0  0  0  0  0  0
  -31.9447   17.4579  -13.3142 N   0  0  0  0  0  0  0  0  0  0  0  0
  -29.8946   16.6513  -14.0333 N   0  0  0  0  0  0  0  0  0  0  0  0
  -29.0171   16.4706  -15.0264 C   0  0  0  0  0  0  0  0  0  0  0  0
  -29.1146   16.8279  -16.3064 N   0  0  0  0  0  0  0  0  0  0  0  0
  -30.2831   17.4456  -16.5413 C   0  0  0  0  0  0  0  0  0  0  0  0
  1 10  1  0  0  0  0
  2  3  2  0  0  0  0
  2  1  1  0  0  0  0
  3  4  1  0  0  0  0
  4 10  2  0  0  0  0
  4  5  1  0  0  0  0
  5  7  2  0  0  0  0
  6  5  1  0  0  0  0
  7  8  1  0  0  0  0
  9  8  2  0  0  0  0
 10  9  1  0  0  0  0
M  END
>  <CHROM.1>
-30.78571478,17.46341013,-15.61759258,-1.83390627,-0.43652102,1.80958225

>  <Name>
lig.pdb

>  <RI>
0

>  <Rbt.Current_Directory>
/home/itssahil/PROJECTS/Mol_Feturizer/New_Systems/rnas/5uza

>  <Rbt.Executable>
rbdock ($Id: //depot/dev/client3/rdock/2013.1/src/exe/rbdock.cxx#4 $)

>  <Rbt.Library>
libRbt.so (2013.1, Build901 2013/11/27)

>  <Rbt.Parameter_File>
/export/apps/rDock/src/rDock_2013.1_src/data/scripts/dock_solv.prm

>  <Rbt.Receptor>
prm/pocket_docking_3.prm

>  <SCORE>
-36.6661

>  <SCORE.INTER>
-36.6661

>  <SCORE.INTER.CONST>
1

>  <SCORE.INTER.POLAR>
-4.3499

>  <SCORE.INTER.ROT>
0

>  <SCORE.INTER.SOLV>
10.7271

>  <SCORE.INTER.VDW>
-17.1201

>  <SCORE.INTER.norm>
-3.66661

>  <SCORE.INTRA>
0

>  <SCORE.INTRA.DIHEDRAL>
0

>  <SCORE.INTRA.DIHEDRAL.0>
0

>  <SCORE.INTRA.POLAR>
0

>  <SCORE.INTRA.POLAR.0>
0

>  <SCORE.INTRA.REPUL>
0

>  <SCORE.INTRA.REPUL.0>
0

>  <SCORE.INTRA.SOLV>
0

>  <SCORE.INTRA.SOLV.lig_0>
-14.8845

>  <SCORE.INTRA.VDW>
0

>  <SCORE.INTRA.VDW.0>
0

>  <SCORE.INTRA.norm>
0

>  <SCORE.RESTR>
0

>  <SCORE.RESTR.CAVITY>
0

>  <SCORE.RESTR.norm>
0

>  <SCORE.SYSTEM>
0

>  <SCORE.SYSTEM.CONST>
0

>  <SCORE.SYSTEM.DIHEDRAL>
0

>  <SCORE.SYSTEM.SOLV>
0

>  <SCORE.SYSTEM.norm>
0

>  <SCORE.heavy>
10

>  <SCORE.norm>
-3.66661

>  <RMSD>
2.529

$$$$
lig.pdb
 OpenBabel11021811523D
libRbt.so/2013.1/901 2013/11/27
 10 11  0  0  0  0  0  0  0  0999 V2000
  -30.7372   17.9581  -17.7380 N   0  0  0  0  0  0  0  0  0  0  0  0
  -31.9733   18.4813  -17.4747 C   0  0  0  0  0  0  0  0  0  0  0  0
  -32.3460   18.3568  -16.2233 N   0  0  0  0  0  0  0  0  0  0  0  0
  -31.2817   17.7057  -15.6228 C   0  0  0  0  0  0  0  0  0  0  0  0
  -31.0534   17.2823  -14.3005 C   0  0  0  0  0  0  0  0  0  0  0  0
  -31.9353   17.4596  -13.3112 N   0  0  0  0  0  0  0  0  0  0  0  0
  -29.8825   16.6633  -14.0339 N   0  0  0  0  0  0  0  0  0  0  0  0
  -29.0061   16.4862  -15.0287 C   0  0  0  0  0  0  0  0  0  0  0  0
  -29.1083   16.8414  -16.3089 N   0  0  0  0  0  0  0  0  0  0  0  0
  -30.2807   17.4526  -16.5419 C   0  0  0  0  0  0  0  0  0  0  0  0
  1 10  1  0  0  0  0
  2  3  2  0  0  0  0
  2  1  1  0  0  0  0
  3  4  1  0  0  0  0
  4 10  2  0  0  0  0
  4  5  1  0  0  0  0
  5  7  2  0  0  0  0
  6  5  1  0  0  0  0
  7  8  1  0  0  0  0
  9  8  2  0  0  0  0
 10  9  1  0  0  0  0
M  END
>  <CHROM.1>
-30.78137548,17.46871301,-15.61716354,-1.83763931,-0.43179724,1.80687562

>  <Name>
lig.pdb

>  <RI>
0

>  <Rbt.Current_Directory>
/home/itssahil/PROJECTS/Mol_Feturizer/New_Systems/rnas/5uza

>  <Rbt.Executable>
rbdock ($Id: //depot/dev/client3/rdock/2013.1/src/exe/rbdock.cxx#4 $)

>  <Rbt.Library>
libRbt.so (2013.1, Build901 2013/11/27)

>  <Rbt.Parameter_File>
/export/apps/rDock/src/rDock_2013.1_src/data/scripts/dock_solv.prm

>  <Rbt.Receptor>
prm/pocket_docking_3.prm

>  <SCORE>
-36.6756

>  <SCORE.INTER>
-36.6756

>  <SCORE.INTER.CONST>
1

>  <SCORE.INTER.POLAR>
-4.35686

>  <SCORE.INTER.ROT>
0

>  <SCORE.INTER.SOLV>
10.7235

>  <SCORE.INTER.VDW>
-17.102

>  <SCORE.INTER.norm>
-3.66756

>  <SCORE.INTRA>
0

>  <SCORE.INTRA.DIHEDRAL>
0

>  <SCORE.INTRA.DIHEDRAL.0>
0

>  <SCORE.INTRA.POLAR>
0

>  <SCORE.INTRA.POLAR.0>
0

>  <SCORE.INTRA.REPUL>
0

>  <SCORE.INTRA.REPUL.0>
0

>  <SCORE.INTRA.SOLV>
0

>  <SCORE.INTRA.SOLV.lig_0>
-14.8845

>  <SCORE.INTRA.VDW>
0

>  <SCORE.INTRA.VDW.0>
0

>  <SCORE.INTRA.norm>
0

>  <SCORE.RESTR>
0

>  <SCORE.RESTR.CAVITY>
0

>  <SCORE.RESTR.norm>
0

>  <SCORE.SYSTEM>
0

>  <SCORE.SYSTEM.CONST>
0

>  <SCORE.SYSTEM.DIHEDRAL>
0

>  <SCORE.SYSTEM.SOLV>
0

>  <SCORE.SYSTEM.norm>
0

>  <SCORE.heavy>
10

>  <SCORE.norm>
-3.66756

>  <RMSD>
2.529

$$$$
lig.pdb
 OpenBabel11021811523D
libRbt.so/2013.1/901 2013/11/27
 10 11  0  0  0  0  0  0  0  0999 V2000
  -30.7376   17.9511  -17.7404 N   0  0  0  0  0  0  0  0  0  0  0  0
  -31.9734   18.4752  -17.4776 C   0  0  0  0  0  0  0  0  0  0  0  0
  -32.3455   18.3532  -16.2258 N   0  0  0  0  0  0  0  0  0  0  0  0
  -31.2812   17.7028  -15.6245 C   0  0  0  0  0  0  0  0  0  0  0  0
  -31.0525   17.2817  -14.3016 C   0  0  0  0  0  0  0  0  0  0  0  0
  -31.9339   17.4611  -13.3123 N   0  0  0  0  0  0  0  0  0  0  0  0
  -29.8817   16.6628  -14.0343 N   0  0  0  0  0  0  0  0  0  0  0  0
  -29.0058   16.4835  -15.0292 C   0  0  0  0  0  0  0  0  0  0  0  0
  -29.1085   16.8365  -16.3100 N   0  0  0  0  0  0  0  0  0  0  0  0
  -30.2807   17.4476  -16.5437 C   0  0  0  0  0  0  0  0  0  0  0  0
  1 10  1  0  0  0  0
  2  3  2  0  0  0  0
  2  1  1  0  0  0  0
  3  4  1  0  0  0  0
  4 10  2  0  0  0  0
  4  5  1  0  0  0  0
  5  7  2  0  0  0  0
  6  5  1  0  0  0  0
  7  8  1  0  0  0  0
  9  8  2  0  0  0  0
 10  9  1  0  0  0  0
M  END
>  <CHROM.1>
-30.78098088,17.46561572,-15.61871130,-1.83800773,-0.43223752,1.80489048

>  <Name>
lig.pdb

>  <RI>
0

>  <Rbt.Current_Directory>
/home/itssahil/PROJECTS/Mol_Feturizer/New_Systems/rnas/5uza

>  <Rbt.Executable>
rbdock ($Id: //depot/dev/client3/rdock/2013.1/src/exe/rbdock.cxx#4 $)

>  <Rbt.Library>
libRbt.so (2013.1, Build901 2013/11/27)

>  <Rbt.Parameter_File>
/export/apps/rDock/src/rDock_2013.1_src/data/scripts/dock_solv.prm

>  <Rbt.Receptor>
prm/pocket_docking_3.prm

>  <SCORE>
-36.6714

>  <SCORE.INTER>
-36.6714

>  <SCORE.INTER.CONST>
1

>  <SCORE.INTER.POLAR>
-4.35171

>  <SCORE.INTER.ROT>
0

>  <SCORE.INTER.SOLV>
10.7192

>  <SCORE.INTER.VDW>
-17.115

>  <SCORE.INTER.norm>
-3.66714

>  <SCORE.INTRA>
0

>  <SCORE.INTRA.DIHEDRAL>
0

>  <SCORE.INTRA.DIHEDRAL.0>
0

>  <SCORE.INTRA.POLAR>
0

>  <SCORE.INTRA.POLAR.0>
0

>  <SCORE.INTRA.REPUL>
0

>  <SCORE.INTRA.REPUL.0>
0

>  <SCORE.INTRA.SOLV>
0

>  <SCORE.INTRA.SOLV.lig_0>
-14.8845

>  <SCORE.INTRA.VDW>
0

>  <SCORE.INTRA.VDW.0>
0

>  <SCORE.INTRA.norm>
0

>  <SCORE.RESTR>
0

>  <SCORE.RESTR.CAVITY>
0

>  <SCORE.RESTR.norm>
0

>  <SCORE.SYSTEM>
0

>  <SCORE.SYSTEM.CONST>
0

>  <SCORE.SYSTEM.DIHEDRAL>
0

>  <SCORE.SYSTEM.SOLV>
0

>  <SCORE.SYSTEM.norm>
0

>  <SCORE.heavy>
10

>  <SCORE.norm>
-3.66714

>  <RMSD>
2.529

$$$$
lig.pdb
 OpenBabel11021811523D
libRbt.so/2013.1/901 2013/11/27
 10 11  0  0  0  0  0  0  0  0999 V2000
  -30.7357   17.9446  -17.7410 N   0  0  0  0  0  0  0  0  0  0  0  0
  -31.9713   18.4701  -17.4798 C   0  0  0  0  0  0  0  0  0  0  0  0
  -32.3441   18.3509  -16.2280 N   0  0  0  0  0  0  0  0  0  0  0  0
  -31.2805   17.7010  -15.6249 C   0  0  0  0  0  0  0  0  0  0  0  0
  -31.0527   17.2825  -14.3010 C   0  0  0  0  0  0  0  0  0  0  0  0
  -31.9345   17.4646  -13.3124 N   0  0  0  0  0  0  0  0  0  0  0  0
  -29.8824   16.6634  -14.0318 N   0  0  0  0  0  0  0  0  0  0  0  0
  -29.0062   16.4815  -15.0260 C   0  0  0  0  0  0  0  0  0  0  0  0
  -29.1080   16.8319  -16.3075 N   0  0  0  0  0  0  0  0  0  0  0  0
  -30.2798   17.4433  -16.5430 C   0  0  0  0  0  0  0  0  0  0  0  0
  1 10  1  0  0  0  0
  2  3  2  0  0  0  0
  2  1  1  0  0  0  0
  3  4  1  0  0  0  0
  4 10  2  0  0  0  0
  4  5  1  0  0  0  0
  5  7  2  0  0  0  0
  6  5  1  0  0  0  0
  7  8  1  0  0  0  0
  9  8  2  0  0  0  0
 10  9  1  0  0  0  0
M  END
>  <CHROM.1>
-30.78045140,17.46356635,-15.61832271,-1.83733385,-0.43277247,1.80309219

>  <Name>
lig.pdb

>  <RI>
0

>  <Rbt.Current_Directory>
/home/itssahil/PROJECTS/Mol_Feturizer/New_Systems/rnas/5uza

>  <Rbt.Executable>
rbdock ($Id: //depot/dev/client3/rdock/2013.1/src/exe/rbdock.cxx#4 $)

>  <Rbt.Library>
libRbt.so (2013.1, Build901 2013/11/27)

>  <Rbt.Parameter_File>
/export/apps/rDock/src/rDock_2013.1_src/data/scripts/dock_solv.prm

>  <Rbt.Receptor>
prm/pocket_docking_5.prm

>  <SCORE>
-36.6583

>  <SCORE.INTER>
-36.6583

>  <SCORE.INTER.CONST>
1

>  <SCORE.INTER.POLAR>
-4.34532

>  <SCORE.INTER.ROT>
0

>  <SCORE.INTER.SOLV>
10.7162

>  <SCORE.INTER.VDW>
-17.1265

>  <SCORE.INTER.norm>
-3.66583

>  <SCORE.INTRA>
0

>  <SCORE.INTRA.DIHEDRAL>
0

>  <SCORE.INTRA.DIHEDRAL.0>
0

>  <SCORE.INTRA.POLAR>
0

>  <SCORE.INTRA.POLAR.0>
0

>  <SCORE.INTRA.REPUL>
0

>  <SCORE.INTRA.REPUL.0>
0

>  <SCORE.INTRA.SOLV>
0

>  <SCORE.INTRA.SOLV.lig_0>
-14.8845

>  <SCORE.INTRA.VDW>
0

>  <SCORE.INTRA.VDW.0>
0

>  <SCORE.INTRA.norm>
0

>  <SCORE.RESTR>
0

>  <SCORE.RESTR.CAVITY>
0

>  <SCORE.RESTR.norm>
0

>  <SCORE.SYSTEM>
0

>  <SCORE.SYSTEM.CONST>
0

>  <SCORE.SYSTEM.DIHEDRAL>
0

>  <SCORE.SYSTEM.SOLV>
0

>  <SCORE.SYSTEM.norm>
0

>  <SCORE.heavy>
10

>  <SCORE.norm>
-3.66583

>  <RMSD>
2.529

$$$$
lig.pdb
 OpenBabel11021811523D
libRbt.so/2013.1/901 2013/11/27
 10 11  0  0  0  0  0  0  0  0999 V2000
  -30.7320   17.9521  -17.7386 N   0  0  0  0  0  0  0  0  0  0  0  0
  -31.9646   18.4849  -17.4783 C   0  0  0  0  0  0  0  0  0  0  0  0
  -32.3421   18.3616  -16.2282 N   0  0  0  0  0  0  0  0  0  0  0  0
  -31.2849   17.7011  -15.6254 C   0  0  0  0  0  0  0  0  0  0  0  0
  -31.0641   17.2740  -14.3031 C   0  0  0  0  0  0  0  0  0  0  0  0
  -31.9475   17.4570  -13.3162 N   0  0  0  0  0  0  0  0  0  0  0  0
  -29.8990   16.6452  -14.0337 N   0  0  0  0  0  0  0  0  0  0  0  0
  -29.0211   16.4625  -15.0262 C   0  0  0  0  0  0  0  0  0  0  0  0
  -29.1165   16.8203  -16.3062 N   0  0  0  0  0  0  0  0  0  0  0  0
  -30.2832   17.4412  -16.5419 C   0  0  0  0  0  0  0  0  0  0  0  0
  1 10  1  0  0  0  0
  2  3  2  0  0  0  0
  2  1  1  0  0  0  0
  3  4  1  0  0  0  0
  4 10  2  0  0  0  0
  4  5  1  0  0  0  0
  5  7  2  0  0  0  0
  6  5  1  0  0  0  0
  7  8  1  0  0  0  0
  9  8  2  0  0  0  0
 10  9  1  0  0  0  0
M  END
>  <CHROM.1>
-30.78654161,17.46009775,-15.61861041,-1.83228528,-0.43890171,1.81055942

>  <Name>
lig.pdb

>  <RI>
1.17431e+07

>  <Rbt.Current_Directory>
/home/itssahil/PROJECTS/Mol_Feturizer/New_Systems/rnas/5uza

>  <Rbt.Executable>
rbdock ($Id: //depot/dev/client3/rdock/2013.1/src/exe/rbdock.cxx#4 $)

>  <Rbt.Library>
libRbt.so (2013.1, Build901 2013/11/27)

>  <Rbt.Parameter_File>
/export/apps/rDock/src/rDock_2013.1_src/data/scripts/dock_solv.prm

>  <Rbt.Receptor>
prm/pocket_docking_6.prm

>  <SCORE>
-36.6756

>  <SCORE.INTER>
-36.6756

>  <SCORE.INTER.CONST>
1

>  <SCORE.INTER.POLAR>
-4.3451

>  <SCORE.INTER.ROT>
0

>  <SCORE.INTER.SOLV>
10.7291

>  <SCORE.INTER.VDW>
-17.1431

>  <SCORE.INTER.norm>
-3.66756

>  <SCORE.INTRA>
0

>  <SCORE.INTRA.DIHEDRAL>
0

>  <SCORE.INTRA.DIHEDRAL.0>
0

>  <SCORE.INTRA.POLAR>
0

>  <SCORE.INTRA.POLAR.0>
0

>  <SCORE.INTRA.REPUL>
0

>  <SCORE.INTRA.REPUL.0>
0

>  <SCORE.INTRA.SOLV>
0

>  <SCORE.INTRA.SOLV.lig_0>
-14.8845

>  <SCORE.INTRA.VDW>
0

>  <SCORE.INTRA.VDW.0>
0

>  <SCORE.INTRA.norm>
0

>  <SCORE.RESTR>
0

>  <SCORE.RESTR.CAVITY>
0

>  <SCORE.RESTR.norm>
0

>  <SCORE.SYSTEM>
0

>  <SCORE.SYSTEM.CONST>
0

>  <SCORE.SYSTEM.DIHEDRAL>
0

>  <SCORE.SYSTEM.SOLV>
0

>  <SCORE.SYSTEM.norm>
0

>  <SCORE.heavy>
10

>  <SCORE.norm>
-3.66756

>  <RMSD>
2.529

$$$$
lig.pdb
 OpenBabel11021811523D
libRbt.so/2013.1/901 2013/11/27
 10 11  0  0  0  0  0  0  0  0999 V2000
  -30.7323   17.9475  -17.7397 N   0  0  0  0  0  0  0  0  0  0  0  0
  -31.9699   18.4680  -17.4780 C   0  0  0  0  0  0  0  0  0  0  0  0
  -32.3408   18.3493  -16.2256 N   0  0  0  0  0  0  0  0  0  0  0  0
  -31.2738   17.7050  -15.6226 C   0  0  0  0  0  0  0  0  0  0  0  0
  -31.0428   17.2897  -14.2983 C   0  0  0  0  0  0  0  0  0  0  0  0
  -31.9242   17.4695  -13.3090 N   0  0  0  0  0  0  0  0  0  0  0  0
  -29.8695   16.6761  -14.0294 N   0  0  0  0  0  0  0  0  0  0  0  0
  -28.9935   16.4964  -15.0241 C   0  0  0  0  0  0  0  0  0  0  0  0
  -29.0982   16.8442  -16.3061 N   0  0  0  0  0  0  0  0  0  0  0  0
  -30.2729   17.4502  -16.5414 C   0  0  0  0  0  0  0  0  0  0  0  0
  1 10  1  0  0  0  0
  2  3  2  0  0  0  0
  2  1  1  0  0  0  0
  3  4  1  0  0  0  0
  4 10  2  0  0  0  0
  4  5  1  0  0  0  0
  5  7  2  0  0  0  0
  6  5  1  0  0  0  0
  7  8  1  0  0  0  0
  9  8  2  0  0  0  0
 10  9  1  0  0  0  0
M  END
>  <CHROM.1>
-30.77266671,17.46974126,-15.61618197,-1.83957883,-0.42878070,1.80053165

>  <Name>
lig.pdb

>  <RI>
1.17431e+07

>  <Rbt.Current_Directory>
/home/itssahil/PROJECTS/Mol_Feturizer/New_Systems/rnas/5uza

>  <Rbt.Executable>
rbdock ($Id: //depot/dev/client3/rdock/2013.1/src/exe/rbdock.cxx#4 $)

>  <Rbt.Library>
libRbt.so (2013.1, Build901 2013/11/27)

>  <Rbt.Parameter_File>
/export/apps/rDock/src/rDock_2013.1_src/data/scripts/dock_solv.prm

>  <Rbt.Receptor>
prm/pocket_docking_6.prm

>  <SCORE>
-36.6512

>  <SCORE.INTER>
-36.6512

>  <SCORE.INTER.CONST>
1

>  <SCORE.INTER.POLAR>
-4.34944

>  <SCORE.INTER.ROT>
0

>  <SCORE.INTER.SOLV>
10.7166

>  <SCORE.INTER.VDW>
-17.1082

>  <SCORE.INTER.norm>
-3.66512

>  <SCORE.INTRA>
0

>  <SCORE.INTRA.DIHEDRAL>
0

>  <SCORE.INTRA.DIHEDRAL.0>
0

>  <SCORE.INTRA.POLAR>
0

>  <SCORE.INTRA.POLAR.0>
0

>  <SCORE.INTRA.REPUL>
0

>  <SCORE.INTRA.REPUL.0>
0

>  <SCORE.INTRA.SOLV>
0

>  <SCORE.INTRA.SOLV.lig_0>
-14.8845

>  <SCORE.INTRA.VDW>
0

>  <SCORE.INTRA.VDW.0>
0

>  <SCORE.INTRA.norm>
0

>  <SCORE.RESTR>
0

>  <SCORE.RESTR.CAVITY>
0

>  <SCORE.RESTR.norm>
0

>  <SCORE.SYSTEM>
0

>  <SCORE.SYSTEM.CONST>
0

>  <SCORE.SYSTEM.DIHEDRAL>
0

>  <SCORE.SYSTEM.SOLV>
0

>  <SCORE.SYSTEM.norm>
0

>  <SCORE.heavy>
10

>  <SCORE.norm>
-3.66512

>  <RMSD>
2.529

$$$$
lig.pdb
 OpenBabel11021811523D
libRbt.so/2013.1/901 2013/11/27
 10 11  0  0  0  0  0  0  0  0999 V2000
  -30.7343   17.9547  -17.7409 N   0  0  0  0  0  0  0  0  0  0  0  0
  -31.9669   18.4874  -17.4806 C   0  0  0  0  0  0  0  0  0  0  0  0
  -32.3442   18.3644  -16.2304 N   0  0  0  0  0  0  0  0  0  0  0  0
  -31.2869   17.7040  -15.6276 C   0  0  0  0  0  0  0  0  0  0  0  0
  -31.0659   17.2771  -14.3053 C   0  0  0  0  0  0  0  0  0  0  0  0
  -31.9492   17.4603  -13.3183 N   0  0  0  0  0  0  0  0  0  0  0  0
  -29.9008   16.6484  -14.0360 N   0  0  0  0  0  0  0  0  0  0  0  0
  -29.0230   16.4655  -15.0285 C   0  0  0  0  0  0  0  0  0  0  0  0
  -29.1186   16.8232  -16.3085 N   0  0  0  0  0  0  0  0  0  0  0  0
  -30.2854   17.4440  -16.5442 C   0  0  0  0  0  0  0  0  0  0  0  0
  1 10  1  0  0  0  0
  2  3  2  0  0  0  0
  2  1  1  0  0  0  0
  3  4  1  0  0  0  0
  4 10  2  0  0  0  0
  4  5  1  0  0  0  0
  5  7  2  0  0  0  0
  6  5  1  0  0  0  0
  7  8  1  0  0  0  0
  9  8  2  0  0  0  0
 10  9  1  0  0  0  0
M  END
>  <CHROM.1>
-30.78856690,17.46299473,-15.62088234,-1.83243446,-0.43891617,1.81032519

>  <Name>
lig.pdb

>  <RI>
2.12818e+07

>  <Rbt.Current_Directory>
/home/itssahil/PROJECTS/Mol_Feturizer/New_Systems/rnas/5uza

>  <Rbt.Executable>
rbdock ($Id: //depot/dev/client3/rdock/2013.1/src/exe/rbdock.cxx#4 $)

>  <Rbt.Library>
libRbt.so (2013.1, Build901 2013/11/27)

>  <Rbt.Parameter_File>
/export/apps/rDock/src/rDock_2013.1_src/data/scripts/dock_solv.prm

>  <Rbt.Receptor>
prm/pocket_docking_7.prm

>  <SCORE>
-36.6986

>  <SCORE.INTER>
-36.6986

>  <SCORE.INTER.CONST>
1

>  <SCORE.INTER.POLAR>
-4.33679

>  <SCORE.INTER.ROT>
0

>  <SCORE.INTER.SOLV>
10.728

>  <SCORE.INTER.VDW>
-17.1858

>  <SCORE.INTER.norm>
-3.66986

>  <SCORE.INTRA>
0

>  <SCORE.INTRA.DIHEDRAL>
0

>  <SCORE.INTRA.DIHEDRAL.0>
0

>  <SCORE.INTRA.POLAR>
0

>  <SCORE.INTRA.POLAR.0>
0

>  <SCORE.INTRA.REPUL>
0

>  <SCORE.INTRA.REPUL.0>
0

>  <SCORE.INTRA.SOLV>
0

>  <SCORE.INTRA.SOLV.lig_0>
-14.8845

>  <SCORE.INTRA.VDW>
0

>  <SCORE.INTRA.VDW.0>
0

>  <SCORE.INTRA.norm>
0

>  <SCORE.RESTR>
0

>  <SCORE.RESTR.CAVITY>
0

>  <SCORE.RESTR.norm>
0

>  <SCORE.SYSTEM>
0

>  <SCORE.SYSTEM.CONST>
0

>  <SCORE.SYSTEM.DIHEDRAL>
0

>  <SCORE.SYSTEM.SOLV>
0

>  <SCORE.SYSTEM.norm>
0

>  <SCORE.heavy>
10

>  <SCORE.norm>
-3.66986

>  <RMSD>
2.529

$$$$
lig.pdb
 OpenBabel11021811523D
libRbt.so/2013.1/901 2013/11/27
 10 11  0  0  0  0  0  0  0  0999 V2000
  -30.7374   17.9570  -17.7402 N   0  0  0  0  0  0  0  0  0  0  0  0
  -31.9702   18.4887  -17.4787 C   0  0  0  0  0  0  0  0  0  0  0  0
  -32.3466   18.3647  -16.2284 N   0  0  0  0  0  0  0  0  0  0  0  0
  -31.2886   17.7046  -15.6267 C   0  0  0  0  0  0  0  0  0  0  0  0
  -31.0665   17.2770  -14.3047 C   0  0  0  0  0  0  0  0  0  0  0  0
  -31.9493   17.4590  -13.3171 N   0  0  0  0  0  0  0  0  0  0  0  0
  -29.9008   16.6489  -14.0365 N   0  0  0  0  0  0  0  0  0  0  0  0
  -29.0234   16.4673  -15.0297 C   0  0  0  0  0  0  0  0  0  0  0  0
  -29.1201   16.8257  -16.3094 N   0  0  0  0  0  0  0  0  0  0  0  0
  -30.2874   17.4459  -16.5440 C   0  0  0  0  0  0  0  0  0  0  0  0
  1 10  1  0  0  0  0
  2  3  2  0  0  0  0
  2  1  1  0  0  0  0
  3  4  1  0  0  0  0
  4 10  2  0  0  0  0
  4  5  1  0  0  0  0
  5  7  2  0  0  0  0
  6  5  1  0  0  0  0
  7  8  1  0  0  0  0
  9  8  2  0  0  0  0
 10  9  1  0  0  0  0
M  END
>  <CHROM.1>
-30.79005042,17.46394490,-15.62038320,-1.83325226,-0.43840708,1.81060294

>  <Name>
lig.pdb

>  <RI>
2.12818e+07

>  <Rbt.Current_Directory>
/home/itssahil/PROJECTS/Mol_Feturizer/New_Systems/rnas/5uza

>  <Rbt.Executable>
rbdock ($Id: //depot/dev/client3/rdock/2013.1/src/exe/rbdock.cxx#4 $)

>  <Rbt.Library>
libRbt.so (2013.1, Build901 2013/11/27)

>  <Rbt.Parameter_File>
/export/apps/rDock/src/rDock_2013.1_src/data/scripts/dock_solv.prm

>  <Rbt.Receptor>
prm/pocket_docking_7.prm

>  <SCORE>
-36.7044

>  <SCORE.INTER>
-36.7044

>  <SCORE.INTER.CONST>
1

>  <SCORE.INTER.POLAR>
-4.34182

>  <SCORE.INTER.ROT>
0

>  <SCORE.INTER.SOLV>
10.7274

>  <SCORE.INTER.VDW>
-17.1727

>  <SCORE.INTER.norm>
-3.67044

>  <SCORE.INTRA>
0

>  <SCORE.INTRA.DIHEDRAL>
0

>  <SCORE.INTRA.DIHEDRAL.0>
0

>  <SCORE.INTRA.POLAR>
0

>  <SCORE.INTRA.POLAR.0>
0

>  <SCORE.INTRA.REPUL>
0

>  <SCORE.INTRA.REPUL.0>
0

>  <SCORE.INTRA.SOLV>
0

>  <SCORE.INTRA.SOLV.lig_0>
-14.8845

>  <SCORE.INTRA.VDW>
0

>  <SCORE.INTRA.VDW.0>
0

>  <SCORE.INTRA.norm>
0

>  <SCORE.RESTR>
0

>  <SCORE.RESTR.CAVITY>
0

>  <SCORE.RESTR.norm>
0

>  <SCORE.SYSTEM>
0

>  <SCORE.SYSTEM.CONST>
0

>  <SCORE.SYSTEM.DIHEDRAL>
0

>  <SCORE.SYSTEM.SOLV>
0

>  <SCORE.SYSTEM.norm>
0

>  <SCORE.heavy>
10

>  <SCORE.norm>
-3.67044

>  <RMSD>
2.529

$$$$
lig.pdb
 OpenBabel11021811523D
libRbt.so/2013.1/901 2013/11/27
 10 11  0  0  0  0  0  0  0  0999 V2000
  -30.7273   17.9474  -17.7348 N   0  0  0  0  0  0  0  0  0  0  0  0
  -31.9633   18.4724  -17.4748 C   0  0  0  0  0  0  0  0  0  0  0  0
  -32.3381   18.3515  -16.2237 N   0  0  0  0  0  0  0  0  0  0  0  0
  -31.2754   17.7008  -15.6198 C   0  0  0  0  0  0  0  0  0  0  0  0
  -31.0497   17.2804  -14.2962 C   0  0  0  0  0  0  0  0  0  0  0  0
  -31.9330   17.4611  -13.3087 N   0  0  0  0  0  0  0  0  0  0  0  0
  -29.8799   16.6609  -14.0261 N   0  0  0  0  0  0  0  0  0  0  0  0
  -29.0021   16.4804  -15.0191 C   0  0  0  0  0  0  0  0  0  0  0  0
  -29.1019   16.8326  -16.3003 N   0  0  0  0  0  0  0  0  0  0  0  0
  -30.2733   17.4444  -16.5367 C   0  0  0  0  0  0  0  0  0  0  0  0
  1 10  1  0  0  0  0
  2  3  2  0  0  0  0
  2  1  1  0  0  0  0
  3  4  1  0  0  0  0
  4 10  2  0  0  0  0
  4  5  1  0  0  0  0
  5  7  2  0  0  0  0
  6  5  1  0  0  0  0
  7  8  1  0  0  0  0
  9  8  2  0  0  0  0
 10  9  1  0  0  0  0
M  END
>  <CHROM.1>
-30.77537437,17.46328439,-15.61282286,-1.83564750,-0.43240083,1.80522644

>  <Name>
lig.pdb

>  <RI>
1.17775e+07

>  <Rbt.Current_Directory>
/home/itssahil/PROJECTS/Mol_Feturizer/New_Systems/rnas/5uza

>  <Rbt.Executable>
rbdock ($Id: //depot/dev/client3/rdock/2013.1/src/exe/rbdock.cxx#4 $)

>  <Rbt.Library>
libRbt.so (2013.1, Build901 2013/11/27)

>  <Rbt.Parameter_File>
/export/apps/rDock/src/rDock_2013.1_src/data/scripts/dock_solv.prm

>  <Rbt.Receptor>
prm/pocket_docking_8.prm

>  <SCORE>
-36.6388

>  <SCORE.INTER>
-36.6388

>  <SCORE.INTER.CONST>
1

>  <SCORE.INTER.POLAR>
-4.35845

>  <SCORE.INTER.ROT>
0

>  <SCORE.INTER.SOLV>
10.7236

>  <SCORE.INTER.VDW>
-17.0723

>  <SCORE.INTER.norm>
-3.66388

>  <SCORE.INTRA>
0

>  <SCORE.INTRA.DIHEDRAL>
0

>  <SCORE.INTRA.DIHEDRAL.0>
0

>  <SCORE.INTRA.POLAR>
0

>  <SCORE.INTRA.POLAR.0>
0

>  <SCORE.INTRA.REPUL>
0

>  <SCORE.INTRA.REPUL.0>
0

>  <SCORE.INTRA.SOLV>
0

>  <SCORE.INTRA.SOLV.lig_0>
-14.8845

>  <SCORE.INTRA.VDW>
0

>  <SCORE.INTRA.VDW.0>
0

>  <SCORE.INTRA.norm>
0

>  <SCORE.RESTR>
0

>  <SCORE.RESTR.CAVITY>
0

>  <SCORE.RESTR.norm>
0

>  <SCORE.SYSTEM>
0

>  <SCORE.SYSTEM.CONST>
0

>  <SCORE.SYSTEM.DIHEDRAL>
0

>  <SCORE.SYSTEM.SOLV>
0

>  <SCORE.SYSTEM.norm>
0

>  <SCORE.heavy>
10

>  <SCORE.norm>
-3.66388

>  <RMSD>
2.529

$$$$
lig.pdb
 OpenBabel11021811523D
libRbt.so/2013.1/901 2013/11/27
 10 11  0  0  0  0  0  0  0  0999 V2000
  -30.7334   17.9553  -17.7377 N   0  0  0  0  0  0  0  0  0  0  0  0
  -31.9692   18.4798  -17.4757 C   0  0  0  0  0  0  0  0  0  0  0  0
  -32.3427   18.3567  -16.2244 N   0  0  0  0  0  0  0  0  0  0  0  0
  -31.2793   17.7053  -15.6226 C   0  0  0  0  0  0  0  0  0  0  0  0
  -31.0522   17.2828  -14.2999 C   0  0  0  0  0  0  0  0  0  0  0  0
  -31.9345   17.4618  -13.3113 N   0  0  0  0  0  0  0  0  0  0  0  0
  -29.8819   16.6631  -14.0319 N   0  0  0  0  0  0  0  0  0  0  0  0
  -29.0051   16.4844  -15.0261 C   0  0  0  0  0  0  0  0  0  0  0  0
  -29.1062   16.8386  -16.3067 N   0  0  0  0  0  0  0  0  0  0  0  0
  -30.2780   17.4505  -16.5410 C   0  0  0  0  0  0  0  0  0  0  0  0
  1 10  1  0  0  0  0
  2  3  2  0  0  0  0
  2  1  1  0  0  0  0
  3  4  1  0  0  0  0
  4 10  2  0  0  0  0
  4  5  1  0  0  0  0
  5  7  2  0  0  0  0
  6  5  1  0  0  0  0
  7  8  1  0  0  0  0
  9  8  2  0  0  0  0
 10  9  1  0  0  0  0
M  END
>  <CHROM.1>
-30.77917560,17.46786819,-15.61651408,-1.83678437,-0.43245907,1.80633250

>  <Name>
lig.pdb

>  <RI>
1.17775e+07

>  <Rbt.Current_Directory>
/home/itssahil/PROJECTS/Mol_Feturizer/New_Systems/rnas/5uza

>  <Rbt.Executable>
rbdock ($Id: //depot/dev/client3/rdock/2013.1/src/exe/rbdock.cxx#4 $)

>  <Rbt.Library>
libRbt.so (2013.1, Build901 2013/11/27)

>  <Rbt.Parameter_File>
/export/apps/rDock/src/rDock_2013.1_src/data/scripts/dock_solv.prm

>  <Rbt.Receptor>
prm/pocket_docking_8.prm

>  <SCORE>
-36.6716

>  <SCORE.INTER>
-36.6716

>  <SCORE.INTER.CONST>
1

>  <SCORE.INTER.POLAR>
-4.35345

>  <SCORE.INTER.ROT>
0

>  <SCORE.INTER.SOLV>
10.7235

>  <SCORE.INTER.VDW>
-17.1107

>  <SCORE.INTER.norm>
-3.66716

>  <SCORE.INTRA>
0

>  <SCORE.INTRA.DIHEDRAL>
0

>  <SCORE.INTRA.DIHEDRAL.0>
0

>  <SCORE.INTRA.POLAR>
0

>  <SCORE.INTRA.POLAR.0>
0

>  <SCORE.INTRA.REPUL>
0

>  <SCORE.INTRA.REPUL.0>
0

>  <SCORE.INTRA.SOLV>
0

>  <SCORE.INTRA.SOLV.lig_0>
-14.8845

>  <SCORE.INTRA.VDW>
0

>  <SCORE.INTRA.VDW.0>
0

>  <SCORE.INTRA.norm>
0

>  <SCORE.RESTR>
0

>  <SCORE.RESTR.CAVITY>
0

>  <SCORE.RESTR.norm>
0

>  <SCORE.SYSTEM>
0

>  <SCORE.SYSTEM.CONST>
0

>  <SCORE.SYSTEM.DIHEDRAL>
0

>  <SCORE.SYSTEM.SOLV>
0

>  <SCORE.SYSTEM.norm>
0

>  <SCORE.heavy>
10

>  <SCORE.norm>
-3.66716

>  <RMSD>
2.529

$$$$
lig.pdb
 OpenBabel11021811523D
libRbt.so/2013.1/901 2013/11/27
 10 11  0  0  0  0  0  0  0  0999 V2000
  -30.7400   17.9537  -17.7437 N   0  0  0  0  0  0  0  0  0  0  0  0
  -31.9735   18.4839  -17.4823 C   0  0  0  0  0  0  0  0  0  0  0  0
  -32.3483   18.3626  -16.2312 N   0  0  0  0  0  0  0  0  0  0  0  0
  -31.2883   17.7061  -15.6289 C   0  0  0  0  0  0  0  0  0  0  0  0
  -31.0640   17.2826  -14.3061 C   0  0  0  0  0  0  0  0  0  0  0  0
  -31.9460   17.4657  -13.3179 N   0  0  0  0  0  0  0  0  0  0  0  0
  -29.8968   16.6574  -14.0375 N   0  0  0  0  0  0  0  0  0  0  0  0
  -29.0203   16.4746  -15.0312 C   0  0  0  0  0  0  0  0  0  0  0  0
  -29.1190   16.8293  -16.3118 N   0  0  0  0  0  0  0  0  0  0  0  0
  -30.2877   17.4467  -16.5467 C   0  0  0  0  0  0  0  0  0  0  0  0
  1 10  1  0  0  0  0
  2  3  2  0  0  0  0
  2  1  1  0  0  0  0
  3  4  1  0  0  0  0
  4 10  2  0  0  0  0
  4  5  1  0  0  0  0
  5  7  2  0  0  0  0
  6  5  1  0  0  0  0
  7  8  1  0  0  0  0
  9  8  2  0  0  0  0
 10  9  1  0  0  0  0
M  END
>  <CHROM.1>
-30.78936226,17.46640483,-15.62253977,-1.83495984,-0.43689996,1.80713775

>  <Name>
lig.pdb

>  <RI>
1.17775e+07

>  <Rbt.Current_Directory>
/home/itssahil/PROJECTS/Mol_Feturizer/New_Systems/rnas/5uza

>  <Rbt.Executable>
rbdock ($Id: //depot/dev/client3/rdock/2013.1/src/exe/rbdock.cxx#4 $)

>  <Rbt.Library>
libRbt.so (2013.1, Build901 2013/11/27)

>  <Rbt.Parameter_File>
/export/apps/rDock/src/rDock_2013.1_src/data/scripts/dock_solv.prm

>  <Rbt.Receptor>
prm/pocket_docking_8.prm

>  <SCORE>
-36.6722

>  <SCORE.INTER>
-36.6722

>  <SCORE.INTER.CONST>
1

>  <SCORE.INTER.POLAR>
-4.3319

>  <SCORE.INTER.ROT>
0

>  <SCORE.INTER.SOLV>
10.7204

>  <SCORE.INTER.VDW>
-17.1819

>  <SCORE.INTER.norm>
-3.66722

>  <SCORE.INTRA>
0

>  <SCORE.INTRA.DIHEDRAL>
0

>  <SCORE.INTRA.DIHEDRAL.0>
0

>  <SCORE.INTRA.POLAR>
0

>  <SCORE.INTRA.POLAR.0>
0

>  <SCORE.INTRA.REPUL>
0

>  <SCORE.INTRA.REPUL.0>
0

>  <SCORE.INTRA.SOLV>
0

>  <SCORE.INTRA.SOLV.lig_0>
-14.8845

>  <SCORE.INTRA.VDW>
0

>  <SCORE.INTRA.VDW.0>
0

>  <SCORE.INTRA.norm>
0

>  <SCORE.RESTR>
0

>  <SCORE.RESTR.CAVITY>
0

>  <SCORE.RESTR.norm>
0

>  <SCORE.SYSTEM>
0

>  <SCORE.SYSTEM.CONST>
0

>  <SCORE.SYSTEM.DIHEDRAL>
0

>  <SCORE.SYSTEM.SOLV>
0

>  <SCORE.SYSTEM.norm>
0

>  <SCORE.heavy>
10

>  <SCORE.norm>
-3.66722

>  <RMSD>
2.529

$$$$
lig.pdb
 OpenBabel11021811523D
libRbt.so/2013.1/901 2013/11/27
 10 11  0  0  0  0  0  0  0  0999 V2000
  -30.7395   17.9520  -17.7417 N   0  0  0  0  0  0  0  0  0  0  0  0
  -31.9752   18.4759  -17.4779 C   0  0  0  0  0  0  0  0  0  0  0  0
  -32.3466   18.3534  -16.2259 N   0  0  0  0  0  0  0  0  0  0  0  0
  -31.2818   17.7030  -15.6255 C   0  0  0  0  0  0  0  0  0  0  0  0
  -31.0522   17.2815  -14.3029 C   0  0  0  0  0  0  0  0  0  0  0  0
  -31.9330   17.4606  -13.3129 N   0  0  0  0  0  0  0  0  0  0  0  0
  -29.8811   16.6627  -14.0365 N   0  0  0  0  0  0  0  0  0  0  0  0
  -29.0058   16.4839  -15.0320 C   0  0  0  0  0  0  0  0  0  0  0  0
  -29.1093   16.8372  -16.3126 N   0  0  0  0  0  0  0  0  0  0  0  0
  -30.2819   17.4483  -16.5454 C   0  0  0  0  0  0  0  0  0  0  0  0
  1 10  1  0  0  0  0
  2  3  2  0  0  0  0
  2  1  1  0  0  0  0
  3  4  1  0  0  0  0
  4 10  2  0  0  0  0
  4  5  1  0  0  0  0
  5  7  2  0  0  0  0
  6  5  1  0  0  0  0
  7  8  1  0  0  0  0
  9  8  2  0  0  0  0
 10  9  1  0  0  0  0
M  END
>  <CHROM.1>
-30.78151405,17.46590132,-15.62008677,-1.83872324,-0.43223145,1.80488673

>  <Name>
lig.pdb

>  <RI>
1.17775e+07

>  <Rbt.Current_Directory>
/home/itssahil/PROJECTS/Mol_Feturizer/New_Systems/rnas/5uza

>  <Rbt.Executable>
rbdock ($Id: //depot/dev/client3/rdock/2013.1/src/exe/rbdock.cxx#4 $)

>  <Rbt.Library>
libRbt.so (2013.1, Build901 2013/11/27)

>  <Rbt.Parameter_File>
/export/apps/rDock/src/rDock_2013.1_src/data/scripts/dock_solv.prm

>  <Rbt.Receptor>
prm/pocket_docking_8.prm

>  <SCORE>
-36.6715

>  <SCORE.INTER>
-36.6715

>  <SCORE.INTER.CONST>
1

>  <SCORE.INTER.POLAR>
-4.35127

>  <SCORE.INTER.ROT>
0

>  <SCORE.INTER.SOLV>
10.7183

>  <SCORE.INTER.VDW>
-17.1162

>  <SCORE.INTER.norm>
-3.66715

>  <SCORE.INTRA>
0

>  <SCORE.INTRA.DIHEDRAL>
0

>  <SCORE.INTRA.DIHEDRAL.0>
0

>  <SCORE.INTRA.POLAR>
0

>  <SCORE.INTRA.POLAR.0>
0

>  <SCORE.INTRA.REPUL>
0

>  <SCORE.INTRA.REPUL.0>
0

>  <SCORE.INTRA.SOLV>
0

>  <SCORE.INTRA.SOLV.lig_0>
-14.8845

>  <SCORE.INTRA.VDW>
0

>  <SCORE.INTRA.VDW.0>
0

>  <SCORE.INTRA.norm>
0

>  <SCORE.RESTR>
0

>  <SCORE.RESTR.CAVITY>
0

>  <SCORE.RESTR.norm>
0

>  <SCORE.SYSTEM>
0

>  <SCORE.SYSTEM.CONST>
0

>  <SCORE.SYSTEM.DIHEDRAL>
0

>  <SCORE.SYSTEM.SOLV>
0

>  <SCORE.SYSTEM.norm>
0

>  <SCORE.heavy>
10

>  <SCORE.norm>
-3.66715

>  <RMSD>
2.529

$$$$
lig.pdb
 OpenBabel11021811523D
libRbt.so/2013.1/901 2013/11/27
 10 11  0  0  0  0  0  0  0  0999 V2000
  -30.7300   17.9543  -17.7388 N   0  0  0  0  0  0  0  0  0  0  0  0
  -31.9649   18.4827  -17.4801 C   0  0  0  0  0  0  0  0  0  0  0  0
  -32.3423   18.3608  -16.2299 N   0  0  0  0  0  0  0  0  0  0  0  0
  -31.2828   17.7057  -15.6253 C   0  0  0  0  0  0  0  0  0  0  0  0
  -31.0609   17.2823  -14.3019 C   0  0  0  0  0  0  0  0  0  0  0  0
  -31.9454   17.4641  -13.3158 N   0  0  0  0  0  0  0  0  0  0  0  0
  -29.8934   16.6587  -14.0308 N   0  0  0  0  0  0  0  0  0  0  0  0
  -29.0144   16.4773  -15.0225 C   0  0  0  0  0  0  0  0  0  0  0  0
  -29.1107   16.8320  -16.3032 N   0  0  0  0  0  0  0  0  0  0  0  0
  -30.2797   17.4478  -16.5408 C   0  0  0  0  0  0  0  0  0  0  0  0
  1 10  1  0  0  0  0
  2  3  2  0  0  0  0
  2  1  1  0  0  0  0
  3  4  1  0  0  0  0
  4 10  2  0  0  0  0
  4  5  1  0  0  0  0
  5  7  2  0  0  0  0
  6  5  1  0  0  0  0
  7  8  1  0  0  0  0
  9  8  2  0  0  0  0
 10  9  1  0  0  0  0
M  END
>  <CHROM.1>
-30.78350842,17.46667102,-15.61776706,-1.83287300,-0.43499341,1.80812599

>  <Name>
lig.pdb

>  <RI>
1.17775e+07

>  <Rbt.Current_Directory>
/home/itssahil/PROJECTS/Mol_Feturizer/New_Systems/rnas/5uza

>  <Rbt.Executable>
rbdock ($Id: //depot/dev/client3/rdock/2013.1/src/exe/rbdock.cxx#4 $)

>  <Rbt.Library>
libRbt.so (2013.1, Build901 2013/11/27)

>  <Rbt.Parameter_File>
/export/apps/rDock/src/rDock_2013.1_src/data/scripts/dock_solv.prm

>  <Rbt.Receptor>
prm/pocket_docking_8.prm

>  <SCORE>
-36.6443

>  <SCORE.INTER>
-36.6443

>  <SCORE.INTER.CONST>
1

>  <SCORE.INTER.POLAR>
-4.33549

>  <SCORE.INTER.ROT>
0

>  <SCORE.INTER.SOLV>
10.7276

>  <SCORE.INTER.VDW>
-17.1538

>  <SCORE.INTER.norm>
-3.66443

>  <SCORE.INTRA>
0

>  <SCORE.INTRA.DIHEDRAL>
0

>  <SCORE.INTRA.DIHEDRAL.0>
0

>  <SCORE.INTRA.POLAR>
0

>  <SCORE.INTRA.POLAR.0>
0

>  <SCORE.INTRA.REPUL>
0

>  <SCORE.INTRA.REPUL.0>
0

>  <SCORE.INTRA.SOLV>
0

>  <SCORE.INTRA.SOLV.lig_0>
-14.8845

>  <SCORE.INTRA.VDW>
0

>  <SCORE.INTRA.VDW.0>
0

>  <SCORE.INTRA.norm>
0

>  <SCORE.RESTR>
0

>  <SCORE.RESTR.CAVITY>
0

>  <SCORE.RESTR.norm>
0

>  <SCORE.SYSTEM>
0

>  <SCORE.SYSTEM.CONST>
0

>  <SCORE.SYSTEM.DIHEDRAL>
0

>  <SCORE.SYSTEM.SOLV>
0

>  <SCORE.SYSTEM.norm>
0

>  <SCORE.heavy>
10

>  <SCORE.norm>
-3.66443

>  <RMSD>
2.529

$$$$
lig.pdb
 OpenBabel11021811523D
libRbt.so/2013.1/901 2013/11/27
 10 11  0  0  0  0  0  0  0  0999 V2000
  -30.7423   17.9639  -17.7340 N   0  0  0  0  0  0  0  0  0  0  0  0
  -31.9758   18.4932  -17.4706 C   0  0  0  0  0  0  0  0  0  0  0  0
  -32.3518   18.3644  -16.2206 N   0  0  0  0  0  0  0  0  0  0  0  0
  -31.2927   17.7036  -15.6214 C   0  0  0  0  0  0  0  0  0  0  0  0
  -31.0699   17.2718  -14.3009 C   0  0  0  0  0  0  0  0  0  0  0  0
  -31.9527   17.4492  -13.3125 N   0  0  0  0  0  0  0  0  0  0  0  0
  -29.9032   16.6443  -14.0351 N   0  0  0  0  0  0  0  0  0  0  0  0
  -29.0259   16.4672  -15.0291 C   0  0  0  0  0  0  0  0  0  0  0  0
  -29.1232   16.8299  -16.3075 N   0  0  0  0  0  0  0  0  0  0  0  0
  -30.2914   17.4493  -16.5398 C   0  0  0  0  0  0  0  0  0  0  0  0
  1 10  1  0  0  0  0
  2  3  2  0  0  0  0
  2  1  1  0  0  0  0
  3  4  1  0  0  0  0
  4 10  2  0  0  0  0
  4  5  1  0  0  0  0
  5  7  2  0  0  0  0
  6  5  1  0  0  0  0
  7  8  1  0  0  0  0
  9  8  2  0  0  0  0
 10  9  1  0  0  0  0
M  END
>  <CHROM.1>
-30.79389988,17.46358650,-15.61597409,-1.83381041,-0.43717585,1.81380032

>  <Name>
lig.pdb

>  <RI>
2.26746e+07

>  <Rbt.Current_Directory>
/home/itssahil/PROJECTS/Mol_Feturizer/New_Systems/rnas/5uza

>  <Rbt.Executable>
rbdock ($Id: //depot/dev/client3/rdock/2013.1/src/exe/rbdock.cxx#4 $)

>  <Rbt.Library>
libRbt.so (2013.1, Build901 2013/11/27)

>  <Rbt.Parameter_File>
/export/apps/rDock/src/rDock_2013.1_src/data/scripts/dock_solv.prm

>  <Rbt.Receptor>
prm/blind_docking_100.prm

>  <SCORE>
-36.6422

>  <SCORE.INTER>
-36.6422

>  <SCORE.INTER.CONST>
1

>  <SCORE.INTER.POLAR>
-4.365

>  <SCORE.INTER.ROT>
0

>  <SCORE.INTER.SOLV>
10.7317

>  <SCORE.INTER.VDW>
-17.0554

>  <SCORE.INTER.norm>
-3.66422

>  <SCORE.INTRA>
0

>  <SCORE.INTRA.DIHEDRAL>
0

>  <SCORE.INTRA.DIHEDRAL.0>
0

>  <SCORE.INTRA.POLAR>
0

>  <SCORE.INTRA.POLAR.0>
0

>  <SCORE.INTRA.REPUL>
0

>  <SCORE.INTRA.REPUL.0>
0

>  <SCORE.INTRA.SOLV>
0

>  <SCORE.INTRA.SOLV.lig_0>
-14.8845

>  <SCORE.INTRA.VDW>
0

>  <SCORE.INTRA.VDW.0>
0

>  <SCORE.INTRA.norm>
0

>  <SCORE.RESTR>
0

>  <SCORE.RESTR.CAVITY>
0

>  <SCORE.RESTR.norm>
0

>  <SCORE.SYSTEM>
0

>  <SCORE.SYSTEM.CONST>
0

>  <SCORE.SYSTEM.DIHEDRAL>
0

>  <SCORE.SYSTEM.SOLV>
0

>  <SCORE.SYSTEM.norm>
0

>  <SCORE.heavy>
10

>  <SCORE.norm>
-3.66422

>  <RMSD>
2.530

$$$$
lig.pdb
 OpenBabel11021811523D
libRbt.so/2013.1/901 2013/11/27
 10 11  0  0  0  0  0  0  0  0999 V2000
  -30.7350   17.9489  -17.7378 N   0  0  0  0  0  0  0  0  0  0  0  0
  -31.9700   18.4755  -17.4757 C   0  0  0  0  0  0  0  0  0  0  0  0
  -32.3426   18.3552  -16.2239 N   0  0  0  0  0  0  0  0  0  0  0  0
  -31.2796   17.7035  -15.6218 C   0  0  0  0  0  0  0  0  0  0  0  0
  -31.0521   17.2832  -14.2984 C   0  0  0  0  0  0  0  0  0  0  0  0
  -31.9334   17.4651  -13.3095 N   0  0  0  0  0  0  0  0  0  0  0  0
  -29.8824   16.6624  -14.0303 N   0  0  0  0  0  0  0  0  0  0  0  0
  -29.0066   16.4807  -15.0248 C   0  0  0  0  0  0  0  0  0  0  0  0
  -29.1083   16.8327  -16.3059 N   0  0  0  0  0  0  0  0  0  0  0  0
  -30.2794   17.4457  -16.5404 C   0  0  0  0  0  0  0  0  0  0  0  0
  1 10  1  0  0  0  0
  2  3  2  0  0  0  0
  2  1  1  0  0  0  0
  3  4  1  0  0  0  0
  4 10  2  0  0  0  0
  4  5  1  0  0  0  0
  5  7  2  0  0  0  0
  6  5  1  0  0  0  0
  7  8  1  0  0  0  0
  9  8  2  0  0  0  0
 10  9  1  0  0  0  0
M  END
>  <CHROM.1>
-30.77983627,17.46545398,-15.61562520,-1.83727108,-0.43390577,1.80428082

>  <Name>
lig.pdb

>  <RI>
2.26746e+07

>  <Rbt.Current_Directory>
/home/itssahil/PROJECTS/Mol_Feturizer/New_Systems/rnas/5uza

>  <Rbt.Executable>
rbdock ($Id: //depot/dev/client3/rdock/2013.1/src/exe/rbdock.cxx#4 $)

>  <Rbt.Library>
libRbt.so (2013.1, Build901 2013/11/27)

>  <Rbt.Parameter_File>
/export/apps/rDock/src/rDock_2013.1_src/data/scripts/dock_solv.prm

>  <Rbt.Receptor>
prm/blind_docking_100.prm

>  <SCORE>
-36.6612

>  <SCORE.INTER>
-36.6612

>  <SCORE.INTER.CONST>
1

>  <SCORE.INTER.POLAR>
-4.35231

>  <SCORE.INTER.ROT>
0

>  <SCORE.INTER.SOLV>
10.7174

>  <SCORE.INTER.VDW>
-17.1056

>  <SCORE.INTER.norm>
-3.66612

>  <SCORE.INTRA>
0

>  <SCORE.INTRA.DIHEDRAL>
0

>  <SCORE.INTRA.DIHEDRAL.0>
0

>  <SCORE.INTRA.POLAR>
0

>  <SCORE.INTRA.POLAR.0>
0

>  <SCORE.INTRA.REPUL>
0

>  <SCORE.INTRA.REPUL.0>
0

>  <SCORE.INTRA.SOLV>
0

>  <SCORE.INTRA.SOLV.lig_0>
-14.8845

>  <SCORE.INTRA.VDW>
0

>  <SCORE.INTRA.VDW.0>
0

>  <SCORE.INTRA.norm>
0

>  <SCORE.RESTR>
0

>  <SCORE.RESTR.CAVITY>
0

>  <SCORE.RESTR.norm>
0

>  <SCORE.SYSTEM>
0

>  <SCORE.SYSTEM.CONST>
0

>  <SCORE.SYSTEM.DIHEDRAL>
0

>  <SCORE.SYSTEM.SOLV>
0

>  <SCORE.SYSTEM.norm>
0

>  <SCORE.heavy>
10

>  <SCORE.norm>
-3.66612

>  <RMSD>
2.530

$$$$
lig.pdb
 OpenBabel11021811523D
libRbt.so/2013.1/901 2013/11/27
 10 11  0  0  0  0  0  0  0  0999 V2000
  -30.7260   17.9410  -17.7374 N   0  0  0  0  0  0  0  0  0  0  0  0
  -31.9610   18.4694  -17.4794 C   0  0  0  0  0  0  0  0  0  0  0  0
  -32.3365   18.3528  -16.2282 N   0  0  0  0  0  0  0  0  0  0  0  0
  -31.2755   17.7017  -15.6220 C   0  0  0  0  0  0  0  0  0  0  0  0
  -31.0512   17.2847  -14.2970 C   0  0  0  0  0  0  0  0  0  0  0  0
  -31.9345   17.4700  -13.3105 N   0  0  0  0  0  0  0  0  0  0  0  0
  -29.8827   16.6636  -14.0246 N   0  0  0  0  0  0  0  0  0  0  0  0
  -29.0049   16.4784  -15.0167 C   0  0  0  0  0  0  0  0  0  0  0  0
  -29.1034   16.8271  -16.2990 N   0  0  0  0  0  0  0  0  0  0  0  0
  -30.2734   17.4406  -16.5377 C   0  0  0  0  0  0  0  0  0  0  0  0
  1 10  1  0  0  0  0
  2  3  2  0  0  0  0
  2  1  1  0  0  0  0
  3  4  1  0  0  0  0
  4 10  2  0  0  0  0
  4  5  1  0  0  0  0
  5  7  2  0  0  0  0
  6  5  1  0  0  0  0
  7  8  1  0  0  0  0
  9  8  2  0  0  0  0
 10  9  1  0  0  0  0
M  END
>  <CHROM.1>
-30.77592026,17.46320965,-15.61406838,-1.83466410,-0.43428369,1.80274807

>  <Name>
lig.pdb

>  <RI>
0

>  <Rbt.Current_Directory>
/home/itssahil/PROJECTS/Mol_Feturizer/New_Systems/rnas/5uza

>  <Rbt.Executable>
rbdock ($Id: //depot/dev/client3/rdock/2013.1/src/exe/rbdock.cxx#4 $)

>  <Rbt.Library>
libRbt.so (2013.1, Build901 2013/11/27)

>  <Rbt.Parameter_File>
/export/apps/rDock/src/rDock_2013.1_src/data/scripts/dock_solv.prm

>  <Rbt.Receptor>
prm/blind_docking_60.prm

>  <SCORE>
-36.6492

>  <SCORE.INTER>
-36.6492

>  <SCORE.INTER.CONST>
1

>  <SCORE.INTER.POLAR>
-4.34259

>  <SCORE.INTER.ROT>
0

>  <SCORE.INTER.SOLV>
10.7181

>  <SCORE.INTER.VDW>
-17.1302

>  <SCORE.INTER.norm>
-3.66492

>  <SCORE.INTRA>
0

>  <SCORE.INTRA.DIHEDRAL>
0

>  <SCORE.INTRA.DIHEDRAL.0>
0

>  <SCORE.INTRA.POLAR>
0

>  <SCORE.INTRA.POLAR.0>
0

>  <SCORE.INTRA.REPUL>
0

>  <SCORE.INTRA.REPUL.0>
0

>  <SCORE.INTRA.SOLV>
0

>  <SCORE.INTRA.SOLV.lig_0>
-14.8845

>  <SCORE.INTRA.VDW>
0

>  <SCORE.INTRA.VDW.0>
0

>  <SCORE.INTRA.norm>
0

>  <SCORE.RESTR>
0

>  <SCORE.RESTR.CAVITY>
0

>  <SCORE.RESTR.norm>
0

>  <SCORE.SYSTEM>
0

>  <SCORE.SYSTEM.CONST>
0

>  <SCORE.SYSTEM.DIHEDRAL>
0

>  <SCORE.SYSTEM.SOLV>
0

>  <SCORE.SYSTEM.norm>
0

>  <SCORE.heavy>
10

>  <SCORE.norm>
-3.66492

>  <RMSD>
2.530

$$$$
lig.pdb
 OpenBabel11021811523D
libRbt.so/2013.1/901 2013/11/27
 10 11  0  0  0  0  0  0  0  0999 V2000
  -30.7306   17.9425  -17.7372 N   0  0  0  0  0  0  0  0  0  0  0  0
  -31.9627   18.4773  -17.4785 C   0  0  0  0  0  0  0  0  0  0  0  0
  -32.3401   18.3586  -16.2280 N   0  0  0  0  0  0  0  0  0  0  0  0
  -31.2834   17.6991  -15.6232 C   0  0  0  0  0  0  0  0  0  0  0  0
  -31.0628   17.2761  -14.2995 C   0  0  0  0  0  0  0  0  0  0  0  0
  -31.9459   17.4633  -13.3131 N   0  0  0  0  0  0  0  0  0  0  0  0
  -29.8983   16.6472  -14.0282 N   0  0  0  0  0  0  0  0  0  0  0  0
  -29.0207   16.4603  -15.0202 C   0  0  0  0  0  0  0  0  0  0  0  0
  -29.1160   16.8140  -16.3013 N   0  0  0  0  0  0  0  0  0  0  0  0
  -30.2822   17.4352  -16.5389 C   0  0  0  0  0  0  0  0  0  0  0  0
  1 10  1  0  0  0  0
  2  3  2  0  0  0  0
  2  1  1  0  0  0  0
  3  4  1  0  0  0  0
  4 10  2  0  0  0  0
  4  5  1  0  0  0  0
  5  7  2  0  0  0  0
  6  5  1  0  0  0  0
  7  8  1  0  0  0  0
  9  8  2  0  0  0  0
 10  9  1  0  0  0  0
M  END
>  <CHROM.1>
-30.78531020,17.45762581,-15.61565572,-1.83220242,-0.43986108,1.80726678

>  <Name>
lig.pdb

>  <RI>
0

>  <Rbt.Current_Directory>
/home/itssahil/PROJECTS/Mol_Feturizer/New_Systems/rnas/5uza

>  <Rbt.Executable>
rbdock ($Id: //depot/dev/client3/rdock/2013.1/src/exe/rbdock.cxx#4 $)

>  <Rbt.Library>
libRbt.so (2013.1, Build901 2013/11/27)

>  <Rbt.Parameter_File>
/export/apps/rDock/src/rDock_2013.1_src/data/scripts/dock_solv.prm

>  <Rbt.Receptor>
prm/blind_docking_60.prm

>  <SCORE>
-36.6652

>  <SCORE.INTER>
-36.6652

>  <SCORE.INTER.CONST>
1

>  <SCORE.INTER.POLAR>
-4.34303

>  <SCORE.INTER.ROT>
0

>  <SCORE.INTER.SOLV>
10.7224

>  <SCORE.INTER.VDW>
-17.1408

>  <SCORE.INTER.norm>
-3.66652

>  <SCORE.INTRA>
0

>  <SCORE.INTRA.DIHEDRAL>
0

>  <SCORE.INTRA.DIHEDRAL.0>
0

>  <SCORE.INTRA.POLAR>
0

>  <SCORE.INTRA.POLAR.0>
0

>  <SCORE.INTRA.REPUL>
0

>  <SCORE.INTRA.REPUL.0>
0

>  <SCORE.INTRA.SOLV>
0

>  <SCORE.INTRA.SOLV.lig_0>
-14.8845

>  <SCORE.INTRA.VDW>
0

>  <SCORE.INTRA.VDW.0>
0

>  <SCORE.INTRA.norm>
0

>  <SCORE.RESTR>
0

>  <SCORE.RESTR.CAVITY>
0

>  <SCORE.RESTR.norm>
0

>  <SCORE.SYSTEM>
0

>  <SCORE.SYSTEM.CONST>
0

>  <SCORE.SYSTEM.DIHEDRAL>
0

>  <SCORE.SYSTEM.SOLV>
0

>  <SCORE.SYSTEM.norm>
0

>  <SCORE.heavy>
10

>  <SCORE.norm>
-3.66652

>  <RMSD>
2.530

$$$$
lig.pdb
 OpenBabel11021811523D
libRbt.so/2013.1/901 2013/11/27
 10 11  0  0  0  0  0  0  0  0999 V2000
  -30.7341   17.9573  -17.7364 N   0  0  0  0  0  0  0  0  0  0  0  0
  -31.9670   18.4898  -17.4766 C   0  0  0  0  0  0  0  0  0  0  0  0
  -32.3450   18.3661  -16.2267 N   0  0  0  0  0  0  0  0  0  0  0  0
  -31.2881   17.7055  -15.6236 C   0  0  0  0  0  0  0  0  0  0  0  0
  -31.0679   17.2781  -14.3013 C   0  0  0  0  0  0  0  0  0  0  0  0
  -31.9519   17.4607  -13.3148 N   0  0  0  0  0  0  0  0  0  0  0  0
  -29.9029   16.6494  -14.0315 N   0  0  0  0  0  0  0  0  0  0  0  0
  -29.0244   16.4670  -15.0236 C   0  0  0  0  0  0  0  0  0  0  0  0
  -29.1192   16.8253  -16.3035 N   0  0  0  0  0  0  0  0  0  0  0  0
  -30.2859   17.4461  -16.5396 C   0  0  0  0  0  0  0  0  0  0  0  0
  1 10  1  0  0  0  0
  2  3  2  0  0  0  0
  2  1  1  0  0  0  0
  3  4  1  0  0  0  0
  4 10  2  0  0  0  0
  4  5  1  0  0  0  0
  5  7  2  0  0  0  0
  6  5  1  0  0  0  0
  7  8  1  0  0  0  0
  9  8  2  0  0  0  0
 10  9  1  0  0  0  0
M  END
>  <CHROM.1>
-30.78970583,17.46460279,-15.61663056,-1.83176581,-0.43864180,1.81107693

>  <Name>
lig.pdb

>  <RI>
0

>  <Rbt.Current_Directory>
/home/itssahil/PROJECTS/Mol_Feturizer/New_Systems/rnas/5uza

>  <Rbt.Executable>
rbdock ($Id: //depot/dev/client3/rdock/2013.1/src/exe/rbdock.cxx#4 $)

>  <Rbt.Library>
libRbt.so (2013.1, Build901 2013/11/27)

>  <Rbt.Parameter_File>
/export/apps/rDock/src/rDock_2013.1_src/data/scripts/dock_solv.prm

>  <Rbt.Receptor>
prm/blind_docking_60.prm

>  <SCORE>
-36.7005

>  <SCORE.INTER>
-36.7005

>  <SCORE.INTER.CONST>
1

>  <SCORE.INTER.POLAR>
-4.3446

>  <SCORE.INTER.ROT>
0

>  <SCORE.INTER.SOLV>
10.729

>  <SCORE.INTER.VDW>
-17.1613

>  <SCORE.INTER.norm>
-3.67005

>  <SCORE.INTRA>
0

>  <SCORE.INTRA.DIHEDRAL>
0

>  <SCORE.INTRA.DIHEDRAL.0>
0

>  <SCORE.INTRA.POLAR>
0

>  <SCORE.INTRA.POLAR.0>
0

>  <SCORE.INTRA.REPUL>
0

>  <SCORE.INTRA.REPUL.0>
0

>  <SCORE.INTRA.SOLV>
0

>  <SCORE.INTRA.SOLV.lig_0>
-14.8845

>  <SCORE.INTRA.VDW>
0

>  <SCORE.INTRA.VDW.0>
0

>  <SCORE.INTRA.norm>
0

>  <SCORE.RESTR>
0

>  <SCORE.RESTR.CAVITY>
0

>  <SCORE.RESTR.norm>
0

>  <SCORE.SYSTEM>
0

>  <SCORE.SYSTEM.CONST>
0

>  <SCORE.SYSTEM.DIHEDRAL>
0

>  <SCORE.SYSTEM.SOLV>
0

>  <SCORE.SYSTEM.norm>
0

>  <SCORE.heavy>
10

>  <SCORE.norm>
-3.67005

>  <RMSD>
2.530

$$$$
lig.pdb
 OpenBabel11021811523D
libRbt.so/2013.1/901 2013/11/27
 10 11  0  0  0  0  0  0  0  0999 V2000
  -30.7354   17.9534  -17.7361 N   0  0  0  0  0  0  0  0  0  0  0  0
  -31.9715   18.4773  -17.4743 C   0  0  0  0  0  0  0  0  0  0  0  0
  -32.3448   18.3549  -16.2229 N   0  0  0  0  0  0  0  0  0  0  0  0
  -31.2810   17.7043  -15.6208 C   0  0  0  0  0  0  0  0  0  0  0  0
  -31.0536   17.2828  -14.2978 C   0  0  0  0  0  0  0  0  0  0  0  0
  -31.9359   17.4620  -13.3093 N   0  0  0  0  0  0  0  0  0  0  0  0
  -29.8830   16.6639  -14.0296 N   0  0  0  0  0  0  0  0  0  0  0  0
  -29.0061   16.4850  -15.0237 C   0  0  0  0  0  0  0  0  0  0  0  0
  -29.1076   16.8384  -16.3045 N   0  0  0  0  0  0  0  0  0  0  0  0
  -30.2797   17.4495  -16.5391 C   0  0  0  0  0  0  0  0  0  0  0  0
  1 10  1  0  0  0  0
  2  3  2  0  0  0  0
  2  1  1  0  0  0  0
  3  4  1  0  0  0  0
  4 10  2  0  0  0  0
  4  5  1  0  0  0  0
  5  7  2  0  0  0  0
  6  5  1  0  0  0  0
  7  8  1  0  0  0  0
  9  8  2  0  0  0  0
 10  9  1  0  0  0  0
M  END
>  <CHROM.1>
-30.78077748,17.46720854,-15.61461016,-1.83700183,-0.43196460,1.80562057

>  <Name>
lig.pdb

>  <RI>
0

>  <Rbt.Current_Directory>
/home/itssahil/PROJECTS/Mol_Feturizer/New_Systems/rnas/5uza

>  <Rbt.Executable>
rbdock ($Id: //depot/dev/client3/rdock/2013.1/src/exe/rbdock.cxx#4 $)

>  <Rbt.Library>
libRbt.so (2013.1, Build901 2013/11/27)

>  <Rbt.Parameter_File>
/export/apps/rDock/src/rDock_2013.1_src/data/scripts/dock_solv.prm

>  <Rbt.Receptor>
prm/blind_docking_80.prm

>  <SCORE>
-36.674

>  <SCORE.INTER>
-36.674

>  <SCORE.INTER.CONST>
1

>  <SCORE.INTER.POLAR>
-4.35752

>  <SCORE.INTER.ROT>
0

>  <SCORE.INTER.SOLV>
10.7216

>  <SCORE.INTER.VDW>
-17.0981

>  <SCORE.INTER.norm>
-3.6674

>  <SCORE.INTRA>
0

>  <SCORE.INTRA.DIHEDRAL>
0

>  <SCORE.INTRA.DIHEDRAL.0>
0

>  <SCORE.INTRA.POLAR>
0

>  <SCORE.INTRA.POLAR.0>
0

>  <SCORE.INTRA.REPUL>
0

>  <SCORE.INTRA.REPUL.0>
0

>  <SCORE.INTRA.SOLV>
0

>  <SCORE.INTRA.SOLV.lig_0>
-14.8845

>  <SCORE.INTRA.VDW>
0

>  <SCORE.INTRA.VDW.0>
0

>  <SCORE.INTRA.norm>
0

>  <SCORE.RESTR>
0

>  <SCORE.RESTR.CAVITY>
0

>  <SCORE.RESTR.norm>
0

>  <SCORE.SYSTEM>
0

>  <SCORE.SYSTEM.CONST>
0

>  <SCORE.SYSTEM.DIHEDRAL>
0

>  <SCORE.SYSTEM.SOLV>
0

>  <SCORE.SYSTEM.norm>
0

>  <SCORE.heavy>
10

>  <SCORE.norm>
-3.6674

>  <RMSD>
2.530

$$$$
lig.pdb
 OpenBabel11021811523D
libRbt.so/2013.1/901 2013/11/27
 10 11  0  0  0  0  0  0  0  0999 V2000
  -30.7331   17.9461  -17.7366 N   0  0  0  0  0  0  0  0  0  0  0  0
  -31.9687   18.4720  -17.4762 C   0  0  0  0  0  0  0  0  0  0  0  0
  -32.3424   18.3527  -16.2246 N   0  0  0  0  0  0  0  0  0  0  0  0
  -31.2795   17.7023  -15.6209 C   0  0  0  0  0  0  0  0  0  0  0  0
  -31.0528   17.2834  -14.2969 C   0  0  0  0  0  0  0  0  0  0  0  0
  -31.9351   17.4656  -13.3090 N   0  0  0  0  0  0  0  0  0  0  0  0
  -29.8829   16.6638  -14.0271 N   0  0  0  0  0  0  0  0  0  0  0  0
  -29.0060   16.4818  -15.0206 C   0  0  0  0  0  0  0  0  0  0  0  0
  -29.1068   16.8325  -16.3022 N   0  0  0  0  0  0  0  0  0  0  0  0
  -30.2782   17.4444  -16.5384 C   0  0  0  0  0  0  0  0  0  0  0  0
  1 10  1  0  0  0  0
  2  3  2  0  0  0  0
  2  1  1  0  0  0  0
  3  4  1  0  0  0  0
  4 10  2  0  0  0  0
  4  5  1  0  0  0  0
  5  7  2  0  0  0  0
  6  5  1  0  0  0  0
  7  8  1  0  0  0  0
  9  8  2  0  0  0  0
 10  9  1  0  0  0  0
M  END
>  <CHROM.1>
-30.77949605,17.46463773,-15.61404858,-1.83648005,-0.43294848,1.80366954

>  <Name>
lig.pdb

>  <RI>
0

>  <Rbt.Current_Directory>
/home/itssahil/PROJECTS/Mol_Feturizer/New_Systems/rnas/5uza

>  <Rbt.Executable>
rbdock ($Id: //depot/dev/client3/rdock/2013.1/src/exe/rbdock.cxx#4 $)

>  <Rbt.Library>
libRbt.so (2013.1, Build901 2013/11/27)

>  <Rbt.Parameter_File>
/export/apps/rDock/src/rDock_2013.1_src/data/scripts/dock_solv.prm

>  <Rbt.Receptor>
prm/blind_docking_80.prm

>  <SCORE>
-36.6652

>  <SCORE.INTER>
-36.6652

>  <SCORE.INTER.CONST>
1

>  <SCORE.INTER.POLAR>
-4.35263

>  <SCORE.INTER.ROT>
0

>  <SCORE.INTER.SOLV>
10.7179

>  <SCORE.INTER.VDW>
-17.1073

>  <SCORE.INTER.norm>
-3.66652

>  <SCORE.INTRA>
0

>  <SCORE.INTRA.DIHEDRAL>
0

>  <SCORE.INTRA.DIHEDRAL.0>
0

>  <SCORE.INTRA.POLAR>
0

>  <SCORE.INTRA.POLAR.0>
0

>  <SCORE.INTRA.REPUL>
0

>  <SCORE.INTRA.REPUL.0>
0

>  <SCORE.INTRA.SOLV>
0

>  <SCORE.INTRA.SOLV.lig_0>
-14.8845

>  <SCORE.INTRA.VDW>
0

>  <SCORE.INTRA.VDW.0>
0

>  <SCORE.INTRA.norm>
0

>  <SCORE.RESTR>
0

>  <SCORE.RESTR.CAVITY>
0

>  <SCORE.RESTR.norm>
0

>  <SCORE.SYSTEM>
0

>  <SCORE.SYSTEM.CONST>
0

>  <SCORE.SYSTEM.DIHEDRAL>
0

>  <SCORE.SYSTEM.SOLV>
0

>  <SCORE.SYSTEM.norm>
0

>  <SCORE.heavy>
10

>  <SCORE.norm>
-3.66652

>  <RMSD>
2.530

$$$$
lig.pdb
 OpenBabel11021811523D
libRbt.so/2013.1/901 2013/11/27
 10 11  0  0  0  0  0  0  0  0999 V2000
  -30.7260   17.9449  -17.7358 N   0  0  0  0  0  0  0  0  0  0  0  0
  -31.9609   18.4732  -17.4771 C   0  0  0  0  0  0  0  0  0  0  0  0
  -32.3363   18.3553  -16.2259 N   0  0  0  0  0  0  0  0  0  0  0  0
  -31.2752   17.7034  -15.6206 C   0  0  0  0  0  0  0  0  0  0  0  0
  -31.0509   17.2849  -14.2961 C   0  0  0  0  0  0  0  0  0  0  0  0
  -31.9340   17.4694  -13.3093 N   0  0  0  0  0  0  0  0  0  0  0  0
  -29.8824   16.6633  -14.0246 N   0  0  0  0  0  0  0  0  0  0  0  0
  -29.0048   16.4791  -15.0170 C   0  0  0  0  0  0  0  0  0  0  0  0
  -29.1034   16.8292  -16.2989 N   0  0  0  0  0  0  0  0  0  0  0  0
  -30.2734   17.4431  -16.5368 C   0  0  0  0  0  0  0  0  0  0  0  0
  1 10  1  0  0  0  0
  2  3  2  0  0  0  0
  2  1  1  0  0  0  0
  3  4  1  0  0  0  0
  4 10  2  0  0  0  0
  4  5  1  0  0  0  0
  5  7  2  0  0  0  0
  6  5  1  0  0  0  0
  7  8  1  0  0  0  0
  9  8  2  0  0  0  0
 10  9  1  0  0  0  0
M  END
>  <CHROM.1>
-30.77572805,17.46480096,-15.61302427,-1.83479075,-0.43449197,1.80375263

>  <Name>
lig.pdb

>  <RI>
0

>  <Rbt.Current_Directory>
/home/itssahil/PROJECTS/Mol_Feturizer/New_Systems/rnas/5uza

>  <Rbt.Executable>
rbdock ($Id: //depot/dev/client3/rdock/2013.1/src/exe/rbdock.cxx#4 $)

>  <Rbt.Library>
libRbt.so (2013.1, Build901 2013/11/27)

>  <Rbt.Parameter_File>
/export/apps/rDock/src/rDock_2013.1_src/data/scripts/dock_solv.prm

>  <Rbt.Receptor>
prm/pocket_docking_3.prm

>  <SCORE>
-36.6524

>  <SCORE.INTER>
-36.6524

>  <SCORE.INTER.CONST>
1

>  <SCORE.INTER.POLAR>
-4.34656

>  <SCORE.INTER.ROT>
0

>  <SCORE.INTER.SOLV>
10.7197

>  <SCORE.INTER.VDW>
-17.1196

>  <SCORE.INTER.norm>
-3.66524

>  <SCORE.INTRA>
0

>  <SCORE.INTRA.DIHEDRAL>
0

>  <SCORE.INTRA.DIHEDRAL.0>
0

>  <SCORE.INTRA.POLAR>
0

>  <SCORE.INTRA.POLAR.0>
0

>  <SCORE.INTRA.REPUL>
0

>  <SCORE.INTRA.REPUL.0>
0

>  <SCORE.INTRA.SOLV>
0

>  <SCORE.INTRA.SOLV.lig_0>
-14.8845

>  <SCORE.INTRA.VDW>
0

>  <SCORE.INTRA.VDW.0>
0

>  <SCORE.INTRA.norm>
0

>  <SCORE.RESTR>
0

>  <SCORE.RESTR.CAVITY>
0

>  <SCORE.RESTR.norm>
0

>  <SCORE.SYSTEM>
0

>  <SCORE.SYSTEM.CONST>
0

>  <SCORE.SYSTEM.DIHEDRAL>
0

>  <SCORE.SYSTEM.SOLV>
0

>  <SCORE.SYSTEM.norm>
0

>  <SCORE.heavy>
10

>  <SCORE.norm>
-3.66524

>  <RMSD>
2.530

$$$$
lig.pdb
 OpenBabel11021811523D
libRbt.so/2013.1/901 2013/11/27
 10 11  0  0  0  0  0  0  0  0999 V2000
  -30.7313   17.9434  -17.7404 N   0  0  0  0  0  0  0  0  0  0  0  0
  -31.9699   18.4619  -17.4794 C   0  0  0  0  0  0  0  0  0  0  0  0
  -32.3397   18.3459  -16.2263 N   0  0  0  0  0  0  0  0  0  0  0  0
  -31.2708   17.7057  -15.6222 C   0  0  0  0  0  0  0  0  0  0  0  0
  -31.0380   17.2947  -14.2969 C   0  0  0  0  0  0  0  0  0  0  0  0
  -31.9192   17.4755  -13.3076 N   0  0  0  0  0  0  0  0  0  0  0  0
  -29.8632   16.6844  -14.0270 N   0  0  0  0  0  0  0  0  0  0  0  0
  -28.9876   16.5038  -15.0219 C   0  0  0  0  0  0  0  0  0  0  0  0
  -29.0939   16.8477  -16.3048 N   0  0  0  0  0  0  0  0  0  0  0  0
  -30.2700   17.4504  -16.5409 C   0  0  0  0  0  0  0  0  0  0  0  0
  1 10  1  0  0  0  0
  2  3  2  0  0  0  0
  2  1  1  0  0  0  0
  3  4  1  0  0  0  0
  4 10  2  0  0  0  0
  4  5  1  0  0  0  0
  5  7  2  0  0  0  0
  6  5  1  0  0  0  0
  7  8  1  0  0  0  0
  9  8  2  0  0  0  0
 10  9  1  0  0  0  0
M  END
>  <CHROM.1>
-30.76920891,17.47157485,-15.61547802,-1.84085207,-0.42681717,1.79713840

>  <Name>
lig.pdb

>  <RI>
0

>  <Rbt.Current_Directory>
/home/itssahil/PROJECTS/Mol_Feturizer/New_Systems/rnas/5uza

>  <Rbt.Executable>
rbdock ($Id: //depot/dev/client3/rdock/2013.1/src/exe/rbdock.cxx#4 $)

>  <Rbt.Library>
libRbt.so (2013.1, Build901 2013/11/27)

>  <Rbt.Parameter_File>
/export/apps/rDock/src/rDock_2013.1_src/data/scripts/dock_solv.prm

>  <Rbt.Receptor>
prm/pocket_docking_3.prm

>  <SCORE>
-36.6554

>  <SCORE.INTER>
-36.6554

>  <SCORE.INTER.CONST>
1

>  <SCORE.INTER.POLAR>
-4.3461

>  <SCORE.INTER.ROT>
0

>  <SCORE.INTER.SOLV>
10.7139

>  <SCORE.INTER.VDW>
-17.1212

>  <SCORE.INTER.norm>
-3.66554

>  <SCORE.INTRA>
0

>  <SCORE.INTRA.DIHEDRAL>
0

>  <SCORE.INTRA.DIHEDRAL.0>
0

>  <SCORE.INTRA.POLAR>
0

>  <SCORE.INTRA.POLAR.0>
0

>  <SCORE.INTRA.REPUL>
0

>  <SCORE.INTRA.REPUL.0>
0

>  <SCORE.INTRA.SOLV>
0

>  <SCORE.INTRA.SOLV.lig_0>
-14.8845

>  <SCORE.INTRA.VDW>
0

>  <SCORE.INTRA.VDW.0>
0

>  <SCORE.INTRA.norm>
0

>  <SCORE.RESTR>
0

>  <SCORE.RESTR.CAVITY>
0

>  <SCORE.RESTR.norm>
0

>  <SCORE.SYSTEM>
0

>  <SCORE.SYSTEM.CONST>
0

>  <SCORE.SYSTEM.DIHEDRAL>
0

>  <SCORE.SYSTEM.SOLV>
0

>  <SCORE.SYSTEM.norm>
0

>  <SCORE.heavy>
10

>  <SCORE.norm>
-3.66554

>  <RMSD>
2.530

$$$$
lig.pdb
 OpenBabel11021811523D
libRbt.so/2013.1/901 2013/11/27
 10 11  0  0  0  0  0  0  0  0999 V2000
  -30.7358   17.9459  -17.7417 N   0  0  0  0  0  0  0  0  0  0  0  0
  -31.9678   18.4807  -17.4827 C   0  0  0  0  0  0  0  0  0  0  0  0
  -32.3443   18.3632  -16.2318 N   0  0  0  0  0  0  0  0  0  0  0  0
  -31.2872   17.7044  -15.6270 C   0  0  0  0  0  0  0  0  0  0  0  0
  -31.0656   17.2827  -14.3031 C   0  0  0  0  0  0  0  0  0  0  0  0
  -31.9481   17.4707  -13.3163 N   0  0  0  0  0  0  0  0  0  0  0  0
  -29.9008   16.6542  -14.0320 N   0  0  0  0  0  0  0  0  0  0  0  0
  -29.0238   16.4665  -15.0244 C   0  0  0  0  0  0  0  0  0  0  0  0
  -29.1200   16.8190  -16.3058 N   0  0  0  0  0  0  0  0  0  0  0  0
  -30.2864   17.4398  -16.5432 C   0  0  0  0  0  0  0  0  0  0  0  0
  1 10  1  0  0  0  0
  2  3  2  0  0  0  0
  2  1  1  0  0  0  0
  3  4  1  0  0  0  0
  4 10  2  0  0  0  0
  4  5  1  0  0  0  0
  5  7  2  0  0  0  0
  6  5  1  0  0  0  0
  7  8  1  0  0  0  0
  9  8  2  0  0  0  0
 10  9  1  0  0  0  0
M  END
>  <CHROM.1>
-30.78900494,17.46299681,-15.61960966,-1.83294187,-0.43985303,1.80601169

>  <Name>
lig.pdb

>  <RI>
0

>  <Rbt.Current_Directory>
/home/itssahil/PROJECTS/Mol_Feturizer/New_Systems/rnas/5uza

>  <Rbt.Executable>
rbdock ($Id: //depot/dev/client3/rdock/2013.1/src/exe/rbdock.cxx#4 $)

>  <Rbt.Library>
libRbt.so (2013.1, Build901 2013/11/27)

>  <Rbt.Parameter_File>
/export/apps/rDock/src/rDock_2013.1_src/data/scripts/dock_solv.prm

>  <Rbt.Receptor>
prm/pocket_docking_3.prm

>  <SCORE>
-36.6783

>  <SCORE.INTER>
-36.6783

>  <SCORE.INTER.CONST>
1

>  <SCORE.INTER.POLAR>
-4.328

>  <SCORE.INTER.ROT>
0

>  <SCORE.INTER.SOLV>
10.7182

>  <SCORE.INTER.VDW>
-17.1983

>  <SCORE.INTER.norm>
-3.66783

>  <SCORE.INTRA>
0

>  <SCORE.INTRA.DIHEDRAL>
0

>  <SCORE.INTRA.DIHEDRAL.0>
0

>  <SCORE.INTRA.POLAR>
0

>  <SCORE.INTRA.POLAR.0>
0

>  <SCORE.INTRA.REPUL>
0

>  <SCORE.INTRA.REPUL.0>
0

>  <SCORE.INTRA.SOLV>
0

>  <SCORE.INTRA.SOLV.lig_0>
-14.8845

>  <SCORE.INTRA.VDW>
0

>  <SCORE.INTRA.VDW.0>
0

>  <SCORE.INTRA.norm>
0

>  <SCORE.RESTR>
0

>  <SCORE.RESTR.CAVITY>
0

>  <SCORE.RESTR.norm>
0

>  <SCORE.SYSTEM>
0

>  <SCORE.SYSTEM.CONST>
0

>  <SCORE.SYSTEM.DIHEDRAL>
0

>  <SCORE.SYSTEM.SOLV>
0

>  <SCORE.SYSTEM.norm>
0

>  <SCORE.heavy>
10

>  <SCORE.norm>
-3.66783

>  <RMSD>
2.530

$$$$
lig.pdb
 OpenBabel11021811523D
libRbt.so/2013.1/901 2013/11/27
 10 11  0  0  0  0  0  0  0  0999 V2000
  -30.7261   17.9508  -17.7354 N   0  0  0  0  0  0  0  0  0  0  0  0
  -31.9619   18.4767  -17.4765 C   0  0  0  0  0  0  0  0  0  0  0  0
  -32.3379   18.3560  -16.2257 N   0  0  0  0  0  0  0  0  0  0  0  0
  -31.2763   17.7045  -15.6209 C   0  0  0  0  0  0  0  0  0  0  0  0
  -31.0521   17.2839  -14.2971 C   0  0  0  0  0  0  0  0  0  0  0  0
  -31.9361   17.4653  -13.3104 N   0  0  0  0  0  0  0  0  0  0  0  0
  -29.8829   16.6636  -14.0259 N   0  0  0  0  0  0  0  0  0  0  0  0
  -29.0044   16.4825  -15.0182 C   0  0  0  0  0  0  0  0  0  0  0  0
  -29.1027   16.8348  -16.2995 N   0  0  0  0  0  0  0  0  0  0  0  0
  -30.2735   17.4474  -16.5370 C   0  0  0  0  0  0  0  0  0  0  0  0
  1 10  1  0  0  0  0
  2  3  2  0  0  0  0
  2  1  1  0  0  0  0
  3  4  1  0  0  0  0
  4 10  2  0  0  0  0
  4  5  1  0  0  0  0
  5  7  2  0  0  0  0
  6  5  1  0  0  0  0
  7  8  1  0  0  0  0
  9  8  2  0  0  0  0
 10  9  1  0  0  0  0
M  END
>  <CHROM.1>
-30.77639943,17.46667833,-15.61348743,-1.83449502,-0.43291160,1.80572931

>  <Name>
lig.pdb

>  <RI>
9.24451e+06

>  <Rbt.Current_Directory>
/home/itssahil/PROJECTS/Mol_Feturizer/New_Systems/rnas/5uza

>  <Rbt.Executable>
rbdock ($Id: //depot/dev/client3/rdock/2013.1/src/exe/rbdock.cxx#4 $)

>  <Rbt.Library>
libRbt.so (2013.1, Build901 2013/11/27)

>  <Rbt.Parameter_File>
/export/apps/rDock/src/rDock_2013.1_src/data/scripts/dock_solv.prm

>  <Rbt.Receptor>
prm/pocket_docking_4.prm

>  <SCORE>
-36.6602

>  <SCORE.INTER>
-36.6602

>  <SCORE.INTER.CONST>
1

>  <SCORE.INTER.POLAR>
-4.34899

>  <SCORE.INTER.ROT>
0

>  <SCORE.INTER.SOLV>
10.7251

>  <SCORE.INTER.VDW>
-17.1185

>  <SCORE.INTER.norm>
-3.66602

>  <SCORE.INTRA>
0

>  <SCORE.INTRA.DIHEDRAL>
0

>  <SCORE.INTRA.DIHEDRAL.0>
0

>  <SCORE.INTRA.POLAR>
0

>  <SCORE.INTRA.POLAR.0>
0

>  <SCORE.INTRA.REPUL>
0

>  <SCORE.INTRA.REPUL.0>
0

>  <SCORE.INTRA.SOLV>
0

>  <SCORE.INTRA.SOLV.lig_0>
-14.8845

>  <SCORE.INTRA.VDW>
0

>  <SCORE.INTRA.VDW.0>
0

>  <SCORE.INTRA.norm>
0

>  <SCORE.RESTR>
0

>  <SCORE.RESTR.CAVITY>
0

>  <SCORE.RESTR.norm>
0

>  <SCORE.SYSTEM>
0

>  <SCORE.SYSTEM.CONST>
0

>  <SCORE.SYSTEM.DIHEDRAL>
0

>  <SCORE.SYSTEM.SOLV>
0

>  <SCORE.SYSTEM.norm>
0

>  <SCORE.heavy>
10

>  <SCORE.norm>
-3.66602

>  <RMSD>
2.530

$$$$
lig.pdb
 OpenBabel11021811523D
libRbt.so/2013.1/901 2013/11/27
 10 11  0  0  0  0  0  0  0  0999 V2000
  -30.7290   17.9378  -17.7404 N   0  0  0  0  0  0  0  0  0  0  0  0
  -31.9675   18.4568  -17.4802 C   0  0  0  0  0  0  0  0  0  0  0  0
  -32.3372   18.3431  -16.2269 N   0  0  0  0  0  0  0  0  0  0  0  0
  -31.2683   17.7040  -15.6217 C   0  0  0  0  0  0  0  0  0  0  0  0
  -31.0353   17.2953  -14.2957 C   0  0  0  0  0  0  0  0  0  0  0  0
  -31.9164   17.4779  -13.3066 N   0  0  0  0  0  0  0  0  0  0  0  0
  -29.8605   16.6855  -14.0249 N   0  0  0  0  0  0  0  0  0  0  0  0
  -28.9850   16.5031  -15.0195 C   0  0  0  0  0  0  0  0  0  0  0  0
  -29.0914   16.8447  -16.3030 N   0  0  0  0  0  0  0  0  0  0  0  0
  -30.2676   17.4470  -16.5401 C   0  0  0  0  0  0  0  0  0  0  0  0
  1 10  1  0  0  0  0
  2  3  2  0  0  0  0
  2  1  1  0  0  0  0
  3  4  1  0  0  0  0
  4 10  2  0  0  0  0
  4  5  1  0  0  0  0
  5  7  2  0  0  0  0
  6  5  1  0  0  0  0
  7  8  1  0  0  0  0
  9  8  2  0  0  0  0
 10  9  1  0  0  0  0
M  END
>  <CHROM.1>
-30.76666843,17.46981785,-15.61464700,-1.84097013,-0.42683820,1.79529880

>  <Name>
lig.pdb

>  <RI>
0

>  <Rbt.Current_Directory>
/home/itssahil/PROJECTS/Mol_Feturizer/New_Systems/rnas/5uza

>  <Rbt.Executable>
rbdock ($Id: //depot/dev/client3/rdock/2013.1/src/exe/rbdock.cxx#4 $)

>  <Rbt.Library>
libRbt.so (2013.1, Build901 2013/11/27)

>  <Rbt.Parameter_File>
/export/apps/rDock/src/rDock_2013.1_src/data/scripts/dock_solv.prm

>  <Rbt.Receptor>
prm/pocket_docking_5.prm

>  <SCORE>
-36.6548

>  <SCORE.INTER>
-36.6548

>  <SCORE.INTER.CONST>
1

>  <SCORE.INTER.POLAR>
-4.34495

>  <SCORE.INTER.ROT>
0

>  <SCORE.INTER.SOLV>
10.7119

>  <SCORE.INTER.VDW>
-17.124

>  <SCORE.INTER.norm>
-3.66548

>  <SCORE.INTRA>
0

>  <SCORE.INTRA.DIHEDRAL>
0

>  <SCORE.INTRA.DIHEDRAL.0>
0

>  <SCORE.INTRA.POLAR>
0

>  <SCORE.INTRA.POLAR.0>
0

>  <SCORE.INTRA.REPUL>
0

>  <SCORE.INTRA.REPUL.0>
0

>  <SCORE.INTRA.SOLV>
0

>  <SCORE.INTRA.SOLV.lig_0>
-14.8845

>  <SCORE.INTRA.VDW>
0

>  <SCORE.INTRA.VDW.0>
0

>  <SCORE.INTRA.norm>
0

>  <SCORE.RESTR>
0

>  <SCORE.RESTR.CAVITY>
0

>  <SCORE.RESTR.norm>
0

>  <SCORE.SYSTEM>
0

>  <SCORE.SYSTEM.CONST>
0

>  <SCORE.SYSTEM.DIHEDRAL>
0

>  <SCORE.SYSTEM.SOLV>
0

>  <SCORE.SYSTEM.norm>
0

>  <SCORE.heavy>
10

>  <SCORE.norm>
-3.66548

>  <RMSD>
2.530

$$$$
lig.pdb
 OpenBabel11021811523D
libRbt.so/2013.1/901 2013/11/27
 10 11  0  0  0  0  0  0  0  0999 V2000
  -30.7325   17.9476  -17.7375 N   0  0  0  0  0  0  0  0  0  0  0  0
  -31.9699   18.4687  -17.4762 C   0  0  0  0  0  0  0  0  0  0  0  0
  -32.3415   18.3496  -16.2240 N   0  0  0  0  0  0  0  0  0  0  0  0
  -31.2750   17.7045  -15.6208 C   0  0  0  0  0  0  0  0  0  0  0  0
  -31.0449   17.2885  -14.2965 C   0  0  0  0  0  0  0  0  0  0  0  0
  -31.9267   17.4685  -13.3076 N   0  0  0  0  0  0  0  0  0  0  0  0
  -29.8721   16.6742  -14.0273 N   0  0  0  0  0  0  0  0  0  0  0  0
  -28.9958   16.4944  -15.0218 C   0  0  0  0  0  0  0  0  0  0  0  0
  -29.0997   16.8429  -16.3037 N   0  0  0  0  0  0  0  0  0  0  0  0
  -30.2739   17.4495  -16.5392 C   0  0  0  0  0  0  0  0  0  0  0  0
  1 10  1  0  0  0  0
  2  3  2  0  0  0  0
  2  1  1  0  0  0  0
  3  4  1  0  0  0  0
  4 10  2  0  0  0  0
  4  5  1  0  0  0  0
  5  7  2  0  0  0  0
  6  5  1  0  0  0  0
  7  8  1  0  0  0  0
  9  8  2  0  0  0  0
 10  9  1  0  0  0  0
M  END
>  <CHROM.1>
-30.77408737,17.46898111,-15.61422747,-1.83895848,-0.42919805,1.80119640

>  <Name>
lig.pdb

>  <RI>
0

>  <Rbt.Current_Directory>
/home/itssahil/PROJECTS/Mol_Feturizer/New_Systems/rnas/5uza

>  <Rbt.Executable>
rbdock ($Id: //depot/dev/client3/rdock/2013.1/src/exe/rbdock.cxx#4 $)

>  <Rbt.Library>
libRbt.so (2013.1, Build901 2013/11/27)

>  <Rbt.Parameter_File>
/export/apps/rDock/src/rDock_2013.1_src/data/scripts/dock_solv.prm

>  <Rbt.Receptor>
prm/pocket_docking_5.prm

>  <SCORE>
-36.6528

>  <SCORE.INTER>
-36.6528

>  <SCORE.INTER.CONST>
1

>  <SCORE.INTER.POLAR>
-4.35398

>  <SCORE.INTER.ROT>
0

>  <SCORE.INTER.SOLV>
10.7169

>  <SCORE.INTER.VDW>
-17.0942

>  <SCORE.INTER.norm>
-3.66528

>  <SCORE.INTRA>
0

>  <SCORE.INTRA.DIHEDRAL>
0

>  <SCORE.INTRA.DIHEDRAL.0>
0

>  <SCORE.INTRA.POLAR>
0

>  <SCORE.INTRA.POLAR.0>
0

>  <SCORE.INTRA.REPUL>
0

>  <SCORE.INTRA.REPUL.0>
0

>  <SCORE.INTRA.SOLV>
0

>  <SCORE.INTRA.SOLV.lig_0>
-14.8845

>  <SCORE.INTRA.VDW>
0

>  <SCORE.INTRA.VDW.0>
0

>  <SCORE.INTRA.norm>
0

>  <SCORE.RESTR>
0

>  <SCORE.RESTR.CAVITY>
0

>  <SCORE.RESTR.norm>
0

>  <SCORE.SYSTEM>
0

>  <SCORE.SYSTEM.CONST>
0

>  <SCORE.SYSTEM.DIHEDRAL>
0

>  <SCORE.SYSTEM.SOLV>
0

>  <SCORE.SYSTEM.norm>
0

>  <SCORE.heavy>
10

>  <SCORE.norm>
-3.66528

>  <RMSD>
2.530

$$$$
lig.pdb
 OpenBabel11021811523D
libRbt.so/2013.1/901 2013/11/27
 10 11  0  0  0  0  0  0  0  0999 V2000
  -30.7220   17.9465  -17.7328 N   0  0  0  0  0  0  0  0  0  0  0  0
  -31.9542   18.4825  -17.4771 C   0  0  0  0  0  0  0  0  0  0  0  0
  -32.3354   18.3626  -16.2279 N   0  0  0  0  0  0  0  0  0  0  0  0
  -31.2815   17.7009  -15.6208 C   0  0  0  0  0  0  0  0  0  0  0  0
  -31.0654   17.2758  -14.2970 C   0  0  0  0  0  0  0  0  0  0  0  0
  -31.9512   17.4628  -13.3130 N   0  0  0  0  0  0  0  0  0  0  0  0
  -29.9025   16.6450  -14.0231 N   0  0  0  0  0  0  0  0  0  0  0  0
  -29.0221   16.4584  -15.0126 C   0  0  0  0  0  0  0  0  0  0  0  0
  -29.1131   16.8140  -16.2936 N   0  0  0  0  0  0  0  0  0  0  0  0
  -30.2778   17.4370  -16.5339 C   0  0  0  0  0  0  0  0  0  0  0  0
  1 10  1  0  0  0  0
  2  3  2  0  0  0  0
  2  1  1  0  0  0  0
  3  4  1  0  0  0  0
  4 10  2  0  0  0  0
  4  5  1  0  0  0  0
  5  7  2  0  0  0  0
  6  5  1  0  0  0  0
  7  8  1  0  0  0  0
  9  8  2  0  0  0  0
 10  9  1  0  0  0  0
M  END
>  <CHROM.1>
-30.78368255,17.45875852,-15.61206924,-1.82863156,-0.44038117,1.81014925

>  <Name>
lig.pdb

>  <RI>
2.12818e+07

>  <Rbt.Current_Directory>
/home/itssahil/PROJECTS/Mol_Feturizer/New_Systems/rnas/5uza

>  <Rbt.Executable>
rbdock ($Id: //depot/dev/client3/rdock/2013.1/src/exe/rbdock.cxx#4 $)

>  <Rbt.Library>
libRbt.so (2013.1, Build901 2013/11/27)

>  <Rbt.Parameter_File>
/export/apps/rDock/src/rDock_2013.1_src/data/scripts/dock_solv.prm

>  <Rbt.Receptor>
prm/pocket_docking_7.prm

>  <SCORE>
-36.6563

>  <SCORE.INTER>
-36.6563

>  <SCORE.INTER.CONST>
1

>  <SCORE.INTER.POLAR>
-4.34349

>  <SCORE.INTER.ROT>
0

>  <SCORE.INTER.SOLV>
10.7307

>  <SCORE.INTER.VDW>
-17.1361

>  <SCORE.INTER.norm>
-3.66563

>  <SCORE.INTRA>
0

>  <SCORE.INTRA.DIHEDRAL>
0

>  <SCORE.INTRA.DIHEDRAL.0>
0

>  <SCORE.INTRA.POLAR>
0

>  <SCORE.INTRA.POLAR.0>
0

>  <SCORE.INTRA.REPUL>
0

>  <SCORE.INTRA.REPUL.0>
0

>  <SCORE.INTRA.SOLV>
0

>  <SCORE.INTRA.SOLV.lig_0>
-14.8845

>  <SCORE.INTRA.VDW>
0

>  <SCORE.INTRA.VDW.0>
0

>  <SCORE.INTRA.norm>
0

>  <SCORE.RESTR>
0

>  <SCORE.RESTR.CAVITY>
0

>  <SCORE.RESTR.norm>
0

>  <SCORE.SYSTEM>
0

>  <SCORE.SYSTEM.CONST>
0

>  <SCORE.SYSTEM.DIHEDRAL>
0

>  <SCORE.SYSTEM.SOLV>
0

>  <SCORE.SYSTEM.norm>
0

>  <SCORE.heavy>
10

>  <SCORE.norm>
-3.66563

>  <RMSD>
2.530

$$$$
lig.pdb
 OpenBabel11021811523D
libRbt.so/2013.1/901 2013/11/27
 10 11  0  0  0  0  0  0  0  0999 V2000
  -30.7304   17.9503  -17.7348 N   0  0  0  0  0  0  0  0  0  0  0  0
  -31.9661   18.4760  -17.4748 C   0  0  0  0  0  0  0  0  0  0  0  0
  -32.3409   18.3553  -16.2236 N   0  0  0  0  0  0  0  0  0  0  0  0
  -31.2786   17.7041  -15.6198 C   0  0  0  0  0  0  0  0  0  0  0  0
  -31.0530   17.2837  -14.2962 C   0  0  0  0  0  0  0  0  0  0  0  0
  -31.9362   17.4648  -13.3087 N   0  0  0  0  0  0  0  0  0  0  0  0
  -29.8834   16.6636  -14.0261 N   0  0  0  0  0  0  0  0  0  0  0  0
  -29.0058   16.4827  -15.0191 C   0  0  0  0  0  0  0  0  0  0  0  0
  -29.1054   16.8349  -16.3003 N   0  0  0  0  0  0  0  0  0  0  0  0
  -30.2765   17.4472  -16.5368 C   0  0  0  0  0  0  0  0  0  0  0  0
  1 10  1  0  0  0  0
  2  3  2  0  0  0  0
  2  1  1  0  0  0  0
  3  4  1  0  0  0  0
  4 10  2  0  0  0  0
  4  5  1  0  0  0  0
  5  7  2  0  0  0  0
  6  5  1  0  0  0  0
  7  8  1  0  0  0  0
  9  8  2  0  0  0  0
 10  9  1  0  0  0  0
M  END
>  <CHROM.1>
-30.77863086,17.46638096,-15.61282225,-1.83556199,-0.43287698,1.80521535

>  <Name>
lig.pdb

>  <RI>
1.17775e+07

>  <Rbt.Current_Directory>
/home/itssahil/PROJECTS/Mol_Feturizer/New_Systems/rnas/5uza

>  <Rbt.Executable>
rbdock ($Id: //depot/dev/client3/rdock/2013.1/src/exe/rbdock.cxx#4 $)

>  <Rbt.Library>
libRbt.so (2013.1, Build901 2013/11/27)

>  <Rbt.Parameter_File>
/export/apps/rDock/src/rDock_2013.1_src/data/scripts/dock_solv.prm

>  <Rbt.Receptor>
prm/pocket_docking_8.prm

>  <SCORE>
-36.667

>  <SCORE.INTER>
-36.667

>  <SCORE.INTER.CONST>
1

>  <SCORE.INTER.POLAR>
-4.35454

>  <SCORE.INTER.ROT>
0

>  <SCORE.INTER.SOLV>
10.7221

>  <SCORE.INTER.VDW>
-17.1036

>  <SCORE.INTER.norm>
-3.6667

>  <SCORE.INTRA>
0

>  <SCORE.INTRA.DIHEDRAL>
0

>  <SCORE.INTRA.DIHEDRAL.0>
0

>  <SCORE.INTRA.POLAR>
0

>  <SCORE.INTRA.POLAR.0>
0

>  <SCORE.INTRA.REPUL>
0

>  <SCORE.INTRA.REPUL.0>
0

>  <SCORE.INTRA.SOLV>
0

>  <SCORE.INTRA.SOLV.lig_0>
-14.8845

>  <SCORE.INTRA.VDW>
0

>  <SCORE.INTRA.VDW.0>
0

>  <SCORE.INTRA.norm>
0

>  <SCORE.RESTR>
0

>  <SCORE.RESTR.CAVITY>
0

>  <SCORE.RESTR.norm>
0

>  <SCORE.SYSTEM>
0

>  <SCORE.SYSTEM.CONST>
0

>  <SCORE.SYSTEM.DIHEDRAL>
0

>  <SCORE.SYSTEM.SOLV>
0

>  <SCORE.SYSTEM.norm>
0

>  <SCORE.heavy>
10

>  <SCORE.norm>
-3.6667

>  <RMSD>
2.530

$$$$
lig.pdb
 OpenBabel11021811523D
libRbt.so/2013.1/901 2013/11/27
 10 11  0  0  0  0  0  0  0  0999 V2000
  -30.7317   17.9421  -17.7344 N   0  0  0  0  0  0  0  0  0  0  0  0
  -31.9678   18.4665  -17.4738 C   0  0  0  0  0  0  0  0  0  0  0  0
  -32.3413   18.3468  -16.2222 N   0  0  0  0  0  0  0  0  0  0  0  0
  -31.2775   17.6976  -15.6186 C   0  0  0  0  0  0  0  0  0  0  0  0
  -31.0502   17.2790  -14.2947 C   0  0  0  0  0  0  0  0  0  0  0  0
  -31.9326   17.4602  -13.3066 N   0  0  0  0  0  0  0  0  0  0  0  0
  -29.8796   16.6607  -14.0250 N   0  0  0  0  0  0  0  0  0  0  0  0
  -29.0027   16.4797  -15.0187 C   0  0  0  0  0  0  0  0  0  0  0  0
  -29.1040   16.8303  -16.3002 N   0  0  0  0  0  0  0  0  0  0  0  0
  -30.2761   17.4409  -16.5362 C   0  0  0  0  0  0  0  0  0  0  0  0
  1 10  1  0  0  0  0
  2  3  2  0  0  0  0
  2  1  1  0  0  0  0
  3  4  1  0  0  0  0
  4 10  2  0  0  0  0
  4  5  1  0  0  0  0
  5  7  2  0  0  0  0
  6  5  1  0  0  0  0
  7  8  1  0  0  0  0
  9  8  2  0  0  0  0
 10  9  1  0  0  0  0
M  END
>  <CHROM.1>
-30.77730095,17.46052741,-15.61184955,-1.83690338,-0.43190484,1.80349340

>  <Name>
lig.pdb

>  <RI>
1.17775e+07

>  <Rbt.Current_Directory>
/home/itssahil/PROJECTS/Mol_Feturizer/New_Systems/rnas/5uza

>  <Rbt.Executable>
rbdock ($Id: //depot/dev/client3/rdock/2013.1/src/exe/rbdock.cxx#4 $)

>  <Rbt.Library>
libRbt.so (2013.1, Build901 2013/11/27)

>  <Rbt.Parameter_File>
/export/apps/rDock/src/rDock_2013.1_src/data/scripts/dock_solv.prm

>  <Rbt.Receptor>
prm/pocket_docking_8.prm

>  <SCORE>
-36.6441

>  <SCORE.INTER>
-36.6441

>  <SCORE.INTER.CONST>
1

>  <SCORE.INTER.POLAR>
-4.36381

>  <SCORE.INTER.ROT>
0

>  <SCORE.INTER.SOLV>
10.7185

>  <SCORE.INTER.VDW>
-17.0562

>  <SCORE.INTER.norm>
-3.66441

>  <SCORE.INTRA>
0

>  <SCORE.INTRA.DIHEDRAL>
0

>  <SCORE.INTRA.DIHEDRAL.0>
0

>  <SCORE.INTRA.POLAR>
0

>  <SCORE.INTRA.POLAR.0>
0

>  <SCORE.INTRA.REPUL>
0

>  <SCORE.INTRA.REPUL.0>
0

>  <SCORE.INTRA.SOLV>
0

>  <SCORE.INTRA.SOLV.lig_0>
-14.8845

>  <SCORE.INTRA.VDW>
0

>  <SCORE.INTRA.VDW.0>
0

>  <SCORE.INTRA.norm>
0

>  <SCORE.RESTR>
0

>  <SCORE.RESTR.CAVITY>
0

>  <SCORE.RESTR.norm>
0

>  <SCORE.SYSTEM>
0

>  <SCORE.SYSTEM.CONST>
0

>  <SCORE.SYSTEM.DIHEDRAL>
0

>  <SCORE.SYSTEM.SOLV>
0

>  <SCORE.SYSTEM.norm>
0

>  <SCORE.heavy>
10

>  <SCORE.norm>
-3.66441

>  <RMSD>
2.530

$$$$
lig.pdb
 OpenBabel11021811523D
libRbt.so/2013.1/901 2013/11/27
 10 11  0  0  0  0  0  0  0  0999 V2000
  -30.7292   17.9421  -17.7327 N   0  0  0  0  0  0  0  0  0  0  0  0
  -31.9653   18.4670  -17.4731 C   0  0  0  0  0  0  0  0  0  0  0  0
  -32.3397   18.3475  -16.2217 N   0  0  0  0  0  0  0  0  0  0  0  0
  -31.2767   17.6979  -15.6173 C   0  0  0  0  0  0  0  0  0  0  0  0
  -31.0506   17.2793  -14.2932 C   0  0  0  0  0  0  0  0  0  0  0  0
  -31.9336   17.4609  -13.3058 N   0  0  0  0  0  0  0  0  0  0  0  0
  -29.8804   16.6605  -14.0226 N   0  0  0  0  0  0  0  0  0  0  0  0
  -29.0028   16.4791  -15.0156 C   0  0  0  0  0  0  0  0  0  0  0  0
  -29.1030   16.8297  -16.2972 N   0  0  0  0  0  0  0  0  0  0  0  0
  -30.2747   17.4407  -16.5342 C   0  0  0  0  0  0  0  0  0  0  0  0
  1 10  1  0  0  0  0
  2  3  2  0  0  0  0
  2  1  1  0  0  0  0
  3  4  1  0  0  0  0
  4 10  2  0  0  0  0
  4  5  1  0  0  0  0
  5  7  2  0  0  0  0
  6  5  1  0  0  0  0
  7  8  1  0  0  0  0
  9  8  2  0  0  0  0
 10  9  1  0  0  0  0
M  END
>  <CHROM.1>
-30.77659000,17.46064709,-15.61015806,-1.83600641,-0.43212222,1.80381092

>  <Name>
lig.pdb

>  <RI>
1.17775e+07

>  <Rbt.Current_Directory>
/home/itssahil/PROJECTS/Mol_Feturizer/New_Systems/rnas/5uza

>  <Rbt.Executable>
rbdock ($Id: //depot/dev/client3/rdock/2013.1/src/exe/rbdock.cxx#4 $)

>  <Rbt.Library>
libRbt.so (2013.1, Build901 2013/11/27)

>  <Rbt.Parameter_File>
/export/apps/rDock/src/rDock_2013.1_src/data/scripts/dock_solv.prm

>  <Rbt.Receptor>
prm/pocket_docking_8.prm

>  <SCORE>
-36.6401

>  <SCORE.INTER>
-36.6401

>  <SCORE.INTER.CONST>
1

>  <SCORE.INTER.POLAR>
-4.36416

>  <SCORE.INTER.ROT>
0

>  <SCORE.INTER.SOLV>
10.72

>  <SCORE.INTER.VDW>
-17.0528

>  <SCORE.INTER.norm>
-3.66401

>  <SCORE.INTRA>
0

>  <SCORE.INTRA.DIHEDRAL>
0

>  <SCORE.INTRA.DIHEDRAL.0>
0

>  <SCORE.INTRA.POLAR>
0

>  <SCORE.INTRA.POLAR.0>
0

>  <SCORE.INTRA.REPUL>
0

>  <SCORE.INTRA.REPUL.0>
0

>  <SCORE.INTRA.SOLV>
0

>  <SCORE.INTRA.SOLV.lig_0>
-14.8845

>  <SCORE.INTRA.VDW>
0

>  <SCORE.INTRA.VDW.0>
0

>  <SCORE.INTRA.norm>
0

>  <SCORE.RESTR>
0

>  <SCORE.RESTR.CAVITY>
0

>  <SCORE.RESTR.norm>
0

>  <SCORE.SYSTEM>
0

>  <SCORE.SYSTEM.CONST>
0

>  <SCORE.SYSTEM.DIHEDRAL>
0

>  <SCORE.SYSTEM.SOLV>
0

>  <SCORE.SYSTEM.norm>
0

>  <SCORE.heavy>
10

>  <SCORE.norm>
-3.66401

>  <RMSD>
2.530

$$$$
lig.pdb
 OpenBabel11021811523D
libRbt.so/2013.1/901 2013/11/27
 10 11  0  0  0  0  0  0  0  0999 V2000
  -30.7273   17.9386  -17.7352 N   0  0  0  0  0  0  0  0  0  0  0  0
  -31.9660   18.4581  -17.4771 C   0  0  0  0  0  0  0  0  0  0  0  0
  -32.3384   18.3434  -16.2247 N   0  0  0  0  0  0  0  0  0  0  0  0
  -31.2711   17.7031  -15.6179 C   0  0  0  0  0  0  0  0  0  0  0  0
  -31.0412   17.2930  -14.2917 C   0  0  0  0  0  0  0  0  0  0  0  0
  -31.9243   17.4751  -13.3044 N   0  0  0  0  0  0  0  0  0  0  0  0
  -29.8673   16.6823  -14.0191 N   0  0  0  0  0  0  0  0  0  0  0  0
  -28.9898   16.5003  -15.0120 C   0  0  0  0  0  0  0  0  0  0  0  0
  -29.0934   16.8432  -16.2954 N   0  0  0  0  0  0  0  0  0  0  0  0
  -30.2687   17.4464  -16.5344 C   0  0  0  0  0  0  0  0  0  0  0  0
  1 10  1  0  0  0  0
  2  3  2  0  0  0  0
  2  1  1  0  0  0  0
  3  4  1  0  0  0  0
  4 10  2  0  0  0  0
  4  5  1  0  0  0  0
  5  7  2  0  0  0  0
  6  5  1  0  0  0  0
  7  8  1  0  0  0  0
  9  8  2  0  0  0  0
 10  9  1  0  0  0  0
M  END
>  <CHROM.1>
-30.76969291,17.46861026,-15.60997899,-1.83856902,-0.42693909,1.79724198

>  <Name>
lig.pdb

>  <RI>
0

>  <Rbt.Current_Directory>
/home/itssahil/PROJECTS/Mol_Feturizer/New_Systems/rnas/5uza

>  <Rbt.Executable>
rbdock ($Id: //depot/dev/client3/rdock/2013.1/src/exe/rbdock.cxx#4 $)

>  <Rbt.Library>
libRbt.so (2013.1, Build901 2013/11/27)

>  <Rbt.Parameter_File>
/export/apps/rDock/src/rDock_2013.1_src/data/scripts/dock_solv.prm

>  <Rbt.Receptor>
prm/blind_docking_60.prm

>  <SCORE>
-36.6434

>  <SCORE.INTER>
-36.6434

>  <SCORE.INTER.CONST>
1

>  <SCORE.INTER.POLAR>
-4.34979

>  <SCORE.INTER.ROT>
0

>  <SCORE.INTER.SOLV>
10.7146

>  <SCORE.INTER.VDW>
-17.1012

>  <SCORE.INTER.norm>
-3.66434

>  <SCORE.INTRA>
0

>  <SCORE.INTRA.DIHEDRAL>
0

>  <SCORE.INTRA.DIHEDRAL.0>
0

>  <SCORE.INTRA.POLAR>
0

>  <SCORE.INTRA.POLAR.0>
0

>  <SCORE.INTRA.REPUL>
0

>  <SCORE.INTRA.REPUL.0>
0

>  <SCORE.INTRA.SOLV>
0

>  <SCORE.INTRA.SOLV.lig_0>
-14.8845

>  <SCORE.INTRA.VDW>
0

>  <SCORE.INTRA.VDW.0>
0

>  <SCORE.INTRA.norm>
0

>  <SCORE.RESTR>
0

>  <SCORE.RESTR.CAVITY>
0

>  <SCORE.RESTR.norm>
0

>  <SCORE.SYSTEM>
0

>  <SCORE.SYSTEM.CONST>
0

>  <SCORE.SYSTEM.DIHEDRAL>
0

>  <SCORE.SYSTEM.SOLV>
0

>  <SCORE.SYSTEM.norm>
0

>  <SCORE.heavy>
10

>  <SCORE.norm>
-3.66434

>  <RMSD>
2.531

$$$$
lig.pdb
 OpenBabel11021811523D
libRbt.so/2013.1/901 2013/11/27
 10 11  0  0  0  0  0  0  0  0999 V2000
  -30.7259   17.9388  -17.7293 N   0  0  0  0  0  0  0  0  0  0  0  0
  -31.9621   18.4639  -17.4705 C   0  0  0  0  0  0  0  0  0  0  0  0
  -32.3370   18.3452  -16.2192 N   0  0  0  0  0  0  0  0  0  0  0  0
  -31.2742   17.6959  -15.6140 C   0  0  0  0  0  0  0  0  0  0  0  0
  -31.0486   17.2781  -14.2895 C   0  0  0  0  0  0  0  0  0  0  0  0
  -31.9321   17.4604  -13.3026 N   0  0  0  0  0  0  0  0  0  0  0  0
  -29.8785   16.6595  -14.0181 N   0  0  0  0  0  0  0  0  0  0  0  0
  -29.0005   16.4775  -15.0106 C   0  0  0  0  0  0  0  0  0  0  0  0
  -29.1003   16.8272  -16.2925 N   0  0  0  0  0  0  0  0  0  0  0  0
  -30.2718   17.4382  -16.5303 C   0  0  0  0  0  0  0  0  0  0  0  0
  1 10  1  0  0  0  0
  2  3  2  0  0  0  0
  2  1  1  0  0  0  0
  3  4  1  0  0  0  0
  4 10  2  0  0  0  0
  4  5  1  0  0  0  0
  5  7  2  0  0  0  0
  6  5  1  0  0  0  0
  7  8  1  0  0  0  0
  9  8  2  0  0  0  0
 10  9  1  0  0  0  0
M  END
>  <CHROM.1>
-30.77407890,17.45865627,-15.60648805,-1.83557006,-0.43205536,1.80338109

>  <Name>
lig.pdb

>  <RI>
0

>  <Rbt.Current_Directory>
/home/itssahil/PROJECTS/Mol_Feturizer/New_Systems/rnas/5uza

>  <Rbt.Executable>
rbdock ($Id: //depot/dev/client3/rdock/2013.1/src/exe/rbdock.cxx#4 $)

>  <Rbt.Library>
libRbt.so (2013.1, Build901 2013/11/27)

>  <Rbt.Parameter_File>
/export/apps/rDock/src/rDock_2013.1_src/data/scripts/dock_solv.prm

>  <Rbt.Receptor>
prm/pocket_docking_3.prm

>  <SCORE>
-36.6334

>  <SCORE.INTER>
-36.6334

>  <SCORE.INTER.CONST>
1

>  <SCORE.INTER.POLAR>
-4.36883

>  <SCORE.INTER.ROT>
0

>  <SCORE.INTER.SOLV>
10.7201

>  <SCORE.INTER.VDW>
-17.0328

>  <SCORE.INTER.norm>
-3.66334

>  <SCORE.INTRA>
0

>  <SCORE.INTRA.DIHEDRAL>
0

>  <SCORE.INTRA.DIHEDRAL.0>
0

>  <SCORE.INTRA.POLAR>
0

>  <SCORE.INTRA.POLAR.0>
0

>  <SCORE.INTRA.REPUL>
0

>  <SCORE.INTRA.REPUL.0>
0

>  <SCORE.INTRA.SOLV>
0

>  <SCORE.INTRA.SOLV.lig_0>
-14.8845

>  <SCORE.INTRA.VDW>
0

>  <SCORE.INTRA.VDW.0>
0

>  <SCORE.INTRA.norm>
0

>  <SCORE.RESTR>
0

>  <SCORE.RESTR.CAVITY>
0

>  <SCORE.RESTR.norm>
0

>  <SCORE.SYSTEM>
0

>  <SCORE.SYSTEM.CONST>
0

>  <SCORE.SYSTEM.DIHEDRAL>
0

>  <SCORE.SYSTEM.SOLV>
0

>  <SCORE.SYSTEM.norm>
0

>  <SCORE.heavy>
10

>  <SCORE.norm>
-3.66334

>  <RMSD>
2.531

$$$$
lig.pdb
 OpenBabel11021811523D
libRbt.so/2013.1/901 2013/11/27
 10 11  0  0  0  0  0  0  0  0999 V2000
  -30.7329   17.9488  -17.7350 N   0  0  0  0  0  0  0  0  0  0  0  0
  -31.9686   18.4744  -17.4745 C   0  0  0  0  0  0  0  0  0  0  0  0
  -32.3425   18.3541  -16.2231 N   0  0  0  0  0  0  0  0  0  0  0  0
  -31.2796   17.7035  -15.6196 C   0  0  0  0  0  0  0  0  0  0  0  0
  -31.0532   17.2837  -14.2959 C   0  0  0  0  0  0  0  0  0  0  0  0
  -31.9357   17.4651  -13.3079 N   0  0  0  0  0  0  0  0  0  0  0  0
  -29.8833   16.6640  -14.0263 N   0  0  0  0  0  0  0  0  0  0  0  0
  -29.0062   16.4828  -15.0198 C   0  0  0  0  0  0  0  0  0  0  0  0
  -29.1067   16.8344  -16.3011 N   0  0  0  0  0  0  0  0  0  0  0  0
  -30.2781   17.4463  -16.5371 C   0  0  0  0  0  0  0  0  0  0  0  0
  1 10  1  0  0  0  0
  2  3  2  0  0  0  0
  2  1  1  0  0  0  0
  3  4  1  0  0  0  0
  4 10  2  0  0  0  0
  4  5  1  0  0  0  0
  5  7  2  0  0  0  0
  6  5  1  0  0  0  0
  7  8  1  0  0  0  0
  9  8  2  0  0  0  0
 10  9  1  0  0  0  0
M  END
>  <CHROM.1>
-30.77964136,17.46586316,-15.61281350,-1.83630818,-0.43280807,1.80443376

>  <Name>
lig.pdb

>  <RI>
2.12818e+07

>  <Rbt.Current_Directory>
/home/itssahil/PROJECTS/Mol_Feturizer/New_Systems/rnas/5uza

>  <Rbt.Executable>
rbdock ($Id: //depot/dev/client3/rdock/2013.1/src/exe/rbdock.cxx#4 $)

>  <Rbt.Library>
libRbt.so (2013.1, Build901 2013/11/27)

>  <Rbt.Parameter_File>
/export/apps/rDock/src/rDock_2013.1_src/data/scripts/dock_solv.prm

>  <Rbt.Receptor>
prm/pocket_docking_7.prm

>  <SCORE>
-36.6677

>  <SCORE.INTER>
-36.6677

>  <SCORE.INTER.CONST>
1

>  <SCORE.INTER.POLAR>
-4.35585

>  <SCORE.INTER.ROT>
0

>  <SCORE.INTER.SOLV>
10.7195

>  <SCORE.INTER.VDW>
-17.0988

>  <SCORE.INTER.norm>
-3.66677

>  <SCORE.INTRA>
0

>  <SCORE.INTRA.DIHEDRAL>
0

>  <SCORE.INTRA.DIHEDRAL.0>
0

>  <SCORE.INTRA.POLAR>
0

>  <SCORE.INTRA.POLAR.0>
0

>  <SCORE.INTRA.REPUL>
0

>  <SCORE.INTRA.REPUL.0>
0

>  <SCORE.INTRA.SOLV>
0

>  <SCORE.INTRA.SOLV.lig_0>
-14.8845

>  <SCORE.INTRA.VDW>
0

>  <SCORE.INTRA.VDW.0>
0

>  <SCORE.INTRA.norm>
0

>  <SCORE.RESTR>
0

>  <SCORE.RESTR.CAVITY>
0

>  <SCORE.RESTR.norm>
0

>  <SCORE.SYSTEM>
0

>  <SCORE.SYSTEM.CONST>
0

>  <SCORE.SYSTEM.DIHEDRAL>
0

>  <SCORE.SYSTEM.SOLV>
0

>  <SCORE.SYSTEM.norm>
0

>  <SCORE.heavy>
10

>  <SCORE.norm>
-3.66677

>  <RMSD>
2.531

$$$$
lig.pdb
 OpenBabel11021811523D
libRbt.so/2013.1/901 2013/11/27
 10 11  0  0  0  0  0  0  0  0999 V2000
  -30.7318   17.9471  -17.7320 N   0  0  0  0  0  0  0  0  0  0  0  0
  -31.9682   18.4708  -17.4712 C   0  0  0  0  0  0  0  0  0  0  0  0
  -32.3422   18.3491  -16.2199 N   0  0  0  0  0  0  0  0  0  0  0  0
  -31.2786   17.6993  -15.6169 C   0  0  0  0  0  0  0  0  0  0  0  0
  -31.0518   17.2787  -14.2934 C   0  0  0  0  0  0  0  0  0  0  0  0
  -31.9347   17.4581  -13.3055 N   0  0  0  0  0  0  0  0  0  0  0  0
  -29.8811   16.6603  -14.0241 N   0  0  0  0  0  0  0  0  0  0  0  0
  -29.0036   16.4811  -15.0176 C   0  0  0  0  0  0  0  0  0  0  0  0
  -29.1044   16.8336  -16.2987 N   0  0  0  0  0  0  0  0  0  0  0  0
  -30.2766   17.4442  -16.5344 C   0  0  0  0  0  0  0  0  0  0  0  0
  1 10  1  0  0  0  0
  2  3  2  0  0  0  0
  2  1  1  0  0  0  0
  3  4  1  0  0  0  0
  4 10  2  0  0  0  0
  4  5  1  0  0  0  0
  5  7  2  0  0  0  0
  6  5  1  0  0  0  0
  7  8  1  0  0  0  0
  9  8  2  0  0  0  0
 10  9  1  0  0  0  0
M  END
>  <CHROM.1>
-30.77827493,17.46230542,-15.61017924,-1.83645288,-0.43149887,1.80521527

>  <Name>
lig.pdb

>  <RI>
2.12818e+07

>  <Rbt.Current_Directory>
/home/itssahil/PROJECTS/Mol_Feturizer/New_Systems/rnas/5uza

>  <Rbt.Executable>
rbdock ($Id: //depot/dev/client3/rdock/2013.1/src/exe/rbdock.cxx#4 $)

>  <Rbt.Library>
libRbt.so (2013.1, Build901 2013/11/27)

>  <Rbt.Parameter_File>
/export/apps/rDock/src/rDock_2013.1_src/data/scripts/dock_solv.prm

>  <Rbt.Receptor>
prm/pocket_docking_7.prm

>  <SCORE>
-36.647

>  <SCORE.INTER>
-36.647

>  <SCORE.INTER.CONST>
1

>  <SCORE.INTER.POLAR>
-4.36898

>  <SCORE.INTER.ROT>
0

>  <SCORE.INTER.SOLV>
10.7222

>  <SCORE.INTER.VDW>
-17.0422

>  <SCORE.INTER.norm>
-3.6647

>  <SCORE.INTRA>
0

>  <SCORE.INTRA.DIHEDRAL>
0

>  <SCORE.INTRA.DIHEDRAL.0>
0

>  <SCORE.INTRA.POLAR>
0

>  <SCORE.INTRA.POLAR.0>
0

>  <SCORE.INTRA.REPUL>
0

>  <SCORE.INTRA.REPUL.0>
0

>  <SCORE.INTRA.SOLV>
0

>  <SCORE.INTRA.SOLV.lig_0>
-14.8845

>  <SCORE.INTRA.VDW>
0

>  <SCORE.INTRA.VDW.0>
0

>  <SCORE.INTRA.norm>
0

>  <SCORE.RESTR>
0

>  <SCORE.RESTR.CAVITY>
0

>  <SCORE.RESTR.norm>
0

>  <SCORE.SYSTEM>
0

>  <SCORE.SYSTEM.CONST>
0

>  <SCORE.SYSTEM.DIHEDRAL>
0

>  <SCORE.SYSTEM.SOLV>
0

>  <SCORE.SYSTEM.norm>
0

>  <SCORE.heavy>
10

>  <SCORE.norm>
-3.6647

>  <RMSD>
2.531

$$$$
lig.pdb
 OpenBabel11021811523D
libRbt.so/2013.1/901 2013/11/27
 10 11  0  0  0  0  0  0  0  0999 V2000
  -30.7306   17.9635  -17.7267 N   0  0  0  0  0  0  0  0  0  0  0  0
  -31.9676   18.4853  -17.4649 C   0  0  0  0  0  0  0  0  0  0  0  0
  -32.3426   18.3582  -16.2145 N   0  0  0  0  0  0  0  0  0  0  0  0
  -31.2790   17.7067  -15.6131 C   0  0  0  0  0  0  0  0  0  0  0  0
  -31.0530   17.2810  -14.2912 C   0  0  0  0  0  0  0  0  0  0  0  0
  -31.9370   17.4557  -13.3033 N   0  0  0  0  0  0  0  0  0  0  0  0
  -29.8821   16.6624  -14.0234 N   0  0  0  0  0  0  0  0  0  0  0  0
  -29.0037   16.4879  -15.0168 C   0  0  0  0  0  0  0  0  0  0  0  0
  -29.1036   16.8455  -16.2965 N   0  0  0  0  0  0  0  0  0  0  0  0
  -30.2760   17.4561  -16.5308 C   0  0  0  0  0  0  0  0  0  0  0  0
  1 10  1  0  0  0  0
  2  3  2  0  0  0  0
  2  1  1  0  0  0  0
  3  4  1  0  0  0  0
  4 10  2  0  0  0  0
  4  5  1  0  0  0  0
  5  7  2  0  0  0  0
  6  5  1  0  0  0  0
  7  8  1  0  0  0  0
  9  8  2  0  0  0  0
 10  9  1  0  0  0  0
M  END
>  <CHROM.1>
-30.77852262,17.47011398,-15.60695145,-1.83571669,-0.43056302,1.80956863

>  <Name>
lig.pdb

>  <RI>
2.12818e+07

>  <Rbt.Current_Directory>
/home/itssahil/PROJECTS/Mol_Feturizer/New_Systems/rnas/5uza

>  <Rbt.Executable>
rbdock ($Id: //depot/dev/client3/rdock/2013.1/src/exe/rbdock.cxx#4 $)

>  <Rbt.Library>
libRbt.so (2013.1, Build901 2013/11/27)

>  <Rbt.Parameter_File>
/export/apps/rDock/src/rDock_2013.1_src/data/scripts/dock_solv.prm

>  <Rbt.Receptor>
prm/pocket_docking_7.prm

>  <SCORE>
-36.64

>  <SCORE.INTER>
-36.64

>  <SCORE.INTER.CONST>
1

>  <SCORE.INTER.POLAR>
-4.37868

>  <SCORE.INTER.ROT>
0

>  <SCORE.INTER.SOLV>
10.7316

>  <SCORE.INTER.VDW>
-17.0083

>  <SCORE.INTER.norm>
-3.664

>  <SCORE.INTRA>
0

>  <SCORE.INTRA.DIHEDRAL>
0

>  <SCORE.INTRA.DIHEDRAL.0>
0

>  <SCORE.INTRA.POLAR>
0

>  <SCORE.INTRA.POLAR.0>
0

>  <SCORE.INTRA.REPUL>
0

>  <SCORE.INTRA.REPUL.0>
0

>  <SCORE.INTRA.SOLV>
0

>  <SCORE.INTRA.SOLV.lig_0>
-14.8845

>  <SCORE.INTRA.VDW>
0

>  <SCORE.INTRA.VDW.0>
0

>  <SCORE.INTRA.norm>
0

>  <SCORE.RESTR>
0

>  <SCORE.RESTR.CAVITY>
0

>  <SCORE.RESTR.norm>
0

>  <SCORE.SYSTEM>
0

>  <SCORE.SYSTEM.CONST>
0

>  <SCORE.SYSTEM.DIHEDRAL>
0

>  <SCORE.SYSTEM.SOLV>
0

>  <SCORE.SYSTEM.norm>
0

>  <SCORE.heavy>
10

>  <SCORE.norm>
-3.664

>  <RMSD>
2.531

$$$$
lig.pdb
 OpenBabel11021811523D
libRbt.so/2013.1/901 2013/11/27
 10 11  0  0  0  0  0  0  0  0999 V2000
  -30.7329   17.9582  -17.7281 N   0  0  0  0  0  0  0  0  0  0  0  0
  -31.9695   18.4815  -17.4676 C   0  0  0  0  0  0  0  0  0  0  0  0
  -32.3447   18.3576  -16.2168 N   0  0  0  0  0  0  0  0  0  0  0  0
  -31.2816   17.7067  -15.6139 C   0  0  0  0  0  0  0  0  0  0  0  0
  -31.0560   17.2839  -14.2910 C   0  0  0  0  0  0  0  0  0  0  0  0
  -31.9398   17.4617  -13.3036 N   0  0  0  0  0  0  0  0  0  0  0  0
  -29.8855   16.6651  -14.0217 N   0  0  0  0  0  0  0  0  0  0  0  0
  -29.0072   16.4875  -15.0147 C   0  0  0  0  0  0  0  0  0  0  0  0
  -29.1068   16.8422  -16.2953 N   0  0  0  0  0  0  0  0  0  0  0  0
  -30.2788   17.4532  -16.5309 C   0  0  0  0  0  0  0  0  0  0  0  0
  1 10  1  0  0  0  0
  2  3  2  0  0  0  0
  2  1  1  0  0  0  0
  3  4  1  0  0  0  0
  4 10  2  0  0  0  0
  4  5  1  0  0  0  0
  5  7  2  0  0  0  0
  6  5  1  0  0  0  0
  7  8  1  0  0  0  0
  9  8  2  0  0  0  0
 10  9  1  0  0  0  0
M  END
>  <CHROM.1>
-30.78127493,17.46976733,-15.60718865,-1.83549571,-0.43130258,1.80731637

>  <Name>
lig.pdb

>  <RI>
0

>  <Rbt.Current_Directory>
/home/itssahil/PROJECTS/Mol_Feturizer/New_Systems/rnas/5uza

>  <Rbt.Executable>
rbdock ($Id: //depot/dev/client3/rdock/2013.1/src/exe/rbdock.cxx#4 $)

>  <Rbt.Library>
libRbt.so (2013.1, Build901 2013/11/27)

>  <Rbt.Parameter_File>
/export/apps/rDock/src/rDock_2013.1_src/data/scripts/dock_solv.prm

>  <Rbt.Receptor>
prm/blind_docking_80.prm

>  <SCORE>
-36.6314

>  <SCORE.INTER>
-36.6314

>  <SCORE.INTER.CONST>
1

>  <SCORE.INTER.POLAR>
-4.37089

>  <SCORE.INTER.ROT>
0

>  <SCORE.INTER.SOLV>
10.7259

>  <SCORE.INTER.VDW>
-17.0266

>  <SCORE.INTER.norm>
-3.66314

>  <SCORE.INTRA>
0

>  <SCORE.INTRA.DIHEDRAL>
0

>  <SCORE.INTRA.DIHEDRAL.0>
0

>  <SCORE.INTRA.POLAR>
0

>  <SCORE.INTRA.POLAR.0>
0

>  <SCORE.INTRA.REPUL>
0

>  <SCORE.INTRA.REPUL.0>
0

>  <SCORE.INTRA.SOLV>
0

>  <SCORE.INTRA.SOLV.lig_0>
-14.8845

>  <SCORE.INTRA.VDW>
0

>  <SCORE.INTRA.VDW.0>
0

>  <SCORE.INTRA.norm>
0

>  <SCORE.RESTR>
0

>  <SCORE.RESTR.CAVITY>
0

>  <SCORE.RESTR.norm>
0

>  <SCORE.SYSTEM>
0

>  <SCORE.SYSTEM.CONST>
0

>  <SCORE.SYSTEM.DIHEDRAL>
0

>  <SCORE.SYSTEM.SOLV>
0

>  <SCORE.SYSTEM.norm>
0

>  <SCORE.heavy>
10

>  <SCORE.norm>
-3.66314

>  <RMSD>
2.532

$$$$
lig.pdb
 OpenBabel11021811523D
libRbt.so/2013.1/901 2013/11/27
 10 11  0  0  0  0  0  0  0  0999 V2000
  -30.7288   17.9732  -17.7244 N   0  0  0  0  0  0  0  0  0  0  0  0
  -31.9658   18.4952  -17.4630 C   0  0  0  0  0  0  0  0  0  0  0  0
  -32.3422   18.3663  -16.2132 N   0  0  0  0  0  0  0  0  0  0  0  0
  -31.2796   17.7132  -15.6117 C   0  0  0  0  0  0  0  0  0  0  0  0
  -31.0553   17.2851  -14.2903 C   0  0  0  0  0  0  0  0  0  0  0  0
  -31.9402   17.4588  -13.3031 N   0  0  0  0  0  0  0  0  0  0  0  0
  -29.8851   16.6653  -14.0223 N   0  0  0  0  0  0  0  0  0  0  0  0
  -29.0057   16.4919  -15.0151 C   0  0  0  0  0  0  0  0  0  0  0  0
  -29.1041   16.8517  -16.2943 N   0  0  0  0  0  0  0  0  0  0  0  0
  -30.2758   17.4635  -16.5287 C   0  0  0  0  0  0  0  0  0  0  0  0
  1 10  1  0  0  0  0
  2  3  2  0  0  0  0
  2  1  1  0  0  0  0
  3  4  1  0  0  0  0
  4 10  2  0  0  0  0
  4  5  1  0  0  0  0
  5  7  2  0  0  0  0
  6  5  1  0  0  0  0
  7  8  1  0  0  0  0
  9  8  2  0  0  0  0
 10  9  1  0  0  0  0
M  END
>  <CHROM.1>
-30.77929353,17.47626406,-15.60544612,-1.83442220,-0.43093115,1.81176853

>  <Name>
lig.pdb

>  <RI>
9.24451e+06

>  <Rbt.Current_Directory>
/home/itssahil/PROJECTS/Mol_Feturizer/New_Systems/rnas/5uza

>  <Rbt.Executable>
rbdock ($Id: //depot/dev/client3/rdock/2013.1/src/exe/rbdock.cxx#4 $)

>  <Rbt.Library>
libRbt.so (2013.1, Build901 2013/11/27)

>  <Rbt.Parameter_File>
/export/apps/rDock/src/rDock_2013.1_src/data/scripts/dock_solv.prm

>  <Rbt.Receptor>
prm/pocket_docking_4.prm

>  <SCORE>
-36.6315

>  <SCORE.INTER>
-36.6315

>  <SCORE.INTER.CONST>
1

>  <SCORE.INTER.POLAR>
-4.3769

>  <SCORE.INTER.ROT>
0

>  <SCORE.INTER.SOLV>
10.7371

>  <SCORE.INTER.VDW>
-17.0103

>  <SCORE.INTER.norm>
-3.66315

>  <SCORE.INTRA>
0

>  <SCORE.INTRA.DIHEDRAL>
0

>  <SCORE.INTRA.DIHEDRAL.0>
0

>  <SCORE.INTRA.POLAR>
0

>  <SCORE.INTRA.POLAR.0>
0

>  <SCORE.INTRA.REPUL>
0

>  <SCORE.INTRA.REPUL.0>
0

>  <SCORE.INTRA.SOLV>
0

>  <SCORE.INTRA.SOLV.lig_0>
-14.8845

>  <SCORE.INTRA.VDW>
0

>  <SCORE.INTRA.VDW.0>
0

>  <SCORE.INTRA.norm>
0

>  <SCORE.RESTR>
0

>  <SCORE.RESTR.CAVITY>
0

>  <SCORE.RESTR.norm>
0

>  <SCORE.SYSTEM>
0

>  <SCORE.SYSTEM.CONST>
0

>  <SCORE.SYSTEM.DIHEDRAL>
0

>  <SCORE.SYSTEM.SOLV>
0

>  <SCORE.SYSTEM.norm>
0

>  <SCORE.heavy>
10

>  <SCORE.norm>
-3.66315

>  <RMSD>
2.532

$$$$
lig.pdb
 OpenBabel11021811523D
libRbt.so/2013.1/901 2013/11/27
 10 11  0  0  0  0  0  0  0  0999 V2000
  -30.7313   17.9421  -17.7334 N   0  0  0  0  0  0  0  0  0  0  0  0
  -31.9669   18.4687  -17.4748 C   0  0  0  0  0  0  0  0  0  0  0  0
  -32.3418   18.3512  -16.2234 N   0  0  0  0  0  0  0  0  0  0  0  0
  -31.2795   17.7014  -15.6179 C   0  0  0  0  0  0  0  0  0  0  0  0
  -31.0541   17.2843  -14.2931 C   0  0  0  0  0  0  0  0  0  0  0  0
  -31.9372   17.4681  -13.3061 N   0  0  0  0  0  0  0  0  0  0  0  0
  -29.8846   16.6647  -14.0214 N   0  0  0  0  0  0  0  0  0  0  0  0
  -29.0070   16.4811  -15.0139 C   0  0  0  0  0  0  0  0  0  0  0  0
  -29.1065   16.8300  -16.2961 N   0  0  0  0  0  0  0  0  0  0  0  0
  -30.2775   17.4419  -16.5341 C   0  0  0  0  0  0  0  0  0  0  0  0
  1 10  1  0  0  0  0
  2  3  2  0  0  0  0
  2  1  1  0  0  0  0
  3  4  1  0  0  0  0
  4 10  2  0  0  0  0
  4  5  1  0  0  0  0
  5  7  2  0  0  0  0
  6  5  1  0  0  0  0
  7  8  1  0  0  0  0
  9  8  2  0  0  0  0
 10  9  1  0  0  0  0
M  END
>  <CHROM.1>
-30.77962922,17.46358710,-15.61022725,-1.83549300,-0.43303928,1.80268002

>  <Name>
lig.pdb

>  <RI>
9.24451e+06

>  <Rbt.Current_Directory>
/home/itssahil/PROJECTS/Mol_Feturizer/New_Systems/rnas/5uza

>  <Rbt.Executable>
rbdock ($Id: //depot/dev/client3/rdock/2013.1/src/exe/rbdock.cxx#4 $)

>  <Rbt.Library>
libRbt.so (2013.1, Build901 2013/11/27)

>  <Rbt.Parameter_File>
/export/apps/rDock/src/rDock_2013.1_src/data/scripts/dock_solv.prm

>  <Rbt.Receptor>
prm/pocket_docking_4.prm

>  <SCORE>
-36.6609

>  <SCORE.INTER>
-36.6609

>  <SCORE.INTER.CONST>
1

>  <SCORE.INTER.POLAR>
-4.35505

>  <SCORE.INTER.ROT>
0

>  <SCORE.INTER.SOLV>
10.7165

>  <SCORE.INTER.VDW>
-17.0959

>  <SCORE.INTER.norm>
-3.66609

>  <SCORE.INTRA>
0

>  <SCORE.INTRA.DIHEDRAL>
0

>  <SCORE.INTRA.DIHEDRAL.0>
0

>  <SCORE.INTRA.POLAR>
0

>  <SCORE.INTRA.POLAR.0>
0

>  <SCORE.INTRA.REPUL>
0

>  <SCORE.INTRA.REPUL.0>
0

>  <SCORE.INTRA.SOLV>
0

>  <SCORE.INTRA.SOLV.lig_0>
-14.8845

>  <SCORE.INTRA.VDW>
0

>  <SCORE.INTRA.VDW.0>
0

>  <SCORE.INTRA.norm>
0

>  <SCORE.RESTR>
0

>  <SCORE.RESTR.CAVITY>
0

>  <SCORE.RESTR.norm>
0

>  <SCORE.SYSTEM>
0

>  <SCORE.SYSTEM.CONST>
0

>  <SCORE.SYSTEM.DIHEDRAL>
0

>  <SCORE.SYSTEM.SOLV>
0

>  <SCORE.SYSTEM.norm>
0

>  <SCORE.heavy>
10

>  <SCORE.norm>
-3.66609

>  <RMSD>
2.532

$$$$
lig.pdb
 OpenBabel11021811523D
libRbt.so/2013.1/901 2013/11/27
 10 11  0  0  0  0  0  0  0  0999 V2000
  -30.7310   17.9428  -17.7330 N   0  0  0  0  0  0  0  0  0  0  0  0
  -31.9668   18.4691  -17.4745 C   0  0  0  0  0  0  0  0  0  0  0  0
  -32.3418   18.3514  -16.2231 N   0  0  0  0  0  0  0  0  0  0  0  0
  -31.2796   17.7016  -15.6176 C   0  0  0  0  0  0  0  0  0  0  0  0
  -31.0543   17.2843  -14.2928 C   0  0  0  0  0  0  0  0  0  0  0  0
  -31.9376   17.4678  -13.3060 N   0  0  0  0  0  0  0  0  0  0  0  0
  -29.8847   16.6649  -14.0211 N   0  0  0  0  0  0  0  0  0  0  0  0
  -29.0069   16.4817  -15.0135 C   0  0  0  0  0  0  0  0  0  0  0  0
  -29.1063   16.8308  -16.2956 N   0  0  0  0  0  0  0  0  0  0  0  0
  -30.2774   17.4425  -16.5337 C   0  0  0  0  0  0  0  0  0  0  0  0
  1 10  1  0  0  0  0
  2  3  2  0  0  0  0
  2  1  1  0  0  0  0
  3  4  1  0  0  0  0
  4 10  2  0  0  0  0
  4  5  1  0  0  0  0
  5  7  2  0  0  0  0
  6  5  1  0  0  0  0
  7  8  1  0  0  0  0
  9  8  2  0  0  0  0
 10  9  1  0  0  0  0
M  END
>  <CHROM.1>
-30.77962156,17.46391929,-15.60990091,-1.83537477,-0.43281465,1.80292139

>  <Name>
lig.pdb

>  <RI>
2.12818e+07

>  <Rbt.Current_Directory>
/home/itssahil/PROJECTS/Mol_Feturizer/New_Systems/rnas/5uza

>  <Rbt.Executable>
rbdock ($Id: //depot/dev/client3/rdock/2013.1/src/exe/rbdock.cxx#4 $)

>  <Rbt.Library>
libRbt.so (2013.1, Build901 2013/11/27)

>  <Rbt.Parameter_File>
/export/apps/rDock/src/rDock_2013.1_src/data/scripts/dock_solv.prm

>  <Rbt.Receptor>
prm/pocket_docking_7.prm

>  <SCORE>
-36.6608

>  <SCORE.INTER>
-36.6608

>  <SCORE.INTER.CONST>
1

>  <SCORE.INTER.POLAR>
-4.35553

>  <SCORE.INTER.ROT>
0

>  <SCORE.INTER.SOLV>
10.7172

>  <SCORE.INTER.VDW>
-17.0945

>  <SCORE.INTER.norm>
-3.66608

>  <SCORE.INTRA>
0

>  <SCORE.INTRA.DIHEDRAL>
0

>  <SCORE.INTRA.DIHEDRAL.0>
0

>  <SCORE.INTRA.POLAR>
0

>  <SCORE.INTRA.POLAR.0>
0

>  <SCORE.INTRA.REPUL>
0

>  <SCORE.INTRA.REPUL.0>
0

>  <SCORE.INTRA.SOLV>
0

>  <SCORE.INTRA.SOLV.lig_0>
-14.8845

>  <SCORE.INTRA.VDW>
0

>  <SCORE.INTRA.VDW.0>
0

>  <SCORE.INTRA.norm>
0

>  <SCORE.RESTR>
0

>  <SCORE.RESTR.CAVITY>
0

>  <SCORE.RESTR.norm>
0

>  <SCORE.SYSTEM>
0

>  <SCORE.SYSTEM.CONST>
0

>  <SCORE.SYSTEM.DIHEDRAL>
0

>  <SCORE.SYSTEM.SOLV>
0

>  <SCORE.SYSTEM.norm>
0

>  <SCORE.heavy>
10

>  <SCORE.norm>
-3.66608

>  <RMSD>
2.532

$$$$
lig.pdb
 OpenBabel11021811523D
libRbt.so/2013.1/901 2013/11/27
 10 11  0  0  0  0  0  0  0  0999 V2000
  -30.7664   17.9509  -17.7353 N   0  0  0  0  0  0  0  0  0  0  0  0
  -32.0011   18.4752  -17.4675 C   0  0  0  0  0  0  0  0  0  0  0  0
  -32.3697   18.3501  -16.2150 N   0  0  0  0  0  0  0  0  0  0  0  0
  -31.3041   17.6974  -15.6185 C   0  0  0  0  0  0  0  0  0  0  0  0
  -31.0719   17.2727  -14.2974 C   0  0  0  0  0  0  0  0  0  0  0  0
  -31.9502   17.4503  -13.3050 N   0  0  0  0  0  0  0  0  0  0  0  0
  -29.9007   16.6523  -14.0351 N   0  0  0  0  0  0  0  0  0  0  0  0
  -29.0279   16.4750  -15.0330 C   0  0  0  0  0  0  0  0  0  0  0  0
  -29.1340   16.8314  -16.3126 N   0  0  0  0  0  0  0  0  0  0  0  0
  -30.3065   17.4439  -16.5412 C   0  0  0  0  0  0  0  0  0  0  0  0
  1 10  1  0  0  0  0
  2  3  2  0  0  0  0
  2  1  1  0  0  0  0
  3  4  1  0  0  0  0
  4 10  2  0  0  0  0
  4  5  1  0  0  0  0
  5  7  2  0  0  0  0
  6  5  1  0  0  0  0
  7  8  1  0  0  0  0
  9  8  2  0  0  0  0
 10  9  1  0  0  0  0
M  END
>  <CHROM.1>
-30.80402526,17.45989494,-15.61477233,-1.84093685,-0.43361091,1.80625521

>  <Name>
lig.pdb

>  <RI>
1.17775e+07

>  <Rbt.Current_Directory>
/home/itssahil/PROJECTS/Mol_Feturizer/New_Systems/rnas/5uza

>  <Rbt.Executable>
rbdock ($Id: //depot/dev/client3/rdock/2013.1/src/exe/rbdock.cxx#4 $)

>  <Rbt.Library>
libRbt.so (2013.1, Build901 2013/11/27)

>  <Rbt.Parameter_File>
/export/apps/rDock/src/rDock_2013.1_src/data/scripts/dock_solv.prm

>  <Rbt.Receptor>
prm/pocket_docking_8.prm

>  <SCORE>
-36.6857

>  <SCORE.INTER>
-36.6857

>  <SCORE.INTER.CONST>
1

>  <SCORE.INTER.POLAR>
-4.38111

>  <SCORE.INTER.ROT>
0

>  <SCORE.INTER.SOLV>
10.7117

>  <SCORE.INTER.VDW>
-17.024

>  <SCORE.INTER.norm>
-3.66857

>  <SCORE.INTRA>
0

>  <SCORE.INTRA.DIHEDRAL>
0

>  <SCORE.INTRA.DIHEDRAL.0>
0

>  <SCORE.INTRA.POLAR>
0

>  <SCORE.INTRA.POLAR.0>
0

>  <SCORE.INTRA.REPUL>
0

>  <SCORE.INTRA.REPUL.0>
0

>  <SCORE.INTRA.SOLV>
0

>  <SCORE.INTRA.SOLV.lig_0>
-14.8845

>  <SCORE.INTRA.VDW>
0

>  <SCORE.INTRA.VDW.0>
0

>  <SCORE.INTRA.norm>
0

>  <SCORE.RESTR>
0

>  <SCORE.RESTR.CAVITY>
0

>  <SCORE.RESTR.norm>
0

>  <SCORE.SYSTEM>
0

>  <SCORE.SYSTEM.CONST>
0

>  <SCORE.SYSTEM.DIHEDRAL>
0

>  <SCORE.SYSTEM.SOLV>
0

>  <SCORE.SYSTEM.norm>
0

>  <SCORE.heavy>
10

>  <SCORE.norm>
-3.66857

>  <RMSD>
2.533

$$$$
lig.pdb
 OpenBabel11021811523D
libRbt.so/2013.1/901 2013/11/27
 10 11  0  0  0  0  0  0  0  0999 V2000
  -30.7640   17.9492  -17.7314 N   0  0  0  0  0  0  0  0  0  0  0  0
  -31.9982   18.4753  -17.4649 C   0  0  0  0  0  0  0  0  0  0  0  0
  -32.3677   18.3520  -16.2125 N   0  0  0  0  0  0  0  0  0  0  0  0
  -31.3033   17.6986  -15.6147 C   0  0  0  0  0  0  0  0  0  0  0  0
  -31.0724   17.2749  -14.2930 C   0  0  0  0  0  0  0  0  0  0  0  0
  -31.9511   17.4545  -13.3013 N   0  0  0  0  0  0  0  0  0  0  0  0
  -29.9021   16.6533  -14.0294 N   0  0  0  0  0  0  0  0  0  0  0  0
  -29.0289   16.4740  -15.0266 C   0  0  0  0  0  0  0  0  0  0  0  0
  -29.1338   16.8292  -16.3066 N   0  0  0  0  0  0  0  0  0  0  0  0
  -30.3054   17.4430  -16.5365 C   0  0  0  0  0  0  0  0  0  0  0  0
  1 10  1  0  0  0  0
  2  3  2  0  0  0  0
  2  1  1  0  0  0  0
  3  4  1  0  0  0  0
  4 10  2  0  0  0  0
  4  5  1  0  0  0  0
  5  7  2  0  0  0  0
  6  5  1  0  0  0  0
  7  8  1  0  0  0  0
  9  8  2  0  0  0  0
 10  9  1  0  0  0  0
M  END
>  <CHROM.1>
-30.80349615,17.46045329,-15.61041177,-1.83997201,-0.43466759,1.80565945

>  <Name>
lig.pdb

>  <RI>
0

>  <Rbt.Current_Directory>
/home/itssahil/PROJECTS/Mol_Feturizer/New_Systems/rnas/5uza

>  <Rbt.Executable>
rbdock ($Id: //depot/dev/client3/rdock/2013.1/src/exe/rbdock.cxx#4 $)

>  <Rbt.Library>
libRbt.so (2013.1, Build901 2013/11/27)

>  <Rbt.Parameter_File>
/export/apps/rDock/src/rDock_2013.1_src/data/scripts/dock_solv.prm

>  <Rbt.Receptor>
prm/blind_docking_60.prm

>  <SCORE>
-36.6422

>  <SCORE.INTER>
-36.6422

>  <SCORE.INTER.CONST>
1

>  <SCORE.INTER.POLAR>
-4.38363

>  <SCORE.INTER.ROT>
0

>  <SCORE.INTER.SOLV>
10.7089

>  <SCORE.INTER.VDW>
-16.9857

>  <SCORE.INTER.norm>
-3.66422

>  <SCORE.INTRA>
0

>  <SCORE.INTRA.DIHEDRAL>
0

>  <SCORE.INTRA.DIHEDRAL.0>
0

>  <SCORE.INTRA.POLAR>
0

>  <SCORE.INTRA.POLAR.0>
0

>  <SCORE.INTRA.REPUL>
0

>  <SCORE.INTRA.REPUL.0>
0

>  <SCORE.INTRA.SOLV>
0

>  <SCORE.INTRA.SOLV.lig_0>
-14.8845

>  <SCORE.INTRA.VDW>
0

>  <SCORE.INTRA.VDW.0>
0

>  <SCORE.INTRA.norm>
0

>  <SCORE.RESTR>
0

>  <SCORE.RESTR.CAVITY>
0

>  <SCORE.RESTR.norm>
0

>  <SCORE.SYSTEM>
0

>  <SCORE.SYSTEM.CONST>
0

>  <SCORE.SYSTEM.DIHEDRAL>
0

>  <SCORE.SYSTEM.SOLV>
0

>  <SCORE.SYSTEM.norm>
0

>  <SCORE.heavy>
10

>  <SCORE.norm>
-3.66422

>  <RMSD>
2.535

$$$$
lig.pdb
 OpenBabel11021811523D
libRbt.so/2013.1/901 2013/11/27
 10 11  0  0  0  0  0  0  0  0999 V2000
  -30.6985   17.9769  -17.6975 N   0  0  0  0  0  0  0  0  0  0  0  0
  -31.9472   18.4743  -17.4439 C   0  0  0  0  0  0  0  0  0  0  0  0
  -32.3213   18.3544  -16.1925 N   0  0  0  0  0  0  0  0  0  0  0  0
  -31.2445   17.7343  -15.5816 C   0  0  0  0  0  0  0  0  0  0  0  0
  -31.0113   17.3301  -14.2542 C   0  0  0  0  0  0  0  0  0  0  0  0
  -31.9005   17.4975  -13.2698 N   0  0  0  0  0  0  0  0  0  0  0  0
  -29.8274   16.7410  -13.9771 N   0  0  0  0  0  0  0  0  0  0  0  0
  -28.9437   16.5737  -14.9671 C   0  0  0  0  0  0  0  0  0  0  0  0
  -29.0494   16.9131  -16.2513 N   0  0  0  0  0  0  0  0  0  0  0  0
  -30.2347   17.4946  -16.4947 C   0  0  0  0  0  0  0  0  0  0  0  0
  1 10  1  0  0  0  0
  2  3  2  0  0  0  0
  2  1  1  0  0  0  0
  3  4  1  0  0  0  0
  4 10  2  0  0  0  0
  4  5  1  0  0  0  0
  5  7  2  0  0  0  0
  6  5  1  0  0  0  0
  7  8  1  0  0  0  0
  9  8  2  0  0  0  0
 10  9  1  0  0  0  0
M  END
>  <CHROM.1>
-30.73890859,17.50893017,-15.57182533,-1.83971374,-0.40862956,1.79550054

>  <Name>
lig.pdb

>  <RI>
2.26746e+07

>  <Rbt.Current_Directory>
/home/itssahil/PROJECTS/Mol_Feturizer/New_Systems/rnas/5uza

>  <Rbt.Executable>
rbdock ($Id: //depot/dev/client3/rdock/2013.1/src/exe/rbdock.cxx#4 $)

>  <Rbt.Library>
libRbt.so (2013.1, Build901 2013/11/27)

>  <Rbt.Parameter_File>
/export/apps/rDock/src/rDock_2013.1_src/data/scripts/dock_solv.prm

>  <Rbt.Receptor>
prm/blind_docking_100.prm

>  <SCORE>
-36.4943

>  <SCORE.INTER>
-36.4943

>  <SCORE.INTER.CONST>
1

>  <SCORE.INTER.POLAR>
-4.39263

>  <SCORE.INTER.ROT>
0

>  <SCORE.INTER.SOLV>
10.7819

>  <SCORE.INTER.VDW>
-16.8814

>  <SCORE.INTER.norm>
-3.64943

>  <SCORE.INTRA>
0

>  <SCORE.INTRA.DIHEDRAL>
0

>  <SCORE.INTRA.DIHEDRAL.0>
0

>  <SCORE.INTRA.POLAR>
0

>  <SCORE.INTRA.POLAR.0>
0

>  <SCORE.INTRA.REPUL>
0

>  <SCORE.INTRA.REPUL.0>
0

>  <SCORE.INTRA.SOLV>
0

>  <SCORE.INTRA.SOLV.lig_0>
-14.8845

>  <SCORE.INTRA.VDW>
0

>  <SCORE.INTRA.VDW.0>
0

>  <SCORE.INTRA.norm>
0

>  <SCORE.RESTR>
0

>  <SCORE.RESTR.CAVITY>
0

>  <SCORE.RESTR.norm>
0

>  <SCORE.SYSTEM>
0

>  <SCORE.SYSTEM.CONST>
0

>  <SCORE.SYSTEM.DIHEDRAL>
0

>  <SCORE.SYSTEM.SOLV>
0

>  <SCORE.SYSTEM.norm>
0

>  <SCORE.heavy>
10

>  <SCORE.norm>
-3.64943

>  <RMSD>
2.541

$$$$
lig.pdb
 OpenBabel11021811523D
libRbt.so/2013.1/901 2013/11/27
 10 11  0  0  0  0  0  0  0  0999 V2000
  -31.2901   18.4141  -14.8140 N   0  0  0  0  0  0  0  0  0  0  0  0
  -31.1606   17.4802  -13.8230 C   0  0  0  0  0  0  0  0  0  0  0  0
  -30.5582   16.3801  -14.2068 N   0  0  0  0  0  0  0  0  0  0  0  0
  -30.2731   16.6061  -15.5429 C   0  0  0  0  0  0  0  0  0  0  0  0
  -29.6359   15.8220  -16.5220 C   0  0  0  0  0  0  0  0  0  0  0  0
  -29.1603   14.5952  -16.2838 N   0  0  0  0  0  0  0  0  0  0  0  0
  -29.5099   16.3464  -17.7607 N   0  0  0  0  0  0  0  0  0  0  0  0
  -29.9907   17.5728  -17.9932 C   0  0  0  0  0  0  0  0  0  0  0  0
  -30.6068   18.4044  -17.1540 N   0  0  0  0  0  0  0  0  0  0  0  0
  -30.7169   17.8555  -15.9338 C   0  0  0  0  0  0  0  0  0  0  0  0
  1 10  1  0  0  0  0
  2  3  2  0  0  0  0
  2  1  1  0  0  0  0
  3  4  1  0  0  0  0
  4 10  2  0  0  0  0
  4  5  1  0  0  0  0
  5  7  2  0  0  0  0
  6  5  1  0  0  0  0
  7  8  1  0  0  0  0
  9  8  2  0  0  0  0
 10  9  1  0  0  0  0
M  END
>  <CHROM.1>
-30.27037535,16.90619846,-16.00807352,2.77064233,-1.08149572,2.14794280

>  <Name>
lig.pdb

>  <RI>
0

>  <Rbt.Current_Directory>
/home/itssahil/PROJECTS/Mol_Feturizer/New_Systems/rnas/5uza

>  <Rbt.Executable>
rbdock ($Id: //depot/dev/client3/rdock/2013.1/src/exe/rbdock.cxx#4 $)

>  <Rbt.Library>
libRbt.so (2013.1, Build901 2013/11/27)

>  <Rbt.Parameter_File>
/export/apps/rDock/src/rDock_2013.1_src/data/scripts/dock_solv.prm

>  <Rbt.Receptor>
prm/blind_docking_60.prm

>  <SCORE>
-28.9491

>  <SCORE.INTER>
-28.9491

>  <SCORE.INTER.CONST>
1

>  <SCORE.INTER.POLAR>
-3.06965

>  <SCORE.INTER.ROT>
0

>  <SCORE.INTER.SOLV>
11.829

>  <SCORE.INTER.VDW>
-16.6102

>  <SCORE.INTER.norm>
-2.89491

>  <SCORE.INTRA>
0

>  <SCORE.INTRA.DIHEDRAL>
0

>  <SCORE.INTRA.DIHEDRAL.0>
0

>  <SCORE.INTRA.POLAR>
0

>  <SCORE.INTRA.POLAR.0>
0

>  <SCORE.INTRA.REPUL>
0

>  <SCORE.INTRA.REPUL.0>
0

>  <SCORE.INTRA.SOLV>
0

>  <SCORE.INTRA.SOLV.lig_0>
-14.8845

>  <SCORE.INTRA.VDW>
0

>  <SCORE.INTRA.VDW.0>
0

>  <SCORE.INTRA.norm>
0

>  <SCORE.RESTR>
0

>  <SCORE.RESTR.CAVITY>
0

>  <SCORE.RESTR.norm>
0

>  <SCORE.SYSTEM>
0

>  <SCORE.SYSTEM.CONST>
0

>  <SCORE.SYSTEM.DIHEDRAL>
0

>  <SCORE.SYSTEM.SOLV>
0

>  <SCORE.SYSTEM.norm>
0

>  <SCORE.heavy>
10

>  <SCORE.norm>
-2.89491

>  <RMSD>
2.863

$$$$
lig.pdb
 OpenBabel11021811523D
libRbt.so/2013.1/901 2013/11/27
 10 11  0  0  0  0  0  0  0  0999 V2000
  -31.2884   18.4143  -14.8168 N   0  0  0  0  0  0  0  0  0  0  0  0
  -31.1537   17.4832  -13.8239 C   0  0  0  0  0  0  0  0  0  0  0  0
  -30.5514   16.3828  -14.2072 N   0  0  0  0  0  0  0  0  0  0  0  0
  -30.2721   16.6056  -15.5450 C   0  0  0  0  0  0  0  0  0  0  0  0
  -29.6379   15.8197  -16.5247 C   0  0  0  0  0  0  0  0  0  0  0  0
  -29.1598   14.5942  -16.2852 N   0  0  0  0  0  0  0  0  0  0  0  0
  -29.5177   16.3410  -17.7653 N   0  0  0  0  0  0  0  0  0  0  0  0
  -30.0010   17.5661  -17.9990 C   0  0  0  0  0  0  0  0  0  0  0  0
  -30.6147   18.3993  -17.1595 N   0  0  0  0  0  0  0  0  0  0  0  0
  -30.7191   17.8535  -15.9374 C   0  0  0  0  0  0  0  0  0  0  0  0
  1 10  1  0  0  0  0
  2  3  2  0  0  0  0
  2  1  1  0  0  0  0
  3  4  1  0  0  0  0
  4 10  2  0  0  0  0
  4  5  1  0  0  0  0
  5  7  2  0  0  0  0
  6  5  1  0  0  0  0
  7  8  1  0  0  0  0
  9  8  2  0  0  0  0
 10  9  1  0  0  0  0
M  END
>  <CHROM.1>
-30.27168642,16.90449352,-16.01103773,2.76184920,-1.08265738,2.13753907

>  <Name>
lig.pdb

>  <RI>
0

>  <Rbt.Current_Directory>
/home/itssahil/PROJECTS/Mol_Feturizer/New_Systems/rnas/5uza

>  <Rbt.Executable>
rbdock ($Id: //depot/dev/client3/rdock/2013.1/src/exe/rbdock.cxx#4 $)

>  <Rbt.Library>
libRbt.so (2013.1, Build901 2013/11/27)

>  <Rbt.Parameter_File>
/export/apps/rDock/src/rDock_2013.1_src/data/scripts/dock_solv.prm

>  <Rbt.Receptor>
prm/blind_docking_80.prm

>  <SCORE>
-28.9491

>  <SCORE.INTER>
-28.9491

>  <SCORE.INTER.CONST>
1

>  <SCORE.INTER.POLAR>
-3.06497

>  <SCORE.INTER.ROT>
0

>  <SCORE.INTER.SOLV>
11.823

>  <SCORE.INTER.VDW>
-16.6238

>  <SCORE.INTER.norm>
-2.89491

>  <SCORE.INTRA>
0

>  <SCORE.INTRA.DIHEDRAL>
0

>  <SCORE.INTRA.DIHEDRAL.0>
0

>  <SCORE.INTRA.POLAR>
0

>  <SCORE.INTRA.POLAR.0>
0

>  <SCORE.INTRA.REPUL>
0

>  <SCORE.INTRA.REPUL.0>
0

>  <SCORE.INTRA.SOLV>
0

>  <SCORE.INTRA.SOLV.lig_0>
-14.8845

>  <SCORE.INTRA.VDW>
0

>  <SCORE.INTRA.VDW.0>
0

>  <SCORE.INTRA.norm>
0

>  <SCORE.RESTR>
0

>  <SCORE.RESTR.CAVITY>
0

>  <SCORE.RESTR.norm>
0

>  <SCORE.SYSTEM>
0

>  <SCORE.SYSTEM.CONST>
0

>  <SCORE.SYSTEM.DIHEDRAL>
0

>  <SCORE.SYSTEM.SOLV>
0

>  <SCORE.SYSTEM.norm>
0

>  <SCORE.heavy>
10

>  <SCORE.norm>
-2.89491

>  <RMSD>
2.863

$$$$
lig.pdb
 OpenBabel11021811523D
libRbt.so/2013.1/901 2013/11/27
 10 11  0  0  0  0  0  0  0  0999 V2000
  -31.2969   18.4110  -14.8036 N   0  0  0  0  0  0  0  0  0  0  0  0
  -31.1557   17.4797  -13.8118 C   0  0  0  0  0  0  0  0  0  0  0  0
  -30.5525   16.3810  -14.1983 N   0  0  0  0  0  0  0  0  0  0  0  0
  -30.2794   16.6052  -15.5371 C   0  0  0  0  0  0  0  0  0  0  0  0
  -29.6475   15.8212  -16.5199 C   0  0  0  0  0  0  0  0  0  0  0  0
  -29.1654   14.5967  -16.2830 N   0  0  0  0  0  0  0  0  0  0  0  0
  -29.5337   16.3435  -17.7607 N   0  0  0  0  0  0  0  0  0  0  0  0
  -30.0209   17.5676  -17.9917 C   0  0  0  0  0  0  0  0  0  0  0  0
  -30.6330   18.3988  -17.1492 N   0  0  0  0  0  0  0  0  0  0  0  0
  -30.7310   17.8521  -15.9270 C   0  0  0  0  0  0  0  0  0  0  0  0
  1 10  1  0  0  0  0
  2  3  2  0  0  0  0
  2  1  1  0  0  0  0
  3  4  1  0  0  0  0
  4 10  2  0  0  0  0
  4  5  1  0  0  0  0
  5  7  2  0  0  0  0
  6  5  1  0  0  0  0
  7  8  1  0  0  0  0
  9  8  2  0  0  0  0
 10  9  1  0  0  0  0
M  END
>  <CHROM.1>
-30.28163882,16.90424826,-16.00295178,2.75151735,-1.08289708,2.12893428

>  <Name>
lig.pdb

>  <RI>
9.24451e+06

>  <Rbt.Current_Directory>
/home/itssahil/PROJECTS/Mol_Feturizer/New_Systems/rnas/5uza

>  <Rbt.Executable>
rbdock ($Id: //depot/dev/client3/rdock/2013.1/src/exe/rbdock.cxx#4 $)

>  <Rbt.Library>
libRbt.so (2013.1, Build901 2013/11/27)

>  <Rbt.Parameter_File>
/export/apps/rDock/src/rDock_2013.1_src/data/scripts/dock_solv.prm

>  <Rbt.Receptor>
prm/pocket_docking_4.prm

>  <SCORE>
-28.9289

>  <SCORE.INTER>
-28.9289

>  <SCORE.INTER.CONST>
1

>  <SCORE.INTER.POLAR>
-3.06451

>  <SCORE.INTER.ROT>
0

>  <SCORE.INTER.SOLV>
11.8197

>  <SCORE.INTER.VDW>
-16.6108

>  <SCORE.INTER.norm>
-2.89289

>  <SCORE.INTRA>
0

>  <SCORE.INTRA.DIHEDRAL>
0

>  <SCORE.INTRA.DIHEDRAL.0>
0

>  <SCORE.INTRA.POLAR>
0

>  <SCORE.INTRA.POLAR.0>
0

>  <SCORE.INTRA.REPUL>
0

>  <SCORE.INTRA.REPUL.0>
0

>  <SCORE.INTRA.SOLV>
0

>  <SCORE.INTRA.SOLV.lig_0>
-14.8845

>  <SCORE.INTRA.VDW>
0

>  <SCORE.INTRA.VDW.0>
0

>  <SCORE.INTRA.norm>
0

>  <SCORE.RESTR>
0

>  <SCORE.RESTR.CAVITY>
0

>  <SCORE.RESTR.norm>
0

>  <SCORE.SYSTEM>
0

>  <SCORE.SYSTEM.CONST>
0

>  <SCORE.SYSTEM.DIHEDRAL>
0

>  <SCORE.SYSTEM.SOLV>
0

>  <SCORE.SYSTEM.norm>
0

>  <SCORE.heavy>
10

>  <SCORE.norm>
-2.89289

>  <RMSD>
2.864

$$$$
lig.pdb
 OpenBabel11021811523D
libRbt.so/2013.1/901 2013/11/27
 10 11  0  0  0  0  0  0  0  0999 V2000
  -31.2738   18.4336  -14.7922 N   0  0  0  0  0  0  0  0  0  0  0  0
  -31.1651   17.4864  -13.8113 C   0  0  0  0  0  0  0  0  0  0  0  0
  -30.5825   16.3795  -14.2055 N   0  0  0  0  0  0  0  0  0  0  0  0
  -30.2889   16.6148  -15.5381 C   0  0  0  0  0  0  0  0  0  0  0  0
  -29.6636   15.8296  -16.5241 C   0  0  0  0  0  0  0  0  0  0  0  0
  -29.2121   14.5915  -16.2981 N   0  0  0  0  0  0  0  0  0  0  0  0
  -29.5237   16.3653  -17.7565 N   0  0  0  0  0  0  0  0  0  0  0  0
  -29.9805   17.6031  -17.9767 C   0  0  0  0  0  0  0  0  0  0  0  0
  -30.5834   18.4369  -17.1301 N   0  0  0  0  0  0  0  0  0  0  0  0
  -30.7077   17.8767  -15.9164 C   0  0  0  0  0  0  0  0  0  0  0  0
  1 10  1  0  0  0  0
  2  3  2  0  0  0  0
  2  1  1  0  0  0  0
  3  4  1  0  0  0  0
  4 10  2  0  0  0  0
  4  5  1  0  0  0  0
  5  7  2  0  0  0  0
  6  5  1  0  0  0  0
  7  8  1  0  0  0  0
  9  8  2  0  0  0  0
 10  9  1  0  0  0  0
M  END
>  <CHROM.1>
-30.27904850,16.91993814,-15.99994668,2.79903145,-1.09547466,2.18423015

>  <Name>
lig.pdb

>  <RI>
0

>  <Rbt.Current_Directory>
/home/itssahil/PROJECTS/Mol_Feturizer/New_Systems/rnas/5uza

>  <Rbt.Executable>
rbdock ($Id: //depot/dev/client3/rdock/2013.1/src/exe/rbdock.cxx#4 $)

>  <Rbt.Library>
libRbt.so (2013.1, Build901 2013/11/27)

>  <Rbt.Parameter_File>
/export/apps/rDock/src/rDock_2013.1_src/data/scripts/dock_solv.prm

>  <Rbt.Receptor>
prm/blind_docking_60.prm

>  <SCORE>
-28.943

>  <SCORE.INTER>
-28.943

>  <SCORE.INTER.CONST>
1

>  <SCORE.INTER.POLAR>
-3.07286

>  <SCORE.INTER.ROT>
0

>  <SCORE.INTER.SOLV>
11.9216

>  <SCORE.INTER.VDW>
-16.6264

>  <SCORE.INTER.norm>
-2.8943

>  <SCORE.INTRA>
0

>  <SCORE.INTRA.DIHEDRAL>
0

>  <SCORE.INTRA.DIHEDRAL.0>
0

>  <SCORE.INTRA.POLAR>
0

>  <SCORE.INTRA.POLAR.0>
0

>  <SCORE.INTRA.REPUL>
0

>  <SCORE.INTRA.REPUL.0>
0

>  <SCORE.INTRA.SOLV>
0

>  <SCORE.INTRA.SOLV.lig_0>
-14.8845

>  <SCORE.INTRA.VDW>
0

>  <SCORE.INTRA.VDW.0>
0

>  <SCORE.INTRA.norm>
0

>  <SCORE.RESTR>
0

>  <SCORE.RESTR.CAVITY>
0

>  <SCORE.RESTR.norm>
0

>  <SCORE.SYSTEM>
0

>  <SCORE.SYSTEM.CONST>
0

>  <SCORE.SYSTEM.DIHEDRAL>
0

>  <SCORE.SYSTEM.SOLV>
0

>  <SCORE.SYSTEM.norm>
0

>  <SCORE.heavy>
10

>  <SCORE.norm>
-2.8943

>  <RMSD>
2.866

$$$$
lig.pdb
 OpenBabel11021811523D
libRbt.so/2013.1/901 2013/11/27
 10 11  0  0  0  0  0  0  0  0999 V2000
  -31.3184   18.3916  -14.7975 N   0  0  0  0  0  0  0  0  0  0  0  0
  -31.2243   17.4330  -13.8263 C   0  0  0  0  0  0  0  0  0  0  0  0
  -30.6305   16.3329  -14.2232 N   0  0  0  0  0  0  0  0  0  0  0  0
  -30.3135   16.5854  -15.5473 C   0  0  0  0  0  0  0  0  0  0  0  0
  -29.6674   15.8144  -16.5311 C   0  0  0  0  0  0  0  0  0  0  0  0
  -29.2157   14.5752  -16.3119 N   0  0  0  0  0  0  0  0  0  0  0  0
  -29.5070   16.3655  -17.7541 N   0  0  0  0  0  0  0  0  0  0  0  0
  -29.9642   17.6043  -17.9676 C   0  0  0  0  0  0  0  0  0  0  0  0
  -30.5854   18.4258  -17.1222 N   0  0  0  0  0  0  0  0  0  0  0  0
  -30.7299   17.8504  -15.9178 C   0  0  0  0  0  0  0  0  0  0  0  0
  1 10  1  0  0  0  0
  2  3  2  0  0  0  0
  2  1  1  0  0  0  0
  3  4  1  0  0  0  0
  4 10  2  0  0  0  0
  4  5  1  0  0  0  0
  5  7  2  0  0  0  0
  6  5  1  0  0  0  0
  7  8  1  0  0  0  0
  9  8  2  0  0  0  0
 10  9  1  0  0  0  0
M  END
>  <CHROM.1>
-30.29631256,16.89616394,-16.00510890,2.82641468,-1.08185035,2.22064084

>  <Name>
lig.pdb

>  <RI>
2.26746e+07

>  <Rbt.Current_Directory>
/home/itssahil/PROJECTS/Mol_Feturizer/New_Systems/rnas/5uza

>  <Rbt.Executable>
rbdock ($Id: //depot/dev/client3/rdock/2013.1/src/exe/rbdock.cxx#4 $)

>  <Rbt.Library>
libRbt.so (2013.1, Build901 2013/11/27)

>  <Rbt.Parameter_File>
/export/apps/rDock/src/rDock_2013.1_src/data/scripts/dock_solv.prm

>  <Rbt.Receptor>
prm/blind_docking_100.prm

>  <SCORE>
-28.9312

>  <SCORE.INTER>
-28.9312

>  <SCORE.INTER.CONST>
1

>  <SCORE.INTER.POLAR>
-3.07719

>  <SCORE.INTER.ROT>
0

>  <SCORE.INTER.SOLV>
11.9128

>  <SCORE.INTER.VDW>
-16.6011

>  <SCORE.INTER.norm>
-2.89312

>  <SCORE.INTRA>
0

>  <SCORE.INTRA.DIHEDRAL>
0

>  <SCORE.INTRA.DIHEDRAL.0>
0

>  <SCORE.INTRA.POLAR>
0

>  <SCORE.INTRA.POLAR.0>
0

>  <SCORE.INTRA.REPUL>
0

>  <SCORE.INTRA.REPUL.0>
0

>  <SCORE.INTRA.SOLV>
0

>  <SCORE.INTRA.SOLV.lig_0>
-14.8845

>  <SCORE.INTRA.VDW>
0

>  <SCORE.INTRA.VDW.0>
0

>  <SCORE.INTRA.norm>
0

>  <SCORE.RESTR>
0

>  <SCORE.RESTR.CAVITY>
0

>  <SCORE.RESTR.norm>
0

>  <SCORE.SYSTEM>
0

>  <SCORE.SYSTEM.CONST>
0

>  <SCORE.SYSTEM.DIHEDRAL>
0

>  <SCORE.SYSTEM.SOLV>
0

>  <SCORE.SYSTEM.norm>
0

>  <SCORE.heavy>
10

>  <SCORE.norm>
-2.89312

>  <RMSD>
2.867

$$$$
lig.pdb
 OpenBabel11021811523D
libRbt.so/2013.1/901 2013/11/27
 10 11  0  0  0  0  0  0  0  0999 V2000
  -31.3866   18.3664  -14.6833 N   0  0  0  0  0  0  0  0  0  0  0  0
  -31.1605   17.2894  -13.8709 C   0  0  0  0  0  0  0  0  0  0  0  0
  -30.5357   16.3002  -14.4638 N   0  0  0  0  0  0  0  0  0  0  0  0
  -30.3387   16.7583  -15.7556 C   0  0  0  0  0  0  0  0  0  0  0  0
  -29.7271   16.1804  -16.8834 C   0  0  0  0  0  0  0  0  0  0  0  0
  -29.1873   14.9572  -16.8787 N   0  0  0  0  0  0  0  0  0  0  0  0
  -29.6956   16.9082  -18.0212 N   0  0  0  0  0  0  0  0  0  0  0  0
  -30.2403   18.1299  -18.0200 C   0  0  0  0  0  0  0  0  0  0  0  0
  -30.8409   18.7787  -17.0231 N   0  0  0  0  0  0  0  0  0  0  0  0
  -30.8566   18.0307  -15.9084 C   0  0  0  0  0  0  0  0  0  0  0  0
  1 10  1  0  0  0  0
  2  3  2  0  0  0  0
  2  1  1  0  0  0  0
  3  4  1  0  0  0  0
  4 10  2  0  0  0  0
  4  5  1  0  0  0  0
  5  7  2  0  0  0  0
  6  5  1  0  0  0  0
  7  8  1  0  0  0  0
  9  8  2  0  0  0  0
 10  9  1  0  0  0  0
M  END
>  <CHROM.1>
-30.37564779,17.13086265,-16.16338701,2.61976696,-1.07322567,2.18260972

>  <Name>
lig.pdb

>  <RI>
0

>  <Rbt.Current_Directory>
/home/itssahil/PROJECTS/Mol_Feturizer/New_Systems/rnas/5uza

>  <Rbt.Executable>
rbdock ($Id: //depot/dev/client3/rdock/2013.1/src/exe/rbdock.cxx#4 $)

>  <Rbt.Library>
libRbt.so (2013.1, Build901 2013/11/27)

>  <Rbt.Parameter_File>
/export/apps/rDock/src/rDock_2013.1_src/data/scripts/dock_solv.prm

>  <Rbt.Receptor>
prm/blind_docking_60.prm

>  <SCORE>
-27.4018

>  <SCORE.INTER>
-27.4018

>  <SCORE.INTER.CONST>
1

>  <SCORE.INTER.POLAR>
-2.79346

>  <SCORE.INTER.ROT>
0

>  <SCORE.INTER.SOLV>
12.1875

>  <SCORE.INTER.VDW>
-16.6189

>  <SCORE.INTER.norm>
-2.74018

>  <SCORE.INTRA>
0

>  <SCORE.INTRA.DIHEDRAL>
0

>  <SCORE.INTRA.DIHEDRAL.0>
0

>  <SCORE.INTRA.POLAR>
0

>  <SCORE.INTRA.POLAR.0>
0

>  <SCORE.INTRA.REPUL>
0

>  <SCORE.INTRA.REPUL.0>
0

>  <SCORE.INTRA.SOLV>
0

>  <SCORE.INTRA.SOLV.lig_0>
-14.8845

>  <SCORE.INTRA.VDW>
0

>  <SCORE.INTRA.VDW.0>
0

>  <SCORE.INTRA.norm>
0

>  <SCORE.RESTR>
0

>  <SCORE.RESTR.CAVITY>
0

>  <SCORE.RESTR.norm>
0

>  <SCORE.SYSTEM>
0

>  <SCORE.SYSTEM.CONST>
0

>  <SCORE.SYSTEM.DIHEDRAL>
0

>  <SCORE.SYSTEM.SOLV>
0

>  <SCORE.SYSTEM.norm>
0

>  <SCORE.heavy>
10

>  <SCORE.norm>
-2.74018

>  <RMSD>
2.870

$$$$
lig.pdb
 OpenBabel11021811523D
libRbt.so/2013.1/901 2013/11/27
 10 11  0  0  0  0  0  0  0  0999 V2000
  -29.5536   15.2401  -15.2162 N   0  0  0  0  0  0  0  0  0  0  0  0
  -29.0106   15.3494  -16.4668 C   0  0  0  0  0  0  0  0  0  0  0  0
  -29.3517   16.4470  -17.0986 N   0  0  0  0  0  0  0  0  0  0  0  0
  -30.1771   17.1040  -16.2017 C   0  0  0  0  0  0  0  0  0  0  0  0
  -30.8647   18.3297  -16.2688 C   0  0  0  0  0  0  0  0  0  0  0  0
  -30.8254   19.1352  -17.3353 N   0  0  0  0  0  0  0  0  0  0  0  0
  -31.6006   18.6951  -15.1962 N   0  0  0  0  0  0  0  0  0  0  0  0
  -31.6382   17.8833  -14.1338 C   0  0  0  0  0  0  0  0  0  0  0  0
  -31.0339   16.7094  -13.9542 N   0  0  0  0  0  0  0  0  0  0  0  0
  -30.3122   16.3743  -15.0355 C   0  0  0  0  0  0  0  0  0  0  0  0
  1 10  1  0  0  0  0
  2  3  2  0  0  0  0
  2  1  1  0  0  0  0
  3  4  1  0  0  0  0
  4 10  2  0  0  0  0
  4  5  1  0  0  0  0
  5  7  2  0  0  0  0
  6  5  1  0  0  0  0
  7  8  1  0  0  0  0
  9  8  2  0  0  0  0
 10  9  1  0  0  0  0
M  END
>  <CHROM.1>
-30.44347497,17.16198344,-15.71988531,0.54307095,-0.91842316,2.25895695

>  <Name>
lig.pdb

>  <RI>
9.24451e+06

>  <Rbt.Current_Directory>
/home/itssahil/PROJECTS/Mol_Feturizer/New_Systems/rnas/5uza

>  <Rbt.Executable>
rbdock ($Id: //depot/dev/client3/rdock/2013.1/src/exe/rbdock.cxx#4 $)

>  <Rbt.Library>
libRbt.so (2013.1, Build901 2013/11/27)

>  <Rbt.Parameter_File>
/export/apps/rDock/src/rDock_2013.1_src/data/scripts/dock_solv.prm

>  <Rbt.Receptor>
prm/pocket_docking_4.prm

>  <SCORE>
-32.6906

>  <SCORE.INTER>
-32.6906

>  <SCORE.INTER.CONST>
1

>  <SCORE.INTER.POLAR>
-3.84069

>  <SCORE.INTER.ROT>
0

>  <SCORE.INTER.SOLV>
12.4276

>  <SCORE.INTER.VDW>
-16.7339

>  <SCORE.INTER.norm>
-3.26906

>  <SCORE.INTRA>
0

>  <SCORE.INTRA.DIHEDRAL>
0

>  <SCORE.INTRA.DIHEDRAL.0>
0

>  <SCORE.INTRA.POLAR>
0

>  <SCORE.INTRA.POLAR.0>
0

>  <SCORE.INTRA.REPUL>
0

>  <SCORE.INTRA.REPUL.0>
0

>  <SCORE.INTRA.SOLV>
0

>  <SCORE.INTRA.SOLV.lig_0>
-14.8845

>  <SCORE.INTRA.VDW>
0

>  <SCORE.INTRA.VDW.0>
0

>  <SCORE.INTRA.norm>
0

>  <SCORE.RESTR>
0

>  <SCORE.RESTR.CAVITY>
0

>  <SCORE.RESTR.norm>
0

>  <SCORE.SYSTEM>
0

>  <SCORE.SYSTEM.CONST>
0

>  <SCORE.SYSTEM.DIHEDRAL>
0

>  <SCORE.SYSTEM.SOLV>
0

>  <SCORE.SYSTEM.norm>
0

>  <SCORE.heavy>
10

>  <SCORE.norm>
-3.26906

>  <RMSD>
2.906

$$$$
lig.pdb
 OpenBabel11021811523D
libRbt.so/2013.1/901 2013/11/27
 10 11  0  0  0  0  0  0  0  0999 V2000
  -29.5393   15.2455  -15.2024 N   0  0  0  0  0  0  0  0  0  0  0  0
  -29.0260   15.3373  -16.4669 C   0  0  0  0  0  0  0  0  0  0  0  0
  -29.3790   16.4280  -17.1043 N   0  0  0  0  0  0  0  0  0  0  0  0
  -30.1807   17.0988  -16.1964 C   0  0  0  0  0  0  0  0  0  0  0  0
  -30.8662   18.3258  -16.2625 C   0  0  0  0  0  0  0  0  0  0  0  0
  -30.8500   19.1176  -17.3399 N   0  0  0  0  0  0  0  0  0  0  0  0
  -31.5751   18.7071  -15.1775 N   0  0  0  0  0  0  0  0  0  0  0  0
  -31.5896   17.9089  -14.1042 C   0  0  0  0  0  0  0  0  0  0  0  0
  -30.9846   16.7354  -13.9242 N   0  0  0  0  0  0  0  0  0  0  0  0
  -30.2900   16.3844  -15.0181 C   0  0  0  0  0  0  0  0  0  0  0  0
  1 10  1  0  0  0  0
  2  3  2  0  0  0  0
  2  1  1  0  0  0  0
  3  4  1  0  0  0  0
  4 10  2  0  0  0  0
  4  5  1  0  0  0  0
  5  7  2  0  0  0  0
  6  5  1  0  0  0  0
  7  8  1  0  0  0  0
  9  8  2  0  0  0  0
 10  9  1  0  0  0  0
M  END
>  <CHROM.1>
-30.43530348,17.16378963,-15.70907918,0.51502192,-0.93569825,2.22384460

>  <Name>
lig.pdb

>  <RI>
0

>  <Rbt.Current_Directory>
/home/itssahil/PROJECTS/Mol_Feturizer/New_Systems/rnas/5uza

>  <Rbt.Executable>
rbdock ($Id: //depot/dev/client3/rdock/2013.1/src/exe/rbdock.cxx#4 $)

>  <Rbt.Library>
libRbt.so (2013.1, Build901 2013/11/27)

>  <Rbt.Parameter_File>
/export/apps/rDock/src/rDock_2013.1_src/data/scripts/dock_solv.prm

>  <Rbt.Receptor>
prm/pocket_docking_3.prm

>  <SCORE>
-32.7006

>  <SCORE.INTER>
-32.7006

>  <SCORE.INTER.CONST>
1

>  <SCORE.INTER.POLAR>
-3.83584

>  <SCORE.INTER.ROT>
0

>  <SCORE.INTER.SOLV>
12.3392

>  <SCORE.INTER.VDW>
-16.7274

>  <SCORE.INTER.norm>
-3.27006

>  <SCORE.INTRA>
0

>  <SCORE.INTRA.DIHEDRAL>
0

>  <SCORE.INTRA.DIHEDRAL.0>
0

>  <SCORE.INTRA.POLAR>
0

>  <SCORE.INTRA.POLAR.0>
0

>  <SCORE.INTRA.REPUL>
0

>  <SCORE.INTRA.REPUL.0>
0

>  <SCORE.INTRA.SOLV>
0

>  <SCORE.INTRA.SOLV.lig_0>
-14.8845

>  <SCORE.INTRA.VDW>
0

>  <SCORE.INTRA.VDW.0>
0

>  <SCORE.INTRA.norm>
0

>  <SCORE.RESTR>
0

>  <SCORE.RESTR.CAVITY>
0

>  <SCORE.RESTR.norm>
0

>  <SCORE.SYSTEM>
0

>  <SCORE.SYSTEM.CONST>
0

>  <SCORE.SYSTEM.DIHEDRAL>
0

>  <SCORE.SYSTEM.SOLV>
0

>  <SCORE.SYSTEM.norm>
0

>  <SCORE.heavy>
10

>  <SCORE.norm>
-3.27006

>  <RMSD>
2.908

$$$$
lig.pdb
 OpenBabel11021811523D
libRbt.so/2013.1/901 2013/11/27
 10 11  0  0  0  0  0  0  0  0999 V2000
  -29.5363   15.2501  -15.2030 N   0  0  0  0  0  0  0  0  0  0  0  0
  -29.0076   15.3517  -16.4604 C   0  0  0  0  0  0  0  0  0  0  0  0
  -29.3560   16.4454  -17.0951 N   0  0  0  0  0  0  0  0  0  0  0  0
  -30.1711   17.1078  -16.1929 C   0  0  0  0  0  0  0  0  0  0  0  0
  -30.8596   18.3331  -16.2597 C   0  0  0  0  0  0  0  0  0  0  0  0
  -30.8325   19.1319  -17.3316 N   0  0  0  0  0  0  0  0  0  0  0  0
  -31.5833   18.7051  -15.1812 N   0  0  0  0  0  0  0  0  0  0  0  0
  -31.6087   17.8998  -14.1134 C   0  0  0  0  0  0  0  0  0  0  0  0
  -31.0023   16.7271  -13.9334 N   0  0  0  0  0  0  0  0  0  0  0  0
  -30.2929   16.3853  -15.0208 C   0  0  0  0  0  0  0  0  0  0  0  0
  1 10  1  0  0  0  0
  2  3  2  0  0  0  0
  2  1  1  0  0  0  0
  3  4  1  0  0  0  0
  4 10  2  0  0  0  0
  4  5  1  0  0  0  0
  5  7  2  0  0  0  0
  6  5  1  0  0  0  0
  7  8  1  0  0  0  0
  9  8  2  0  0  0  0
 10  9  1  0  0  0  0
M  END
>  <CHROM.1>
-30.43201511,17.16879624,-15.70845877,0.52833959,-0.92553226,2.24103647

>  <Name>
lig.pdb

>  <RI>
9.24451e+06

>  <Rbt.Current_Directory>
/home/itssahil/PROJECTS/Mol_Feturizer/New_Systems/rnas/5uza

>  <Rbt.Executable>
rbdock ($Id: //depot/dev/client3/rdock/2013.1/src/exe/rbdock.cxx#4 $)

>  <Rbt.Library>
libRbt.so (2013.1, Build901 2013/11/27)

>  <Rbt.Parameter_File>
/export/apps/rDock/src/rDock_2013.1_src/data/scripts/dock_solv.prm

>  <Rbt.Receptor>
prm/pocket_docking_4.prm

>  <SCORE>
-32.7608

>  <SCORE.INTER>
-32.7608

>  <SCORE.INTER.CONST>
1

>  <SCORE.INTER.POLAR>
-3.84952

>  <SCORE.INTER.ROT>
0

>  <SCORE.INTER.SOLV>
12.3807

>  <SCORE.INTER.VDW>
-16.7357

>  <SCORE.INTER.norm>
-3.27608

>  <SCORE.INTRA>
0

>  <SCORE.INTRA.DIHEDRAL>
0

>  <SCORE.INTRA.DIHEDRAL.0>
0

>  <SCORE.INTRA.POLAR>
0

>  <SCORE.INTRA.POLAR.0>
0

>  <SCORE.INTRA.REPUL>
0

>  <SCORE.INTRA.REPUL.0>
0

>  <SCORE.INTRA.SOLV>
0

>  <SCORE.INTRA.SOLV.lig_0>
-14.8845

>  <SCORE.INTRA.VDW>
0

>  <SCORE.INTRA.VDW.0>
0

>  <SCORE.INTRA.norm>
0

>  <SCORE.RESTR>
0

>  <SCORE.RESTR.CAVITY>
0

>  <SCORE.RESTR.norm>
0

>  <SCORE.SYSTEM>
0

>  <SCORE.SYSTEM.CONST>
0

>  <SCORE.SYSTEM.DIHEDRAL>
0

>  <SCORE.SYSTEM.SOLV>
0

>  <SCORE.SYSTEM.norm>
0

>  <SCORE.heavy>
10

>  <SCORE.norm>
-3.27608

>  <RMSD>
2.908

$$$$
lig.pdb
 OpenBabel11021811523D
libRbt.so/2013.1/901 2013/11/27
 10 11  0  0  0  0  0  0  0  0999 V2000
  -29.4850   15.2768  -15.1767 N   0  0  0  0  0  0  0  0  0  0  0  0
  -28.9638   15.3625  -16.4384 C   0  0  0  0  0  0  0  0  0  0  0  0
  -29.3439   16.4310  -17.0974 N   0  0  0  0  0  0  0  0  0  0  0  0
  -30.1734   17.0926  -16.2077 C   0  0  0  0  0  0  0  0  0  0  0  0
  -30.8949   18.2970  -16.3007 C   0  0  0  0  0  0  0  0  0  0  0  0
  -30.8933   19.0704  -17.3914 N   0  0  0  0  0  0  0  0  0  0  0  0
  -31.6243   18.6751  -15.2281 N   0  0  0  0  0  0  0  0  0  0  0  0
  -31.6241   17.8952  -14.1414 C   0  0  0  0  0  0  0  0  0  0  0  0
  -30.9856   16.7438  -13.9363 N   0  0  0  0  0  0  0  0  0  0  0  0
  -30.2712   16.3953  -15.0182 C   0  0  0  0  0  0  0  0  0  0  0  0
  1 10  1  0  0  0  0
  2  3  2  0  0  0  0
  2  1  1  0  0  0  0
  3  4  1  0  0  0  0
  4 10  2  0  0  0  0
  4  5  1  0  0  0  0
  5  7  2  0  0  0  0
  6  5  1  0  0  0  0
  7  8  1  0  0  0  0
  9  8  2  0  0  0  0
 10  9  1  0  0  0  0
M  END
>  <CHROM.1>
-30.43400054,17.15811530,-15.72373781,0.49648852,-0.90642636,2.19193577

>  <Name>
lig.pdb

>  <RI>
0

>  <Rbt.Current_Directory>
/home/itssahil/PROJECTS/Mol_Feturizer/New_Systems/rnas/5uza

>  <Rbt.Executable>
rbdock ($Id: //depot/dev/client3/rdock/2013.1/src/exe/rbdock.cxx#4 $)

>  <Rbt.Library>
libRbt.so (2013.1, Build901 2013/11/27)

>  <Rbt.Parameter_File>
/export/apps/rDock/src/rDock_2013.1_src/data/scripts/dock_solv.prm

>  <Rbt.Receptor>
prm/pocket_docking_3.prm

>  <SCORE>
-32.6774

>  <SCORE.INTER>
-32.6774

>  <SCORE.INTER.CONST>
1

>  <SCORE.INTER.POLAR>
-3.87563

>  <SCORE.INTER.ROT>
0

>  <SCORE.INTER.SOLV>
12.1752

>  <SCORE.INTER.VDW>
-16.5246

>  <SCORE.INTER.norm>
-3.26774

>  <SCORE.INTRA>
0

>  <SCORE.INTRA.DIHEDRAL>
0

>  <SCORE.INTRA.DIHEDRAL.0>
0

>  <SCORE.INTRA.POLAR>
0

>  <SCORE.INTRA.POLAR.0>
0

>  <SCORE.INTRA.REPUL>
0

>  <SCORE.INTRA.REPUL.0>
0

>  <SCORE.INTRA.SOLV>
0

>  <SCORE.INTRA.SOLV.lig_0>
-14.8845

>  <SCORE.INTRA.VDW>
0

>  <SCORE.INTRA.VDW.0>
0

>  <SCORE.INTRA.norm>
0

>  <SCORE.RESTR>
0

>  <SCORE.RESTR.CAVITY>
0

>  <SCORE.RESTR.norm>
0

>  <SCORE.SYSTEM>
0

>  <SCORE.SYSTEM.CONST>
0

>  <SCORE.SYSTEM.DIHEDRAL>
0

>  <SCORE.SYSTEM.SOLV>
0

>  <SCORE.SYSTEM.norm>
0

>  <SCORE.heavy>
10

>  <SCORE.norm>
-3.26774

>  <RMSD>
2.910

$$$$
lig.pdb
 OpenBabel11021811523D
libRbt.so/2013.1/901 2013/11/27
 10 11  0  0  0  0  0  0  0  0999 V2000
  -29.5147   15.2627  -15.1821 N   0  0  0  0  0  0  0  0  0  0  0  0
  -28.9674   15.3705  -16.4310 C   0  0  0  0  0  0  0  0  0  0  0  0
  -29.3215   16.4582  -17.0727 N   0  0  0  0  0  0  0  0  0  0  0  0
  -30.1606   17.1098  -16.1847 C   0  0  0  0  0  0  0  0  0  0  0  0
  -30.8656   18.3248  -16.2642 C   0  0  0  0  0  0  0  0  0  0  0  0
  -30.8330   19.1227  -17.3367 N   0  0  0  0  0  0  0  0  0  0  0  0
  -31.6118   18.6875  -15.1979 N   0  0  0  0  0  0  0  0  0  0  0  0
  -31.6426   17.8833  -14.1295 C   0  0  0  0  0  0  0  0  0  0  0  0
  -31.0221   16.7197  -13.9382 N   0  0  0  0  0  0  0  0  0  0  0  0
  -30.2905   16.3870  -15.0135 C   0  0  0  0  0  0  0  0  0  0  0  0
  1 10  1  0  0  0  0
  2  3  2  0  0  0  0
  2  1  1  0  0  0  0
  3  4  1  0  0  0  0
  4 10  2  0  0  0  0
  4  5  1  0  0  0  0
  5  7  2  0  0  0  0
  6  5  1  0  0  0  0
  7  8  1  0  0  0  0
  9  8  2  0  0  0  0
 10  9  1  0  0  0  0
M  END
>  <CHROM.1>
-30.43000400,17.16754431,-15.70450242,0.53400742,-0.90417419,2.24420924

>  <Name>
lig.pdb

>  <RI>
0

>  <Rbt.Current_Directory>
/home/itssahil/PROJECTS/Mol_Feturizer/New_Systems/rnas/5uza

>  <Rbt.Executable>
rbdock ($Id: //depot/dev/client3/rdock/2013.1/src/exe/rbdock.cxx#4 $)

>  <Rbt.Library>
libRbt.so (2013.1, Build901 2013/11/27)

>  <Rbt.Parameter_File>
/export/apps/rDock/src/rDock_2013.1_src/data/scripts/dock_solv.prm

>  <Rbt.Receptor>
prm/pocket_docking_3.prm

>  <SCORE>
-32.7467

>  <SCORE.INTER>
-32.7467

>  <SCORE.INTER.CONST>
1

>  <SCORE.INTER.POLAR>
-3.90024

>  <SCORE.INTER.ROT>
0

>  <SCORE.INTER.SOLV>
12.354

>  <SCORE.INTER.VDW>
-16.5483

>  <SCORE.INTER.norm>
-3.27467

>  <SCORE.INTRA>
0

>  <SCORE.INTRA.DIHEDRAL>
0

>  <SCORE.INTRA.DIHEDRAL.0>
0

>  <SCORE.INTRA.POLAR>
0

>  <SCORE.INTRA.POLAR.0>
0

>  <SCORE.INTRA.REPUL>
0

>  <SCORE.INTRA.REPUL.0>
0

>  <SCORE.INTRA.SOLV>
0

>  <SCORE.INTRA.SOLV.lig_0>
-14.8845

>  <SCORE.INTRA.VDW>
0

>  <SCORE.INTRA.VDW.0>
0

>  <SCORE.INTRA.norm>
0

>  <SCORE.RESTR>
0

>  <SCORE.RESTR.CAVITY>
0

>  <SCORE.RESTR.norm>
0

>  <SCORE.SYSTEM>
0

>  <SCORE.SYSTEM.CONST>
0

>  <SCORE.SYSTEM.DIHEDRAL>
0

>  <SCORE.SYSTEM.SOLV>
0

>  <SCORE.SYSTEM.norm>
0

>  <SCORE.heavy>
10

>  <SCORE.norm>
-3.27467

>  <RMSD>
2.912

$$$$
lig.pdb
 OpenBabel11021811523D
libRbt.so/2013.1/901 2013/11/27
 10 11  0  0  0  0  0  0  0  0999 V2000
  -29.4210   15.2939  -15.1518 N   0  0  0  0  0  0  0  0  0  0  0  0
  -28.8689   15.4074  -16.3981 C   0  0  0  0  0  0  0  0  0  0  0  0
  -29.2700   16.4657  -17.0611 N   0  0  0  0  0  0  0  0  0  0  0  0
  -30.1474   17.0902  -16.1909 C   0  0  0  0  0  0  0  0  0  0  0  0
  -30.9101   18.2678  -16.2967 C   0  0  0  0  0  0  0  0  0  0  0  0
  -30.9072   19.0483  -17.3824 N   0  0  0  0  0  0  0  0  0  0  0  0
  -31.6823   18.6114  -15.2427 N   0  0  0  0  0  0  0  0  0  0  0  0
  -31.6831   17.8246  -14.1610 C   0  0  0  0  0  0  0  0  0  0  0  0
  -31.0084   16.6961  -13.9449 N   0  0  0  0  0  0  0  0  0  0  0  0
  -30.2521   16.3816  -15.0086 C   0  0  0  0  0  0  0  0  0  0  0  0
  1 10  1  0  0  0  0
  2  3  2  0  0  0  0
  2  1  1  0  0  0  0
  3  4  1  0  0  0  0
  4 10  2  0  0  0  0
  4  5  1  0  0  0  0
  5  7  2  0  0  0  0
  6  5  1  0  0  0  0
  7  8  1  0  0  0  0
  9  8  2  0  0  0  0
 10  9  1  0  0  0  0
M  END
>  <CHROM.1>
-30.42353181,17.14273429,-15.71393632,0.49779308,-0.86032729,2.19932531

>  <Name>
lig.pdb

>  <RI>
0

>  <Rbt.Current_Directory>
/home/itssahil/PROJECTS/Mol_Feturizer/New_Systems/rnas/5uza

>  <Rbt.Executable>
rbdock ($Id: //depot/dev/client3/rdock/2013.1/src/exe/rbdock.cxx#4 $)

>  <Rbt.Library>
libRbt.so (2013.1, Build901 2013/11/27)

>  <Rbt.Parameter_File>
/export/apps/rDock/src/rDock_2013.1_src/data/scripts/dock_solv.prm

>  <Rbt.Receptor>
prm/blind_docking_80.prm

>  <SCORE>
-32.5578

>  <SCORE.INTER>
-32.5692

>  <SCORE.INTER.CONST>
1

>  <SCORE.INTER.POLAR>
-3.92444

>  <SCORE.INTER.ROT>
0

>  <SCORE.INTER.SOLV>
12.0895

>  <SCORE.INTER.VDW>
-16.2612

>  <SCORE.INTER.norm>
-3.25692

>  <SCORE.INTRA>
0

>  <SCORE.INTRA.DIHEDRAL>
0

>  <SCORE.INTRA.DIHEDRAL.0>
0

>  <SCORE.INTRA.POLAR>
0

>  <SCORE.INTRA.POLAR.0>
0

>  <SCORE.INTRA.REPUL>
0

>  <SCORE.INTRA.REPUL.0>
0

>  <SCORE.INTRA.SOLV>
0

>  <SCORE.INTRA.SOLV.lig_0>
-14.8845

>  <SCORE.INTRA.VDW>
0

>  <SCORE.INTRA.VDW.0>
0

>  <SCORE.INTRA.norm>
0

>  <SCORE.RESTR>
0.0114027

>  <SCORE.RESTR.CAVITY>
0.0114027

>  <SCORE.RESTR.norm>
0.00114027

>  <SCORE.SYSTEM>
0

>  <SCORE.SYSTEM.CONST>
0

>  <SCORE.SYSTEM.DIHEDRAL>
0

>  <SCORE.SYSTEM.SOLV>
0

>  <SCORE.SYSTEM.norm>
0

>  <SCORE.heavy>
10

>  <SCORE.norm>
-3.25578

>  <RMSD>
2.917

$$$$
lig.pdb
 OpenBabel11021811523D
libRbt.so/2013.1/901 2013/11/27
 10 11  0  0  0  0  0  0  0  0999 V2000
  -29.4626   15.2677  -15.1640 N   0  0  0  0  0  0  0  0  0  0  0  0
  -28.8863   15.3993  -16.3975 C   0  0  0  0  0  0  0  0  0  0  0  0
  -29.2635   16.4748  -17.0467 N   0  0  0  0  0  0  0  0  0  0  0  0
  -30.1500   17.0920  -16.1805 C   0  0  0  0  0  0  0  0  0  0  0  0
  -30.8977   18.2800  -16.2770 C   0  0  0  0  0  0  0  0  0  0  0  0
  -30.8662   19.0815  -17.3468 N   0  0  0  0  0  0  0  0  0  0  0  0
  -31.6855   18.6116  -15.2306 N   0  0  0  0  0  0  0  0  0  0  0  0
  -31.7149   17.8039  -14.1649 C   0  0  0  0  0  0  0  0  0  0  0  0
  -31.0566   16.6639  -13.9588 N   0  0  0  0  0  0  0  0  0  0  0  0
  -30.2843   16.3617  -15.0145 C   0  0  0  0  0  0  0  0  0  0  0  0
  1 10  1  0  0  0  0
  2  3  2  0  0  0  0
  2  1  1  0  0  0  0
  3  4  1  0  0  0  0
  4 10  2  0  0  0  0
  4  5  1  0  0  0  0
  5  7  2  0  0  0  0
  6  5  1  0  0  0  0
  7  8  1  0  0  0  0
  9  8  2  0  0  0  0
 10  9  1  0  0  0  0
M  END
>  <CHROM.1>
-30.43429598,17.13836121,-15.70769852,0.53046966,-0.85802423,2.24369541

>  <Name>
lig.pdb

>  <RI>
2.26746e+07

>  <Rbt.Current_Directory>
/home/itssahil/PROJECTS/Mol_Feturizer/New_Systems/rnas/5uza

>  <Rbt.Executable>
rbdock ($Id: //depot/dev/client3/rdock/2013.1/src/exe/rbdock.cxx#4 $)

>  <Rbt.Library>
libRbt.so (2013.1, Build901 2013/11/27)

>  <Rbt.Parameter_File>
/export/apps/rDock/src/rDock_2013.1_src/data/scripts/dock_solv.prm

>  <Rbt.Receptor>
prm/blind_docking_100.prm

>  <SCORE>
-32.5961

>  <SCORE.INTER>
-32.6077

>  <SCORE.INTER.CONST>
1

>  <SCORE.INTER.POLAR>
-3.9371

>  <SCORE.INTER.ROT>
0

>  <SCORE.INTER.SOLV>
12.2471

>  <SCORE.INTER.VDW>
-16.2972

>  <SCORE.INTER.norm>
-3.26077

>  <SCORE.INTRA>
0

>  <SCORE.INTRA.DIHEDRAL>
0

>  <SCORE.INTRA.DIHEDRAL.0>
0

>  <SCORE.INTRA.POLAR>
0

>  <SCORE.INTRA.POLAR.0>
0

>  <SCORE.INTRA.REPUL>
0

>  <SCORE.INTRA.REPUL.0>
0

>  <SCORE.INTRA.SOLV>
0

>  <SCORE.INTRA.SOLV.lig_0>
-14.8845

>  <SCORE.INTRA.VDW>
0

>  <SCORE.INTRA.VDW.0>
0

>  <SCORE.INTRA.norm>
0

>  <SCORE.RESTR>
0.0116486

>  <SCORE.RESTR.CAVITY>
0.0116486

>  <SCORE.RESTR.norm>
0.00116486

>  <SCORE.SYSTEM>
0

>  <SCORE.SYSTEM.CONST>
0

>  <SCORE.SYSTEM.DIHEDRAL>
0

>  <SCORE.SYSTEM.SOLV>
0

>  <SCORE.SYSTEM.norm>
0

>  <SCORE.heavy>
10

>  <SCORE.norm>
-3.25961

>  <RMSD>
2.918

$$$$
lig.pdb
 OpenBabel11021811523D
libRbt.so/2013.1/901 2013/11/27
 10 11  0  0  0  0  0  0  0  0999 V2000
  -29.2898   15.3889  -15.0783 N   0  0  0  0  0  0  0  0  0  0  0  0
  -28.7041   15.5276  -16.3066 C   0  0  0  0  0  0  0  0  0  0  0  0
  -29.1317   16.5666  -16.9834 N   0  0  0  0  0  0  0  0  0  0  0  0
  -30.0639   17.1504  -16.1423 C   0  0  0  0  0  0  0  0  0  0  0  0
  -30.8757   18.2920  -16.2739 C   0  0  0  0  0  0  0  0  0  0  0  0
  -30.8738   19.0719  -17.3600 N   0  0  0  0  0  0  0  0  0  0  0  0
  -31.6958   18.6000  -15.2454 N   0  0  0  0  0  0  0  0  0  0  0  0
  -31.6952   17.8138  -14.1632 C   0  0  0  0  0  0  0  0  0  0  0  0
  -30.9769   16.7172  -13.9243 N   0  0  0  0  0  0  0  0  0  0  0  0
  -30.1737   16.4377  -14.9630 C   0  0  0  0  0  0  0  0  0  0  0  0
  1 10  1  0  0  0  0
  2  3  2  0  0  0  0
  2  1  1  0  0  0  0
  3  4  1  0  0  0  0
  4 10  2  0  0  0  0
  4  5  1  0  0  0  0
  5  7  2  0  0  0  0
  6  5  1  0  0  0  0
  7  8  1  0  0  0  0
  9  8  2  0  0  0  0
 10  9  1  0  0  0  0
M  END
>  <CHROM.1>
-30.35712826,17.19023553,-15.67445542,0.49620269,-0.80477935,2.19750039

>  <Name>
lig.pdb

>  <RI>
0

>  <Rbt.Current_Directory>
/home/itssahil/PROJECTS/Mol_Feturizer/New_Systems/rnas/5uza

>  <Rbt.Executable>
rbdock ($Id: //depot/dev/client3/rdock/2013.1/src/exe/rbdock.cxx#4 $)

>  <Rbt.Library>
libRbt.so (2013.1, Build901 2013/11/27)

>  <Rbt.Parameter_File>
/export/apps/rDock/src/rDock_2013.1_src/data/scripts/dock_solv.prm

>  <Rbt.Receptor>
prm/pocket_docking_5.prm

>  <SCORE>
-32.7466

>  <SCORE.INTER>
-32.7466

>  <SCORE.INTER.CONST>
1

>  <SCORE.INTER.POLAR>
-4.03869

>  <SCORE.INTER.ROT>
0

>  <SCORE.INTER.SOLV>
11.9713

>  <SCORE.INTER.VDW>
-15.9592

>  <SCORE.INTER.norm>
-3.27466

>  <SCORE.INTRA>
0

>  <SCORE.INTRA.DIHEDRAL>
0

>  <SCORE.INTRA.DIHEDRAL.0>
0

>  <SCORE.INTRA.POLAR>
0

>  <SCORE.INTRA.POLAR.0>
0

>  <SCORE.INTRA.REPUL>
0

>  <SCORE.INTRA.REPUL.0>
0

>  <SCORE.INTRA.SOLV>
0

>  <SCORE.INTRA.SOLV.lig_0>
-14.8845

>  <SCORE.INTRA.VDW>
0

>  <SCORE.INTRA.VDW.0>
0

>  <SCORE.INTRA.norm>
0

>  <SCORE.RESTR>
0

>  <SCORE.RESTR.CAVITY>
0

>  <SCORE.RESTR.norm>
0

>  <SCORE.SYSTEM>
0

>  <SCORE.SYSTEM.CONST>
0

>  <SCORE.SYSTEM.DIHEDRAL>
0

>  <SCORE.SYSTEM.SOLV>
0

>  <SCORE.SYSTEM.norm>
0

>  <SCORE.heavy>
10

>  <SCORE.norm>
-3.27466

>  <RMSD>
2.932

$$$$
lig.pdb
 OpenBabel11021811523D
libRbt.so/2013.1/901 2013/11/27
 10 11  0  0  0  0  0  0  0  0999 V2000
  -29.2872   15.3842  -15.0805 N   0  0  0  0  0  0  0  0  0  0  0  0
  -28.7014   15.5259  -16.3084 C   0  0  0  0  0  0  0  0  0  0  0  0
  -29.1271   16.5678  -16.9818 N   0  0  0  0  0  0  0  0  0  0  0  0
  -30.0582   17.1506  -16.1387 C   0  0  0  0  0  0  0  0  0  0  0  0
  -30.8679   18.2942  -16.2664 C   0  0  0  0  0  0  0  0  0  0  0  0
  -30.8647   19.0776  -17.3499 N   0  0  0  0  0  0  0  0  0  0  0  0
  -31.6874   18.6002  -15.2367 N   0  0  0  0  0  0  0  0  0  0  0  0
  -31.6881   17.8104  -14.1572 C   0  0  0  0  0  0  0  0  0  0  0  0
  -30.9718   16.7117  -13.9220 N   0  0  0  0  0  0  0  0  0  0  0  0
  -30.1692   16.4341  -14.9617 C   0  0  0  0  0  0  0  0  0  0  0  0
  1 10  1  0  0  0  0
  2  3  2  0  0  0  0
  2  1  1  0  0  0  0
  3  4  1  0  0  0  0
  4 10  2  0  0  0  0
  4  5  1  0  0  0  0
  5  7  2  0  0  0  0
  6  5  1  0  0  0  0
  7  8  1  0  0  0  0
  9  8  2  0  0  0  0
 10  9  1  0  0  0  0
M  END
>  <CHROM.1>
-30.35129931,17.18941781,-15.67062446,0.49767190,-0.80631257,2.20188204

>  <Name>
lig.pdb

>  <RI>
0

>  <Rbt.Current_Directory>
/home/itssahil/PROJECTS/Mol_Feturizer/New_Systems/rnas/5uza

>  <Rbt.Executable>
rbdock ($Id: //depot/dev/client3/rdock/2013.1/src/exe/rbdock.cxx#4 $)

>  <Rbt.Library>
libRbt.so (2013.1, Build901 2013/11/27)

>  <Rbt.Parameter_File>
/export/apps/rDock/src/rDock_2013.1_src/data/scripts/dock_solv.prm

>  <Rbt.Receptor>
prm/pocket_docking_5.prm

>  <SCORE>
-32.7366

>  <SCORE.INTER>
-32.7367

>  <SCORE.INTER.CONST>
1

>  <SCORE.INTER.POLAR>
-4.03529

>  <SCORE.INTER.ROT>
0

>  <SCORE.INTER.SOLV>
11.9834

>  <SCORE.INTER.VDW>
-15.968

>  <SCORE.INTER.norm>
-3.27367

>  <SCORE.INTRA>
0

>  <SCORE.INTRA.DIHEDRAL>
0

>  <SCORE.INTRA.DIHEDRAL.0>
0

>  <SCORE.INTRA.POLAR>
0

>  <SCORE.INTRA.POLAR.0>
0

>  <SCORE.INTRA.REPUL>
0

>  <SCORE.INTRA.REPUL.0>
0

>  <SCORE.INTRA.SOLV>
0

>  <SCORE.INTRA.SOLV.lig_0>
-14.8845

>  <SCORE.INTRA.VDW>
0

>  <SCORE.INTRA.VDW.0>
0

>  <SCORE.INTRA.norm>
0

>  <SCORE.RESTR>
0.000177773

>  <SCORE.RESTR.CAVITY>
0.000177773

>  <SCORE.RESTR.norm>
1.77773e-05

>  <SCORE.SYSTEM>
0

>  <SCORE.SYSTEM.CONST>
0

>  <SCORE.SYSTEM.DIHEDRAL>
0

>  <SCORE.SYSTEM.SOLV>
0

>  <SCORE.SYSTEM.norm>
0

>  <SCORE.heavy>
10

>  <SCORE.norm>
-3.27366

>  <RMSD>
2.932

$$$$
lig.pdb
 OpenBabel11021811523D
libRbt.so/2013.1/901 2013/11/27
 10 11  0  0  0  0  0  0  0  0999 V2000
  -29.2874   15.3885  -15.0747 N   0  0  0  0  0  0  0  0  0  0  0  0
  -28.7051   15.5252  -16.3048 C   0  0  0  0  0  0  0  0  0  0  0  0
  -29.1343   16.5634  -16.9819 N   0  0  0  0  0  0  0  0  0  0  0  0
  -30.0639   17.1488  -16.1390 C   0  0  0  0  0  0  0  0  0  0  0  0
  -30.8756   18.2906  -16.2699 C   0  0  0  0  0  0  0  0  0  0  0  0
  -30.8765   19.0689  -17.3571 N   0  0  0  0  0  0  0  0  0  0  0  0
  -31.6926   18.6003  -15.2394 N   0  0  0  0  0  0  0  0  0  0  0  0
  -31.6892   17.8157  -14.1561 C   0  0  0  0  0  0  0  0  0  0  0  0
  -30.9707   16.7191  -13.9177 N   0  0  0  0  0  0  0  0  0  0  0  0
  -30.1706   16.4378  -14.9584 C   0  0  0  0  0  0  0  0  0  0  0  0
  1 10  1  0  0  0  0
  2  3  2  0  0  0  0
  2  1  1  0  0  0  0
  3  4  1  0  0  0  0
  4 10  2  0  0  0  0
  4  5  1  0  0  0  0
  5  7  2  0  0  0  0
  6  5  1  0  0  0  0
  7  8  1  0  0  0  0
  9  8  2  0  0  0  0
 10  9  1  0  0  0  0
M  END
>  <CHROM.1>
-30.35572073,17.18940615,-15.67034045,0.49319730,-0.80676967,2.19391097

>  <Name>
lig.pdb

>  <RI>
0

>  <Rbt.Current_Directory>
/home/itssahil/PROJECTS/Mol_Feturizer/New_Systems/rnas/5uza

>  <Rbt.Executable>
rbdock ($Id: //depot/dev/client3/rdock/2013.1/src/exe/rbdock.cxx#4 $)

>  <Rbt.Library>
libRbt.so (2013.1, Build901 2013/11/27)

>  <Rbt.Parameter_File>
/export/apps/rDock/src/rDock_2013.1_src/data/scripts/dock_solv.prm

>  <Rbt.Receptor>
prm/blind_docking_80.prm

>  <SCORE>
-32.744

>  <SCORE.INTER>
-32.7443

>  <SCORE.INTER.CONST>
1

>  <SCORE.INTER.POLAR>
-4.03968

>  <SCORE.INTER.ROT>
0

>  <SCORE.INTER.SOLV>
11.9615

>  <SCORE.INTER.VDW>
-15.9511

>  <SCORE.INTER.norm>
-3.27443

>  <SCORE.INTRA>
0

>  <SCORE.INTRA.DIHEDRAL>
0

>  <SCORE.INTRA.DIHEDRAL.0>
0

>  <SCORE.INTRA.POLAR>
0

>  <SCORE.INTRA.POLAR.0>
0

>  <SCORE.INTRA.REPUL>
0

>  <SCORE.INTRA.REPUL.0>
0

>  <SCORE.INTRA.SOLV>
0

>  <SCORE.INTRA.SOLV.lig_0>
-14.8845

>  <SCORE.INTRA.VDW>
0

>  <SCORE.INTRA.VDW.0>
0

>  <SCORE.INTRA.norm>
0

>  <SCORE.RESTR>
0.00028234

>  <SCORE.RESTR.CAVITY>
0.00028234

>  <SCORE.RESTR.norm>
2.8234e-05

>  <SCORE.SYSTEM>
0

>  <SCORE.SYSTEM.CONST>
0

>  <SCORE.SYSTEM.DIHEDRAL>
0

>  <SCORE.SYSTEM.SOLV>
0

>  <SCORE.SYSTEM.norm>
0

>  <SCORE.heavy>
10

>  <SCORE.norm>
-3.2744

>  <RMSD>
2.933

$$$$
lig.pdb
 OpenBabel11021811523D
libRbt.so/2013.1/901 2013/11/27
 10 11  0  0  0  0  0  0  0  0999 V2000
  -29.2758   15.4256  -15.0549 N   0  0  0  0  0  0  0  0  0  0  0  0
  -28.7289   15.5242  -16.3048 C   0  0  0  0  0  0  0  0  0  0  0  0
  -29.1604   16.5544  -16.9924 N   0  0  0  0  0  0  0  0  0  0  0  0
  -30.0537   17.1752  -16.1357 C   0  0  0  0  0  0  0  0  0  0  0  0
  -30.8492   18.3281  -16.2684 C   0  0  0  0  0  0  0  0  0  0  0  0
  -30.8696   19.0817  -17.3727 N   0  0  0  0  0  0  0  0  0  0  0  0
  -31.6291   18.6755  -15.2213 N   0  0  0  0  0  0  0  0  0  0  0  0
  -31.6063   17.9155  -14.1208 C   0  0  0  0  0  0  0  0  0  0  0  0
  -30.8999   16.8118  -13.8789 N   0  0  0  0  0  0  0  0  0  0  0  0
  -30.1368   16.4929  -14.9363 C   0  0  0  0  0  0  0  0  0  0  0  0
  1 10  1  0  0  0  0
  2  3  2  0  0  0  0
  2  1  1  0  0  0  0
  3  4  1  0  0  0  0
  4 10  2  0  0  0  0
  4  5  1  0  0  0  0
  5  7  2  0  0  0  0
  6  5  1  0  0  0  0
  7  8  1  0  0  0  0
  9  8  2  0  0  0  0
 10  9  1  0  0  0  0
M  END
>  <CHROM.1>
-30.33041561,17.23153759,-15.65951160,0.47139000,-0.83841445,2.15520819

>  <Name>
lig.pdb

>  <RI>
0

>  <Rbt.Current_Directory>
/home/itssahil/PROJECTS/Mol_Feturizer/New_Systems/rnas/5uza

>  <Rbt.Executable>
rbdock ($Id: //depot/dev/client3/rdock/2013.1/src/exe/rbdock.cxx#4 $)

>  <Rbt.Library>
libRbt.so (2013.1, Build901 2013/11/27)

>  <Rbt.Parameter_File>
/export/apps/rDock/src/rDock_2013.1_src/data/scripts/dock_solv.prm

>  <Rbt.Receptor>
prm/pocket_docking_3.prm

>  <SCORE>
-32.7971

>  <SCORE.INTER>
-32.7971

>  <SCORE.INTER.CONST>
1

>  <SCORE.INTER.POLAR>
-4.04175

>  <SCORE.INTER.ROT>
0

>  <SCORE.INTER.SOLV>
11.9134

>  <SCORE.INTER.VDW>
-15.9633

>  <SCORE.INTER.norm>
-3.27971

>  <SCORE.INTRA>
0

>  <SCORE.INTRA.DIHEDRAL>
0

>  <SCORE.INTRA.DIHEDRAL.0>
0

>  <SCORE.INTRA.POLAR>
0

>  <SCORE.INTRA.POLAR.0>
0

>  <SCORE.INTRA.REPUL>
0

>  <SCORE.INTRA.REPUL.0>
0

>  <SCORE.INTRA.SOLV>
0

>  <SCORE.INTRA.SOLV.lig_0>
-14.8845

>  <SCORE.INTRA.VDW>
0

>  <SCORE.INTRA.VDW.0>
0

>  <SCORE.INTRA.norm>
0

>  <SCORE.RESTR>
0

>  <SCORE.RESTR.CAVITY>
0

>  <SCORE.RESTR.norm>
0

>  <SCORE.SYSTEM>
0

>  <SCORE.SYSTEM.CONST>
0

>  <SCORE.SYSTEM.DIHEDRAL>
0

>  <SCORE.SYSTEM.SOLV>
0

>  <SCORE.SYSTEM.norm>
0

>  <SCORE.heavy>
10

>  <SCORE.norm>
-3.27971

>  <RMSD>
2.933

$$$$
lig.pdb
 OpenBabel11021811523D
libRbt.so/2013.1/901 2013/11/27
 10 11  0  0  0  0  0  0  0  0999 V2000
  -29.3001   15.3915  -15.0778 N   0  0  0  0  0  0  0  0  0  0  0  0
  -28.7158   15.5257  -16.3072 C   0  0  0  0  0  0  0  0  0  0  0  0
  -29.1324   16.5713  -16.9807 N   0  0  0  0  0  0  0  0  0  0  0  0
  -30.0552   17.1646  -16.1360 C   0  0  0  0  0  0  0  0  0  0  0  0
  -30.8534   18.3164  -16.2631 C   0  0  0  0  0  0  0  0  0  0  0  0
  -30.8447   19.0986  -17.3475 N   0  0  0  0  0  0  0  0  0  0  0  0
  -31.6670   18.6321  -15.2318 N   0  0  0  0  0  0  0  0  0  0  0  0
  -31.6733   17.8437  -14.1513 C   0  0  0  0  0  0  0  0  0  0  0  0
  -30.9679   16.7378  -13.9166 N   0  0  0  0  0  0  0  0  0  0  0  0
  -30.1708   16.4507  -14.9580 C   0  0  0  0  0  0  0  0  0  0  0  0
  1 10  1  0  0  0  0
  2  3  2  0  0  0  0
  2  1  1  0  0  0  0
  3  4  1  0  0  0  0
  4 10  2  0  0  0  0
  4  5  1  0  0  0  0
  5  7  2  0  0  0  0
  6  5  1  0  0  0  0
  7  8  1  0  0  0  0
  9  8  2  0  0  0  0
 10  9  1  0  0  0  0
M  END
>  <CHROM.1>
-30.34676262,17.20704267,-15.66731994,0.50369958,-0.81615232,2.20510106

>  <Name>
lig.pdb

>  <RI>
9.24451e+06

>  <Rbt.Current_Directory>
/home/itssahil/PROJECTS/Mol_Feturizer/New_Systems/rnas/5uza

>  <Rbt.Executable>
rbdock ($Id: //depot/dev/client3/rdock/2013.1/src/exe/rbdock.cxx#4 $)

>  <Rbt.Library>
libRbt.so (2013.1, Build901 2013/11/27)

>  <Rbt.Parameter_File>
/export/apps/rDock/src/rDock_2013.1_src/data/scripts/dock_solv.prm

>  <Rbt.Receptor>
prm/pocket_docking_4.prm

>  <SCORE>
-32.8182

>  <SCORE.INTER>
-32.8182

>  <SCORE.INTER.CONST>
1

>  <SCORE.INTER.POLAR>
-4.04835

>  <SCORE.INTER.ROT>
0

>  <SCORE.INTER.SOLV>
12.0295

>  <SCORE.INTER.VDW>
-15.9941

>  <SCORE.INTER.norm>
-3.28182

>  <SCORE.INTRA>
0

>  <SCORE.INTRA.DIHEDRAL>
0

>  <SCORE.INTRA.DIHEDRAL.0>
0

>  <SCORE.INTRA.POLAR>
0

>  <SCORE.INTRA.POLAR.0>
0

>  <SCORE.INTRA.REPUL>
0

>  <SCORE.INTRA.REPUL.0>
0

>  <SCORE.INTRA.SOLV>
0

>  <SCORE.INTRA.SOLV.lig_0>
-14.8845

>  <SCORE.INTRA.VDW>
0

>  <SCORE.INTRA.VDW.0>
0

>  <SCORE.INTRA.norm>
0

>  <SCORE.RESTR>
0

>  <SCORE.RESTR.CAVITY>
0

>  <SCORE.RESTR.norm>
0

>  <SCORE.SYSTEM>
0

>  <SCORE.SYSTEM.CONST>
0

>  <SCORE.SYSTEM.DIHEDRAL>
0

>  <SCORE.SYSTEM.SOLV>
0

>  <SCORE.SYSTEM.norm>
0

>  <SCORE.heavy>
10

>  <SCORE.norm>
-3.28182

>  <RMSD>
2.933

$$$$
lig.pdb
 OpenBabel11021811523D
libRbt.so/2013.1/901 2013/11/27
 10 11  0  0  0  0  0  0  0  0999 V2000
  -29.2969   15.3848  -15.0774 N   0  0  0  0  0  0  0  0  0  0  0  0
  -28.7079   15.5252  -16.3039 C   0  0  0  0  0  0  0  0  0  0  0  0
  -29.1317   16.5666  -16.9793 N   0  0  0  0  0  0  0  0  0  0  0  0
  -30.0647   17.1504  -16.1390 C   0  0  0  0  0  0  0  0  0  0  0  0
  -30.8737   18.2941  -16.2698 C   0  0  0  0  0  0  0  0  0  0  0  0
  -30.8675   19.0766  -17.3540 N   0  0  0  0  0  0  0  0  0  0  0  0
  -31.6956   18.6013  -15.2425 N   0  0  0  0  0  0  0  0  0  0  0  0
  -31.6993   17.8126  -14.1622 C   0  0  0  0  0  0  0  0  0  0  0  0
  -30.9840   16.7139  -13.9242 N   0  0  0  0  0  0  0  0  0  0  0  0
  -30.1789   16.4351  -14.9617 C   0  0  0  0  0  0  0  0  0  0  0  0
  1 10  1  0  0  0  0
  2  3  2  0  0  0  0
  2  1  1  0  0  0  0
  3  4  1  0  0  0  0
  4 10  2  0  0  0  0
  4  5  1  0  0  0  0
  5  7  2  0  0  0  0
  6  5  1  0  0  0  0
  7  8  1  0  0  0  0
  9  8  2  0  0  0  0
 10  9  1  0  0  0  0
M  END
>  <CHROM.1>
-30.35891903,17.18978905,-15.67175198,0.50084208,-0.80508705,2.20326699

>  <Name>
lig.pdb

>  <RI>
0

>  <Rbt.Current_Directory>
/home/itssahil/PROJECTS/Mol_Feturizer/New_Systems/rnas/5uza

>  <Rbt.Executable>
rbdock ($Id: //depot/dev/client3/rdock/2013.1/src/exe/rbdock.cxx#4 $)

>  <Rbt.Library>
libRbt.so (2013.1, Build901 2013/11/27)

>  <Rbt.Parameter_File>
/export/apps/rDock/src/rDock_2013.1_src/data/scripts/dock_solv.prm

>  <Rbt.Receptor>
prm/pocket_docking_5.prm

>  <SCORE>
-32.7525

>  <SCORE.INTER>
-32.7539

>  <SCORE.INTER.CONST>
1

>  <SCORE.INTER.POLAR>
-4.04637

>  <SCORE.INTER.ROT>
0

>  <SCORE.INTER.SOLV>
11.9951

>  <SCORE.INTER.VDW>
-15.9464

>  <SCORE.INTER.norm>
-3.27539

>  <SCORE.INTRA>
0

>  <SCORE.INTRA.DIHEDRAL>
0

>  <SCORE.INTRA.DIHEDRAL.0>
0

>  <SCORE.INTRA.POLAR>
0

>  <SCORE.INTRA.POLAR.0>
0

>  <SCORE.INTRA.REPUL>
0

>  <SCORE.INTRA.REPUL.0>
0

>  <SCORE.INTRA.SOLV>
0

>  <SCORE.INTRA.SOLV.lig_0>
-14.8845

>  <SCORE.INTRA.VDW>
0

>  <SCORE.INTRA.VDW.0>
0

>  <SCORE.INTRA.norm>
0

>  <SCORE.RESTR>
0.00134951

>  <SCORE.RESTR.CAVITY>
0.00134951

>  <SCORE.RESTR.norm>
0.000134951

>  <SCORE.SYSTEM>
0

>  <SCORE.SYSTEM.CONST>
0

>  <SCORE.SYSTEM.DIHEDRAL>
0

>  <SCORE.SYSTEM.SOLV>
0

>  <SCORE.SYSTEM.norm>
0

>  <SCORE.heavy>
10

>  <SCORE.norm>
-3.27525

>  <RMSD>
2.933

$$$$
lig.pdb
 OpenBabel11021811523D
libRbt.so/2013.1/901 2013/11/27
 10 11  0  0  0  0  0  0  0  0999 V2000
  -29.2998   15.3946  -15.0657 N   0  0  0  0  0  0  0  0  0  0  0  0
  -28.7304   15.5154  -16.3035 C   0  0  0  0  0  0  0  0  0  0  0  0
  -29.1489   16.5583  -16.9800 N   0  0  0  0  0  0  0  0  0  0  0  0
  -30.0572   17.1641  -16.1283 C   0  0  0  0  0  0  0  0  0  0  0  0
  -30.8496   18.3200  -16.2544 C   0  0  0  0  0  0  0  0  0  0  0  0
  -30.8498   19.0935  -17.3451 N   0  0  0  0  0  0  0  0  0  0  0  0
  -31.6481   18.6490  -15.2154 N   0  0  0  0  0  0  0  0  0  0  0  0
  -31.6455   17.8691  -14.1287 C   0  0  0  0  0  0  0  0  0  0  0  0
  -30.9441   16.7607  -13.8941 N   0  0  0  0  0  0  0  0  0  0  0  0
  -30.1622   16.4603  -14.9433 C   0  0  0  0  0  0  0  0  0  0  0  0
  1 10  1  0  0  0  0
  2  3  2  0  0  0  0
  2  1  1  0  0  0  0
  3  4  1  0  0  0  0
  4 10  2  0  0  0  0
  4  5  1  0  0  0  0
  5  7  2  0  0  0  0
  6  5  1  0  0  0  0
  7  8  1  0  0  0  0
  9  8  2  0  0  0  0
 10  9  1  0  0  0  0
M  END
>  <CHROM.1>
-30.34245990,17.21211240,-15.65630875,0.49400982,-0.82875631,2.19007122

>  <Name>
lig.pdb

>  <RI>
0

>  <Rbt.Current_Directory>
/home/itssahil/PROJECTS/Mol_Feturizer/New_Systems/rnas/5uza

>  <Rbt.Executable>
rbdock ($Id: //depot/dev/client3/rdock/2013.1/src/exe/rbdock.cxx#4 $)

>  <Rbt.Library>
libRbt.so (2013.1, Build901 2013/11/27)

>  <Rbt.Parameter_File>
/export/apps/rDock/src/rDock_2013.1_src/data/scripts/dock_solv.prm

>  <Rbt.Receptor>
prm/pocket_docking_3.prm

>  <SCORE>
-32.8004

>  <SCORE.INTER>
-32.8004

>  <SCORE.INTER.CONST>
1

>  <SCORE.INTER.POLAR>
-4.05438

>  <SCORE.INTER.ROT>
0

>  <SCORE.INTER.SOLV>
12.0067

>  <SCORE.INTER.VDW>
-15.9546

>  <SCORE.INTER.norm>
-3.28004

>  <SCORE.INTRA>
0

>  <SCORE.INTRA.DIHEDRAL>
0

>  <SCORE.INTRA.DIHEDRAL.0>
0

>  <SCORE.INTRA.POLAR>
0

>  <SCORE.INTRA.POLAR.0>
0

>  <SCORE.INTRA.REPUL>
0

>  <SCORE.INTRA.REPUL.0>
0

>  <SCORE.INTRA.SOLV>
0

>  <SCORE.INTRA.SOLV.lig_0>
-14.8845

>  <SCORE.INTRA.VDW>
0

>  <SCORE.INTRA.VDW.0>
0

>  <SCORE.INTRA.norm>
0

>  <SCORE.RESTR>
0

>  <SCORE.RESTR.CAVITY>
0

>  <SCORE.RESTR.norm>
0

>  <SCORE.SYSTEM>
0

>  <SCORE.SYSTEM.CONST>
0

>  <SCORE.SYSTEM.DIHEDRAL>
0

>  <SCORE.SYSTEM.SOLV>
0

>  <SCORE.SYSTEM.norm>
0

>  <SCORE.heavy>
10

>  <SCORE.norm>
-3.28004

>  <RMSD>
2.934

$$$$
lig.pdb
 OpenBabel11021811523D
libRbt.so/2013.1/901 2013/11/27
 10 11  0  0  0  0  0  0  0  0999 V2000
  -29.2875   15.4018  -15.0639 N   0  0  0  0  0  0  0  0  0  0  0  0
  -28.7187   15.5227  -16.3019 C   0  0  0  0  0  0  0  0  0  0  0  0
  -29.1440   16.5607  -16.9815 N   0  0  0  0  0  0  0  0  0  0  0  0
  -30.0564   17.1631  -16.1319 C   0  0  0  0  0  0  0  0  0  0  0  0
  -30.8563   18.3134  -16.2615 C   0  0  0  0  0  0  0  0  0  0  0  0
  -30.8614   19.0837  -17.3544 N   0  0  0  0  0  0  0  0  0  0  0  0
  -31.6571   18.6402  -15.2235 N   0  0  0  0  0  0  0  0  0  0  0  0
  -31.6496   17.8635  -14.1345 C   0  0  0  0  0  0  0  0  0  0  0  0
  -30.9410   16.7605  -13.8966 N   0  0  0  0  0  0  0  0  0  0  0  0
  -30.1569   16.4621  -14.9447 C   0  0  0  0  0  0  0  0  0  0  0  0
  1 10  1  0  0  0  0
  2  3  2  0  0  0  0
  2  1  1  0  0  0  0
  3  4  1  0  0  0  0
  4 10  2  0  0  0  0
  4  5  1  0  0  0  0
  5  7  2  0  0  0  0
  6  5  1  0  0  0  0
  7  8  1  0  0  0  0
  9  8  2  0  0  0  0
 10  9  1  0  0  0  0
M  END
>  <CHROM.1>
-30.34198801,17.21062294,-15.65999942,0.48860523,-0.82330585,2.18316151

>  <Name>
lig.pdb

>  <RI>
9.24451e+06

>  <Rbt.Current_Directory>
/home/itssahil/PROJECTS/Mol_Feturizer/New_Systems/rnas/5uza

>  <Rbt.Executable>
rbdock ($Id: //depot/dev/client3/rdock/2013.1/src/exe/rbdock.cxx#4 $)

>  <Rbt.Library>
libRbt.so (2013.1, Build901 2013/11/27)

>  <Rbt.Parameter_File>
/export/apps/rDock/src/rDock_2013.1_src/data/scripts/dock_solv.prm

>  <Rbt.Receptor>
prm/pocket_docking_4.prm

>  <SCORE>
-32.7979

>  <SCORE.INTER>
-32.7979

>  <SCORE.INTER.CONST>
1

>  <SCORE.INTER.POLAR>
-4.04988

>  <SCORE.INTER.ROT>
0

>  <SCORE.INTER.SOLV>
11.9687

>  <SCORE.INTER.VDW>
-15.9552

>  <SCORE.INTER.norm>
-3.27979

>  <SCORE.INTRA>
0

>  <SCORE.INTRA.DIHEDRAL>
0

>  <SCORE.INTRA.DIHEDRAL.0>
0

>  <SCORE.INTRA.POLAR>
0

>  <SCORE.INTRA.POLAR.0>
0

>  <SCORE.INTRA.REPUL>
0

>  <SCORE.INTRA.REPUL.0>
0

>  <SCORE.INTRA.SOLV>
0

>  <SCORE.INTRA.SOLV.lig_0>
-14.8845

>  <SCORE.INTRA.VDW>
0

>  <SCORE.INTRA.VDW.0>
0

>  <SCORE.INTRA.norm>
0

>  <SCORE.RESTR>
0

>  <SCORE.RESTR.CAVITY>
0

>  <SCORE.RESTR.norm>
0

>  <SCORE.SYSTEM>
0

>  <SCORE.SYSTEM.CONST>
0

>  <SCORE.SYSTEM.DIHEDRAL>
0

>  <SCORE.SYSTEM.SOLV>
0

>  <SCORE.SYSTEM.norm>
0

>  <SCORE.heavy>
10

>  <SCORE.norm>
-3.27979

>  <RMSD>
2.934

$$$$
lig.pdb
 OpenBabel11021811523D
libRbt.so/2013.1/901 2013/11/27
 10 11  0  0  0  0  0  0  0  0999 V2000
  -29.2916   15.4001  -15.0618 N   0  0  0  0  0  0  0  0  0  0  0  0
  -28.7219   15.5210  -16.2994 C   0  0  0  0  0  0  0  0  0  0  0  0
  -29.1453   16.5603  -16.9785 N   0  0  0  0  0  0  0  0  0  0  0  0
  -30.0573   17.1633  -16.1289 C   0  0  0  0  0  0  0  0  0  0  0  0
  -30.8555   18.3148  -16.2581 C   0  0  0  0  0  0  0  0  0  0  0  0
  -30.8589   19.0859  -17.3504 N   0  0  0  0  0  0  0  0  0  0  0  0
  -31.6564   18.6420  -15.2204 N   0  0  0  0  0  0  0  0  0  0  0  0
  -31.6507   17.8646  -14.1319 C   0  0  0  0  0  0  0  0  0  0  0  0
  -30.9438   16.7603  -13.8945 N   0  0  0  0  0  0  0  0  0  0  0  0
  -30.1596   16.4616  -14.9424 C   0  0  0  0  0  0  0  0  0  0  0  0
  1 10  1  0  0  0  0
  2  3  2  0  0  0  0
  2  1  1  0  0  0  0
  3  4  1  0  0  0  0
  4 10  2  0  0  0  0
  4  5  1  0  0  0  0
  5  7  2  0  0  0  0
  6  5  1  0  0  0  0
  7  8  1  0  0  0  0
  9  8  2  0  0  0  0
 10  9  1  0  0  0  0
M  END
>  <CHROM.1>
-30.34313827,17.21089087,-15.65717026,0.49054232,-0.82415553,2.18532781

>  <Name>
lig.pdb

>  <RI>
9.24451e+06

>  <Rbt.Current_Directory>
/home/itssahil/PROJECTS/Mol_Feturizer/New_Systems/rnas/5uza

>  <Rbt.Executable>
rbdock ($Id: //depot/dev/client3/rdock/2013.1/src/exe/rbdock.cxx#4 $)

>  <Rbt.Library>
libRbt.so (2013.1, Build901 2013/11/27)

>  <Rbt.Parameter_File>
/export/apps/rDock/src/rDock_2013.1_src/data/scripts/dock_solv.prm

>  <Rbt.Receptor>
prm/pocket_docking_4.prm

>  <SCORE>
-32.8004

>  <SCORE.INTER>
-32.8004

>  <SCORE.INTER.CONST>
1

>  <SCORE.INTER.POLAR>
-4.056

>  <SCORE.INTER.ROT>
0

>  <SCORE.INTER.SOLV>
11.9807

>  <SCORE.INTER.VDW>
-15.9405

>  <SCORE.INTER.norm>
-3.28004

>  <SCORE.INTRA>
0

>  <SCORE.INTRA.DIHEDRAL>
0

>  <SCORE.INTRA.DIHEDRAL.0>
0

>  <SCORE.INTRA.POLAR>
0

>  <SCORE.INTRA.POLAR.0>
0

>  <SCORE.INTRA.REPUL>
0

>  <SCORE.INTRA.REPUL.0>
0

>  <SCORE.INTRA.SOLV>
0

>  <SCORE.INTRA.SOLV.lig_0>
-14.8845

>  <SCORE.INTRA.VDW>
0

>  <SCORE.INTRA.VDW.0>
0

>  <SCORE.INTRA.norm>
0

>  <SCORE.RESTR>
0

>  <SCORE.RESTR.CAVITY>
0

>  <SCORE.RESTR.norm>
0

>  <SCORE.SYSTEM>
0

>  <SCORE.SYSTEM.CONST>
0

>  <SCORE.SYSTEM.DIHEDRAL>
0

>  <SCORE.SYSTEM.SOLV>
0

>  <SCORE.SYSTEM.norm>
0

>  <SCORE.heavy>
10

>  <SCORE.norm>
-3.28004

>  <RMSD>
2.935

$$$$
lig.pdb
 OpenBabel11021811523D
libRbt.so/2013.1/901 2013/11/27
 10 11  0  0  0  0  0  0  0  0999 V2000
  -29.2868   15.4020  -15.0607 N   0  0  0  0  0  0  0  0  0  0  0  0
  -28.7203   15.5215  -16.3000 C   0  0  0  0  0  0  0  0  0  0  0  0
  -29.1431   16.5616  -16.9779 N   0  0  0  0  0  0  0  0  0  0  0  0
  -30.0512   17.1670  -16.1258 C   0  0  0  0  0  0  0  0  0  0  0  0
  -30.8470   18.3204  -16.2528 C   0  0  0  0  0  0  0  0  0  0  0  0
  -30.8516   19.0914  -17.3452 N   0  0  0  0  0  0  0  0  0  0  0  0
  -31.6441   18.6497  -15.2129 N   0  0  0  0  0  0  0  0  0  0  0  0
  -31.6372   17.8723  -14.1244 C   0  0  0  0  0  0  0  0  0  0  0  0
  -30.9324   16.7663  -13.8888 N   0  0  0  0  0  0  0  0  0  0  0  0
  -30.1518   16.4656  -14.9389 C   0  0  0  0  0  0  0  0  0  0  0  0
  1 10  1  0  0  0  0
  2  3  2  0  0  0  0
  2  1  1  0  0  0  0
  3  4  1  0  0  0  0
  4 10  2  0  0  0  0
  4  5  1  0  0  0  0
  5  7  2  0  0  0  0
  6  5  1  0  0  0  0
  7  8  1  0  0  0  0
  9  8  2  0  0  0  0
 10  9  1  0  0  0  0
M  END
>  <CHROM.1>
-30.33560768,17.21531765,-15.65325565,0.48916726,-0.82778892,2.18421689

>  <Name>
lig.pdb

>  <RI>
9.24451e+06

>  <Rbt.Current_Directory>
/home/itssahil/PROJECTS/Mol_Feturizer/New_Systems/rnas/5uza

>  <Rbt.Executable>
rbdock ($Id: //depot/dev/client3/rdock/2013.1/src/exe/rbdock.cxx#4 $)

>  <Rbt.Library>
libRbt.so (2013.1, Build901 2013/11/27)

>  <Rbt.Parameter_File>
/export/apps/rDock/src/rDock_2013.1_src/data/scripts/dock_solv.prm

>  <Rbt.Receptor>
prm/pocket_docking_4.prm

>  <SCORE>
-32.8022

>  <SCORE.INTER>
-32.8022

>  <SCORE.INTER.CONST>
1

>  <SCORE.INTER.POLAR>
-4.05412

>  <SCORE.INTER.ROT>
0

>  <SCORE.INTER.SOLV>
11.9823

>  <SCORE.INTER.VDW>
-15.9485

>  <SCORE.INTER.norm>
-3.28022

>  <SCORE.INTRA>
0

>  <SCORE.INTRA.DIHEDRAL>
0

>  <SCORE.INTRA.DIHEDRAL.0>
0

>  <SCORE.INTRA.POLAR>
0

>  <SCORE.INTRA.POLAR.0>
0

>  <SCORE.INTRA.REPUL>
0

>  <SCORE.INTRA.REPUL.0>
0

>  <SCORE.INTRA.SOLV>
0

>  <SCORE.INTRA.SOLV.lig_0>
-14.8845

>  <SCORE.INTRA.VDW>
0

>  <SCORE.INTRA.VDW.0>
0

>  <SCORE.INTRA.norm>
0

>  <SCORE.RESTR>
0

>  <SCORE.RESTR.CAVITY>
0

>  <SCORE.RESTR.norm>
0

>  <SCORE.SYSTEM>
0

>  <SCORE.SYSTEM.CONST>
0

>  <SCORE.SYSTEM.DIHEDRAL>
0

>  <SCORE.SYSTEM.SOLV>
0

>  <SCORE.SYSTEM.norm>
0

>  <SCORE.heavy>
10

>  <SCORE.norm>
-3.28022

>  <RMSD>
2.935

$$$$
lig.pdb
 OpenBabel11021811523D
libRbt.so/2013.1/901 2013/11/27
 10 11  0  0  0  0  0  0  0  0999 V2000
  -29.2671   15.4022  -15.0621 N   0  0  0  0  0  0  0  0  0  0  0  0
  -28.6815   15.5419  -16.2904 C   0  0  0  0  0  0  0  0  0  0  0  0
  -29.1145   16.5772  -16.9693 N   0  0  0  0  0  0  0  0  0  0  0  0
  -30.0503   17.1575  -16.1297 C   0  0  0  0  0  0  0  0  0  0  0  0
  -30.8683   18.2944  -16.2638 C   0  0  0  0  0  0  0  0  0  0  0  0
  -30.8701   19.0723  -17.3512 N   0  0  0  0  0  0  0  0  0  0  0  0
  -31.6906   18.5997  -15.2361 N   0  0  0  0  0  0  0  0  0  0  0  0
  -31.6861   17.8155  -14.1525 C   0  0  0  0  0  0  0  0  0  0  0  0
  -30.9620   16.7233  -13.9113 N   0  0  0  0  0  0  0  0  0  0  0  0
  -30.1568   16.4463  -14.9492 C   0  0  0  0  0  0  0  0  0  0  0  0
  1 10  1  0  0  0  0
  2  3  2  0  0  0  0
  2  1  1  0  0  0  0
  3  4  1  0  0  0  0
  4 10  2  0  0  0  0
  4  5  1  0  0  0  0
  5  7  2  0  0  0  0
  6  5  1  0  0  0  0
  7  8  1  0  0  0  0
  9  8  2  0  0  0  0
 10  9  1  0  0  0  0
M  END
>  <CHROM.1>
-30.34394920,17.19654006,-15.66203331,0.49218656,-0.80005194,2.19282263

>  <Name>
lig.pdb

>  <RI>
0

>  <Rbt.Current_Directory>
/home/itssahil/PROJECTS/Mol_Feturizer/New_Systems/rnas/5uza

>  <Rbt.Executable>
rbdock ($Id: //depot/dev/client3/rdock/2013.1/src/exe/rbdock.cxx#4 $)

>  <Rbt.Library>
libRbt.so (2013.1, Build901 2013/11/27)

>  <Rbt.Parameter_File>
/export/apps/rDock/src/rDock_2013.1_src/data/scripts/dock_solv.prm

>  <Rbt.Receptor>
prm/pocket_docking_5.prm

>  <SCORE>
-32.7254

>  <SCORE.INTER>
-32.7254

>  <SCORE.INTER.CONST>
1

>  <SCORE.INTER.POLAR>
-4.05276

>  <SCORE.INTER.ROT>
0

>  <SCORE.INTER.SOLV>
11.9436

>  <SCORE.INTER.VDW>
-15.889

>  <SCORE.INTER.norm>
-3.27254

>  <SCORE.INTRA>
0

>  <SCORE.INTRA.DIHEDRAL>
0

>  <SCORE.INTRA.DIHEDRAL.0>
0

>  <SCORE.INTRA.POLAR>
0

>  <SCORE.INTRA.POLAR.0>
0

>  <SCORE.INTRA.REPUL>
0

>  <SCORE.INTRA.REPUL.0>
0

>  <SCORE.INTRA.SOLV>
0

>  <SCORE.INTRA.SOLV.lig_0>
-14.8845

>  <SCORE.INTRA.VDW>
0

>  <SCORE.INTRA.VDW.0>
0

>  <SCORE.INTRA.norm>
0

>  <SCORE.RESTR>
0

>  <SCORE.RESTR.CAVITY>
0

>  <SCORE.RESTR.norm>
0

>  <SCORE.SYSTEM>
0

>  <SCORE.SYSTEM.CONST>
0

>  <SCORE.SYSTEM.DIHEDRAL>
0

>  <SCORE.SYSTEM.SOLV>
0

>  <SCORE.SYSTEM.norm>
0

>  <SCORE.heavy>
10

>  <SCORE.norm>
-3.27254

>  <RMSD>
2.936

$$$$
lig.pdb
 OpenBabel11021811523D
libRbt.so/2013.1/901 2013/11/27
 10 11  0  0  0  0  0  0  0  0999 V2000
  -29.2654   15.4105  -15.0514 N   0  0  0  0  0  0  0  0  0  0  0  0
  -28.7158   15.5197  -16.2992 C   0  0  0  0  0  0  0  0  0  0  0  0
  -29.1487   16.5536  -16.9804 N   0  0  0  0  0  0  0  0  0  0  0  0
  -30.0458   17.1656  -16.1214 C   0  0  0  0  0  0  0  0  0  0  0  0
  -30.8443   18.3172  -16.2477 C   0  0  0  0  0  0  0  0  0  0  0  0
  -30.8644   19.0787  -17.3466 N   0  0  0  0  0  0  0  0  0  0  0  0
  -31.6277   18.6548  -15.1999 N   0  0  0  0  0  0  0  0  0  0  0  0
  -31.6053   17.8869  -14.1049 C   0  0  0  0  0  0  0  0  0  0  0  0
  -30.8963   16.7836  -13.8693 N   0  0  0  0  0  0  0  0  0  0  0  0
  -30.1297   16.4745  -14.9272 C   0  0  0  0  0  0  0  0  0  0  0  0
  1 10  1  0  0  0  0
  2  3  2  0  0  0  0
  2  1  1  0  0  0  0
  3  4  1  0  0  0  0
  4 10  2  0  0  0  0
  4  5  1  0  0  0  0
  5  7  2  0  0  0  0
  6  5  1  0  0  0  0
  7  8  1  0  0  0  0
  9  8  2  0  0  0  0
 10  9  1  0  0  0  0
M  END
>  <CHROM.1>
-30.32383594,17.21775374,-15.64549349,0.47191243,-0.83470754,2.16278065

>  <Name>
lig.pdb

>  <RI>
0

>  <Rbt.Current_Directory>
/home/itssahil/PROJECTS/Mol_Feturizer/New_Systems/rnas/5uza

>  <Rbt.Executable>
rbdock ($Id: //depot/dev/client3/rdock/2013.1/src/exe/rbdock.cxx#4 $)

>  <Rbt.Library>
libRbt.so (2013.1, Build901 2013/11/27)

>  <Rbt.Parameter_File>
/export/apps/rDock/src/rDock_2013.1_src/data/scripts/dock_solv.prm

>  <Rbt.Receptor>
prm/pocket_docking_3.prm

>  <SCORE>
-32.7905

>  <SCORE.INTER>
-32.7905

>  <SCORE.INTER.CONST>
1

>  <SCORE.INTER.POLAR>
-4.04305

>  <SCORE.INTER.ROT>
0

>  <SCORE.INTER.SOLV>
11.9146

>  <SCORE.INTER.VDW>
-15.9551

>  <SCORE.INTER.norm>
-3.27905

>  <SCORE.INTRA>
0

>  <SCORE.INTRA.DIHEDRAL>
0

>  <SCORE.INTRA.DIHEDRAL.0>
0

>  <SCORE.INTRA.POLAR>
0

>  <SCORE.INTRA.POLAR.0>
0

>  <SCORE.INTRA.REPUL>
0

>  <SCORE.INTRA.REPUL.0>
0

>  <SCORE.INTRA.SOLV>
0

>  <SCORE.INTRA.SOLV.lig_0>
-14.8845

>  <SCORE.INTRA.VDW>
0

>  <SCORE.INTRA.VDW.0>
0

>  <SCORE.INTRA.norm>
0

>  <SCORE.RESTR>
0

>  <SCORE.RESTR.CAVITY>
0

>  <SCORE.RESTR.norm>
0

>  <SCORE.SYSTEM>
0

>  <SCORE.SYSTEM.CONST>
0

>  <SCORE.SYSTEM.DIHEDRAL>
0

>  <SCORE.SYSTEM.SOLV>
0

>  <SCORE.SYSTEM.norm>
0

>  <SCORE.heavy>
10

>  <SCORE.norm>
-3.27905

>  <RMSD>
2.937

$$$$
lig.pdb
 OpenBabel11021811523D
libRbt.so/2013.1/901 2013/11/27
 10 11  0  0  0  0  0  0  0  0999 V2000
  -29.2594   15.4124  -15.0574 N   0  0  0  0  0  0  0  0  0  0  0  0
  -28.6583   15.5634  -16.2768 C   0  0  0  0  0  0  0  0  0  0  0  0
  -29.0871   16.6015  -16.9542 N   0  0  0  0  0  0  0  0  0  0  0  0
  -30.0366   17.1715  -16.1230 C   0  0  0  0  0  0  0  0  0  0  0  0
  -30.8580   18.3056  -16.2600 C   0  0  0  0  0  0  0  0  0  0  0  0
  -30.8491   19.0912  -17.3419 N   0  0  0  0  0  0  0  0  0  0  0  0
  -31.6952   18.5999  -15.2412 N   0  0  0  0  0  0  0  0  0  0  0  0
  -31.7015   17.8081  -14.1632 C   0  0  0  0  0  0  0  0  0  0  0  0
  -30.9755   16.7176  -13.9200 N   0  0  0  0  0  0  0  0  0  0  0  0
  -30.1553   16.4515  -14.9490 C   0  0  0  0  0  0  0  0  0  0  0  0
  1 10  1  0  0  0  0
  2  3  2  0  0  0  0
  2  1  1  0  0  0  0
  3  4  1  0  0  0  0
  4 10  2  0  0  0  0
  4  5  1  0  0  0  0
  5  7  2  0  0  0  0
  6  5  1  0  0  0  0
  7  8  1  0  0  0  0
  9  8  2  0  0  0  0
 10  9  1  0  0  0  0
M  END
>  <CHROM.1>
-30.33656551,17.20596867,-15.65903031,0.50355406,-0.78852123,2.20793736

>  <Name>
lig.pdb

>  <RI>
0

>  <Rbt.Current_Directory>
/home/itssahil/PROJECTS/Mol_Feturizer/New_Systems/rnas/5uza

>  <Rbt.Executable>
rbdock ($Id: //depot/dev/client3/rdock/2013.1/src/exe/rbdock.cxx#4 $)

>  <Rbt.Library>
libRbt.so (2013.1, Build901 2013/11/27)

>  <Rbt.Parameter_File>
/export/apps/rDock/src/rDock_2013.1_src/data/scripts/dock_solv.prm

>  <Rbt.Receptor>
prm/blind_docking_80.prm

>  <SCORE>
-32.7545

>  <SCORE.INTER>
-32.7545

>  <SCORE.INTER.CONST>
1

>  <SCORE.INTER.POLAR>
-4.07194

>  <SCORE.INTER.ROT>
0

>  <SCORE.INTER.SOLV>
11.9801

>  <SCORE.INTER.VDW>
-15.8566

>  <SCORE.INTER.norm>
-3.27545

>  <SCORE.INTRA>
0

>  <SCORE.INTRA.DIHEDRAL>
0

>  <SCORE.INTRA.DIHEDRAL.0>
0

>  <SCORE.INTRA.POLAR>
0

>  <SCORE.INTRA.POLAR.0>
0

>  <SCORE.INTRA.REPUL>
0

>  <SCORE.INTRA.REPUL.0>
0

>  <SCORE.INTRA.SOLV>
0

>  <SCORE.INTRA.SOLV.lig_0>
-14.8845

>  <SCORE.INTRA.VDW>
0

>  <SCORE.INTRA.VDW.0>
0

>  <SCORE.INTRA.norm>
0

>  <SCORE.RESTR>
0

>  <SCORE.RESTR.CAVITY>
0

>  <SCORE.RESTR.norm>
0

>  <SCORE.SYSTEM>
0

>  <SCORE.SYSTEM.CONST>
0

>  <SCORE.SYSTEM.DIHEDRAL>
0

>  <SCORE.SYSTEM.SOLV>
0

>  <SCORE.SYSTEM.norm>
0

>  <SCORE.heavy>
10

>  <SCORE.norm>
-3.27545

>  <RMSD>
2.938

$$$$
lig.pdb
 OpenBabel11021811523D
libRbt.so/2013.1/901 2013/11/27
 10 11  0  0  0  0  0  0  0  0999 V2000
  -29.2404   15.4264  -15.0569 N   0  0  0  0  0  0  0  0  0  0  0  0
  -28.6273   15.5884  -16.2689 C   0  0  0  0  0  0  0  0  0  0  0  0
  -29.0609   16.6234  -16.9480 N   0  0  0  0  0  0  0  0  0  0  0  0
  -30.0267   17.1793  -16.1262 C   0  0  0  0  0  0  0  0  0  0  0  0
  -30.8603   18.3038  -16.2691 C   0  0  0  0  0  0  0  0  0  0  0  0
  -30.8485   19.0927  -17.3486 N   0  0  0  0  0  0  0  0  0  0  0  0
  -31.7125   18.5848  -15.2592 N   0  0  0  0  0  0  0  0  0  0  0  0
  -31.7215   17.7896  -14.1836 C   0  0  0  0  0  0  0  0  0  0  0  0
  -30.9851   16.7072  -13.9354 N   0  0  0  0  0  0  0  0  0  0  0  0
  -30.1501   16.4543  -14.9557 C   0  0  0  0  0  0  0  0  0  0  0  0
  1 10  1  0  0  0  0
  2  3  2  0  0  0  0
  2  1  1  0  0  0  0
  3  4  1  0  0  0  0
  4 10  2  0  0  0  0
  4  5  1  0  0  0  0
  5  7  2  0  0  0  0
  6  5  1  0  0  0  0
  7  8  1  0  0  0  0
  9  8  2  0  0  0  0
 10  9  1  0  0  0  0
M  END
>  <CHROM.1>
-30.33237477,17.20866102,-15.66551505,0.50628109,-0.77196946,2.21288041

>  <Name>
lig.pdb

>  <RI>
0

>  <Rbt.Current_Directory>
/home/itssahil/PROJECTS/Mol_Feturizer/New_Systems/rnas/5uza

>  <Rbt.Executable>
rbdock ($Id: //depot/dev/client3/rdock/2013.1/src/exe/rbdock.cxx#4 $)

>  <Rbt.Library>
libRbt.so (2013.1, Build901 2013/11/27)

>  <Rbt.Parameter_File>
/export/apps/rDock/src/rDock_2013.1_src/data/scripts/dock_solv.prm

>  <Rbt.Receptor>
prm/blind_docking_80.prm

>  <SCORE>
-32.7327

>  <SCORE.INTER>
-32.7327

>  <SCORE.INTER.CONST>
1

>  <SCORE.INTER.POLAR>
-4.07168

>  <SCORE.INTER.ROT>
0

>  <SCORE.INTER.SOLV>
11.9623

>  <SCORE.INTER.VDW>
-15.837

>  <SCORE.INTER.norm>
-3.27327

>  <SCORE.INTRA>
0

>  <SCORE.INTRA.DIHEDRAL>
0

>  <SCORE.INTRA.DIHEDRAL.0>
0

>  <SCORE.INTRA.POLAR>
0

>  <SCORE.INTRA.POLAR.0>
0

>  <SCORE.INTRA.REPUL>
0

>  <SCORE.INTRA.REPUL.0>
0

>  <SCORE.INTRA.SOLV>
0

>  <SCORE.INTRA.SOLV.lig_0>
-14.8845

>  <SCORE.INTRA.VDW>
0

>  <SCORE.INTRA.VDW.0>
0

>  <SCORE.INTRA.norm>
0

>  <SCORE.RESTR>
0

>  <SCORE.RESTR.CAVITY>
0

>  <SCORE.RESTR.norm>
0

>  <SCORE.SYSTEM>
0

>  <SCORE.SYSTEM.CONST>
0

>  <SCORE.SYSTEM.DIHEDRAL>
0

>  <SCORE.SYSTEM.SOLV>
0

>  <SCORE.SYSTEM.norm>
0

>  <SCORE.heavy>
10

>  <SCORE.norm>
-3.27327

>  <RMSD>
2.938

$$$$
lig.pdb
 OpenBabel11021811523D
libRbt.so/2013.1/901 2013/11/27
 10 11  0  0  0  0  0  0  0  0999 V2000
  -29.2662   15.4159  -15.0522 N   0  0  0  0  0  0  0  0  0  0  0  0
  -28.6740   15.5562  -16.2772 C   0  0  0  0  0  0  0  0  0  0  0  0
  -29.0981   16.5959  -16.9550 N   0  0  0  0  0  0  0  0  0  0  0  0
  -30.0349   17.1786  -16.1182 C   0  0  0  0  0  0  0  0  0  0  0  0
  -30.8462   18.3203  -16.2527 C   0  0  0  0  0  0  0  0  0  0  0  0
  -30.8386   19.1015  -17.3378 N   0  0  0  0  0  0  0  0  0  0  0  0
  -31.6718   18.6268  -15.2281 N   0  0  0  0  0  0  0  0  0  0  0  0
  -31.6768   17.8393  -14.1469 C   0  0  0  0  0  0  0  0  0  0  0  0
  -30.9597   16.7425  -13.9056 N   0  0  0  0  0  0  0  0  0  0  0  0
  -30.1509   16.4643  -14.9404 C   0  0  0  0  0  0  0  0  0  0  0  0
  1 10  1  0  0  0  0
  2  3  2  0  0  0  0
  2  1  1  0  0  0  0
  3  4  1  0  0  0  0
  4 10  2  0  0  0  0
  4  5  1  0  0  0  0
  5  7  2  0  0  0  0
  6  5  1  0  0  0  0
  7  8  1  0  0  0  0
  9  8  2  0  0  0  0
 10  9  1  0  0  0  0
M  END
>  <CHROM.1>
-30.33061171,17.21778210,-15.65181730,0.50228631,-0.80151748,2.20313357

>  <Name>
lig.pdb

>  <RI>
0

>  <Rbt.Current_Directory>
/home/itssahil/PROJECTS/Mol_Feturizer/New_Systems/rnas/5uza

>  <Rbt.Executable>
rbdock ($Id: //depot/dev/client3/rdock/2013.1/src/exe/rbdock.cxx#4 $)

>  <Rbt.Library>
libRbt.so (2013.1, Build901 2013/11/27)

>  <Rbt.Parameter_File>
/export/apps/rDock/src/rDock_2013.1_src/data/scripts/dock_solv.prm

>  <Rbt.Receptor>
prm/pocket_docking_3.prm

>  <SCORE>
-32.8067

>  <SCORE.INTER>
-32.8067

>  <SCORE.INTER.CONST>
1

>  <SCORE.INTER.POLAR>
-4.07861

>  <SCORE.INTER.ROT>
0

>  <SCORE.INTER.SOLV>
11.9971

>  <SCORE.INTER.VDW>
-15.8748

>  <SCORE.INTER.norm>
-3.28067

>  <SCORE.INTRA>
0

>  <SCORE.INTRA.DIHEDRAL>
0

>  <SCORE.INTRA.DIHEDRAL.0>
0

>  <SCORE.INTRA.POLAR>
0

>  <SCORE.INTRA.POLAR.0>
0

>  <SCORE.INTRA.REPUL>
0

>  <SCORE.INTRA.REPUL.0>
0

>  <SCORE.INTRA.SOLV>
0

>  <SCORE.INTRA.SOLV.lig_0>
-14.8845

>  <SCORE.INTRA.VDW>
0

>  <SCORE.INTRA.VDW.0>
0

>  <SCORE.INTRA.norm>
0

>  <SCORE.RESTR>
0

>  <SCORE.RESTR.CAVITY>
0

>  <SCORE.RESTR.norm>
0

>  <SCORE.SYSTEM>
0

>  <SCORE.SYSTEM.CONST>
0

>  <SCORE.SYSTEM.DIHEDRAL>
0

>  <SCORE.SYSTEM.SOLV>
0

>  <SCORE.SYSTEM.norm>
0

>  <SCORE.heavy>
10

>  <SCORE.norm>
-3.28067

>  <RMSD>
2.939

$$$$
lig.pdb
 OpenBabel11021811523D
libRbt.so/2013.1/901 2013/11/27
 10 11  0  0  0  0  0  0  0  0999 V2000
  -29.2701   15.4118  -15.0508 N   0  0  0  0  0  0  0  0  0  0  0  0
  -28.6747   15.5547  -16.2740 C   0  0  0  0  0  0  0  0  0  0  0  0
  -29.0969   16.5961  -16.9505 N   0  0  0  0  0  0  0  0  0  0  0  0
  -30.0356   17.1772  -16.1146 C   0  0  0  0  0  0  0  0  0  0  0  0
  -30.8461   18.3194  -16.2485 C   0  0  0  0  0  0  0  0  0  0  0  0
  -30.8356   19.1032  -17.3318 N   0  0  0  0  0  0  0  0  0  0  0  0
  -31.6742   18.6239  -15.2253 N   0  0  0  0  0  0  0  0  0  0  0  0
  -31.6821   17.8339  -14.1459 C   0  0  0  0  0  0  0  0  0  0  0  0
  -30.9659   16.7363  -13.9053 N   0  0  0  0  0  0  0  0  0  0  0  0
  -30.1547   16.4603  -14.9388 C   0  0  0  0  0  0  0  0  0  0  0  0
  1 10  1  0  0  0  0
  2  3  2  0  0  0  0
  2  1  1  0  0  0  0
  3  4  1  0  0  0  0
  4 10  2  0  0  0  0
  4  5  1  0  0  0  0
  5  7  2  0  0  0  0
  6  5  1  0  0  0  0
  7  8  1  0  0  0  0
  9  8  2  0  0  0  0
 10  9  1  0  0  0  0
M  END
>  <CHROM.1>
-30.33240296,17.21541371,-15.64890816,0.50543828,-0.80031373,2.20769422

>  <Name>
lig.pdb

>  <RI>
0

>  <Rbt.Current_Directory>
/home/itssahil/PROJECTS/Mol_Feturizer/New_Systems/rnas/5uza

>  <Rbt.Executable>
rbdock ($Id: //depot/dev/client3/rdock/2013.1/src/exe/rbdock.cxx#4 $)

>  <Rbt.Library>
libRbt.so (2013.1, Build901 2013/11/27)

>  <Rbt.Parameter_File>
/export/apps/rDock/src/rDock_2013.1_src/data/scripts/dock_solv.prm

>  <Rbt.Receptor>
prm/pocket_docking_3.prm

>  <SCORE>
-32.7981

>  <SCORE.INTER>
-32.7981

>  <SCORE.INTER.CONST>
1

>  <SCORE.INTER.POLAR>
-4.08475

>  <SCORE.INTER.ROT>
0

>  <SCORE.INTER.SOLV>
12.012

>  <SCORE.INTER.VDW>
-15.8536

>  <SCORE.INTER.norm>
-3.27981

>  <SCORE.INTRA>
0

>  <SCORE.INTRA.DIHEDRAL>
0

>  <SCORE.INTRA.DIHEDRAL.0>
0

>  <SCORE.INTRA.POLAR>
0

>  <SCORE.INTRA.POLAR.0>
0

>  <SCORE.INTRA.REPUL>
0

>  <SCORE.INTRA.REPUL.0>
0

>  <SCORE.INTRA.SOLV>
0

>  <SCORE.INTRA.SOLV.lig_0>
-14.8845

>  <SCORE.INTRA.VDW>
0

>  <SCORE.INTRA.VDW.0>
0

>  <SCORE.INTRA.norm>
0

>  <SCORE.RESTR>
0

>  <SCORE.RESTR.CAVITY>
0

>  <SCORE.RESTR.norm>
0

>  <SCORE.SYSTEM>
0

>  <SCORE.SYSTEM.CONST>
0

>  <SCORE.SYSTEM.DIHEDRAL>
0

>  <SCORE.SYSTEM.SOLV>
0

>  <SCORE.SYSTEM.norm>
0

>  <SCORE.heavy>
10

>  <SCORE.norm>
-3.27981

>  <RMSD>
2.940

$$$$
lig.pdb
 OpenBabel11021811523D
libRbt.so/2013.1/901 2013/11/27
 10 11  0  0  0  0  0  0  0  0999 V2000
  -29.2336   15.4344  -15.0398 N   0  0  0  0  0  0  0  0  0  0  0  0
  -28.6370   15.5808  -16.2619 C   0  0  0  0  0  0  0  0  0  0  0  0
  -29.0761   16.6100  -16.9462 N   0  0  0  0  0  0  0  0  0  0  0  0
  -30.0281   17.1787  -16.1170 C   0  0  0  0  0  0  0  0  0  0  0  0
  -30.8592   18.3049  -16.2606 C   0  0  0  0  0  0  0  0  0  0  0  0
  -30.8596   19.0820  -17.3486 N   0  0  0  0  0  0  0  0  0  0  0  0
  -31.6961   18.6003  -15.2419 N   0  0  0  0  0  0  0  0  0  0  0  0
  -31.6930   17.8170  -14.1577 C   0  0  0  0  0  0  0  0  0  0  0  0
  -30.9574   16.7343  -13.9079 N   0  0  0  0  0  0  0  0  0  0  0  0
  -30.1378   16.4670  -14.9371 C   0  0  0  0  0  0  0  0  0  0  0  0
  1 10  1  0  0  0  0
  2  3  2  0  0  0  0
  2  1  1  0  0  0  0
  3  4  1  0  0  0  0
  4 10  2  0  0  0  0
  4  5  1  0  0  0  0
  5  7  2  0  0  0  0
  6  5  1  0  0  0  0
  7  8  1  0  0  0  0
  9  8  2  0  0  0  0
 10  9  1  0  0  0  0
M  END
>  <CHROM.1>
-30.32709839,17.21431995,-15.65246006,0.49366440,-0.78344280,2.19312881

>  <Name>
lig.pdb

>  <RI>
2.12818e+07

>  <Rbt.Current_Directory>
/home/itssahil/PROJECTS/Mol_Feturizer/New_Systems/rnas/5uza

>  <Rbt.Executable>
rbdock ($Id: //depot/dev/client3/rdock/2013.1/src/exe/rbdock.cxx#4 $)

>  <Rbt.Library>
libRbt.so (2013.1, Build901 2013/11/27)

>  <Rbt.Parameter_File>
/export/apps/rDock/src/rDock_2013.1_src/data/scripts/dock_solv.prm

>  <Rbt.Receptor>
prm/pocket_docking_7.prm

>  <SCORE>
-32.7519

>  <SCORE.INTER>
-32.7522

>  <SCORE.INTER.CONST>
1

>  <SCORE.INTER.POLAR>
-4.07924

>  <SCORE.INTER.ROT>
0

>  <SCORE.INTER.SOLV>
11.9169

>  <SCORE.INTER.VDW>
-15.8096

>  <SCORE.INTER.norm>
-3.27522

>  <SCORE.INTRA>
0

>  <SCORE.INTRA.DIHEDRAL>
0

>  <SCORE.INTRA.DIHEDRAL.0>
0

>  <SCORE.INTRA.POLAR>
0

>  <SCORE.INTRA.POLAR.0>
0

>  <SCORE.INTRA.REPUL>
0

>  <SCORE.INTRA.REPUL.0>
0

>  <SCORE.INTRA.SOLV>
0

>  <SCORE.INTRA.SOLV.lig_0>
-14.8845

>  <SCORE.INTRA.VDW>
0

>  <SCORE.INTRA.VDW.0>
0

>  <SCORE.INTRA.norm>
0

>  <SCORE.RESTR>
0.000286399

>  <SCORE.RESTR.CAVITY>
0.000286399

>  <SCORE.RESTR.norm>
2.86399e-05

>  <SCORE.SYSTEM>
0

>  <SCORE.SYSTEM.CONST>
0

>  <SCORE.SYSTEM.DIHEDRAL>
0

>  <SCORE.SYSTEM.SOLV>
0

>  <SCORE.SYSTEM.norm>
0

>  <SCORE.heavy>
10

>  <SCORE.norm>
-3.27519

>  <RMSD>
2.940

$$$$
lig.pdb
 OpenBabel11021811523D
libRbt.so/2013.1/901 2013/11/27
 10 11  0  0  0  0  0  0  0  0999 V2000
  -29.2027   15.4568  -15.0287 N   0  0  0  0  0  0  0  0  0  0  0  0
  -28.6172   15.5961  -16.2570 C   0  0  0  0  0  0  0  0  0  0  0  0
  -29.0704   16.6149  -16.9477 N   0  0  0  0  0  0  0  0  0  0  0  0
  -30.0205   17.1837  -16.1164 C   0  0  0  0  0  0  0  0  0  0  0  0
  -30.8622   18.3015  -16.2642 C   0  0  0  0  0  0  0  0  0  0  0  0
  -30.8778   19.0679  -17.3598 N   0  0  0  0  0  0  0  0  0  0  0  0
  -31.6933   18.5999  -15.2417 N   0  0  0  0  0  0  0  0  0  0  0  0
  -31.6749   17.8274  -14.1500 C   0  0  0  0  0  0  0  0  0  0  0  0
  -30.9283   16.7534  -13.8957 N   0  0  0  0  0  0  0  0  0  0  0  0
  -30.1147   16.4828  -14.9288 C   0  0  0  0  0  0  0  0  0  0  0  0
  1 10  1  0  0  0  0
  2  3  2  0  0  0  0
  2  1  1  0  0  0  0
  3  4  1  0  0  0  0
  4 10  2  0  0  0  0
  4  5  1  0  0  0  0
  5  7  2  0  0  0  0
  6  5  1  0  0  0  0
  7  8  1  0  0  0  0
  9  8  2  0  0  0  0
 10  9  1  0  0  0  0
M  END
>  <CHROM.1>
-30.31606629,17.22143031,-15.64985426,0.47755257,-0.78123152,2.17195721

>  <Name>
lig.pdb

>  <RI>
0

>  <Rbt.Current_Directory>
/home/itssahil/PROJECTS/Mol_Feturizer/New_Systems/rnas/5uza

>  <Rbt.Executable>
rbdock ($Id: //depot/dev/client3/rdock/2013.1/src/exe/rbdock.cxx#4 $)

>  <Rbt.Library>
libRbt.so (2013.1, Build901 2013/11/27)

>  <Rbt.Parameter_File>
/export/apps/rDock/src/rDock_2013.1_src/data/scripts/dock_solv.prm

>  <Rbt.Receptor>
prm/blind_docking_60.prm

>  <SCORE>
-32.7914

>  <SCORE.INTER>
-32.7914

>  <SCORE.INTER.CONST>
1

>  <SCORE.INTER.POLAR>
-4.06834

>  <SCORE.INTER.ROT>
0

>  <SCORE.INTER.SOLV>
11.8397

>  <SCORE.INTER.VDW>
-15.8464

>  <SCORE.INTER.norm>
-3.27914

>  <SCORE.INTRA>
0

>  <SCORE.INTRA.DIHEDRAL>
0

>  <SCORE.INTRA.DIHEDRAL.0>
0

>  <SCORE.INTRA.POLAR>
0

>  <SCORE.INTRA.POLAR.0>
0

>  <SCORE.INTRA.REPUL>
0

>  <SCORE.INTRA.REPUL.0>
0

>  <SCORE.INTRA.SOLV>
0

>  <SCORE.INTRA.SOLV.lig_0>
-14.8845

>  <SCORE.INTRA.VDW>
0

>  <SCORE.INTRA.VDW.0>
0

>  <SCORE.INTRA.norm>
0

>  <SCORE.RESTR>
0

>  <SCORE.RESTR.CAVITY>
0

>  <SCORE.RESTR.norm>
0

>  <SCORE.SYSTEM>
0

>  <SCORE.SYSTEM.CONST>
0

>  <SCORE.SYSTEM.DIHEDRAL>
0

>  <SCORE.SYSTEM.SOLV>
0

>  <SCORE.SYSTEM.norm>
0

>  <SCORE.heavy>
10

>  <SCORE.norm>
-3.27914

>  <RMSD>
2.941

$$$$
lig.pdb
 OpenBabel11021811523D
libRbt.so/2013.1/901 2013/11/27
 10 11  0  0  0  0  0  0  0  0999 V2000
  -29.2069   15.4565  -15.0262 N   0  0  0  0  0  0  0  0  0  0  0  0
  -28.6175   15.5973  -16.2525 C   0  0  0  0  0  0  0  0  0  0  0  0
  -29.0687   16.6168  -16.9435 N   0  0  0  0  0  0  0  0  0  0  0  0
  -30.0215   17.1846  -16.1145 C   0  0  0  0  0  0  0  0  0  0  0  0
  -30.8628   18.3024  -16.2637 C   0  0  0  0  0  0  0  0  0  0  0  0
  -30.8752   19.0700  -17.3585 N   0  0  0  0  0  0  0  0  0  0  0  0
  -31.6972   18.5995  -15.2435 N   0  0  0  0  0  0  0  0  0  0  0  0
  -31.6821   17.8257  -14.1525 C   0  0  0  0  0  0  0  0  0  0  0  0
  -30.9362   16.7516  -13.8971 N   0  0  0  0  0  0  0  0  0  0  0  0
  -30.1194   16.4823  -14.9279 C   0  0  0  0  0  0  0  0  0  0  0  0
  1 10  1  0  0  0  0
  2  3  2  0  0  0  0
  2  1  1  0  0  0  0
  3  4  1  0  0  0  0
  4 10  2  0  0  0  0
  4  5  1  0  0  0  0
  5  7  2  0  0  0  0
  6  5  1  0  0  0  0
  7  8  1  0  0  0  0
  9  8  2  0  0  0  0
 10  9  1  0  0  0  0
M  END
>  <CHROM.1>
-30.31852358,17.22169164,-15.64882714,0.48109134,-0.77934415,2.17558400

>  <Name>
lig.pdb

>  <RI>
0

>  <Rbt.Current_Directory>
/home/itssahil/PROJECTS/Mol_Feturizer/New_Systems/rnas/5uza

>  <Rbt.Executable>
rbdock ($Id: //depot/dev/client3/rdock/2013.1/src/exe/rbdock.cxx#4 $)

>  <Rbt.Library>
libRbt.so (2013.1, Build901 2013/11/27)

>  <Rbt.Parameter_File>
/export/apps/rDock/src/rDock_2013.1_src/data/scripts/dock_solv.prm

>  <Rbt.Receptor>
prm/blind_docking_60.prm

>  <SCORE>
-32.803

>  <SCORE.INTER>
-32.803

>  <SCORE.INTER.CONST>
1

>  <SCORE.INTER.POLAR>
-4.07689

>  <SCORE.INTER.ROT>
0

>  <SCORE.INTER.SOLV>
11.8527

>  <SCORE.INTER.VDW>
-15.8299

>  <SCORE.INTER.norm>
-3.2803

>  <SCORE.INTRA>
0

>  <SCORE.INTRA.DIHEDRAL>
0

>  <SCORE.INTRA.DIHEDRAL.0>
0

>  <SCORE.INTRA.POLAR>
0

>  <SCORE.INTRA.POLAR.0>
0

>  <SCORE.INTRA.REPUL>
0

>  <SCORE.INTRA.REPUL.0>
0

>  <SCORE.INTRA.SOLV>
0

>  <SCORE.INTRA.SOLV.lig_0>
-14.8845

>  <SCORE.INTRA.VDW>
0

>  <SCORE.INTRA.VDW.0>
0

>  <SCORE.INTRA.norm>
0

>  <SCORE.RESTR>
0

>  <SCORE.RESTR.CAVITY>
0

>  <SCORE.RESTR.norm>
0

>  <SCORE.SYSTEM>
0

>  <SCORE.SYSTEM.CONST>
0

>  <SCORE.SYSTEM.DIHEDRAL>
0

>  <SCORE.SYSTEM.SOLV>
0

>  <SCORE.SYSTEM.norm>
0

>  <SCORE.heavy>
10

>  <SCORE.norm>
-3.2803

>  <RMSD>
2.942

$$$$
lig.pdb
 OpenBabel11021811523D
libRbt.so/2013.1/901 2013/11/27
 10 11  0  0  0  0  0  0  0  0999 V2000
  -29.2090   15.4541  -15.0262 N   0  0  0  0  0  0  0  0  0  0  0  0
  -28.6193   15.5954  -16.2523 C   0  0  0  0  0  0  0  0  0  0  0  0
  -29.0693   16.6159  -16.9424 N   0  0  0  0  0  0  0  0  0  0  0  0
  -30.0216   17.1839  -16.1132 C   0  0  0  0  0  0  0  0  0  0  0  0
  -30.8618   18.3028  -16.2615 C   0  0  0  0  0  0  0  0  0  0  0  0
  -30.8732   19.0713  -17.3556 N   0  0  0  0  0  0  0  0  0  0  0  0
  -31.6961   18.5998  -15.2412 N   0  0  0  0  0  0  0  0  0  0  0  0
  -31.6820   17.8251  -14.1509 C   0  0  0  0  0  0  0  0  0  0  0  0
  -30.9372   16.7499  -13.8963 N   0  0  0  0  0  0  0  0  0  0  0  0
  -30.1205   16.4807  -14.9272 C   0  0  0  0  0  0  0  0  0  0  0  0
  1 10  1  0  0  0  0
  2  3  2  0  0  0  0
  2  1  1  0  0  0  0
  3  4  1  0  0  0  0
  4 10  2  0  0  0  0
  4  5  1  0  0  0  0
  5  7  2  0  0  0  0
  6  5  1  0  0  0  0
  7  8  1  0  0  0  0
  9  8  2  0  0  0  0
 10  9  1  0  0  0  0
M  END
>  <CHROM.1>
-30.31871464,17.22095706,-15.64749433,0.48212408,-0.78005943,2.17718299

>  <Name>
lig.pdb

>  <RI>
0

>  <Rbt.Current_Directory>
/home/itssahil/PROJECTS/Mol_Feturizer/New_Systems/rnas/5uza

>  <Rbt.Executable>
rbdock ($Id: //depot/dev/client3/rdock/2013.1/src/exe/rbdock.cxx#4 $)

>  <Rbt.Library>
libRbt.so (2013.1, Build901 2013/11/27)

>  <Rbt.Parameter_File>
/export/apps/rDock/src/rDock_2013.1_src/data/scripts/dock_solv.prm

>  <Rbt.Receptor>
prm/blind_docking_60.prm

>  <SCORE>
-32.8055

>  <SCORE.INTER>
-32.8055

>  <SCORE.INTER.CONST>
1

>  <SCORE.INTER.POLAR>
-4.079

>  <SCORE.INTER.ROT>
0

>  <SCORE.INTER.SOLV>
11.8592

>  <SCORE.INTER.VDW>
-15.8267

>  <SCORE.INTER.norm>
-3.28055

>  <SCORE.INTRA>
0

>  <SCORE.INTRA.DIHEDRAL>
0

>  <SCORE.INTRA.DIHEDRAL.0>
0

>  <SCORE.INTRA.POLAR>
0

>  <SCORE.INTRA.POLAR.0>
0

>  <SCORE.INTRA.REPUL>
0

>  <SCORE.INTRA.REPUL.0>
0

>  <SCORE.INTRA.SOLV>
0

>  <SCORE.INTRA.SOLV.lig_0>
-14.8845

>  <SCORE.INTRA.VDW>
0

>  <SCORE.INTRA.VDW.0>
0

>  <SCORE.INTRA.norm>
0

>  <SCORE.RESTR>
0

>  <SCORE.RESTR.CAVITY>
0

>  <SCORE.RESTR.norm>
0

>  <SCORE.SYSTEM>
0

>  <SCORE.SYSTEM.CONST>
0

>  <SCORE.SYSTEM.DIHEDRAL>
0

>  <SCORE.SYSTEM.SOLV>
0

>  <SCORE.SYSTEM.norm>
0

>  <SCORE.heavy>
10

>  <SCORE.norm>
-3.28055

>  <RMSD>
2.942

$$$$
lig.pdb
 OpenBabel11021811523D
libRbt.so/2013.1/901 2013/11/27
 10 11  0  0  0  0  0  0  0  0999 V2000
  -29.2079   15.4558  -15.0262 N   0  0  0  0  0  0  0  0  0  0  0  0
  -28.6193   15.5960  -16.2529 C   0  0  0  0  0  0  0  0  0  0  0  0
  -29.0704   16.6155  -16.9438 N   0  0  0  0  0  0  0  0  0  0  0  0
  -30.0223   17.1840  -16.1144 C   0  0  0  0  0  0  0  0  0  0  0  0
  -30.8631   18.3023  -16.2633 C   0  0  0  0  0  0  0  0  0  0  0  0
  -30.8758   19.0696  -17.3583 N   0  0  0  0  0  0  0  0  0  0  0  0
  -31.6967   18.6001  -15.2426 N   0  0  0  0  0  0  0  0  0  0  0  0
  -31.6813   17.8266  -14.1515 C   0  0  0  0  0  0  0  0  0  0  0  0
  -30.9358   16.7521  -13.8963 N   0  0  0  0  0  0  0  0  0  0  0  0
  -30.1198   16.4821  -14.9276 C   0  0  0  0  0  0  0  0  0  0  0  0
  1 10  1  0  0  0  0
  2  3  2  0  0  0  0
  2  1  1  0  0  0  0
  3  4  1  0  0  0  0
  4 10  2  0  0  0  0
  4  5  1  0  0  0  0
  5  7  2  0  0  0  0
  6  5  1  0  0  0  0
  7  8  1  0  0  0  0
  9  8  2  0  0  0  0
 10  9  1  0  0  0  0
M  END
>  <CHROM.1>
-30.31900016,17.22142599,-15.64853391,0.48077353,-0.78015085,2.17510604

>  <Name>
lig.pdb

>  <RI>
0

>  <Rbt.Current_Directory>
/home/itssahil/PROJECTS/Mol_Feturizer/New_Systems/rnas/5uza

>  <Rbt.Executable>
rbdock ($Id: //depot/dev/client3/rdock/2013.1/src/exe/rbdock.cxx#4 $)

>  <Rbt.Library>
libRbt.so (2013.1, Build901 2013/11/27)

>  <Rbt.Parameter_File>
/export/apps/rDock/src/rDock_2013.1_src/data/scripts/dock_solv.prm

>  <Rbt.Receptor>
prm/pocket_docking_5.prm

>  <SCORE>
-32.8049

>  <SCORE.INTER>
-32.805

>  <SCORE.INTER.CONST>
1

>  <SCORE.INTER.POLAR>
-4.07726

>  <SCORE.INTER.ROT>
0

>  <SCORE.INTER.SOLV>
11.8527

>  <SCORE.INTER.VDW>
-15.83

>  <SCORE.INTER.norm>
-3.2805

>  <SCORE.INTRA>
0

>  <SCORE.INTRA.DIHEDRAL>
0

>  <SCORE.INTRA.DIHEDRAL.0>
0

>  <SCORE.INTRA.POLAR>
0

>  <SCORE.INTRA.POLAR.0>
0

>  <SCORE.INTRA.REPUL>
0

>  <SCORE.INTRA.REPUL.0>
0

>  <SCORE.INTRA.SOLV>
0

>  <SCORE.INTRA.SOLV.lig_0>
-14.8845

>  <SCORE.INTRA.VDW>
0

>  <SCORE.INTRA.VDW.0>
0

>  <SCORE.INTRA.norm>
0

>  <SCORE.RESTR>
0.000113808

>  <SCORE.RESTR.CAVITY>
0.000113808

>  <SCORE.RESTR.norm>
1.13808e-05

>  <SCORE.SYSTEM>
0

>  <SCORE.SYSTEM.CONST>
0

>  <SCORE.SYSTEM.DIHEDRAL>
0

>  <SCORE.SYSTEM.SOLV>
0

>  <SCORE.SYSTEM.norm>
0

>  <SCORE.heavy>
10

>  <SCORE.norm>
-3.28049

>  <RMSD>
2.942

$$$$
lig.pdb
 OpenBabel11021811523D
libRbt.so/2013.1/901 2013/11/27
 10 11  0  0  0  0  0  0  0  0999 V2000
  -29.2240   15.4424  -15.0255 N   0  0  0  0  0  0  0  0  0  0  0  0
  -28.6360   15.5811  -16.2527 C   0  0  0  0  0  0  0  0  0  0  0  0
  -29.0825   16.6040  -16.9417 N   0  0  0  0  0  0  0  0  0  0  0  0
  -30.0303   17.1765  -16.1104 C   0  0  0  0  0  0  0  0  0  0  0  0
  -30.8654   18.2995  -16.2568 C   0  0  0  0  0  0  0  0  0  0  0  0
  -30.8752   19.0683  -17.3507 N   0  0  0  0  0  0  0  0  0  0  0  0
  -31.6962   18.6003  -15.2347 N   0  0  0  0  0  0  0  0  0  0  0  0
  -31.6836   17.8252  -14.1447 C   0  0  0  0  0  0  0  0  0  0  0  0
  -30.9436   16.7464  -13.8918 N   0  0  0  0  0  0  0  0  0  0  0  0
  -30.1302   16.4734  -14.9244 C   0  0  0  0  0  0  0  0  0  0  0  0
  1 10  1  0  0  0  0
  2  3  2  0  0  0  0
  2  1  1  0  0  0  0
  3  4  1  0  0  0  0
  4 10  2  0  0  0  0
  4  5  1  0  0  0  0
  5  7  2  0  0  0  0
  6  5  1  0  0  0  0
  7  8  1  0  0  0  0
  9  8  2  0  0  0  0
 10  9  1  0  0  0  0
M  END
>  <CHROM.1>
-30.32633176,17.21484893,-15.64412502,0.48371019,-0.78522031,2.17854770

>  <Name>
lig.pdb

>  <RI>
1.17775e+07

>  <Rbt.Current_Directory>
/home/itssahil/PROJECTS/Mol_Feturizer/New_Systems/rnas/5uza

>  <Rbt.Executable>
rbdock ($Id: //depot/dev/client3/rdock/2013.1/src/exe/rbdock.cxx#4 $)

>  <Rbt.Library>
libRbt.so (2013.1, Build901 2013/11/27)

>  <Rbt.Parameter_File>
/export/apps/rDock/src/rDock_2013.1_src/data/scripts/dock_solv.prm

>  <Rbt.Receptor>
prm/pocket_docking_8.prm

>  <SCORE>
-32.7933

>  <SCORE.INTER>
-32.7937

>  <SCORE.INTER.CONST>
1

>  <SCORE.INTER.POLAR>
-4.08628

>  <SCORE.INTER.ROT>
0

>  <SCORE.INTER.SOLV>
11.8745

>  <SCORE.INTER.VDW>
-15.7997

>  <SCORE.INTER.norm>
-3.27937

>  <SCORE.INTRA>
0

>  <SCORE.INTRA.DIHEDRAL>
0

>  <SCORE.INTRA.DIHEDRAL.0>
0

>  <SCORE.INTRA.POLAR>
0

>  <SCORE.INTRA.POLAR.0>
0

>  <SCORE.INTRA.REPUL>
0

>  <SCORE.INTRA.REPUL.0>
0

>  <SCORE.INTRA.SOLV>
0

>  <SCORE.INTRA.SOLV.lig_0>
-14.8845

>  <SCORE.INTRA.VDW>
0

>  <SCORE.INTRA.VDW.0>
0

>  <SCORE.INTRA.norm>
0

>  <SCORE.RESTR>
0.000331328

>  <SCORE.RESTR.CAVITY>
0.000331328

>  <SCORE.RESTR.norm>
3.31328e-05

>  <SCORE.SYSTEM>
0

>  <SCORE.SYSTEM.CONST>
0

>  <SCORE.SYSTEM.DIHEDRAL>
0

>  <SCORE.SYSTEM.SOLV>
0

>  <SCORE.SYSTEM.norm>
0

>  <SCORE.heavy>
10

>  <SCORE.norm>
-3.27933

>  <RMSD>
2.942

$$$$
lig.pdb
 OpenBabel11021811523D
libRbt.so/2013.1/901 2013/11/27
 10 11  0  0  0  0  0  0  0  0999 V2000
  -29.2089   15.4550  -15.0250 N   0  0  0  0  0  0  0  0  0  0  0  0
  -28.6127   15.6012  -16.2473 C   0  0  0  0  0  0  0  0  0  0  0  0
  -29.0597   16.6239  -16.9362 N   0  0  0  0  0  0  0  0  0  0  0  0
  -30.0168   17.1883  -16.1099 C   0  0  0  0  0  0  0  0  0  0  0  0
  -30.8569   18.3072  -16.2587 C   0  0  0  0  0  0  0  0  0  0  0  0
  -30.8629   19.0797  -17.3500 N   0  0  0  0  0  0  0  0  0  0  0  0
  -31.6968   18.6000  -15.2417 N   0  0  0  0  0  0  0  0  0  0  0  0
  -31.6881   17.8212  -14.1542 C   0  0  0  0  0  0  0  0  0  0  0  0
  -30.9439   16.7456  -13.8996 N   0  0  0  0  0  0  0  0  0  0  0  0
  -30.1215   16.4807  -14.9271 C   0  0  0  0  0  0  0  0  0  0  0  0
  1 10  1  0  0  0  0
  2  3  2  0  0  0  0
  2  1  1  0  0  0  0
  3  4  1  0  0  0  0
  4 10  2  0  0  0  0
  4  5  1  0  0  0  0
  5  7  2  0  0  0  0
  6  5  1  0  0  0  0
  7  8  1  0  0  0  0
  9  8  2  0  0  0  0
 10  9  1  0  0  0  0
M  END
>  <CHROM.1>
-30.31640844,17.22345496,-15.64569500,0.48776353,-0.77648234,2.18481060

>  <Name>
lig.pdb

>  <RI>
0

>  <Rbt.Current_Directory>
/home/itssahil/PROJECTS/Mol_Feturizer/New_Systems/rnas/5uza

>  <Rbt.Executable>
rbdock ($Id: //depot/dev/client3/rdock/2013.1/src/exe/rbdock.cxx#4 $)

>  <Rbt.Library>
libRbt.so (2013.1, Build901 2013/11/27)

>  <Rbt.Parameter_File>
/export/apps/rDock/src/rDock_2013.1_src/data/scripts/dock_solv.prm

>  <Rbt.Receptor>
prm/blind_docking_60.prm

>  <SCORE>
-32.8136

>  <SCORE.INTER>
-32.8136

>  <SCORE.INTER.CONST>
1

>  <SCORE.INTER.POLAR>
-4.08666

>  <SCORE.INTER.ROT>
0

>  <SCORE.INTER.SOLV>
11.8806

>  <SCORE.INTER.VDW>
-15.8138

>  <SCORE.INTER.norm>
-3.28136

>  <SCORE.INTRA>
0

>  <SCORE.INTRA.DIHEDRAL>
0

>  <SCORE.INTRA.DIHEDRAL.0>
0

>  <SCORE.INTRA.POLAR>
0

>  <SCORE.INTRA.POLAR.0>
0

>  <SCORE.INTRA.REPUL>
0

>  <SCORE.INTRA.REPUL.0>
0

>  <SCORE.INTRA.SOLV>
0

>  <SCORE.INTRA.SOLV.lig_0>
-14.8845

>  <SCORE.INTRA.VDW>
0

>  <SCORE.INTRA.VDW.0>
0

>  <SCORE.INTRA.norm>
0

>  <SCORE.RESTR>
0

>  <SCORE.RESTR.CAVITY>
0

>  <SCORE.RESTR.norm>
0

>  <SCORE.SYSTEM>
0

>  <SCORE.SYSTEM.CONST>
0

>  <SCORE.SYSTEM.DIHEDRAL>
0

>  <SCORE.SYSTEM.SOLV>
0

>  <SCORE.SYSTEM.norm>
0

>  <SCORE.heavy>
10

>  <SCORE.norm>
-3.28136

>  <RMSD>
2.943

$$$$
lig.pdb
 OpenBabel11021811523D
libRbt.so/2013.1/901 2013/11/27
 10 11  0  0  0  0  0  0  0  0999 V2000
  -29.2096   15.4545  -15.0245 N   0  0  0  0  0  0  0  0  0  0  0  0
  -28.6173   15.5974  -16.2492 C   0  0  0  0  0  0  0  0  0  0  0  0
  -29.0661   16.6187  -16.9390 N   0  0  0  0  0  0  0  0  0  0  0  0
  -30.0203   17.1855  -16.1111 C   0  0  0  0  0  0  0  0  0  0  0  0
  -30.8604   18.3043  -16.2599 C   0  0  0  0  0  0  0  0  0  0  0  0
  -30.8696   19.0741  -17.3530 N   0  0  0  0  0  0  0  0  0  0  0  0
  -31.6969   18.5999  -15.2409 N   0  0  0  0  0  0  0  0  0  0  0  0
  -31.6850   17.8238  -14.1516 C   0  0  0  0  0  0  0  0  0  0  0  0
  -30.9404   16.7485  -13.8967 N   0  0  0  0  0  0  0  0  0  0  0  0
  -30.1215   16.4807  -14.9262 C   0  0  0  0  0  0  0  0  0  0  0  0
  1 10  1  0  0  0  0
  2  3  2  0  0  0  0
  2  1  1  0  0  0  0
  3  4  1  0  0  0  0
  4 10  2  0  0  0  0
  4  5  1  0  0  0  0
  5  7  2  0  0  0  0
  6  5  1  0  0  0  0
  7  8  1  0  0  0  0
  9  8  2  0  0  0  0
 10  9  1  0  0  0  0
M  END
>  <CHROM.1>
-30.31837143,17.22182641,-15.64599813,0.48438108,-0.77866083,2.17999844

>  <Name>
lig.pdb

>  <RI>
2.12818e+07

>  <Rbt.Current_Directory>
/home/itssahil/PROJECTS/Mol_Feturizer/New_Systems/rnas/5uza

>  <Rbt.Executable>
rbdock ($Id: //depot/dev/client3/rdock/2013.1/src/exe/rbdock.cxx#4 $)

>  <Rbt.Library>
libRbt.so (2013.1, Build901 2013/11/27)

>  <Rbt.Parameter_File>
/export/apps/rDock/src/rDock_2013.1_src/data/scripts/dock_solv.prm

>  <Rbt.Receptor>
prm/pocket_docking_7.prm

>  <SCORE>
-32.8105

>  <SCORE.INTER>
-32.8105

>  <SCORE.INTER.CONST>
1

>  <SCORE.INTER.POLAR>
-4.08387

>  <SCORE.INTER.ROT>
0

>  <SCORE.INTER.SOLV>
11.8679

>  <SCORE.INTER.VDW>
-15.8167

>  <SCORE.INTER.norm>
-3.28105

>  <SCORE.INTRA>
0

>  <SCORE.INTRA.DIHEDRAL>
0

>  <SCORE.INTRA.DIHEDRAL.0>
0

>  <SCORE.INTRA.POLAR>
0

>  <SCORE.INTRA.POLAR.0>
0

>  <SCORE.INTRA.REPUL>
0

>  <SCORE.INTRA.REPUL.0>
0

>  <SCORE.INTRA.SOLV>
0

>  <SCORE.INTRA.SOLV.lig_0>
-14.8845

>  <SCORE.INTRA.VDW>
0

>  <SCORE.INTRA.VDW.0>
0

>  <SCORE.INTRA.norm>
0

>  <SCORE.RESTR>
0

>  <SCORE.RESTR.CAVITY>
0

>  <SCORE.RESTR.norm>
0

>  <SCORE.SYSTEM>
0

>  <SCORE.SYSTEM.CONST>
0

>  <SCORE.SYSTEM.DIHEDRAL>
0

>  <SCORE.SYSTEM.SOLV>
0

>  <SCORE.SYSTEM.norm>
0

>  <SCORE.heavy>
10

>  <SCORE.norm>
-3.28105

>  <RMSD>
2.943

$$$$
lig.pdb
 OpenBabel11021811523D
libRbt.so/2013.1/901 2013/11/27
 10 11  0  0  0  0  0  0  0  0999 V2000
  -29.2105   15.4525  -15.0316 N   0  0  0  0  0  0  0  0  0  0  0  0
  -28.5986   15.6127  -16.2444 C   0  0  0  0  0  0  0  0  0  0  0  0
  -29.0388   16.6416  -16.9284 N   0  0  0  0  0  0  0  0  0  0  0  0
  -30.0080   17.1953  -16.1091 C   0  0  0  0  0  0  0  0  0  0  0  0
  -30.8487   18.3138  -16.2573 C   0  0  0  0  0  0  0  0  0  0  0  0
  -30.8420   19.0977  -17.3405 N   0  0  0  0  0  0  0  0  0  0  0  0
  -31.7027   18.5942  -15.2486 N   0  0  0  0  0  0  0  0  0  0  0  0
  -31.7065   17.8042  -14.1693 C   0  0  0  0  0  0  0  0  0  0  0  0
  -30.9633   16.7276  -13.9159 N   0  0  0  0  0  0  0  0  0  0  0  0
  -30.1267   16.4751  -14.9352 C   0  0  0  0  0  0  0  0  0  0  0  0
  1 10  1  0  0  0  0
  2  3  2  0  0  0  0
  2  1  1  0  0  0  0
  3  4  1  0  0  0  0
  4 10  2  0  0  0  0
  4  5  1  0  0  0  0
  5  7  2  0  0  0  0
  6  5  1  0  0  0  0
  7  8  1  0  0  0  0
  9  8  2  0  0  0  0
 10  9  1  0  0  0  0
M  END
>  <CHROM.1>
-30.31382308,17.22494081,-15.64854672,0.50091811,-0.76693291,2.20438833

>  <Name>
lig.pdb

>  <RI>
2.26746e+07

>  <Rbt.Current_Directory>
/home/itssahil/PROJECTS/Mol_Feturizer/New_Systems/rnas/5uza

>  <Rbt.Executable>
rbdock ($Id: //depot/dev/client3/rdock/2013.1/src/exe/rbdock.cxx#4 $)

>  <Rbt.Library>
libRbt.so (2013.1, Build901 2013/11/27)

>  <Rbt.Parameter_File>
/export/apps/rDock/src/rDock_2013.1_src/data/scripts/dock_solv.prm

>  <Rbt.Receptor>
prm/blind_docking_100.prm

>  <SCORE>
-32.7943

>  <SCORE.INTER>
-32.7943

>  <SCORE.INTER.CONST>
1

>  <SCORE.INTER.POLAR>
-4.09174

>  <SCORE.INTER.ROT>
0

>  <SCORE.INTER.SOLV>
11.9302

>  <SCORE.INTER.VDW>
-15.8005

>  <SCORE.INTER.norm>
-3.27943

>  <SCORE.INTRA>
0

>  <SCORE.INTRA.DIHEDRAL>
0

>  <SCORE.INTRA.DIHEDRAL.0>
0

>  <SCORE.INTRA.POLAR>
0

>  <SCORE.INTRA.POLAR.0>
0

>  <SCORE.INTRA.REPUL>
0

>  <SCORE.INTRA.REPUL.0>
0

>  <SCORE.INTRA.SOLV>
0

>  <SCORE.INTRA.SOLV.lig_0>
-14.8845

>  <SCORE.INTRA.VDW>
0

>  <SCORE.INTRA.VDW.0>
0

>  <SCORE.INTRA.norm>
0

>  <SCORE.RESTR>
0

>  <SCORE.RESTR.CAVITY>
0

>  <SCORE.RESTR.norm>
0

>  <SCORE.SYSTEM>
0

>  <SCORE.SYSTEM.CONST>
0

>  <SCORE.SYSTEM.DIHEDRAL>
0

>  <SCORE.SYSTEM.SOLV>
0

>  <SCORE.SYSTEM.norm>
0

>  <SCORE.heavy>
10

>  <SCORE.norm>
-3.27943

>  <RMSD>
2.944

$$$$
lig.pdb
 OpenBabel11021811523D
libRbt.so/2013.1/901 2013/11/27
 10 11  0  0  0  0  0  0  0  0999 V2000
  -29.2070   15.4564  -15.0239 N   0  0  0  0  0  0  0  0  0  0  0  0
  -28.6093   15.6037  -16.2454 C   0  0  0  0  0  0  0  0  0  0  0  0
  -29.0560   16.6266  -16.9341 N   0  0  0  0  0  0  0  0  0  0  0  0
  -30.0145   17.1900  -16.1087 C   0  0  0  0  0  0  0  0  0  0  0  0
  -30.8550   18.3084  -16.2577 C   0  0  0  0  0  0  0  0  0  0  0  0
  -30.8601   19.0817  -17.3485 N   0  0  0  0  0  0  0  0  0  0  0  0
  -31.6964   18.6001  -15.2417 N   0  0  0  0  0  0  0  0  0  0  0  0
  -31.6886   17.8206  -14.1547 C   0  0  0  0  0  0  0  0  0  0  0  0
  -30.9441   16.7453  -13.8998 N   0  0  0  0  0  0  0  0  0  0  0  0
  -30.1203   16.4814  -14.9265 C   0  0  0  0  0  0  0  0  0  0  0  0
  1 10  1  0  0  0  0
  2  3  2  0  0  0  0
  2  1  1  0  0  0  0
  3  4  1  0  0  0  0
  4 10  2  0  0  0  0
  4  5  1  0  0  0  0
  5  7  2  0  0  0  0
  6  5  1  0  0  0  0
  7  8  1  0  0  0  0
  9  8  2  0  0  0  0
 10  9  1  0  0  0  0
M  END
>  <CHROM.1>
-30.31469588,17.22460453,-15.64482052,0.48875926,-0.77530408,2.18617988

>  <Name>
lig.pdb

>  <RI>
0

>  <Rbt.Current_Directory>
/home/itssahil/PROJECTS/Mol_Feturizer/New_Systems/rnas/5uza

>  <Rbt.Executable>
rbdock ($Id: //depot/dev/client3/rdock/2013.1/src/exe/rbdock.cxx#4 $)

>  <Rbt.Library>
libRbt.so (2013.1, Build901 2013/11/27)

>  <Rbt.Parameter_File>
/export/apps/rDock/src/rDock_2013.1_src/data/scripts/dock_solv.prm

>  <Rbt.Receptor>
prm/blind_docking_80.prm

>  <SCORE>
-32.8129

>  <SCORE.INTER>
-32.813

>  <SCORE.INTER.CONST>
1

>  <SCORE.INTER.POLAR>
-4.08782

>  <SCORE.INTER.ROT>
0

>  <SCORE.INTER.SOLV>
11.8835

>  <SCORE.INTER.VDW>
-15.8104

>  <SCORE.INTER.norm>
-3.2813

>  <SCORE.INTRA>
0

>  <SCORE.INTRA.DIHEDRAL>
0

>  <SCORE.INTRA.DIHEDRAL.0>
0

>  <SCORE.INTRA.POLAR>
0

>  <SCORE.INTRA.POLAR.0>
0

>  <SCORE.INTRA.REPUL>
0

>  <SCORE.INTRA.REPUL.0>
0

>  <SCORE.INTRA.SOLV>
0

>  <SCORE.INTRA.SOLV.lig_0>
-14.8845

>  <SCORE.INTRA.VDW>
0

>  <SCORE.INTRA.VDW.0>
0

>  <SCORE.INTRA.norm>
0

>  <SCORE.RESTR>
9.39993e-05

>  <SCORE.RESTR.CAVITY>
9.39993e-05

>  <SCORE.RESTR.norm>
9.39993e-06

>  <SCORE.SYSTEM>
0

>  <SCORE.SYSTEM.CONST>
0

>  <SCORE.SYSTEM.DIHEDRAL>
0

>  <SCORE.SYSTEM.SOLV>
0

>  <SCORE.SYSTEM.norm>
0

>  <SCORE.heavy>
10

>  <SCORE.norm>
-3.28129

>  <RMSD>
2.944

$$$$
lig.pdb
 OpenBabel11021811523D
libRbt.so/2013.1/901 2013/11/27
 10 11  0  0  0  0  0  0  0  0999 V2000
  -29.2076   15.4560  -15.0222 N   0  0  0  0  0  0  0  0  0  0  0  0
  -28.6096   15.6035  -16.2435 C   0  0  0  0  0  0  0  0  0  0  0  0
  -29.0560   16.6267  -16.9321 N   0  0  0  0  0  0  0  0  0  0  0  0
  -30.0145   17.1900  -16.1068 C   0  0  0  0  0  0  0  0  0  0  0  0
  -30.8549   18.3086  -16.2558 C   0  0  0  0  0  0  0  0  0  0  0  0
  -30.8596   19.0821  -17.3464 N   0  0  0  0  0  0  0  0  0  0  0  0
  -31.6965   18.6001  -15.2399 N   0  0  0  0  0  0  0  0  0  0  0  0
  -31.6890   17.8204  -14.1531 C   0  0  0  0  0  0  0  0  0  0  0  0
  -30.9448   16.7449  -13.8983 N   0  0  0  0  0  0  0  0  0  0  0  0
  -30.1208   16.4812  -14.9248 C   0  0  0  0  0  0  0  0  0  0  0  0
  1 10  1  0  0  0  0
  2  3  2  0  0  0  0
  2  1  1  0  0  0  0
  3  4  1  0  0  0  0
  4 10  2  0  0  0  0
  4  5  1  0  0  0  0
  5  7  2  0  0  0  0
  6  5  1  0  0  0  0
  7  8  1  0  0  0  0
  9  8  2  0  0  0  0
 10  9  1  0  0  0  0
M  END
>  <CHROM.1>
-30.31486644,17.22453515,-15.64299760,0.48915875,-0.77527101,2.18670475

>  <Name>
lig.pdb

>  <RI>
0

>  <Rbt.Current_Directory>
/home/itssahil/PROJECTS/Mol_Feturizer/New_Systems/rnas/5uza

>  <Rbt.Executable>
rbdock ($Id: //depot/dev/client3/rdock/2013.1/src/exe/rbdock.cxx#4 $)

>  <Rbt.Library>
libRbt.so (2013.1, Build901 2013/11/27)

>  <Rbt.Parameter_File>
/export/apps/rDock/src/rDock_2013.1_src/data/scripts/dock_solv.prm

>  <Rbt.Receptor>
prm/blind_docking_80.prm

>  <SCORE>
-32.816

>  <SCORE.INTER>
-32.8161

>  <SCORE.INTER.CONST>
1

>  <SCORE.INTER.POLAR>
-4.09125

>  <SCORE.INTER.ROT>
0

>  <SCORE.INTER.SOLV>
11.8862

>  <SCORE.INTER.VDW>
-15.802

>  <SCORE.INTER.norm>
-3.28161

>  <SCORE.INTRA>
0

>  <SCORE.INTRA.DIHEDRAL>
0

>  <SCORE.INTRA.DIHEDRAL.0>
0

>  <SCORE.INTRA.POLAR>
0

>  <SCORE.INTRA.POLAR.0>
0

>  <SCORE.INTRA.REPUL>
0

>  <SCORE.INTRA.REPUL.0>
0

>  <SCORE.INTRA.SOLV>
0

>  <SCORE.INTRA.SOLV.lig_0>
-14.8845

>  <SCORE.INTRA.VDW>
0

>  <SCORE.INTRA.VDW.0>
0

>  <SCORE.INTRA.norm>
0

>  <SCORE.RESTR>
0.000116096

>  <SCORE.RESTR.CAVITY>
0.000116096

>  <SCORE.RESTR.norm>
1.16096e-05

>  <SCORE.SYSTEM>
0

>  <SCORE.SYSTEM.CONST>
0

>  <SCORE.SYSTEM.DIHEDRAL>
0

>  <SCORE.SYSTEM.SOLV>
0

>  <SCORE.SYSTEM.norm>
0

>  <SCORE.heavy>
10

>  <SCORE.norm>
-3.2816

>  <RMSD>
2.944

$$$$
lig.pdb
 OpenBabel11021811523D
libRbt.so/2013.1/901 2013/11/27
 10 11  0  0  0  0  0  0  0  0999 V2000
  -29.2103   15.4570  -15.0213 N   0  0  0  0  0  0  0  0  0  0  0  0
  -28.6190   15.5975  -16.2467 C   0  0  0  0  0  0  0  0  0  0  0  0
  -29.0640   16.6210  -16.9357 N   0  0  0  0  0  0  0  0  0  0  0  0
  -30.0145   17.1920  -16.1063 C   0  0  0  0  0  0  0  0  0  0  0  0
  -30.8497   18.3147  -16.2536 C   0  0  0  0  0  0  0  0  0  0  0  0
  -30.8568   19.0849  -17.3466 N   0  0  0  0  0  0  0  0  0  0  0  0
  -31.6834   18.6139  -15.2335 N   0  0  0  0  0  0  0  0  0  0  0  0
  -31.6735   17.8375  -14.1444 C   0  0  0  0  0  0  0  0  0  0  0  0
  -30.9336   16.7587  -13.8908 N   0  0  0  0  0  0  0  0  0  0  0  0
  -30.1173   16.4874  -14.9215 C   0  0  0  0  0  0  0  0  0  0  0  0
  1 10  1  0  0  0  0
  2  3  2  0  0  0  0
  2  1  1  0  0  0  0
  3  4  1  0  0  0  0
  4 10  2  0  0  0  0
  4  5  1  0  0  0  0
  5  7  2  0  0  0  0
  6  5  1  0  0  0  0
  7  8  1  0  0  0  0
  9  8  2  0  0  0  0
 10  9  1  0  0  0  0
M  END
>  <CHROM.1>
-30.31176555,17.22963967,-15.64080159,0.48651061,-0.78322875,2.18175741

>  <Name>
lig.pdb

>  <RI>
0

>  <Rbt.Current_Directory>
/home/itssahil/PROJECTS/Mol_Feturizer/New_Systems/rnas/5uza

>  <Rbt.Executable>
rbdock ($Id: //depot/dev/client3/rdock/2013.1/src/exe/rbdock.cxx#4 $)

>  <Rbt.Library>
libRbt.so (2013.1, Build901 2013/11/27)

>  <Rbt.Parameter_File>
/export/apps/rDock/src/rDock_2013.1_src/data/scripts/dock_solv.prm

>  <Rbt.Receptor>
prm/pocket_docking_3.prm

>  <SCORE>
-32.8393

>  <SCORE.INTER>
-32.8393

>  <SCORE.INTER.CONST>
1

>  <SCORE.INTER.POLAR>
-4.0904

>  <SCORE.INTER.ROT>
0

>  <SCORE.INTER.SOLV>
11.8881

>  <SCORE.INTER.VDW>
-15.8209

>  <SCORE.INTER.norm>
-3.28393

>  <SCORE.INTRA>
0

>  <SCORE.INTRA.DIHEDRAL>
0

>  <SCORE.INTRA.DIHEDRAL.0>
0

>  <SCORE.INTRA.POLAR>
0

>  <SCORE.INTRA.POLAR.0>
0

>  <SCORE.INTRA.REPUL>
0

>  <SCORE.INTRA.REPUL.0>
0

>  <SCORE.INTRA.SOLV>
0

>  <SCORE.INTRA.SOLV.lig_0>
-14.8845

>  <SCORE.INTRA.VDW>
0

>  <SCORE.INTRA.VDW.0>
0

>  <SCORE.INTRA.norm>
0

>  <SCORE.RESTR>
0

>  <SCORE.RESTR.CAVITY>
0

>  <SCORE.RESTR.norm>
0

>  <SCORE.SYSTEM>
0

>  <SCORE.SYSTEM.CONST>
0

>  <SCORE.SYSTEM.DIHEDRAL>
0

>  <SCORE.SYSTEM.SOLV>
0

>  <SCORE.SYSTEM.norm>
0

>  <SCORE.heavy>
10

>  <SCORE.norm>
-3.28393

>  <RMSD>
2.944

$$$$
lig.pdb
 OpenBabel11021811523D
libRbt.so/2013.1/901 2013/11/27
 10 11  0  0  0  0  0  0  0  0999 V2000
  -29.2181   15.4566  -15.0166 N   0  0  0  0  0  0  0  0  0  0  0  0
  -28.6403   15.5832  -16.2499 C   0  0  0  0  0  0  0  0  0  0  0  0
  -29.0838   16.6063  -16.9405 N   0  0  0  0  0  0  0  0  0  0  0  0
  -30.0188   17.1919  -16.1037 C   0  0  0  0  0  0  0  0  0  0  0  0
  -30.8450   18.3216  -16.2487 C   0  0  0  0  0  0  0  0  0  0  0  0
  -30.8580   19.0844  -17.3467 N   0  0  0  0  0  0  0  0  0  0  0  0
  -31.6635   18.6356  -15.2207 N   0  0  0  0  0  0  0  0  0  0  0  0
  -31.6479   17.8664  -14.1265 C   0  0  0  0  0  0  0  0  0  0  0  0
  -30.9153   16.7823  -13.8744 N   0  0  0  0  0  0  0  0  0  0  0  0
  -30.1140   16.4963  -14.9129 C   0  0  0  0  0  0  0  0  0  0  0  0
  1 10  1  0  0  0  0
  2  3  2  0  0  0  0
  2  1  1  0  0  0  0
  3  4  1  0  0  0  0
  4 10  2  0  0  0  0
  4  5  1  0  0  0  0
  5  7  2  0  0  0  0
  6  5  1  0  0  0  0
  7  8  1  0  0  0  0
  9  8  2  0  0  0  0
 10  9  1  0  0  0  0
M  END
>  <CHROM.1>
-30.31010030,17.23549343,-15.63494051,0.48021810,-0.79788917,2.17052262

>  <Name>
lig.pdb

>  <RI>
0

>  <Rbt.Current_Directory>
/home/itssahil/PROJECTS/Mol_Feturizer/New_Systems/rnas/5uza

>  <Rbt.Executable>
rbdock ($Id: //depot/dev/client3/rdock/2013.1/src/exe/rbdock.cxx#4 $)

>  <Rbt.Library>
libRbt.so (2013.1, Build901 2013/11/27)

>  <Rbt.Parameter_File>
/export/apps/rDock/src/rDock_2013.1_src/data/scripts/dock_solv.prm

>  <Rbt.Receptor>
prm/pocket_docking_3.prm

>  <SCORE>
-32.7769

>  <SCORE.INTER>
-32.7769

>  <SCORE.INTER.CONST>
1

>  <SCORE.INTER.POLAR>
-4.0923

>  <SCORE.INTER.ROT>
0

>  <SCORE.INTER.SOLV>
11.8846

>  <SCORE.INTER.VDW>
-15.7718

>  <SCORE.INTER.norm>
-3.27769

>  <SCORE.INTRA>
0

>  <SCORE.INTRA.DIHEDRAL>
0

>  <SCORE.INTRA.DIHEDRAL.0>
0

>  <SCORE.INTRA.POLAR>
0

>  <SCORE.INTRA.POLAR.0>
0

>  <SCORE.INTRA.REPUL>
0

>  <SCORE.INTRA.REPUL.0>
0

>  <SCORE.INTRA.SOLV>
0

>  <SCORE.INTRA.SOLV.lig_0>
-14.8845

>  <SCORE.INTRA.VDW>
0

>  <SCORE.INTRA.VDW.0>
0

>  <SCORE.INTRA.norm>
0

>  <SCORE.RESTR>
0

>  <SCORE.RESTR.CAVITY>
0

>  <SCORE.RESTR.norm>
0

>  <SCORE.SYSTEM>
0

>  <SCORE.SYSTEM.CONST>
0

>  <SCORE.SYSTEM.DIHEDRAL>
0

>  <SCORE.SYSTEM.SOLV>
0

>  <SCORE.SYSTEM.norm>
0

>  <SCORE.heavy>
10

>  <SCORE.norm>
-3.27769

>  <RMSD>
2.944

$$$$
lig.pdb
 OpenBabel11021811523D
libRbt.so/2013.1/901 2013/11/27
 10 11  0  0  0  0  0  0  0  0999 V2000
  -29.2084   15.4544  -15.0214 N   0  0  0  0  0  0  0  0  0  0  0  0
  -28.6103   15.6021  -16.2426 C   0  0  0  0  0  0  0  0  0  0  0  0
  -29.0561   16.6259  -16.9307 N   0  0  0  0  0  0  0  0  0  0  0  0
  -30.0144   17.1893  -16.1052 C   0  0  0  0  0  0  0  0  0  0  0  0
  -30.8541   18.3085  -16.2537 C   0  0  0  0  0  0  0  0  0  0  0  0
  -30.8583   19.0825  -17.3440 N   0  0  0  0  0  0  0  0  0  0  0  0
  -31.6955   18.6001  -15.2376 N   0  0  0  0  0  0  0  0  0  0  0  0
  -31.6885   17.8198  -14.1512 C   0  0  0  0  0  0  0  0  0  0  0  0
  -30.9449   16.7438  -13.8969 N   0  0  0  0  0  0  0  0  0  0  0  0
  -30.1210   16.4801  -14.9235 C   0  0  0  0  0  0  0  0  0  0  0  0
  1 10  1  0  0  0  0
  2  3  2  0  0  0  0
  2  1  1  0  0  0  0
  3  4  1  0  0  0  0
  4 10  2  0  0  0  0
  4  5  1  0  0  0  0
  5  7  2  0  0  0  0
  6  5  1  0  0  0  0
  7  8  1  0  0  0  0
  9  8  2  0  0  0  0
 10  9  1  0  0  0  0
M  END
>  <CHROM.1>
-30.31467049,17.22387671,-15.64138059,0.48964814,-0.77573612,2.18748867

>  <Name>
lig.pdb

>  <RI>
0

>  <Rbt.Current_Directory>
/home/itssahil/PROJECTS/Mol_Feturizer/New_Systems/rnas/5uza

>  <Rbt.Executable>
rbdock ($Id: //depot/dev/client3/rdock/2013.1/src/exe/rbdock.cxx#4 $)

>  <Rbt.Library>
libRbt.so (2013.1, Build901 2013/11/27)

>  <Rbt.Parameter_File>
/export/apps/rDock/src/rDock_2013.1_src/data/scripts/dock_solv.prm

>  <Rbt.Receptor>
prm/pocket_docking_5.prm

>  <SCORE>
-32.8148

>  <SCORE.INTER>
-32.8149

>  <SCORE.INTER.CONST>
1

>  <SCORE.INTER.POLAR>
-4.09289

>  <SCORE.INTER.ROT>
0

>  <SCORE.INTER.SOLV>
11.8895

>  <SCORE.INTER.VDW>
-15.7968

>  <SCORE.INTER.norm>
-3.28149

>  <SCORE.INTRA>
0

>  <SCORE.INTRA.DIHEDRAL>
0

>  <SCORE.INTRA.DIHEDRAL.0>
0

>  <SCORE.INTRA.POLAR>
0

>  <SCORE.INTRA.POLAR.0>
0

>  <SCORE.INTRA.REPUL>
0

>  <SCORE.INTRA.REPUL.0>
0

>  <SCORE.INTRA.SOLV>
0

>  <SCORE.INTRA.SOLV.lig_0>
-14.8845

>  <SCORE.INTRA.VDW>
0

>  <SCORE.INTRA.VDW.0>
0

>  <SCORE.INTRA.norm>
0

>  <SCORE.RESTR>
8.28434e-05

>  <SCORE.RESTR.CAVITY>
8.28434e-05

>  <SCORE.RESTR.norm>
8.28434e-06

>  <SCORE.SYSTEM>
0

>  <SCORE.SYSTEM.CONST>
0

>  <SCORE.SYSTEM.DIHEDRAL>
0

>  <SCORE.SYSTEM.SOLV>
0

>  <SCORE.SYSTEM.norm>
0

>  <SCORE.heavy>
10

>  <SCORE.norm>
-3.28148

>  <RMSD>
2.944

$$$$
lig.pdb
 OpenBabel11021811523D
libRbt.so/2013.1/901 2013/11/27
 10 11  0  0  0  0  0  0  0  0999 V2000
  -29.2086   15.4556  -15.0210 N   0  0  0  0  0  0  0  0  0  0  0  0
  -28.6134   15.6005  -16.2440 C   0  0  0  0  0  0  0  0  0  0  0  0
  -29.0607   16.6228  -16.9333 N   0  0  0  0  0  0  0  0  0  0  0  0
  -30.0169   17.1882  -16.1068 C   0  0  0  0  0  0  0  0  0  0  0  0
  -30.8569   18.3071  -16.2558 C   0  0  0  0  0  0  0  0  0  0  0  0
  -30.8636   19.0787  -17.3477 N   0  0  0  0  0  0  0  0  0  0  0  0
  -31.6959   18.6010  -15.2384 N   0  0  0  0  0  0  0  0  0  0  0  0
  -31.6864   17.8232  -14.1502 C   0  0  0  0  0  0  0  0  0  0  0  0
  -30.9423   16.7476  -13.8953 N   0  0  0  0  0  0  0  0  0  0  0  0
  -30.1208   16.4816  -14.9233 C   0  0  0  0  0  0  0  0  0  0  0  0
  1 10  1  0  0  0  0
  2  3  2  0  0  0  0
  2  1  1  0  0  0  0
  3  4  1  0  0  0  0
  4 10  2  0  0  0  0
  4  5  1  0  0  0  0
  5  7  2  0  0  0  0
  6  5  1  0  0  0  0
  7  8  1  0  0  0  0
  9  8  2  0  0  0  0
 10  9  1  0  0  0  0
M  END
>  <CHROM.1>
-30.31613406,17.22378897,-15.64233917,0.48700759,-0.77718711,2.18342308

>  <Name>
lig.pdb

>  <RI>
1.17431e+07

>  <Rbt.Current_Directory>
/home/itssahil/PROJECTS/Mol_Feturizer/New_Systems/rnas/5uza

>  <Rbt.Executable>
rbdock ($Id: //depot/dev/client3/rdock/2013.1/src/exe/rbdock.cxx#4 $)

>  <Rbt.Library>
libRbt.so (2013.1, Build901 2013/11/27)

>  <Rbt.Parameter_File>
/export/apps/rDock/src/rDock_2013.1_src/data/scripts/dock_solv.prm

>  <Rbt.Receptor>
prm/pocket_docking_6.prm

>  <SCORE>
-32.8156

>  <SCORE.INTER>
-32.8166

>  <SCORE.INTER.CONST>
1

>  <SCORE.INTER.POLAR>
-4.09079

>  <SCORE.INTER.ROT>
0

>  <SCORE.INTER.SOLV>
11.879

>  <SCORE.INTER.VDW>
-15.8014

>  <SCORE.INTER.norm>
-3.28166

>  <SCORE.INTRA>
0

>  <SCORE.INTRA.DIHEDRAL>
0

>  <SCORE.INTRA.DIHEDRAL.0>
0

>  <SCORE.INTRA.POLAR>
0

>  <SCORE.INTRA.POLAR.0>
0

>  <SCORE.INTRA.REPUL>
0

>  <SCORE.INTRA.REPUL.0>
0

>  <SCORE.INTRA.SOLV>
0

>  <SCORE.INTRA.SOLV.lig_0>
-14.8845

>  <SCORE.INTRA.VDW>
0

>  <SCORE.INTRA.VDW.0>
0

>  <SCORE.INTRA.norm>
0

>  <SCORE.RESTR>
0.00102645

>  <SCORE.RESTR.CAVITY>
0.00102645

>  <SCORE.RESTR.norm>
0.000102645

>  <SCORE.SYSTEM>
0

>  <SCORE.SYSTEM.CONST>
0

>  <SCORE.SYSTEM.DIHEDRAL>
0

>  <SCORE.SYSTEM.SOLV>
0

>  <SCORE.SYSTEM.norm>
0

>  <SCORE.heavy>
10

>  <SCORE.norm>
-3.28156

>  <RMSD>
2.944

$$$$
lig.pdb
 OpenBabel11021811523D
libRbt.so/2013.1/901 2013/11/27
 10 11  0  0  0  0  0  0  0  0999 V2000
  -29.2117   15.4522  -15.0277 N   0  0  0  0  0  0  0  0  0  0  0  0
  -28.6057   15.6068  -16.2442 C   0  0  0  0  0  0  0  0  0  0  0  0
  -29.0467   16.6347  -16.9292 N   0  0  0  0  0  0  0  0  0  0  0  0
  -30.0101   17.1937  -16.1066 C   0  0  0  0  0  0  0  0  0  0  0  0
  -30.8484   18.3141  -16.2540 C   0  0  0  0  0  0  0  0  0  0  0  0
  -30.8453   19.0944  -17.3398 N   0  0  0  0  0  0  0  0  0  0  0  0
  -31.6963   18.6000  -15.2418 N   0  0  0  0  0  0  0  0  0  0  0  0
  -31.6966   17.8135  -14.1599 C   0  0  0  0  0  0  0  0  0  0  0  0
  -30.9551   16.7357  -13.9070 N   0  0  0  0  0  0  0  0  0  0  0  0
  -30.1246   16.4777  -14.9298 C   0  0  0  0  0  0  0  0  0  0  0  0
  1 10  1  0  0  0  0
  2  3  2  0  0  0  0
  2  1  1  0  0  0  0
  3  4  1  0  0  0  0
  4 10  2  0  0  0  0
  4  5  1  0  0  0  0
  5  7  2  0  0  0  0
  6  5  1  0  0  0  0
  7  8  1  0  0  0  0
  9  8  2  0  0  0  0
 10  9  1  0  0  0  0
M  END
>  <CHROM.1>
-30.31336642,17.22568067,-15.64456947,0.49728135,-0.77226050,2.19864515

>  <Name>
lig.pdb

>  <RI>
1.17431e+07

>  <Rbt.Current_Directory>
/home/itssahil/PROJECTS/Mol_Feturizer/New_Systems/rnas/5uza

>  <Rbt.Executable>
rbdock ($Id: //depot/dev/client3/rdock/2013.1/src/exe/rbdock.cxx#4 $)

>  <Rbt.Library>
libRbt.so (2013.1, Build901 2013/11/27)

>  <Rbt.Parameter_File>
/export/apps/rDock/src/rDock_2013.1_src/data/scripts/dock_solv.prm

>  <Rbt.Receptor>
prm/pocket_docking_6.prm

>  <SCORE>
-32.8107

>  <SCORE.INTER>
-32.8107

>  <SCORE.INTER.CONST>
1

>  <SCORE.INTER.POLAR>
-4.09344

>  <SCORE.INTER.ROT>
0

>  <SCORE.INTER.SOLV>
11.9212

>  <SCORE.INTER.VDW>
-15.8027

>  <SCORE.INTER.norm>
-3.28107

>  <SCORE.INTRA>
0

>  <SCORE.INTRA.DIHEDRAL>
0

>  <SCORE.INTRA.DIHEDRAL.0>
0

>  <SCORE.INTRA.POLAR>
0

>  <SCORE.INTRA.POLAR.0>
0

>  <SCORE.INTRA.REPUL>
0

>  <SCORE.INTRA.REPUL.0>
0

>  <SCORE.INTRA.SOLV>
0

>  <SCORE.INTRA.SOLV.lig_0>
-14.8845

>  <SCORE.INTRA.VDW>
0

>  <SCORE.INTRA.VDW.0>
0

>  <SCORE.INTRA.norm>
0

>  <SCORE.RESTR>
3.36408e-05

>  <SCORE.RESTR.CAVITY>
3.36408e-05

>  <SCORE.RESTR.norm>
3.36408e-06

>  <SCORE.SYSTEM>
0

>  <SCORE.SYSTEM.CONST>
0

>  <SCORE.SYSTEM.DIHEDRAL>
0

>  <SCORE.SYSTEM.SOLV>
0

>  <SCORE.SYSTEM.norm>
0

>  <SCORE.heavy>
10

>  <SCORE.norm>
-3.28107

>  <RMSD>
2.944

$$$$
lig.pdb
 OpenBabel11021811523D
libRbt.so/2013.1/901 2013/11/27
 10 11  0  0  0  0  0  0  0  0999 V2000
  -29.2121   15.4519  -15.0276 N   0  0  0  0  0  0  0  0  0  0  0  0
  -28.6033   15.6087  -16.2424 C   0  0  0  0  0  0  0  0  0  0  0  0
  -29.0431   16.6375  -16.9268 N   0  0  0  0  0  0  0  0  0  0  0  0
  -30.0087   17.1948  -16.1057 C   0  0  0  0  0  0  0  0  0  0  0  0
  -30.8472   18.3149  -16.2534 C   0  0  0  0  0  0  0  0  0  0  0  0
  -30.8419   19.0970  -17.3379 N   0  0  0  0  0  0  0  0  0  0  0  0
  -31.6977   18.5989  -15.2427 N   0  0  0  0  0  0  0  0  0  0  0  0
  -31.7002   17.8107  -14.1620 C   0  0  0  0  0  0  0  0  0  0  0  0
  -30.9588   16.7328  -13.9091 N   0  0  0  0  0  0  0  0  0  0  0  0
  -30.1257   16.4768  -14.9303 C   0  0  0  0  0  0  0  0  0  0  0  0
  1 10  1  0  0  0  0
  2  3  2  0  0  0  0
  2  1  1  0  0  0  0
  3  4  1  0  0  0  0
  4 10  2  0  0  0  0
  4  5  1  0  0  0  0
  5  7  2  0  0  0  0
  6  5  1  0  0  0  0
  7  8  1  0  0  0  0
  9  8  2  0  0  0  0
 10  9  1  0  0  0  0
M  END
>  <CHROM.1>
-30.31313492,17.22585505,-15.64432729,0.49960925,-0.77045609,2.20183978

>  <Name>
lig.pdb

>  <RI>
1.17431e+07

>  <Rbt.Current_Directory>
/home/itssahil/PROJECTS/Mol_Feturizer/New_Systems/rnas/5uza

>  <Rbt.Executable>
rbdock ($Id: //depot/dev/client3/rdock/2013.1/src/exe/rbdock.cxx#4 $)

>  <Rbt.Library>
libRbt.so (2013.1, Build901 2013/11/27)

>  <Rbt.Parameter_File>
/export/apps/rDock/src/rDock_2013.1_src/data/scripts/dock_solv.prm

>  <Rbt.Receptor>
prm/pocket_docking_6.prm

>  <SCORE>
-32.8096

>  <SCORE.INTER>
-32.8096

>  <SCORE.INTER.CONST>
1

>  <SCORE.INTER.POLAR>
-4.09612

>  <SCORE.INTER.ROT>
0

>  <SCORE.INTER.SOLV>
11.9296

>  <SCORE.INTER.VDW>
-15.7959

>  <SCORE.INTER.norm>
-3.28096

>  <SCORE.INTRA>
0

>  <SCORE.INTRA.DIHEDRAL>
0

>  <SCORE.INTRA.DIHEDRAL.0>
0

>  <SCORE.INTRA.POLAR>
0

>  <SCORE.INTRA.POLAR.0>
0

>  <SCORE.INTRA.REPUL>
0

>  <SCORE.INTRA.REPUL.0>
0

>  <SCORE.INTRA.SOLV>
0

>  <SCORE.INTRA.SOLV.lig_0>
-14.8845

>  <SCORE.INTRA.VDW>
0

>  <SCORE.INTRA.VDW.0>
0

>  <SCORE.INTRA.norm>
0

>  <SCORE.RESTR>
0

>  <SCORE.RESTR.CAVITY>
0

>  <SCORE.RESTR.norm>
0

>  <SCORE.SYSTEM>
0

>  <SCORE.SYSTEM.CONST>
0

>  <SCORE.SYSTEM.DIHEDRAL>
0

>  <SCORE.SYSTEM.SOLV>
0

>  <SCORE.SYSTEM.norm>
0

>  <SCORE.heavy>
10

>  <SCORE.norm>
-3.28096

>  <RMSD>
2.944

$$$$
lig.pdb
 OpenBabel11021811523D
libRbt.so/2013.1/901 2013/11/27
 10 11  0  0  0  0  0  0  0  0999 V2000
  -29.2091   15.4544  -15.0210 N   0  0  0  0  0  0  0  0  0  0  0  0
  -28.6149   15.5987  -16.2446 C   0  0  0  0  0  0  0  0  0  0  0  0
  -29.0629   16.6205  -16.9341 N   0  0  0  0  0  0  0  0  0  0  0  0
  -30.0185   17.1863  -16.1070 C   0  0  0  0  0  0  0  0  0  0  0  0
  -30.8587   18.3051  -16.2560 C   0  0  0  0  0  0  0  0  0  0  0  0
  -30.8664   19.0760  -17.3484 N   0  0  0  0  0  0  0  0  0  0  0  0
  -31.6968   18.5995  -15.2380 N   0  0  0  0  0  0  0  0  0  0  0  0
  -31.6864   17.8222  -14.1495 C   0  0  0  0  0  0  0  0  0  0  0  0
  -30.9420   16.7469  -13.8945 N   0  0  0  0  0  0  0  0  0  0  0  0
  -30.1214   16.4803  -14.9230 C   0  0  0  0  0  0  0  0  0  0  0  0
  1 10  1  0  0  0  0
  2  3  2  0  0  0  0
  2  1  1  0  0  0  0
  3  4  1  0  0  0  0
  4 10  2  0  0  0  0
  4  5  1  0  0  0  0
  5  7  2  0  0  0  0
  6  5  1  0  0  0  0
  7  8  1  0  0  0  0
  9  8  2  0  0  0  0
 10  9  1  0  0  0  0
M  END
>  <CHROM.1>
-30.31732986,17.22211366,-15.64237410,0.48595749,-0.77759808,2.18212011

>  <Name>
lig.pdb

>  <RI>
1.17431e+07

>  <Rbt.Current_Directory>
/home/itssahil/PROJECTS/Mol_Feturizer/New_Systems/rnas/5uza

>  <Rbt.Executable>
rbdock ($Id: //depot/dev/client3/rdock/2013.1/src/exe/rbdock.cxx#4 $)

>  <Rbt.Library>
libRbt.so (2013.1, Build901 2013/11/27)

>  <Rbt.Parameter_File>
/export/apps/rDock/src/rDock_2013.1_src/data/scripts/dock_solv.prm

>  <Rbt.Receptor>
prm/pocket_docking_6.prm

>  <SCORE>
-32.813

>  <SCORE.INTER>
-32.813

>  <SCORE.INTER.CONST>
1

>  <SCORE.INTER.POLAR>
-4.09004

>  <SCORE.INTER.ROT>
0

>  <SCORE.INTER.SOLV>
11.8744

>  <SCORE.INTER.VDW>
-15.8

>  <SCORE.INTER.norm>
-3.2813

>  <SCORE.INTRA>
0

>  <SCORE.INTRA.DIHEDRAL>
0

>  <SCORE.INTRA.DIHEDRAL.0>
0

>  <SCORE.INTRA.POLAR>
0

>  <SCORE.INTRA.POLAR.0>
0

>  <SCORE.INTRA.REPUL>
0

>  <SCORE.INTRA.REPUL.0>
0

>  <SCORE.INTRA.SOLV>
0

>  <SCORE.INTRA.SOLV.lig_0>
-14.8845

>  <SCORE.INTRA.VDW>
0

>  <SCORE.INTRA.VDW.0>
0

>  <SCORE.INTRA.norm>
0

>  <SCORE.RESTR>
0

>  <SCORE.RESTR.CAVITY>
0

>  <SCORE.RESTR.norm>
0

>  <SCORE.SYSTEM>
0

>  <SCORE.SYSTEM.CONST>
0

>  <SCORE.SYSTEM.DIHEDRAL>
0

>  <SCORE.SYSTEM.SOLV>
0

>  <SCORE.SYSTEM.norm>
0

>  <SCORE.heavy>
10

>  <SCORE.norm>
-3.2813

>  <RMSD>
2.944

$$$$
lig.pdb
 OpenBabel11021811523D
libRbt.so/2013.1/901 2013/11/27
 10 11  0  0  0  0  0  0  0  0999 V2000
  -29.2079   15.4540  -15.0226 N   0  0  0  0  0  0  0  0  0  0  0  0
  -28.6129   15.5996  -16.2456 C   0  0  0  0  0  0  0  0  0  0  0  0
  -29.0602   16.6225  -16.9342 N   0  0  0  0  0  0  0  0  0  0  0  0
  -30.0162   17.1875  -16.1071 C   0  0  0  0  0  0  0  0  0  0  0  0
  -30.8560   18.3066  -16.2552 C   0  0  0  0  0  0  0  0  0  0  0  0
  -30.8628   19.0789  -17.3467 N   0  0  0  0  0  0  0  0  0  0  0  0
  -31.6947   18.6000  -15.2374 N   0  0  0  0  0  0  0  0  0  0  0  0
  -31.6852   17.8215  -14.1498 C   0  0  0  0  0  0  0  0  0  0  0  0
  -30.9412   16.7456  -13.8957 N   0  0  0  0  0  0  0  0  0  0  0  0
  -30.1200   16.4801  -14.9240 C   0  0  0  0  0  0  0  0  0  0  0  0
  1 10  1  0  0  0  0
  2  3  2  0  0  0  0
  2  1  1  0  0  0  0
  3  4  1  0  0  0  0
  4 10  2  0  0  0  0
  4  5  1  0  0  0  0
  5  7  2  0  0  0  0
  6  5  1  0  0  0  0
  7  8  1  0  0  0  0
  9  8  2  0  0  0  0
 10  9  1  0  0  0  0
M  END
>  <CHROM.1>
-30.31530588,17.22279874,-15.64255929,0.48692679,-0.77743131,2.18401288

>  <Name>
lig.pdb

>  <RI>
1.17431e+07

>  <Rbt.Current_Directory>
/home/itssahil/PROJECTS/Mol_Feturizer/New_Systems/rnas/5uza

>  <Rbt.Executable>
rbdock ($Id: //depot/dev/client3/rdock/2013.1/src/exe/rbdock.cxx#4 $)

>  <Rbt.Library>
libRbt.so (2013.1, Build901 2013/11/27)

>  <Rbt.Parameter_File>
/export/apps/rDock/src/rDock_2013.1_src/data/scripts/dock_solv.prm

>  <Rbt.Receptor>
prm/pocket_docking_6.prm

>  <SCORE>
-32.8121

>  <SCORE.INTER>
-32.8121

>  <SCORE.INTER.CONST>
1

>  <SCORE.INTER.POLAR>
-4.08844

>  <SCORE.INTER.ROT>
0

>  <SCORE.INTER.SOLV>
11.8791

>  <SCORE.INTER.VDW>
-15.8063

>  <SCORE.INTER.norm>
-3.28121

>  <SCORE.INTRA>
0

>  <SCORE.INTRA.DIHEDRAL>
0

>  <SCORE.INTRA.DIHEDRAL.0>
0

>  <SCORE.INTRA.POLAR>
0

>  <SCORE.INTRA.POLAR.0>
0

>  <SCORE.INTRA.REPUL>
0

>  <SCORE.INTRA.REPUL.0>
0

>  <SCORE.INTRA.SOLV>
0

>  <SCORE.INTRA.SOLV.lig_0>
-14.8845

>  <SCORE.INTRA.VDW>
0

>  <SCORE.INTRA.VDW.0>
0

>  <SCORE.INTRA.norm>
0

>  <SCORE.RESTR>
4.58061e-06

>  <SCORE.RESTR.CAVITY>
4.58061e-06

>  <SCORE.RESTR.norm>
4.58061e-07

>  <SCORE.SYSTEM>
0

>  <SCORE.SYSTEM.CONST>
0

>  <SCORE.SYSTEM.DIHEDRAL>
0

>  <SCORE.SYSTEM.SOLV>
0

>  <SCORE.SYSTEM.norm>
0

>  <SCORE.heavy>
10

>  <SCORE.norm>
-3.28121

>  <RMSD>
2.944

$$$$
lig.pdb
 OpenBabel11021811523D
libRbt.so/2013.1/901 2013/11/27
 10 11  0  0  0  0  0  0  0  0999 V2000
  -29.2037   15.4519  -15.0240 N   0  0  0  0  0  0  0  0  0  0  0  0
  -28.6133   15.5961  -16.2494 C   0  0  0  0  0  0  0  0  0  0  0  0
  -29.0622   16.6188  -16.9370 N   0  0  0  0  0  0  0  0  0  0  0  0
  -30.0145   17.1853  -16.1066 C   0  0  0  0  0  0  0  0  0  0  0  0
  -30.8538   18.3052  -16.2523 C   0  0  0  0  0  0  0  0  0  0  0  0
  -30.8641   19.0767  -17.3443 N   0  0  0  0  0  0  0  0  0  0  0  0
  -31.6883   18.6001  -15.2315 N   0  0  0  0  0  0  0  0  0  0  0  0
  -31.6753   17.8223  -14.1434 C   0  0  0  0  0  0  0  0  0  0  0  0
  -30.9314   16.7459  -13.8914 N   0  0  0  0  0  0  0  0  0  0  0  0
  -30.1144   16.4789  -14.9226 C   0  0  0  0  0  0  0  0  0  0  0  0
  1 10  1  0  0  0  0
  2  3  2  0  0  0  0
  2  1  1  0  0  0  0
  3  4  1  0  0  0  0
  4 10  2  0  0  0  0
  4  5  1  0  0  0  0
  5  7  2  0  0  0  0
  6  5  1  0  0  0  0
  7  8  1  0  0  0  0
  9  8  2  0  0  0  0
 10  9  1  0  0  0  0
M  END
>  <CHROM.1>
-30.31177496,17.22126992,-15.64097624,0.48324472,-0.78041340,2.18070604

>  <Name>
lig.pdb

>  <RI>
1.17775e+07

>  <Rbt.Current_Directory>
/home/itssahil/PROJECTS/Mol_Feturizer/New_Systems/rnas/5uza

>  <Rbt.Executable>
rbdock ($Id: //depot/dev/client3/rdock/2013.1/src/exe/rbdock.cxx#4 $)

>  <Rbt.Library>
libRbt.so (2013.1, Build901 2013/11/27)

>  <Rbt.Parameter_File>
/export/apps/rDock/src/rDock_2013.1_src/data/scripts/dock_solv.prm

>  <Rbt.Receptor>
prm/pocket_docking_8.prm

>  <SCORE>
-32.7972

>  <SCORE.INTER>
-32.7972

>  <SCORE.INTER.CONST>
1

>  <SCORE.INTER.POLAR>
-4.08081

>  <SCORE.INTER.ROT>
0

>  <SCORE.INTER.SOLV>
11.868

>  <SCORE.INTER.VDW>
-15.8181

>  <SCORE.INTER.norm>
-3.27972

>  <SCORE.INTRA>
0

>  <SCORE.INTRA.DIHEDRAL>
0

>  <SCORE.INTRA.DIHEDRAL.0>
0

>  <SCORE.INTRA.POLAR>
0

>  <SCORE.INTRA.POLAR.0>
0

>  <SCORE.INTRA.REPUL>
0

>  <SCORE.INTRA.REPUL.0>
0

>  <SCORE.INTRA.SOLV>
0

>  <SCORE.INTRA.SOLV.lig_0>
-14.8845

>  <SCORE.INTRA.VDW>
0

>  <SCORE.INTRA.VDW.0>
0

>  <SCORE.INTRA.norm>
0

>  <SCORE.RESTR>
6.03234e-05

>  <SCORE.RESTR.CAVITY>
6.03234e-05

>  <SCORE.RESTR.norm>
6.03234e-06

>  <SCORE.SYSTEM>
0

>  <SCORE.SYSTEM.CONST>
0

>  <SCORE.SYSTEM.DIHEDRAL>
0

>  <SCORE.SYSTEM.SOLV>
0

>  <SCORE.SYSTEM.norm>
0

>  <SCORE.heavy>
10

>  <SCORE.norm>
-3.27972

>  <RMSD>
2.944

$$$$
lig.pdb
 OpenBabel11021811523D
libRbt.so/2013.1/901 2013/11/27
 10 11  0  0  0  0  0  0  0  0999 V2000
  -29.2116   15.4527  -15.0202 N   0  0  0  0  0  0  0  0  0  0  0  0
  -28.6168   15.5971  -16.2435 C   0  0  0  0  0  0  0  0  0  0  0  0
  -29.0636   16.6197  -16.9327 N   0  0  0  0  0  0  0  0  0  0  0  0
  -30.0192   17.1857  -16.1058 C   0  0  0  0  0  0  0  0  0  0  0  0
  -30.8584   18.3052  -16.2546 C   0  0  0  0  0  0  0  0  0  0  0  0
  -30.8650   19.0768  -17.3466 N   0  0  0  0  0  0  0  0  0  0  0  0
  -31.6968   18.5998  -15.2369 N   0  0  0  0  0  0  0  0  0  0  0  0
  -31.6874   17.8220  -14.1487 C   0  0  0  0  0  0  0  0  0  0  0  0
  -30.9440   16.7460  -13.8939 N   0  0  0  0  0  0  0  0  0  0  0  0
  -30.1231   16.4793  -14.9222 C   0  0  0  0  0  0  0  0  0  0  0  0
  1 10  1  0  0  0  0
  2  3  2  0  0  0  0
  2  1  1  0  0  0  0
  3  4  1  0  0  0  0
  4 10  2  0  0  0  0
  4  5  1  0  0  0  0
  5  7  2  0  0  0  0
  6  5  1  0  0  0  0
  7  8  1  0  0  0  0
  9  8  2  0  0  0  0
 10  9  1  0  0  0  0
M  END
>  <CHROM.1>
-30.31818269,17.22157879,-15.64125677,0.48711617,-0.77796310,2.18341930

>  <Name>
lig.pdb

>  <RI>
1.17775e+07

>  <Rbt.Current_Directory>
/home/itssahil/PROJECTS/Mol_Feturizer/New_Systems/rnas/5uza

>  <Rbt.Executable>
rbdock ($Id: //depot/dev/client3/rdock/2013.1/src/exe/rbdock.cxx#4 $)

>  <Rbt.Library>
libRbt.so (2013.1, Build901 2013/11/27)

>  <Rbt.Parameter_File>
/export/apps/rDock/src/rDock_2013.1_src/data/scripts/dock_solv.prm

>  <Rbt.Receptor>
prm/pocket_docking_8.prm

>  <SCORE>
-32.8139

>  <SCORE.INTER>
-32.8139

>  <SCORE.INTER.CONST>
1

>  <SCORE.INTER.POLAR>
-4.09284

>  <SCORE.INTER.ROT>
0

>  <SCORE.INTER.SOLV>
11.8803

>  <SCORE.INTER.VDW>
-15.7932

>  <SCORE.INTER.norm>
-3.28139

>  <SCORE.INTRA>
0

>  <SCORE.INTRA.DIHEDRAL>
0

>  <SCORE.INTRA.DIHEDRAL.0>
0

>  <SCORE.INTRA.POLAR>
0

>  <SCORE.INTRA.POLAR.0>
0

>  <SCORE.INTRA.REPUL>
0

>  <SCORE.INTRA.REPUL.0>
0

>  <SCORE.INTRA.SOLV>
0

>  <SCORE.INTRA.SOLV.lig_0>
-14.8845

>  <SCORE.INTRA.VDW>
0

>  <SCORE.INTRA.VDW.0>
0

>  <SCORE.INTRA.norm>
0

>  <SCORE.RESTR>
0

>  <SCORE.RESTR.CAVITY>
0

>  <SCORE.RESTR.norm>
0

>  <SCORE.SYSTEM>
0

>  <SCORE.SYSTEM.CONST>
0

>  <SCORE.SYSTEM.DIHEDRAL>
0

>  <SCORE.SYSTEM.SOLV>
0

>  <SCORE.SYSTEM.norm>
0

>  <SCORE.heavy>
10

>  <SCORE.norm>
-3.28139

>  <RMSD>
2.944

$$$$
lig.pdb
 OpenBabel11021811523D
libRbt.so/2013.1/901 2013/11/27
 10 11  0  0  0  0  0  0  0  0999 V2000
  -29.2110   15.4532  -15.0204 N   0  0  0  0  0  0  0  0  0  0  0  0
  -28.6116   15.6014  -16.2410 C   0  0  0  0  0  0  0  0  0  0  0  0
  -29.0564   16.6256  -16.9290 N   0  0  0  0  0  0  0  0  0  0  0  0
  -30.0154   17.1889  -16.1041 C   0  0  0  0  0  0  0  0  0  0  0  0
  -30.8546   18.3084  -16.2529 C   0  0  0  0  0  0  0  0  0  0  0  0
  -30.8575   19.0830  -17.3428 N   0  0  0  0  0  0  0  0  0  0  0  0
  -31.6970   18.5996  -15.2376 N   0  0  0  0  0  0  0  0  0  0  0  0
  -31.6914   17.8188  -14.1515 C   0  0  0  0  0  0  0  0  0  0  0  0
  -30.9483   16.7424  -13.8970 N   0  0  0  0  0  0  0  0  0  0  0  0
  -30.1234   16.4791  -14.9229 C   0  0  0  0  0  0  0  0  0  0  0  0
  1 10  1  0  0  0  0
  2  3  2  0  0  0  0
  2  1  1  0  0  0  0
  3  4  1  0  0  0  0
  4 10  2  0  0  0  0
  4  5  1  0  0  0  0
  5  7  2  0  0  0  0
  6  5  1  0  0  0  0
  7  8  1  0  0  0  0
  9  8  2  0  0  0  0
 10  9  1  0  0  0  0
M  END
>  <CHROM.1>
-30.31616127,17.22328020,-15.64062479,0.49102705,-0.77536623,2.18898108

>  <Name>
lig.pdb

>  <RI>
2.26746e+07

>  <Rbt.Current_Directory>
/home/itssahil/PROJECTS/Mol_Feturizer/New_Systems/rnas/5uza

>  <Rbt.Executable>
rbdock ($Id: //depot/dev/client3/rdock/2013.1/src/exe/rbdock.cxx#4 $)

>  <Rbt.Library>
libRbt.so (2013.1, Build901 2013/11/27)

>  <Rbt.Parameter_File>
/export/apps/rDock/src/rDock_2013.1_src/data/scripts/dock_solv.prm

>  <Rbt.Receptor>
prm/blind_docking_100.prm

>  <SCORE>
-32.8157

>  <SCORE.INTER>
-32.8157

>  <SCORE.INTER.CONST>
1

>  <SCORE.INTER.POLAR>
-4.09638

>  <SCORE.INTER.ROT>
0

>  <SCORE.INTER.SOLV>
11.8952

>  <SCORE.INTER.VDW>
-15.7876

>  <SCORE.INTER.norm>
-3.28157

>  <SCORE.INTRA>
0

>  <SCORE.INTRA.DIHEDRAL>
0

>  <SCORE.INTRA.DIHEDRAL.0>
0

>  <SCORE.INTRA.POLAR>
0

>  <SCORE.INTRA.POLAR.0>
0

>  <SCORE.INTRA.REPUL>
0

>  <SCORE.INTRA.REPUL.0>
0

>  <SCORE.INTRA.SOLV>
0

>  <SCORE.INTRA.SOLV.lig_0>
-14.8845

>  <SCORE.INTRA.VDW>
0

>  <SCORE.INTRA.VDW.0>
0

>  <SCORE.INTRA.norm>
0

>  <SCORE.RESTR>
0

>  <SCORE.RESTR.CAVITY>
0

>  <SCORE.RESTR.norm>
0

>  <SCORE.SYSTEM>
0

>  <SCORE.SYSTEM.CONST>
0

>  <SCORE.SYSTEM.DIHEDRAL>
0

>  <SCORE.SYSTEM.SOLV>
0

>  <SCORE.SYSTEM.norm>
0

>  <SCORE.heavy>
10

>  <SCORE.norm>
-3.28157

>  <RMSD>
2.945

$$$$
lig.pdb
 OpenBabel11021811523D
libRbt.so/2013.1/901 2013/11/27
 10 11  0  0  0  0  0  0  0  0999 V2000
  -29.2110   15.4531  -15.0164 N   0  0  0  0  0  0  0  0  0  0  0  0
  -28.6144   15.5988  -16.2386 C   0  0  0  0  0  0  0  0  0  0  0  0
  -29.0606   16.6218  -16.9276 N   0  0  0  0  0  0  0  0  0  0  0  0
  -30.0176   17.1868  -16.1017 C   0  0  0  0  0  0  0  0  0  0  0  0
  -30.8570   18.3062  -16.2507 C   0  0  0  0  0  0  0  0  0  0  0  0
  -30.8622   19.0786  -17.3421 N   0  0  0  0  0  0  0  0  0  0  0  0
  -31.6970   18.5996  -15.2340 N   0  0  0  0  0  0  0  0  0  0  0  0
  -31.6889   17.8209  -14.1465 C   0  0  0  0  0  0  0  0  0  0  0  0
  -30.9455   16.7449  -13.8915 N   0  0  0  0  0  0  0  0  0  0  0  0
  -30.1230   16.4793  -14.9188 C   0  0  0  0  0  0  0  0  0  0  0  0
  1 10  1  0  0  0  0
  2  3  2  0  0  0  0
  2  1  1  0  0  0  0
  3  4  1  0  0  0  0
  4 10  2  0  0  0  0
  4  5  1  0  0  0  0
  5  7  2  0  0  0  0
  6  5  1  0  0  0  0
  7  8  1  0  0  0  0
  9  8  2  0  0  0  0
 10  9  1  0  0  0  0
M  END
>  <CHROM.1>
-30.31726752,17.22215420,-15.63755367,0.48854617,-0.77683793,2.18527269

>  <Name>
lig.pdb

>  <RI>
2.26746e+07

>  <Rbt.Current_Directory>
/home/itssahil/PROJECTS/Mol_Feturizer/New_Systems/rnas/5uza

>  <Rbt.Executable>
rbdock ($Id: //depot/dev/client3/rdock/2013.1/src/exe/rbdock.cxx#4 $)

>  <Rbt.Library>
libRbt.so (2013.1, Build901 2013/11/27)

>  <Rbt.Parameter_File>
/export/apps/rDock/src/rDock_2013.1_src/data/scripts/dock_solv.prm

>  <Rbt.Receptor>
prm/blind_docking_100.prm

>  <SCORE>
-32.8151

>  <SCORE.INTER>
-32.8151

>  <SCORE.INTER.CONST>
1

>  <SCORE.INTER.POLAR>
-4.09945

>  <SCORE.INTER.ROT>
0

>  <SCORE.INTER.SOLV>
11.8863

>  <SCORE.INTER.VDW>
-15.7739

>  <SCORE.INTER.norm>
-3.28151

>  <SCORE.INTRA>
0

>  <SCORE.INTRA.DIHEDRAL>
0

>  <SCORE.INTRA.DIHEDRAL.0>
0

>  <SCORE.INTRA.POLAR>
0

>  <SCORE.INTRA.POLAR.0>
0

>  <SCORE.INTRA.REPUL>
0

>  <SCORE.INTRA.REPUL.0>
0

>  <SCORE.INTRA.SOLV>
0

>  <SCORE.INTRA.SOLV.lig_0>
-14.8845

>  <SCORE.INTRA.VDW>
0

>  <SCORE.INTRA.VDW.0>
0

>  <SCORE.INTRA.norm>
0

>  <SCORE.RESTR>
0

>  <SCORE.RESTR.CAVITY>
0

>  <SCORE.RESTR.norm>
0

>  <SCORE.SYSTEM>
0

>  <SCORE.SYSTEM.CONST>
0

>  <SCORE.SYSTEM.DIHEDRAL>
0

>  <SCORE.SYSTEM.SOLV>
0

>  <SCORE.SYSTEM.norm>
0

>  <SCORE.heavy>
10

>  <SCORE.norm>
-3.28151

>  <RMSD>
2.945

$$$$
lig.pdb
 OpenBabel11021811523D
libRbt.so/2013.1/901 2013/11/27
 10 11  0  0  0  0  0  0  0  0999 V2000
  -29.2109   15.4531  -15.0200 N   0  0  0  0  0  0  0  0  0  0  0  0
  -28.6136   15.5997  -16.2418 C   0  0  0  0  0  0  0  0  0  0  0  0
  -29.0595   16.6231  -16.9304 N   0  0  0  0  0  0  0  0  0  0  0  0
  -30.0170   17.1875  -16.1045 C   0  0  0  0  0  0  0  0  0  0  0  0
  -30.8564   18.3069  -16.2533 C   0  0  0  0  0  0  0  0  0  0  0  0
  -30.8610   19.0801  -17.3441 N   0  0  0  0  0  0  0  0  0  0  0  0
  -31.6970   18.5995  -15.2369 N   0  0  0  0  0  0  0  0  0  0  0  0
  -31.6895   17.8200  -14.1499 C   0  0  0  0  0  0  0  0  0  0  0  0
  -30.9462   16.7439  -13.8953 N   0  0  0  0  0  0  0  0  0  0  0  0
  -30.1230   16.4791  -14.9223 C   0  0  0  0  0  0  0  0  0  0  0  0
  1 10  1  0  0  0  0
  2  3  2  0  0  0  0
  2  1  1  0  0  0  0
  3  4  1  0  0  0  0
  4 10  2  0  0  0  0
  4  5  1  0  0  0  0
  5  7  2  0  0  0  0
  6  5  1  0  0  0  0
  7  8  1  0  0  0  0
  9  8  2  0  0  0  0
 10  9  1  0  0  0  0
M  END
>  <CHROM.1>
-30.31693250,17.22246753,-15.64057369,0.48914051,-0.77643370,2.18640575

>  <Name>
lig.pdb

>  <RI>
2.26746e+07

>  <Rbt.Current_Directory>
/home/itssahil/PROJECTS/Mol_Feturizer/New_Systems/rnas/5uza

>  <Rbt.Executable>
rbdock ($Id: //depot/dev/client3/rdock/2013.1/src/exe/rbdock.cxx#4 $)

>  <Rbt.Library>
libRbt.so (2013.1, Build901 2013/11/27)

>  <Rbt.Parameter_File>
/export/apps/rDock/src/rDock_2013.1_src/data/scripts/dock_solv.prm

>  <Rbt.Receptor>
prm/blind_docking_100.prm

>  <SCORE>
-32.8153

>  <SCORE.INTER>
-32.8153

>  <SCORE.INTER.CONST>
1

>  <SCORE.INTER.POLAR>
-4.09519

>  <SCORE.INTER.ROT>
0

>  <SCORE.INTER.SOLV>
11.8878

>  <SCORE.INTER.VDW>
-15.7888

>  <SCORE.INTER.norm>
-3.28153

>  <SCORE.INTRA>
0

>  <SCORE.INTRA.DIHEDRAL>
0

>  <SCORE.INTRA.DIHEDRAL.0>
0

>  <SCORE.INTRA.POLAR>
0

>  <SCORE.INTRA.POLAR.0>
0

>  <SCORE.INTRA.REPUL>
0

>  <SCORE.INTRA.REPUL.0>
0

>  <SCORE.INTRA.SOLV>
0

>  <SCORE.INTRA.SOLV.lig_0>
-14.8845

>  <SCORE.INTRA.VDW>
0

>  <SCORE.INTRA.VDW.0>
0

>  <SCORE.INTRA.norm>
0

>  <SCORE.RESTR>
0

>  <SCORE.RESTR.CAVITY>
0

>  <SCORE.RESTR.norm>
0

>  <SCORE.SYSTEM>
0

>  <SCORE.SYSTEM.CONST>
0

>  <SCORE.SYSTEM.DIHEDRAL>
0

>  <SCORE.SYSTEM.SOLV>
0

>  <SCORE.SYSTEM.norm>
0

>  <SCORE.heavy>
10

>  <SCORE.norm>
-3.28153

>  <RMSD>
2.945

$$$$
lig.pdb
 OpenBabel11021811523D
libRbt.so/2013.1/901 2013/11/27
 10 11  0  0  0  0  0  0  0  0999 V2000
  -29.2112   15.4530  -15.0186 N   0  0  0  0  0  0  0  0  0  0  0  0
  -28.6111   15.6017  -16.2387 C   0  0  0  0  0  0  0  0  0  0  0  0
  -29.0554   16.6264  -16.9265 N   0  0  0  0  0  0  0  0  0  0  0  0
  -30.0147   17.1894  -16.1019 C   0  0  0  0  0  0  0  0  0  0  0  0
  -30.8537   18.3091  -16.2506 C   0  0  0  0  0  0  0  0  0  0  0  0
  -30.8559   19.0842  -17.3401 N   0  0  0  0  0  0  0  0  0  0  0  0
  -31.6967   18.5999  -15.2356 N   0  0  0  0  0  0  0  0  0  0  0  0
  -31.6917   17.8186  -14.1500 C   0  0  0  0  0  0  0  0  0  0  0  0
  -30.9490   16.7420  -13.8955 N   0  0  0  0  0  0  0  0  0  0  0  0
  -30.1236   16.4790  -14.9211 C   0  0  0  0  0  0  0  0  0  0  0  0
  1 10  1  0  0  0  0
  2  3  2  0  0  0  0
  2  1  1  0  0  0  0
  3  4  1  0  0  0  0
  4 10  2  0  0  0  0
  4  5  1  0  0  0  0
  5  7  2  0  0  0  0
  6  5  1  0  0  0  0
  7  8  1  0  0  0  0
  9  8  2  0  0  0  0
 10  9  1  0  0  0  0
M  END
>  <CHROM.1>
-30.31576814,17.22358737,-15.63854564,0.49180274,-0.77514764,2.19003175

>  <Name>
lig.pdb

>  <RI>
2.26746e+07

>  <Rbt.Current_Directory>
/home/itssahil/PROJECTS/Mol_Feturizer/New_Systems/rnas/5uza

>  <Rbt.Executable>
rbdock ($Id: //depot/dev/client3/rdock/2013.1/src/exe/rbdock.cxx#4 $)

>  <Rbt.Library>
libRbt.so (2013.1, Build901 2013/11/27)

>  <Rbt.Parameter_File>
/export/apps/rDock/src/rDock_2013.1_src/data/scripts/dock_solv.prm

>  <Rbt.Receptor>
prm/blind_docking_100.prm

>  <SCORE>
-32.8166

>  <SCORE.INTER>
-32.8166

>  <SCORE.INTER.CONST>
1

>  <SCORE.INTER.POLAR>
-4.0999

>  <SCORE.INTER.ROT>
0

>  <SCORE.INTER.SOLV>
11.8996

>  <SCORE.INTER.VDW>
-15.7779

>  <SCORE.INTER.norm>
-3.28166

>  <SCORE.INTRA>
0

>  <SCORE.INTRA.DIHEDRAL>
0

>  <SCORE.INTRA.DIHEDRAL.0>
0

>  <SCORE.INTRA.POLAR>
0

>  <SCORE.INTRA.POLAR.0>
0

>  <SCORE.INTRA.REPUL>
0

>  <SCORE.INTRA.REPUL.0>
0

>  <SCORE.INTRA.SOLV>
0

>  <SCORE.INTRA.SOLV.lig_0>
-14.8845

>  <SCORE.INTRA.VDW>
0

>  <SCORE.INTRA.VDW.0>
0

>  <SCORE.INTRA.norm>
0

>  <SCORE.RESTR>
0

>  <SCORE.RESTR.CAVITY>
0

>  <SCORE.RESTR.norm>
0

>  <SCORE.SYSTEM>
0

>  <SCORE.SYSTEM.CONST>
0

>  <SCORE.SYSTEM.DIHEDRAL>
0

>  <SCORE.SYSTEM.SOLV>
0

>  <SCORE.SYSTEM.norm>
0

>  <SCORE.heavy>
10

>  <SCORE.norm>
-3.28166

>  <RMSD>
2.945

$$$$
lig.pdb
 OpenBabel11021811523D
libRbt.so/2013.1/901 2013/11/27
 10 11  0  0  0  0  0  0  0  0999 V2000
  -29.2136   15.4493  -15.0238 N   0  0  0  0  0  0  0  0  0  0  0  0
  -28.6116   15.6005  -16.2427 C   0  0  0  0  0  0  0  0  0  0  0  0
  -29.0538   16.6274  -16.9285 N   0  0  0  0  0  0  0  0  0  0  0  0
  -30.0138   17.1892  -16.1038 C   0  0  0  0  0  0  0  0  0  0  0  0
  -30.8514   18.3102  -16.2508 C   0  0  0  0  0  0  0  0  0  0  0  0
  -30.8512   19.0881  -17.3383 N   0  0  0  0  0  0  0  0  0  0  0  0
  -31.6955   18.5993  -15.2363 N   0  0  0  0  0  0  0  0  0  0  0  0
  -31.6929   17.8151  -14.1526 C   0  0  0  0  0  0  0  0  0  0  0  0
  -30.9517   16.7371  -13.8999 N   0  0  0  0  0  0  0  0  0  0  0  0
  -30.1250   16.4759  -14.9250 C   0  0  0  0  0  0  0  0  0  0  0  0
  1 10  1  0  0  0  0
  2  3  2  0  0  0  0
  2  1  1  0  0  0  0
  3  4  1  0  0  0  0
  4 10  2  0  0  0  0
  4  5  1  0  0  0  0
  5  7  2  0  0  0  0
  6  5  1  0  0  0  0
  7  8  1  0  0  0  0
  9  8  2  0  0  0  0
 10  9  1  0  0  0  0
M  END
>  <CHROM.1>
-30.31542846,17.22253538,-15.64079789,0.49425979,-0.77514261,2.19432783

>  <Name>
lig.pdb

>  <RI>
0

>  <Rbt.Current_Directory>
/home/itssahil/PROJECTS/Mol_Feturizer/New_Systems/rnas/5uza

>  <Rbt.Executable>
rbdock ($Id: //depot/dev/client3/rdock/2013.1/src/exe/rbdock.cxx#4 $)

>  <Rbt.Library>
libRbt.so (2013.1, Build901 2013/11/27)

>  <Rbt.Parameter_File>
/export/apps/rDock/src/rDock_2013.1_src/data/scripts/dock_solv.prm

>  <Rbt.Receptor>
prm/blind_docking_60.prm

>  <SCORE>
-32.8106

>  <SCORE.INTER>
-32.8106

>  <SCORE.INTER.CONST>
1

>  <SCORE.INTER.POLAR>
-4.09611

>  <SCORE.INTER.ROT>
0

>  <SCORE.INTER.SOLV>
11.9113

>  <SCORE.INTER.VDW>
-15.7904

>  <SCORE.INTER.norm>
-3.28106

>  <SCORE.INTRA>
0

>  <SCORE.INTRA.DIHEDRAL>
0

>  <SCORE.INTRA.DIHEDRAL.0>
0

>  <SCORE.INTRA.POLAR>
0

>  <SCORE.INTRA.POLAR.0>
0

>  <SCORE.INTRA.REPUL>
0

>  <SCORE.INTRA.REPUL.0>
0

>  <SCORE.INTRA.SOLV>
0

>  <SCORE.INTRA.SOLV.lig_0>
-14.8845

>  <SCORE.INTRA.VDW>
0

>  <SCORE.INTRA.VDW.0>
0

>  <SCORE.INTRA.norm>
0

>  <SCORE.RESTR>
0

>  <SCORE.RESTR.CAVITY>
0

>  <SCORE.RESTR.norm>
0

>  <SCORE.SYSTEM>
0

>  <SCORE.SYSTEM.CONST>
0

>  <SCORE.SYSTEM.DIHEDRAL>
0

>  <SCORE.SYSTEM.SOLV>
0

>  <SCORE.SYSTEM.norm>
0

>  <SCORE.heavy>
10

>  <SCORE.norm>
-3.28106

>  <RMSD>
2.945

$$$$
lig.pdb
 OpenBabel11021811523D
libRbt.so/2013.1/901 2013/11/27
 10 11  0  0  0  0  0  0  0  0999 V2000
  -29.2110   15.4530  -15.0196 N   0  0  0  0  0  0  0  0  0  0  0  0
  -28.6124   15.6007  -16.2406 C   0  0  0  0  0  0  0  0  0  0  0  0
  -29.0575   16.6248  -16.9287 N   0  0  0  0  0  0  0  0  0  0  0  0
  -30.0158   17.1885  -16.1034 C   0  0  0  0  0  0  0  0  0  0  0  0
  -30.8550   18.3080  -16.2521 C   0  0  0  0  0  0  0  0  0  0  0  0
  -30.8585   19.0822  -17.3422 N   0  0  0  0  0  0  0  0  0  0  0  0
  -31.6967   18.5997  -15.2363 N   0  0  0  0  0  0  0  0  0  0  0  0
  -31.6905   17.8193  -14.1500 C   0  0  0  0  0  0  0  0  0  0  0  0
  -30.9474   16.7429  -13.8956 N   0  0  0  0  0  0  0  0  0  0  0  0
  -30.1232   16.4790  -14.9219 C   0  0  0  0  0  0  0  0  0  0  0  0
  1 10  1  0  0  0  0
  2  3  2  0  0  0  0
  2  1  1  0  0  0  0
  3  4  1  0  0  0  0
  4 10  2  0  0  0  0
  4  5  1  0  0  0  0
  5  7  2  0  0  0  0
  6  5  1  0  0  0  0
  7  8  1  0  0  0  0
  9  8  2  0  0  0  0
 10  9  1  0  0  0  0
M  END
>  <CHROM.1>
-30.31631084,17.22303738,-15.63974507,0.49040626,-0.77583877,2.18819000

>  <Name>
lig.pdb

>  <RI>
0

>  <Rbt.Current_Directory>
/home/itssahil/PROJECTS/Mol_Feturizer/New_Systems/rnas/5uza

>  <Rbt.Executable>
rbdock ($Id: //depot/dev/client3/rdock/2013.1/src/exe/rbdock.cxx#4 $)

>  <Rbt.Library>
libRbt.so (2013.1, Build901 2013/11/27)

>  <Rbt.Parameter_File>
/export/apps/rDock/src/rDock_2013.1_src/data/scripts/dock_solv.prm

>  <Rbt.Receptor>
prm/blind_docking_80.prm

>  <SCORE>
-32.8156

>  <SCORE.INTER>
-32.8156

>  <SCORE.INTER.CONST>
1

>  <SCORE.INTER.POLAR>
-4.09708

>  <SCORE.INTER.ROT>
0

>  <SCORE.INTER.SOLV>
11.8935

>  <SCORE.INTER.VDW>
-15.7847

>  <SCORE.INTER.norm>
-3.28156

>  <SCORE.INTRA>
0

>  <SCORE.INTRA.DIHEDRAL>
0

>  <SCORE.INTRA.DIHEDRAL.0>
0

>  <SCORE.INTRA.POLAR>
0

>  <SCORE.INTRA.POLAR.0>
0

>  <SCORE.INTRA.REPUL>
0

>  <SCORE.INTRA.REPUL.0>
0

>  <SCORE.INTRA.SOLV>
0

>  <SCORE.INTRA.SOLV.lig_0>
-14.8845

>  <SCORE.INTRA.VDW>
0

>  <SCORE.INTRA.VDW.0>
0

>  <SCORE.INTRA.norm>
0

>  <SCORE.RESTR>
0

>  <SCORE.RESTR.CAVITY>
0

>  <SCORE.RESTR.norm>
0

>  <SCORE.SYSTEM>
0

>  <SCORE.SYSTEM.CONST>
0

>  <SCORE.SYSTEM.DIHEDRAL>
0

>  <SCORE.SYSTEM.SOLV>
0

>  <SCORE.SYSTEM.norm>
0

>  <SCORE.heavy>
10

>  <SCORE.norm>
-3.28156

>  <RMSD>
2.945

$$$$
lig.pdb
 OpenBabel11021811523D
libRbt.so/2013.1/901 2013/11/27
 10 11  0  0  0  0  0  0  0  0999 V2000
  -29.2135   15.4509  -15.0223 N   0  0  0  0  0  0  0  0  0  0  0  0
  -28.6079   15.6044  -16.2391 C   0  0  0  0  0  0  0  0  0  0  0  0
  -29.0485   16.6323  -16.9245 N   0  0  0  0  0  0  0  0  0  0  0  0
  -30.0112   17.1923  -16.1017 C   0  0  0  0  0  0  0  0  0  0  0  0
  -30.8489   18.3131  -16.2494 C   0  0  0  0  0  0  0  0  0  0  0  0
  -30.8458   19.0929  -17.3356 N   0  0  0  0  0  0  0  0  0  0  0  0
  -31.6962   18.6001  -15.2369 N   0  0  0  0  0  0  0  0  0  0  0  0
  -31.6965   17.8141  -14.1546 C   0  0  0  0  0  0  0  0  0  0  0  0
  -30.9555   16.7360  -13.9015 N   0  0  0  0  0  0  0  0  0  0  0  0
  -30.1257   16.4769  -14.9245 C   0  0  0  0  0  0  0  0  0  0  0  0
  1 10  1  0  0  0  0
  2  3  2  0  0  0  0
  2  1  1  0  0  0  0
  3  4  1  0  0  0  0
  4 10  2  0  0  0  0
  4  5  1  0  0  0  0
  5  7  2  0  0  0  0
  6  5  1  0  0  0  0
  7  8  1  0  0  0  0
  9  8  2  0  0  0  0
 10  9  1  0  0  0  0
M  END
>  <CHROM.1>
-30.31426263,17.22469466,-15.63959162,0.49730135,-0.77302306,2.19813282

>  <Name>
lig.pdb

>  <RI>
0

>  <Rbt.Current_Directory>
/home/itssahil/PROJECTS/Mol_Feturizer/New_Systems/rnas/5uza

>  <Rbt.Executable>
rbdock ($Id: //depot/dev/client3/rdock/2013.1/src/exe/rbdock.cxx#4 $)

>  <Rbt.Library>
libRbt.so (2013.1, Build901 2013/11/27)

>  <Rbt.Parameter_File>
/export/apps/rDock/src/rDock_2013.1_src/data/scripts/dock_solv.prm

>  <Rbt.Receptor>
prm/blind_docking_80.prm

>  <SCORE>
-32.8143

>  <SCORE.INTER>
-32.8144

>  <SCORE.INTER.CONST>
1

>  <SCORE.INTER.POLAR>
-4.10122

>  <SCORE.INTER.ROT>
0

>  <SCORE.INTER.SOLV>
11.9232

>  <SCORE.INTER.VDW>
-15.7799

>  <SCORE.INTER.norm>
-3.28144

>  <SCORE.INTRA>
0

>  <SCORE.INTRA.DIHEDRAL>
0

>  <SCORE.INTRA.DIHEDRAL.0>
0

>  <SCORE.INTRA.POLAR>
0

>  <SCORE.INTRA.POLAR.0>
0

>  <SCORE.INTRA.REPUL>
0

>  <SCORE.INTRA.REPUL.0>
0

>  <SCORE.INTRA.SOLV>
0

>  <SCORE.INTRA.SOLV.lig_0>
-14.8845

>  <SCORE.INTRA.VDW>
0

>  <SCORE.INTRA.VDW.0>
0

>  <SCORE.INTRA.norm>
0

>  <SCORE.RESTR>
0.000124503

>  <SCORE.RESTR.CAVITY>
0.000124503

>  <SCORE.RESTR.norm>
1.24503e-05

>  <SCORE.SYSTEM>
0

>  <SCORE.SYSTEM.CONST>
0

>  <SCORE.SYSTEM.DIHEDRAL>
0

>  <SCORE.SYSTEM.SOLV>
0

>  <SCORE.SYSTEM.norm>
0

>  <SCORE.heavy>
10

>  <SCORE.norm>
-3.28143

>  <RMSD>
2.945

$$$$
lig.pdb
 OpenBabel11021811523D
libRbt.so/2013.1/901 2013/11/27
 10 11  0  0  0  0  0  0  0  0999 V2000
  -29.2072   15.4560  -15.0225 N   0  0  0  0  0  0  0  0  0  0  0  0
  -28.6020   15.6096  -16.2396 C   0  0  0  0  0  0  0  0  0  0  0  0
  -29.0448   16.6359  -16.9259 N   0  0  0  0  0  0  0  0  0  0  0  0
  -30.0085   17.1948  -16.1036 C   0  0  0  0  0  0  0  0  0  0  0  0
  -30.8485   18.3137  -16.2523 C   0  0  0  0  0  0  0  0  0  0  0  0
  -30.8471   19.0924  -17.3393 N   0  0  0  0  0  0  0  0  0  0  0  0
  -31.6962   18.6001  -15.2400 N   0  0  0  0  0  0  0  0  0  0  0  0
  -31.6949   17.8152  -14.1569 C   0  0  0  0  0  0  0  0  0  0  0  0
  -30.9517   16.7388  -13.9028 N   0  0  0  0  0  0  0  0  0  0  0  0
  -30.1214   16.4803  -14.9256 C   0  0  0  0  0  0  0  0  0  0  0  0
  1 10  1  0  0  0  0
  2  3  2  0  0  0  0
  2  1  1  0  0  0  0
  3  4  1  0  0  0  0
  4 10  2  0  0  0  0
  4  5  1  0  0  0  0
  5  7  2  0  0  0  0
  6  5  1  0  0  0  0
  7  8  1  0  0  0  0
  9  8  2  0  0  0  0
 10  9  1  0  0  0  0
M  END
>  <CHROM.1>
-30.31161347,17.22701476,-15.64147621,0.49551970,-0.77144900,2.19588103

>  <Name>
lig.pdb

>  <RI>
0

>  <Rbt.Current_Directory>
/home/itssahil/PROJECTS/Mol_Feturizer/New_Systems/rnas/5uza

>  <Rbt.Executable>
rbdock ($Id: //depot/dev/client3/rdock/2013.1/src/exe/rbdock.cxx#4 $)

>  <Rbt.Library>
libRbt.so (2013.1, Build901 2013/11/27)

>  <Rbt.Parameter_File>
/export/apps/rDock/src/rDock_2013.1_src/data/scripts/dock_solv.prm

>  <Rbt.Receptor>
prm/blind_docking_80.prm

>  <SCORE>
-32.8154

>  <SCORE.INTER>
-32.8154

>  <SCORE.INTER.CONST>
1

>  <SCORE.INTER.POLAR>
-4.09709

>  <SCORE.INTER.ROT>
0

>  <SCORE.INTER.SOLV>
11.912

>  <SCORE.INTER.VDW>
-15.7906

>  <SCORE.INTER.norm>
-3.28154

>  <SCORE.INTRA>
0

>  <SCORE.INTRA.DIHEDRAL>
0

>  <SCORE.INTRA.DIHEDRAL.0>
0

>  <SCORE.INTRA.POLAR>
0

>  <SCORE.INTRA.POLAR.0>
0

>  <SCORE.INTRA.REPUL>
0

>  <SCORE.INTRA.REPUL.0>
0

>  <SCORE.INTRA.SOLV>
0

>  <SCORE.INTRA.SOLV.lig_0>
-14.8845

>  <SCORE.INTRA.VDW>
0

>  <SCORE.INTRA.VDW.0>
0

>  <SCORE.INTRA.norm>
0

>  <SCORE.RESTR>
5.12675e-05

>  <SCORE.RESTR.CAVITY>
5.12675e-05

>  <SCORE.RESTR.norm>
5.12675e-06

>  <SCORE.SYSTEM>
0

>  <SCORE.SYSTEM.CONST>
0

>  <SCORE.SYSTEM.DIHEDRAL>
0

>  <SCORE.SYSTEM.SOLV>
0

>  <SCORE.SYSTEM.norm>
0

>  <SCORE.heavy>
10

>  <SCORE.norm>
-3.28154

>  <RMSD>
2.945

$$$$
lig.pdb
 OpenBabel11021811523D
libRbt.so/2013.1/901 2013/11/27
 10 11  0  0  0  0  0  0  0  0999 V2000
  -29.2174   15.4542  -15.0118 N   0  0  0  0  0  0  0  0  0  0  0  0
  -28.6409   15.5805  -16.2458 C   0  0  0  0  0  0  0  0  0  0  0  0
  -29.0856   16.6031  -16.9363 N   0  0  0  0  0  0  0  0  0  0  0  0
  -30.0198   17.1888  -16.0988 C   0  0  0  0  0  0  0  0  0  0  0  0
  -30.8466   18.3181  -16.2435 C   0  0  0  0  0  0  0  0  0  0  0  0
  -30.8610   19.0804  -17.3418 N   0  0  0  0  0  0  0  0  0  0  0  0
  -31.6642   18.6322  -15.2148 N   0  0  0  0  0  0  0  0  0  0  0  0
  -31.6472   17.8636  -14.1203 C   0  0  0  0  0  0  0  0  0  0  0  0
  -30.9139   16.7799  -13.8685 N   0  0  0  0  0  0  0  0  0  0  0  0
  -30.1136   16.4937  -14.9077 C   0  0  0  0  0  0  0  0  0  0  0  0
  1 10  1  0  0  0  0
  2  3  2  0  0  0  0
  2  1  1  0  0  0  0
  3  4  1  0  0  0  0
  4 10  2  0  0  0  0
  4  5  1  0  0  0  0
  5  7  2  0  0  0  0
  6  5  1  0  0  0  0
  7  8  1  0  0  0  0
  9  8  2  0  0  0  0
 10  9  1  0  0  0  0
M  END
>  <CHROM.1>
-30.31066742,17.23245953,-15.62980285,0.47870299,-0.79818621,2.16898984

>  <Name>
lig.pdb

>  <RI>
0

>  <Rbt.Current_Directory>
/home/itssahil/PROJECTS/Mol_Feturizer/New_Systems/rnas/5uza

>  <Rbt.Executable>
rbdock ($Id: //depot/dev/client3/rdock/2013.1/src/exe/rbdock.cxx#4 $)

>  <Rbt.Library>
libRbt.so (2013.1, Build901 2013/11/27)

>  <Rbt.Parameter_File>
/export/apps/rDock/src/rDock_2013.1_src/data/scripts/dock_solv.prm

>  <Rbt.Receptor>
prm/pocket_docking_3.prm

>  <SCORE>
-32.8031

>  <SCORE.INTER>
-32.8031

>  <SCORE.INTER.CONST>
1

>  <SCORE.INTER.POLAR>
-4.09669

>  <SCORE.INTER.ROT>
0

>  <SCORE.INTER.SOLV>
11.879

>  <SCORE.INTER.VDW>
-15.7728

>  <SCORE.INTER.norm>
-3.28031

>  <SCORE.INTRA>
0

>  <SCORE.INTRA.DIHEDRAL>
0

>  <SCORE.INTRA.DIHEDRAL.0>
0

>  <SCORE.INTRA.POLAR>
0

>  <SCORE.INTRA.POLAR.0>
0

>  <SCORE.INTRA.REPUL>
0

>  <SCORE.INTRA.REPUL.0>
0

>  <SCORE.INTRA.SOLV>
0

>  <SCORE.INTRA.SOLV.lig_0>
-14.8845

>  <SCORE.INTRA.VDW>
0

>  <SCORE.INTRA.VDW.0>
0

>  <SCORE.INTRA.norm>
0

>  <SCORE.RESTR>
0

>  <SCORE.RESTR.CAVITY>
0

>  <SCORE.RESTR.norm>
0

>  <SCORE.SYSTEM>
0

>  <SCORE.SYSTEM.CONST>
0

>  <SCORE.SYSTEM.DIHEDRAL>
0

>  <SCORE.SYSTEM.SOLV>
0

>  <SCORE.SYSTEM.norm>
0

>  <SCORE.heavy>
10

>  <SCORE.norm>
-3.28031

>  <RMSD>
2.945

$$$$
lig.pdb
 OpenBabel11021811523D
libRbt.so/2013.1/901 2013/11/27
 10 11  0  0  0  0  0  0  0  0999 V2000
  -29.2274   15.4485  -15.0175 N   0  0  0  0  0  0  0  0  0  0  0  0
  -28.6475   15.5770  -16.2496 C   0  0  0  0  0  0  0  0  0  0  0  0
  -29.0870   16.6034  -16.9378 N   0  0  0  0  0  0  0  0  0  0  0  0
  -30.0213   17.1894  -16.1005 C   0  0  0  0  0  0  0  0  0  0  0  0
  -30.8439   18.3220  -16.2433 C   0  0  0  0  0  0  0  0  0  0  0  0
  -30.8530   19.0882  -17.3391 N   0  0  0  0  0  0  0  0  0  0  0  0
  -31.6628   18.6355  -15.2155 N   0  0  0  0  0  0  0  0  0  0  0  0
  -31.6511   17.8631  -14.1236 C   0  0  0  0  0  0  0  0  0  0  0  0
  -30.9221   16.7760  -13.8737 N   0  0  0  0  0  0  0  0  0  0  0  0
  -30.1203   16.4906  -14.9120 C   0  0  0  0  0  0  0  0  0  0  0  0
  1 10  1  0  0  0  0
  2  3  2  0  0  0  0
  2  1  1  0  0  0  0
  3  4  1  0  0  0  0
  4 10  2  0  0  0  0
  4  5  1  0  0  0  0
  5  7  2  0  0  0  0
  6  5  1  0  0  0  0
  7  8  1  0  0  0  0
  9  8  2  0  0  0  0
 10  9  1  0  0  0  0
M  END
>  <CHROM.1>
-30.31312327,17.23253108,-15.63206001,0.48428426,-0.79964491,2.17637233

>  <Name>
lig.pdb

>  <RI>
9.24451e+06

>  <Rbt.Current_Directory>
/home/itssahil/PROJECTS/Mol_Feturizer/New_Systems/rnas/5uza

>  <Rbt.Executable>
rbdock ($Id: //depot/dev/client3/rdock/2013.1/src/exe/rbdock.cxx#4 $)

>  <Rbt.Library>
libRbt.so (2013.1, Build901 2013/11/27)

>  <Rbt.Parameter_File>
/export/apps/rDock/src/rDock_2013.1_src/data/scripts/dock_solv.prm

>  <Rbt.Receptor>
prm/pocket_docking_4.prm

>  <SCORE>
-32.806

>  <SCORE.INTER>
-32.8065

>  <SCORE.INTER.CONST>
1

>  <SCORE.INTER.POLAR>
-4.09782

>  <SCORE.INTER.ROT>
0

>  <SCORE.INTER.SOLV>
11.9077

>  <SCORE.INTER.VDW>
-15.7809

>  <SCORE.INTER.norm>
-3.28065

>  <SCORE.INTRA>
0

>  <SCORE.INTRA.DIHEDRAL>
0

>  <SCORE.INTRA.DIHEDRAL.0>
0

>  <SCORE.INTRA.POLAR>
0

>  <SCORE.INTRA.POLAR.0>
0

>  <SCORE.INTRA.REPUL>
0

>  <SCORE.INTRA.REPUL.0>
0

>  <SCORE.INTRA.SOLV>
0

>  <SCORE.INTRA.SOLV.lig_0>
-14.8845

>  <SCORE.INTRA.VDW>
0

>  <SCORE.INTRA.VDW.0>
0

>  <SCORE.INTRA.norm>
0

>  <SCORE.RESTR>
0.000551494

>  <SCORE.RESTR.CAVITY>
0.000551494

>  <SCORE.RESTR.norm>
5.51494e-05

>  <SCORE.SYSTEM>
0

>  <SCORE.SYSTEM.CONST>
0

>  <SCORE.SYSTEM.DIHEDRAL>
0

>  <SCORE.SYSTEM.SOLV>
0

>  <SCORE.SYSTEM.norm>
0

>  <SCORE.heavy>
10

>  <SCORE.norm>
-3.2806

>  <RMSD>
2.945

$$$$
lig.pdb
 OpenBabel11021811523D
libRbt.so/2013.1/901 2013/11/27
 10 11  0  0  0  0  0  0  0  0999 V2000
  -29.2113   15.4563  -15.0182 N   0  0  0  0  0  0  0  0  0  0  0  0
  -28.6158   15.5997  -16.2412 C   0  0  0  0  0  0  0  0  0  0  0  0
  -29.0577   16.6254  -16.9289 N   0  0  0  0  0  0  0  0  0  0  0  0
  -30.0106   17.1948  -16.1012 C   0  0  0  0  0  0  0  0  0  0  0  0
  -30.8445   18.3185  -16.2483 C   0  0  0  0  0  0  0  0  0  0  0  0
  -30.8474   19.0916  -17.3392 N   0  0  0  0  0  0  0  0  0  0  0  0
  -31.6816   18.6155  -15.2302 N   0  0  0  0  0  0  0  0  0  0  0  0
  -31.6759   17.8361  -14.1432 C   0  0  0  0  0  0  0  0  0  0  0  0
  -30.9376   16.7561  -13.8900 N   0  0  0  0  0  0  0  0  0  0  0  0
  -30.1180   16.4871  -14.9186 C   0  0  0  0  0  0  0  0  0  0  0  0
  1 10  1  0  0  0  0
  2  3  2  0  0  0  0
  2  1  1  0  0  0  0
  3  4  1  0  0  0  0
  4 10  2  0  0  0  0
  4  5  1  0  0  0  0
  5  7  2  0  0  0  0
  6  5  1  0  0  0  0
  7  8  1  0  0  0  0
  9  8  2  0  0  0  0
 10  9  1  0  0  0  0
M  END
>  <CHROM.1>
-30.30947915,17.23135263,-15.63660317,0.49100409,-0.78182363,2.18763876

>  <Name>
lig.pdb

>  <RI>
9.24451e+06

>  <Rbt.Current_Directory>
/home/itssahil/PROJECTS/Mol_Feturizer/New_Systems/rnas/5uza

>  <Rbt.Executable>
rbdock ($Id: //depot/dev/client3/rdock/2013.1/src/exe/rbdock.cxx#4 $)

>  <Rbt.Library>
libRbt.so (2013.1, Build901 2013/11/27)

>  <Rbt.Parameter_File>
/export/apps/rDock/src/rDock_2013.1_src/data/scripts/dock_solv.prm

>  <Rbt.Receptor>
prm/pocket_docking_4.prm

>  <SCORE>
-32.8389

>  <SCORE.INTER>
-32.8389

>  <SCORE.INTER.CONST>
1

>  <SCORE.INTER.POLAR>
-4.09821

>  <SCORE.INTER.ROT>
0

>  <SCORE.INTER.SOLV>
11.9083

>  <SCORE.INTER.VDW>
-15.8013

>  <SCORE.INTER.norm>
-3.28389

>  <SCORE.INTRA>
0

>  <SCORE.INTRA.DIHEDRAL>
0

>  <SCORE.INTRA.DIHEDRAL.0>
0

>  <SCORE.INTRA.POLAR>
0

>  <SCORE.INTRA.POLAR.0>
0

>  <SCORE.INTRA.REPUL>
0

>  <SCORE.INTRA.REPUL.0>
0

>  <SCORE.INTRA.SOLV>
0

>  <SCORE.INTRA.SOLV.lig_0>
-14.8845

>  <SCORE.INTRA.VDW>
0

>  <SCORE.INTRA.VDW.0>
0

>  <SCORE.INTRA.norm>
0

>  <SCORE.RESTR>
0

>  <SCORE.RESTR.CAVITY>
0

>  <SCORE.RESTR.norm>
0

>  <SCORE.SYSTEM>
0

>  <SCORE.SYSTEM.CONST>
0

>  <SCORE.SYSTEM.DIHEDRAL>
0

>  <SCORE.SYSTEM.SOLV>
0

>  <SCORE.SYSTEM.norm>
0

>  <SCORE.heavy>
10

>  <SCORE.norm>
-3.28389

>  <RMSD>
2.945

$$$$
lig.pdb
 OpenBabel11021811523D
libRbt.so/2013.1/901 2013/11/27
 10 11  0  0  0  0  0  0  0  0999 V2000
  -29.2172   15.4514  -15.0211 N   0  0  0  0  0  0  0  0  0  0  0  0
  -28.6174   15.5985  -16.2416 C   0  0  0  0  0  0  0  0  0  0  0  0
  -29.0560   16.6271  -16.9271 N   0  0  0  0  0  0  0  0  0  0  0  0
  -30.0111   17.1946  -16.1005 C   0  0  0  0  0  0  0  0  0  0  0  0
  -30.8433   18.3196  -16.2465 C   0  0  0  0  0  0  0  0  0  0  0  0
  -30.8418   19.0967  -17.3346 N   0  0  0  0  0  0  0  0  0  0  0  0
  -31.6835   18.6139  -15.2301 N   0  0  0  0  0  0  0  0  0  0  0  0
  -31.6822   17.8306  -14.1458 C   0  0  0  0  0  0  0  0  0  0  0  0
  -30.9459   16.7490  -13.8940 N   0  0  0  0  0  0  0  0  0  0  0  0
  -30.1231   16.4828  -14.9209 C   0  0  0  0  0  0  0  0  0  0  0  0
  1 10  1  0  0  0  0
  2  3  2  0  0  0  0
  2  1  1  0  0  0  0
  3  4  1  0  0  0  0
  4 10  2  0  0  0  0
  4  5  1  0  0  0  0
  5  7  2  0  0  0  0
  6  5  1  0  0  0  0
  7  8  1  0  0  0  0
  9  8  2  0  0  0  0
 10  9  1  0  0  0  0
M  END
>  <CHROM.1>
-30.31145297,17.22978776,-15.63684330,0.49567739,-0.78073392,2.19448307

>  <Name>
lig.pdb

>  <RI>
9.24451e+06

>  <Rbt.Current_Directory>
/home/itssahil/PROJECTS/Mol_Feturizer/New_Systems/rnas/5uza

>  <Rbt.Executable>
rbdock ($Id: //depot/dev/client3/rdock/2013.1/src/exe/rbdock.cxx#4 $)

>  <Rbt.Library>
libRbt.so (2013.1, Build901 2013/11/27)

>  <Rbt.Parameter_File>
/export/apps/rDock/src/rDock_2013.1_src/data/scripts/dock_solv.prm

>  <Rbt.Receptor>
prm/pocket_docking_4.prm

>  <SCORE>
-32.8374

>  <SCORE.INTER>
-32.8375

>  <SCORE.INTER.CONST>
1

>  <SCORE.INTER.POLAR>
-4.10213

>  <SCORE.INTER.ROT>
0

>  <SCORE.INTER.SOLV>
11.9296

>  <SCORE.INTER.VDW>
-15.7945

>  <SCORE.INTER.norm>
-3.28375

>  <SCORE.INTRA>
0

>  <SCORE.INTRA.DIHEDRAL>
0

>  <SCORE.INTRA.DIHEDRAL.0>
0

>  <SCORE.INTRA.POLAR>
0

>  <SCORE.INTRA.POLAR.0>
0

>  <SCORE.INTRA.REPUL>
0

>  <SCORE.INTRA.REPUL.0>
0

>  <SCORE.INTRA.SOLV>
0

>  <SCORE.INTRA.SOLV.lig_0>
-14.8845

>  <SCORE.INTRA.VDW>
0

>  <SCORE.INTRA.VDW.0>
0

>  <SCORE.INTRA.norm>
0

>  <SCORE.RESTR>
0.000145619

>  <SCORE.RESTR.CAVITY>
0.000145619

>  <SCORE.RESTR.norm>
1.45619e-05

>  <SCORE.SYSTEM>
0

>  <SCORE.SYSTEM.CONST>
0

>  <SCORE.SYSTEM.DIHEDRAL>
0

>  <SCORE.SYSTEM.SOLV>
0

>  <SCORE.SYSTEM.norm>
0

>  <SCORE.heavy>
10

>  <SCORE.norm>
-3.28374

>  <RMSD>
2.945

$$$$
lig.pdb
 OpenBabel11021811523D
libRbt.so/2013.1/901 2013/11/27
 10 11  0  0  0  0  0  0  0  0999 V2000
  -29.2108   15.4522  -15.0215 N   0  0  0  0  0  0  0  0  0  0  0  0
  -28.6097   15.6024  -16.2409 C   0  0  0  0  0  0  0  0  0  0  0  0
  -29.0532   16.6280  -16.9278 N   0  0  0  0  0  0  0  0  0  0  0  0
  -30.0132   17.1901  -16.1032 C   0  0  0  0  0  0  0  0  0  0  0  0
  -30.8519   18.3100  -16.2512 C   0  0  0  0  0  0  0  0  0  0  0  0
  -30.8530   19.0866  -17.3397 N   0  0  0  0  0  0  0  0  0  0  0  0
  -31.6956   18.5997  -15.2365 N   0  0  0  0  0  0  0  0  0  0  0  0
  -31.6917   17.8170  -14.1519 C   0  0  0  0  0  0  0  0  0  0  0  0
  -30.9494   16.7399  -13.8982 N   0  0  0  0  0  0  0  0  0  0  0  0
  -30.1231   16.4781  -14.9234 C   0  0  0  0  0  0  0  0  0  0  0  0
  1 10  1  0  0  0  0
  2  3  2  0  0  0  0
  2  1  1  0  0  0  0
  3  4  1  0  0  0  0
  4 10  2  0  0  0  0
  4  5  1  0  0  0  0
  5  7  2  0  0  0  0
  6  5  1  0  0  0  0
  7  8  1  0  0  0  0
  9  8  2  0  0  0  0
 10  9  1  0  0  0  0
M  END
>  <CHROM.1>
-30.31461543,17.22369192,-15.64007967,0.49286178,-0.77478681,2.19204412

>  <Name>
lig.pdb

>  <RI>
0

>  <Rbt.Current_Directory>
/home/itssahil/PROJECTS/Mol_Feturizer/New_Systems/rnas/5uza

>  <Rbt.Executable>
rbdock ($Id: //depot/dev/client3/rdock/2013.1/src/exe/rbdock.cxx#4 $)

>  <Rbt.Library>
libRbt.so (2013.1, Build901 2013/11/27)

>  <Rbt.Parameter_File>
/export/apps/rDock/src/rDock_2013.1_src/data/scripts/dock_solv.prm

>  <Rbt.Receptor>
prm/pocket_docking_5.prm

>  <SCORE>
-32.8142

>  <SCORE.INTER>
-32.8142

>  <SCORE.INTER.CONST>
1

>  <SCORE.INTER.POLAR>
-4.09691

>  <SCORE.INTER.ROT>
0

>  <SCORE.INTER.SOLV>
11.904

>  <SCORE.INTER.VDW>
-15.7878

>  <SCORE.INTER.norm>
-3.28142

>  <SCORE.INTRA>
0

>  <SCORE.INTRA.DIHEDRAL>
0

>  <SCORE.INTRA.DIHEDRAL.0>
0

>  <SCORE.INTRA.POLAR>
0

>  <SCORE.INTRA.POLAR.0>
0

>  <SCORE.INTRA.REPUL>
0

>  <SCORE.INTRA.REPUL.0>
0

>  <SCORE.INTRA.SOLV>
0

>  <SCORE.INTRA.SOLV.lig_0>
-14.8845

>  <SCORE.INTRA.VDW>
0

>  <SCORE.INTRA.VDW.0>
0

>  <SCORE.INTRA.norm>
0

>  <SCORE.RESTR>
0

>  <SCORE.RESTR.CAVITY>
0

>  <SCORE.RESTR.norm>
0

>  <SCORE.SYSTEM>
0

>  <SCORE.SYSTEM.CONST>
0

>  <SCORE.SYSTEM.DIHEDRAL>
0

>  <SCORE.SYSTEM.SOLV>
0

>  <SCORE.SYSTEM.norm>
0

>  <SCORE.heavy>
10

>  <SCORE.norm>
-3.28142

>  <RMSD>
2.945

$$$$
lig.pdb
 OpenBabel11021811523D
libRbt.so/2013.1/901 2013/11/27
 10 11  0  0  0  0  0  0  0  0999 V2000
  -29.2164   15.4489  -15.0205 N   0  0  0  0  0  0  0  0  0  0  0  0
  -28.6142   15.5991  -16.2393 C   0  0  0  0  0  0  0  0  0  0  0  0
  -29.0558   16.6259  -16.9257 N   0  0  0  0  0  0  0  0  0  0  0  0
  -30.0156   17.1887  -16.1015 C   0  0  0  0  0  0  0  0  0  0  0  0
  -30.8526   18.3100  -16.2492 C   0  0  0  0  0  0  0  0  0  0  0  0
  -30.8518   19.0873  -17.3371 N   0  0  0  0  0  0  0  0  0  0  0  0
  -31.6967   18.6001  -15.2350 N   0  0  0  0  0  0  0  0  0  0  0  0
  -31.6946   17.8165  -14.1509 C   0  0  0  0  0  0  0  0  0  0  0  0
  -30.9540   16.7382  -13.8975 N   0  0  0  0  0  0  0  0  0  0  0  0
  -30.1273   16.4760  -14.9223 C   0  0  0  0  0  0  0  0  0  0  0  0
  1 10  1  0  0  0  0
  2  3  2  0  0  0  0
  2  1  1  0  0  0  0
  3  4  1  0  0  0  0
  4 10  2  0  0  0  0
  4  5  1  0  0  0  0
  5  7  2  0  0  0  0
  6  5  1  0  0  0  0
  7  8  1  0  0  0  0
  9  8  2  0  0  0  0
 10  9  1  0  0  0  0
M  END
>  <CHROM.1>
-30.31726747,17.22239438,-15.63853859,0.49485223,-0.77549448,2.19419544

>  <Name>
lig.pdb

>  <RI>
0

>  <Rbt.Current_Directory>
/home/itssahil/PROJECTS/Mol_Feturizer/New_Systems/rnas/5uza

>  <Rbt.Executable>
rbdock ($Id: //depot/dev/client3/rdock/2013.1/src/exe/rbdock.cxx#4 $)

>  <Rbt.Library>
libRbt.so (2013.1, Build901 2013/11/27)

>  <Rbt.Parameter_File>
/export/apps/rDock/src/rDock_2013.1_src/data/scripts/dock_solv.prm

>  <Rbt.Receptor>
prm/pocket_docking_5.prm

>  <SCORE>
-32.814

>  <SCORE.INTER>
-32.8141

>  <SCORE.INTER.CONST>
1

>  <SCORE.INTER.POLAR>
-4.10197

>  <SCORE.INTER.ROT>
0

>  <SCORE.INTER.SOLV>
11.9145

>  <SCORE.INTER.VDW>
-15.7743

>  <SCORE.INTER.norm>
-3.28141

>  <SCORE.INTRA>
0

>  <SCORE.INTRA.DIHEDRAL>
0

>  <SCORE.INTRA.DIHEDRAL.0>
0

>  <SCORE.INTRA.POLAR>
0

>  <SCORE.INTRA.POLAR.0>
0

>  <SCORE.INTRA.REPUL>
0

>  <SCORE.INTRA.REPUL.0>
0

>  <SCORE.INTRA.SOLV>
0

>  <SCORE.INTRA.SOLV.lig_0>
-14.8845

>  <SCORE.INTRA.VDW>
0

>  <SCORE.INTRA.VDW.0>
0

>  <SCORE.INTRA.norm>
0

>  <SCORE.RESTR>
7.24182e-05

>  <SCORE.RESTR.CAVITY>
7.24182e-05

>  <SCORE.RESTR.norm>
7.24182e-06

>  <SCORE.SYSTEM>
0

>  <SCORE.SYSTEM.CONST>
0

>  <SCORE.SYSTEM.DIHEDRAL>
0

>  <SCORE.SYSTEM.SOLV>
0

>  <SCORE.SYSTEM.norm>
0

>  <SCORE.heavy>
10

>  <SCORE.norm>
-3.2814

>  <RMSD>
2.945

$$$$
lig.pdb
 OpenBabel11021811523D
libRbt.so/2013.1/901 2013/11/27
 10 11  0  0  0  0  0  0  0  0999 V2000
  -29.2092   15.4542  -15.0221 N   0  0  0  0  0  0  0  0  0  0  0  0
  -28.6083   15.6041  -16.2417 C   0  0  0  0  0  0  0  0  0  0  0  0
  -29.0529   16.6289  -16.9292 N   0  0  0  0  0  0  0  0  0  0  0  0
  -30.0133   17.1906  -16.1049 C   0  0  0  0  0  0  0  0  0  0  0  0
  -30.8530   18.3098  -16.2536 C   0  0  0  0  0  0  0  0  0  0  0  0
  -30.8550   19.0856  -17.3426 N   0  0  0  0  0  0  0  0  0  0  0  0
  -31.6970   18.5994  -15.2391 N   0  0  0  0  0  0  0  0  0  0  0  0
  -31.6922   17.8174  -14.1539 C   0  0  0  0  0  0  0  0  0  0  0  0
  -30.9489   16.7412  -13.8996 N   0  0  0  0  0  0  0  0  0  0  0  0
  -30.1224   16.4794  -14.9247 C   0  0  0  0  0  0  0  0  0  0  0  0
  1 10  1  0  0  0  0
  2  3  2  0  0  0  0
  2  1  1  0  0  0  0
  3  4  1  0  0  0  0
  4 10  2  0  0  0  0
  4  5  1  0  0  0  0
  5  7  2  0  0  0  0
  6  5  1  0  0  0  0
  7  8  1  0  0  0  0
  9  8  2  0  0  0  0
 10  9  1  0  0  0  0
M  END
>  <CHROM.1>
-30.31468604,17.22431523,-15.64180142,0.49203337,-0.77407799,2.19078800

>  <Name>
lig.pdb

>  <RI>
0

>  <Rbt.Current_Directory>
/home/itssahil/PROJECTS/Mol_Feturizer/New_Systems/rnas/5uza

>  <Rbt.Executable>
rbdock ($Id: //depot/dev/client3/rdock/2013.1/src/exe/rbdock.cxx#4 $)

>  <Rbt.Library>
libRbt.so (2013.1, Build901 2013/11/27)

>  <Rbt.Parameter_File>
/export/apps/rDock/src/rDock_2013.1_src/data/scripts/dock_solv.prm

>  <Rbt.Receptor>
prm/pocket_docking_5.prm

>  <SCORE>
-32.8155

>  <SCORE.INTER>
-32.8155

>  <SCORE.INTER.CONST>
1

>  <SCORE.INTER.POLAR>
-4.09496

>  <SCORE.INTER.ROT>
0

>  <SCORE.INTER.SOLV>
11.8984

>  <SCORE.INTER.VDW>
-15.7933

>  <SCORE.INTER.norm>
-3.28155

>  <SCORE.INTRA>
0

>  <SCORE.INTRA.DIHEDRAL>
0

>  <SCORE.INTRA.DIHEDRAL.0>
0

>  <SCORE.INTRA.POLAR>
0

>  <SCORE.INTRA.POLAR.0>
0

>  <SCORE.INTRA.REPUL>
0

>  <SCORE.INTRA.REPUL.0>
0

>  <SCORE.INTRA.SOLV>
0

>  <SCORE.INTRA.SOLV.lig_0>
-14.8845

>  <SCORE.INTRA.VDW>
0

>  <SCORE.INTRA.VDW.0>
0

>  <SCORE.INTRA.norm>
0

>  <SCORE.RESTR>
0

>  <SCORE.RESTR.CAVITY>
0

>  <SCORE.RESTR.norm>
0

>  <SCORE.SYSTEM>
0

>  <SCORE.SYSTEM.CONST>
0

>  <SCORE.SYSTEM.DIHEDRAL>
0

>  <SCORE.SYSTEM.SOLV>
0

>  <SCORE.SYSTEM.norm>
0

>  <SCORE.heavy>
10

>  <SCORE.norm>
-3.28155

>  <RMSD>
2.945

$$$$
lig.pdb
 OpenBabel11021811523D
libRbt.so/2013.1/901 2013/11/27
 10 11  0  0  0  0  0  0  0  0999 V2000
  -29.2108   15.4531  -15.0206 N   0  0  0  0  0  0  0  0  0  0  0  0
  -28.6073   15.6049  -16.2387 C   0  0  0  0  0  0  0  0  0  0  0  0
  -29.0498   16.6311  -16.9252 N   0  0  0  0  0  0  0  0  0  0  0  0
  -30.0117   17.1919  -16.1020 C   0  0  0  0  0  0  0  0  0  0  0  0
  -30.8505   18.3117  -16.2504 C   0  0  0  0  0  0  0  0  0  0  0  0
  -30.8498   19.0895  -17.3380 N   0  0  0  0  0  0  0  0  0  0  0  0
  -31.6964   18.5999  -15.2371 N   0  0  0  0  0  0  0  0  0  0  0  0
  -31.6943   17.8160  -14.1533 C   0  0  0  0  0  0  0  0  0  0  0  0
  -30.9521   16.7389  -13.8994 N   0  0  0  0  0  0  0  0  0  0  0  0
  -30.1236   16.4786  -14.9232 C   0  0  0  0  0  0  0  0  0  0  0  0
  1 10  1  0  0  0  0
  2  3  2  0  0  0  0
  2  1  1  0  0  0  0
  3  4  1  0  0  0  0
  4 10  2  0  0  0  0
  4  5  1  0  0  0  0
  5  7  2  0  0  0  0
  6  5  1  0  0  0  0
  7  8  1  0  0  0  0
  9  8  2  0  0  0  0
 10  9  1  0  0  0  0
M  END
>  <CHROM.1>
-30.31401735,17.22489031,-15.63941292,0.49481708,-0.77330270,2.19454151

>  <Name>
lig.pdb

>  <RI>
0

>  <Rbt.Current_Directory>
/home/itssahil/PROJECTS/Mol_Feturizer/New_Systems/rnas/5uza

>  <Rbt.Executable>
rbdock ($Id: //depot/dev/client3/rdock/2013.1/src/exe/rbdock.cxx#4 $)

>  <Rbt.Library>
libRbt.so (2013.1, Build901 2013/11/27)

>  <Rbt.Parameter_File>
/export/apps/rDock/src/rDock_2013.1_src/data/scripts/dock_solv.prm

>  <Rbt.Receptor>
prm/pocket_docking_5.prm

>  <SCORE>
-32.8165

>  <SCORE.INTER>
-32.8165

>  <SCORE.INTER.CONST>
1

>  <SCORE.INTER.POLAR>
-4.10016

>  <SCORE.INTER.ROT>
0

>  <SCORE.INTER.SOLV>
11.9113

>  <SCORE.INTER.VDW>
-15.7809

>  <SCORE.INTER.norm>
-3.28165

>  <SCORE.INTRA>
0

>  <SCORE.INTRA.DIHEDRAL>
0

>  <SCORE.INTRA.DIHEDRAL.0>
0

>  <SCORE.INTRA.POLAR>
0

>  <SCORE.INTRA.POLAR.0>
0

>  <SCORE.INTRA.REPUL>
0

>  <SCORE.INTRA.REPUL.0>
0

>  <SCORE.INTRA.SOLV>
0

>  <SCORE.INTRA.SOLV.lig_0>
-14.8845

>  <SCORE.INTRA.VDW>
0

>  <SCORE.INTRA.VDW.0>
0

>  <SCORE.INTRA.norm>
0

>  <SCORE.RESTR>
0

>  <SCORE.RESTR.CAVITY>
0

>  <SCORE.RESTR.norm>
0

>  <SCORE.SYSTEM>
0

>  <SCORE.SYSTEM.CONST>
0

>  <SCORE.SYSTEM.DIHEDRAL>
0

>  <SCORE.SYSTEM.SOLV>
0

>  <SCORE.SYSTEM.norm>
0

>  <SCORE.heavy>
10

>  <SCORE.norm>
-3.28165

>  <RMSD>
2.945

$$$$
lig.pdb
 OpenBabel11021811523D
libRbt.so/2013.1/901 2013/11/27
 10 11  0  0  0  0  0  0  0  0999 V2000
  -29.2134   15.4503  -15.0224 N   0  0  0  0  0  0  0  0  0  0  0  0
  -28.6105   15.6018  -16.2408 C   0  0  0  0  0  0  0  0  0  0  0  0
  -29.0525   16.6286  -16.9269 N   0  0  0  0  0  0  0  0  0  0  0  0
  -30.0134   17.1901  -16.1030 C   0  0  0  0  0  0  0  0  0  0  0  0
  -30.8513   18.3107  -16.2506 C   0  0  0  0  0  0  0  0  0  0  0  0
  -30.8505   19.0887  -17.3381 N   0  0  0  0  0  0  0  0  0  0  0  0
  -31.6963   18.5994  -15.2367 N   0  0  0  0  0  0  0  0  0  0  0  0
  -31.6943   17.8152  -14.1531 C   0  0  0  0  0  0  0  0  0  0  0  0
  -30.9528   16.7375  -13.8999 N   0  0  0  0  0  0  0  0  0  0  0  0
  -30.1253   16.4766  -14.9243 C   0  0  0  0  0  0  0  0  0  0  0  0
  1 10  1  0  0  0  0
  2  3  2  0  0  0  0
  2  1  1  0  0  0  0
  3  4  1  0  0  0  0
  4 10  2  0  0  0  0
  4  5  1  0  0  0  0
  5  7  2  0  0  0  0
  6  5  1  0  0  0  0
  7  8  1  0  0  0  0
  9  8  2  0  0  0  0
 10  9  1  0  0  0  0
M  END
>  <CHROM.1>
-30.31541278,17.22322460,-15.64019438,0.49485982,-0.77438410,2.19477731

>  <Name>
lig.pdb

>  <RI>
0

>  <Rbt.Current_Directory>
/home/itssahil/PROJECTS/Mol_Feturizer/New_Systems/rnas/5uza

>  <Rbt.Executable>
rbdock ($Id: //depot/dev/client3/rdock/2013.1/src/exe/rbdock.cxx#4 $)

>  <Rbt.Library>
libRbt.so (2013.1, Build901 2013/11/27)

>  <Rbt.Parameter_File>
/export/apps/rDock/src/rDock_2013.1_src/data/scripts/dock_solv.prm

>  <Rbt.Receptor>
prm/pocket_docking_5.prm

>  <SCORE>
-32.8134

>  <SCORE.INTER>
-32.8134

>  <SCORE.INTER.CONST>
1

>  <SCORE.INTER.POLAR>
-4.09857

>  <SCORE.INTER.ROT>
0

>  <SCORE.INTER.SOLV>
11.9128

>  <SCORE.INTER.VDW>
-15.7847

>  <SCORE.INTER.norm>
-3.28134

>  <SCORE.INTRA>
0

>  <SCORE.INTRA.DIHEDRAL>
0

>  <SCORE.INTRA.DIHEDRAL.0>
0

>  <SCORE.INTRA.POLAR>
0

>  <SCORE.INTRA.POLAR.0>
0

>  <SCORE.INTRA.REPUL>
0

>  <SCORE.INTRA.REPUL.0>
0

>  <SCORE.INTRA.SOLV>
0

>  <SCORE.INTRA.SOLV.lig_0>
-14.8845

>  <SCORE.INTRA.VDW>
0

>  <SCORE.INTRA.VDW.0>
0

>  <SCORE.INTRA.norm>
0

>  <SCORE.RESTR>
0

>  <SCORE.RESTR.CAVITY>
0

>  <SCORE.RESTR.norm>
0

>  <SCORE.SYSTEM>
0

>  <SCORE.SYSTEM.CONST>
0

>  <SCORE.SYSTEM.DIHEDRAL>
0

>  <SCORE.SYSTEM.SOLV>
0

>  <SCORE.SYSTEM.norm>
0

>  <SCORE.heavy>
10

>  <SCORE.norm>
-3.28134

>  <RMSD>
2.945

$$$$
lig.pdb
 OpenBabel11021811523D
libRbt.so/2013.1/901 2013/11/27
 10 11  0  0  0  0  0  0  0  0999 V2000
  -29.2097   15.4537  -15.0170 N   0  0  0  0  0  0  0  0  0  0  0  0
  -28.6127   15.6001  -16.2389 C   0  0  0  0  0  0  0  0  0  0  0  0
  -29.0587   16.6234  -16.9275 N   0  0  0  0  0  0  0  0  0  0  0  0
  -30.0161   17.1878  -16.1017 C   0  0  0  0  0  0  0  0  0  0  0  0
  -30.8556   18.3071  -16.2505 C   0  0  0  0  0  0  0  0  0  0  0  0
  -30.8605   19.0802  -17.3415 N   0  0  0  0  0  0  0  0  0  0  0  0
  -31.6961   18.5999  -15.2340 N   0  0  0  0  0  0  0  0  0  0  0  0
  -31.6884   17.8206  -14.1468 C   0  0  0  0  0  0  0  0  0  0  0  0
  -30.9449   16.7446  -13.8922 N   0  0  0  0  0  0  0  0  0  0  0  0
  -30.1220   16.4797  -14.9192 C   0  0  0  0  0  0  0  0  0  0  0  0
  1 10  1  0  0  0  0
  2  3  2  0  0  0  0
  2  1  1  0  0  0  0
  3  4  1  0  0  0  0
  4 10  2  0  0  0  0
  4  5  1  0  0  0  0
  5  7  2  0  0  0  0
  6  5  1  0  0  0  0
  7  8  1  0  0  0  0
  9  8  2  0  0  0  0
 10  9  1  0  0  0  0
M  END
>  <CHROM.1>
-30.31602266,17.22288675,-15.63764920,0.48889529,-0.77647673,2.18604382

>  <Name>
lig.pdb

>  <RI>
1.17431e+07

>  <Rbt.Current_Directory>
/home/itssahil/PROJECTS/Mol_Feturizer/New_Systems/rnas/5uza

>  <Rbt.Executable>
rbdock ($Id: //depot/dev/client3/rdock/2013.1/src/exe/rbdock.cxx#4 $)

>  <Rbt.Library>
libRbt.so (2013.1, Build901 2013/11/27)

>  <Rbt.Parameter_File>
/export/apps/rDock/src/rDock_2013.1_src/data/scripts/dock_solv.prm

>  <Rbt.Receptor>
prm/pocket_docking_6.prm

>  <SCORE>
-32.8145

>  <SCORE.INTER>
-32.8145

>  <SCORE.INTER.CONST>
1

>  <SCORE.INTER.POLAR>
-4.0985

>  <SCORE.INTER.ROT>
0

>  <SCORE.INTER.SOLV>
11.8878

>  <SCORE.INTER.VDW>
-15.7772

>  <SCORE.INTER.norm>
-3.28145

>  <SCORE.INTRA>
0

>  <SCORE.INTRA.DIHEDRAL>
0

>  <SCORE.INTRA.DIHEDRAL.0>
0

>  <SCORE.INTRA.POLAR>
0

>  <SCORE.INTRA.POLAR.0>
0

>  <SCORE.INTRA.REPUL>
0

>  <SCORE.INTRA.REPUL.0>
0

>  <SCORE.INTRA.SOLV>
0

>  <SCORE.INTRA.SOLV.lig_0>
-14.8845

>  <SCORE.INTRA.VDW>
0

>  <SCORE.INTRA.VDW.0>
0

>  <SCORE.INTRA.norm>
0

>  <SCORE.RESTR>
0

>  <SCORE.RESTR.CAVITY>
0

>  <SCORE.RESTR.norm>
0

>  <SCORE.SYSTEM>
0

>  <SCORE.SYSTEM.CONST>
0

>  <SCORE.SYSTEM.DIHEDRAL>
0

>  <SCORE.SYSTEM.SOLV>
0

>  <SCORE.SYSTEM.norm>
0

>  <SCORE.heavy>
10

>  <SCORE.norm>
-3.28145

>  <RMSD>
2.945

$$$$
lig.pdb
 OpenBabel11021811523D
libRbt.so/2013.1/901 2013/11/27
 10 11  0  0  0  0  0  0  0  0999 V2000
  -29.2097   15.4547  -15.0222 N   0  0  0  0  0  0  0  0  0  0  0  0
  -28.6092   15.6040  -16.2420 C   0  0  0  0  0  0  0  0  0  0  0  0
  -29.0530   16.6291  -16.9294 N   0  0  0  0  0  0  0  0  0  0  0  0
  -30.0125   17.1918  -16.1048 C   0  0  0  0  0  0  0  0  0  0  0  0
  -30.8513   18.3117  -16.2533 C   0  0  0  0  0  0  0  0  0  0  0  0
  -30.8529   19.0875  -17.3423 N   0  0  0  0  0  0  0  0  0  0  0  0
  -31.6945   18.6022  -15.2384 N   0  0  0  0  0  0  0  0  0  0  0  0
  -31.6901   17.8203  -14.1532 C   0  0  0  0  0  0  0  0  0  0  0  0
  -30.9477   16.7434  -13.8991 N   0  0  0  0  0  0  0  0  0  0  0  0
  -30.1219   16.4808  -14.9245 C   0  0  0  0  0  0  0  0  0  0  0  0
  1 10  1  0  0  0  0
  2  3  2  0  0  0  0
  2  1  1  0  0  0  0
  3  4  1  0  0  0  0
  4 10  2  0  0  0  0
  4  5  1  0  0  0  0
  5  7  2  0  0  0  0
  6  5  1  0  0  0  0
  7  8  1  0  0  0  0
  9  8  2  0  0  0  0
 10  9  1  0  0  0  0
M  END
>  <CHROM.1>
-30.31372580,17.22579965,-15.64158957,0.49235692,-0.77509488,2.19094816

>  <Name>
lig.pdb

>  <RI>
1.17431e+07

>  <Rbt.Current_Directory>
/home/itssahil/PROJECTS/Mol_Feturizer/New_Systems/rnas/5uza

>  <Rbt.Executable>
rbdock ($Id: //depot/dev/client3/rdock/2013.1/src/exe/rbdock.cxx#4 $)

>  <Rbt.Library>
libRbt.so (2013.1, Build901 2013/11/27)

>  <Rbt.Parameter_File>
/export/apps/rDock/src/rDock_2013.1_src/data/scripts/dock_solv.prm

>  <Rbt.Receptor>
prm/pocket_docking_6.prm

>  <SCORE>
-32.8185

>  <SCORE.INTER>
-32.8207

>  <SCORE.INTER.CONST>
1

>  <SCORE.INTER.POLAR>
-4.09513

>  <SCORE.INTER.ROT>
0

>  <SCORE.INTER.SOLV>
11.9019

>  <SCORE.INTER.VDW>
-15.7974

>  <SCORE.INTER.norm>
-3.28207

>  <SCORE.INTRA>
0

>  <SCORE.INTRA.DIHEDRAL>
0

>  <SCORE.INTRA.DIHEDRAL.0>
0

>  <SCORE.INTRA.POLAR>
0

>  <SCORE.INTRA.POLAR.0>
0

>  <SCORE.INTRA.REPUL>
0

>  <SCORE.INTRA.REPUL.0>
0

>  <SCORE.INTRA.SOLV>
0

>  <SCORE.INTRA.SOLV.lig_0>
-14.8845

>  <SCORE.INTRA.VDW>
0

>  <SCORE.INTRA.VDW.0>
0

>  <SCORE.INTRA.norm>
0

>  <SCORE.RESTR>
0.00220214

>  <SCORE.RESTR.CAVITY>
0.00220214

>  <SCORE.RESTR.norm>
0.000220214

>  <SCORE.SYSTEM>
0

>  <SCORE.SYSTEM.CONST>
0

>  <SCORE.SYSTEM.DIHEDRAL>
0

>  <SCORE.SYSTEM.SOLV>
0

>  <SCORE.SYSTEM.norm>
0

>  <SCORE.heavy>
10

>  <SCORE.norm>
-3.28185

>  <RMSD>
2.945

$$$$
lig.pdb
 OpenBabel11021811523D
libRbt.so/2013.1/901 2013/11/27
 10 11  0  0  0  0  0  0  0  0999 V2000
  -29.2030   15.4524  -15.0193 N   0  0  0  0  0  0  0  0  0  0  0  0
  -28.6084   15.5997  -16.2423 C   0  0  0  0  0  0  0  0  0  0  0  0
  -29.0557   16.6236  -16.9293 N   0  0  0  0  0  0  0  0  0  0  0  0
  -30.0114   17.1875  -16.1011 C   0  0  0  0  0  0  0  0  0  0  0  0
  -30.8511   18.3070  -16.2474 C   0  0  0  0  0  0  0  0  0  0  0  0
  -30.8581   19.0808  -17.3378 N   0  0  0  0  0  0  0  0  0  0  0  0
  -31.6895   18.5990  -15.2290 N   0  0  0  0  0  0  0  0  0  0  0  0
  -31.6798   17.8189  -14.1425 C   0  0  0  0  0  0  0  0  0  0  0  0
  -30.9359   16.7426  -13.8901 N   0  0  0  0  0  0  0  0  0  0  0  0
  -30.1150   16.4785  -14.9190 C   0  0  0  0  0  0  0  0  0  0  0  0
  1 10  1  0  0  0  0
  2  3  2  0  0  0  0
  2  1  1  0  0  0  0
  3  4  1  0  0  0  0
  4 10  2  0  0  0  0
  4  5  1  0  0  0  0
  5  7  2  0  0  0  0
  6  5  1  0  0  0  0
  7  8  1  0  0  0  0
  9  8  2  0  0  0  0
 10  9  1  0  0  0  0
M  END
>  <CHROM.1>
-30.31039551,17.22221021,-15.63644370,0.48668684,-0.77769155,2.18525816

>  <Name>
lig.pdb

>  <RI>
1.17775e+07

>  <Rbt.Current_Directory>
/home/itssahil/PROJECTS/Mol_Feturizer/New_Systems/rnas/5uza

>  <Rbt.Executable>
rbdock ($Id: //depot/dev/client3/rdock/2013.1/src/exe/rbdock.cxx#4 $)

>  <Rbt.Library>
libRbt.so (2013.1, Build901 2013/11/27)

>  <Rbt.Parameter_File>
/export/apps/rDock/src/rDock_2013.1_src/data/scripts/dock_solv.prm

>  <Rbt.Receptor>
prm/pocket_docking_8.prm

>  <SCORE>
-32.7991

>  <SCORE.INTER>
-32.7991

>  <SCORE.INTER.CONST>
1

>  <SCORE.INTER.POLAR>
-4.09037

>  <SCORE.INTER.ROT>
0

>  <SCORE.INTER.SOLV>
11.881

>  <SCORE.INTER.VDW>
-15.7919

>  <SCORE.INTER.norm>
-3.27991

>  <SCORE.INTRA>
0

>  <SCORE.INTRA.DIHEDRAL>
0

>  <SCORE.INTRA.DIHEDRAL.0>
0

>  <SCORE.INTRA.POLAR>
0

>  <SCORE.INTRA.POLAR.0>
0

>  <SCORE.INTRA.REPUL>
0

>  <SCORE.INTRA.REPUL.0>
0

>  <SCORE.INTRA.SOLV>
0

>  <SCORE.INTRA.SOLV.lig_0>
-14.8845

>  <SCORE.INTRA.VDW>
0

>  <SCORE.INTRA.VDW.0>
0

>  <SCORE.INTRA.norm>
0

>  <SCORE.RESTR>
0

>  <SCORE.RESTR.CAVITY>
0

>  <SCORE.RESTR.norm>
0

>  <SCORE.SYSTEM>
0

>  <SCORE.SYSTEM.CONST>
0

>  <SCORE.SYSTEM.DIHEDRAL>
0

>  <SCORE.SYSTEM.SOLV>
0

>  <SCORE.SYSTEM.norm>
0

>  <SCORE.heavy>
10

>  <SCORE.norm>
-3.27991

>  <RMSD>
2.945

$$$$
lig.pdb
 OpenBabel11021811523D
libRbt.so/2013.1/901 2013/11/27
 10 11  0  0  0  0  0  0  0  0999 V2000
  -29.2109   15.4526  -15.0227 N   0  0  0  0  0  0  0  0  0  0  0  0
  -28.6077   15.6046  -16.2409 C   0  0  0  0  0  0  0  0  0  0  0  0
  -29.0503   16.6311  -16.9271 N   0  0  0  0  0  0  0  0  0  0  0  0
  -30.0117   17.1919  -16.1034 C   0  0  0  0  0  0  0  0  0  0  0  0
  -30.8504   18.3119  -16.2511 C   0  0  0  0  0  0  0  0  0  0  0  0
  -30.8498   19.0900  -17.3385 N   0  0  0  0  0  0  0  0  0  0  0  0
  -31.6959   18.6000  -15.2375 N   0  0  0  0  0  0  0  0  0  0  0  0
  -31.6937   17.8158  -14.1540 C   0  0  0  0  0  0  0  0  0  0  0  0
  -30.9516   16.7384  -13.9006 N   0  0  0  0  0  0  0  0  0  0  0  0
  -30.1235   16.4782  -14.9248 C   0  0  0  0  0  0  0  0  0  0  0  0
  1 10  1  0  0  0  0
  2  3  2  0  0  0  0
  2  1  1  0  0  0  0
  3  4  1  0  0  0  0
  4 10  2  0  0  0  0
  4  5  1  0  0  0  0
  5  7  2  0  0  0  0
  6  5  1  0  0  0  0
  7  8  1  0  0  0  0
  9  8  2  0  0  0  0
 10  9  1  0  0  0  0
M  END
>  <CHROM.1>
-30.31392985,17.22478414,-15.64067882,0.49465542,-0.77366978,2.19472323

>  <Name>
lig.pdb

>  <RI>
1.17775e+07

>  <Rbt.Current_Directory>
/home/itssahil/PROJECTS/Mol_Feturizer/New_Systems/rnas/5uza

>  <Rbt.Executable>
rbdock ($Id: //depot/dev/client3/rdock/2013.1/src/exe/rbdock.cxx#4 $)

>  <Rbt.Library>
libRbt.so (2013.1, Build901 2013/11/27)

>  <Rbt.Parameter_File>
/export/apps/rDock/src/rDock_2013.1_src/data/scripts/dock_solv.prm

>  <Rbt.Receptor>
prm/pocket_docking_8.prm

>  <SCORE>
-32.8123

>  <SCORE.INTER>
-32.8123

>  <SCORE.INTER.CONST>
1

>  <SCORE.INTER.POLAR>
-4.09699

>  <SCORE.INTER.ROT>
0

>  <SCORE.INTER.SOLV>
11.9116

>  <SCORE.INTER.VDW>
-15.7888

>  <SCORE.INTER.norm>
-3.28123

>  <SCORE.INTRA>
0

>  <SCORE.INTRA.DIHEDRAL>
0

>  <SCORE.INTRA.DIHEDRAL.0>
0

>  <SCORE.INTRA.POLAR>
0

>  <SCORE.INTRA.POLAR.0>
0

>  <SCORE.INTRA.REPUL>
0

>  <SCORE.INTRA.REPUL.0>
0

>  <SCORE.INTRA.SOLV>
0

>  <SCORE.INTRA.SOLV.lig_0>
-14.8845

>  <SCORE.INTRA.VDW>
0

>  <SCORE.INTRA.VDW.0>
0

>  <SCORE.INTRA.norm>
0

>  <SCORE.RESTR>
3.53012e-05

>  <SCORE.RESTR.CAVITY>
3.53012e-05

>  <SCORE.RESTR.norm>
3.53012e-06

>  <SCORE.SYSTEM>
0

>  <SCORE.SYSTEM.CONST>
0

>  <SCORE.SYSTEM.DIHEDRAL>
0

>  <SCORE.SYSTEM.SOLV>
0

>  <SCORE.SYSTEM.norm>
0

>  <SCORE.heavy>
10

>  <SCORE.norm>
-3.28123

>  <RMSD>
2.945

$$$$
lig.pdb
 OpenBabel11021811523D
libRbt.so/2013.1/901 2013/11/27
 10 11  0  0  0  0  0  0  0  0999 V2000
  -29.2120   15.4525  -15.0218 N   0  0  0  0  0  0  0  0  0  0  0  0
  -28.6086   15.6039  -16.2400 C   0  0  0  0  0  0  0  0  0  0  0  0
  -29.0509   16.6302  -16.9266 N   0  0  0  0  0  0  0  0  0  0  0  0
  -30.0125   17.1914  -16.1033 C   0  0  0  0  0  0  0  0  0  0  0  0
  -30.8510   18.3114  -16.2517 C   0  0  0  0  0  0  0  0  0  0  0  0
  -30.8502   19.0891  -17.3395 N   0  0  0  0  0  0  0  0  0  0  0  0
  -31.6967   18.6000  -15.2384 N   0  0  0  0  0  0  0  0  0  0  0  0
  -31.6947   17.8162  -14.1545 C   0  0  0  0  0  0  0  0  0  0  0  0
  -30.9527   16.7390  -13.9005 N   0  0  0  0  0  0  0  0  0  0  0  0
  -30.1245   16.4783  -14.9244 C   0  0  0  0  0  0  0  0  0  0  0  0
  1 10  1  0  0  0  0
  2  3  2  0  0  0  0
  2  1  1  0  0  0  0
  3  4  1  0  0  0  0
  4 10  2  0  0  0  0
  4  5  1  0  0  0  0
  5  7  2  0  0  0  0
  6  5  1  0  0  0  0
  7  8  1  0  0  0  0
  9  8  2  0  0  0  0
 10  9  1  0  0  0  0
M  END
>  <CHROM.1>
-30.31477768,17.22451996,-15.64070882,0.49491646,-0.77362232,2.19447981

>  <Name>
lig.pdb

>  <RI>
1.17775e+07

>  <Rbt.Current_Directory>
/home/itssahil/PROJECTS/Mol_Feturizer/New_Systems/rnas/5uza

>  <Rbt.Executable>
rbdock ($Id: //depot/dev/client3/rdock/2013.1/src/exe/rbdock.cxx#4 $)

>  <Rbt.Library>
libRbt.so (2013.1, Build901 2013/11/27)

>  <Rbt.Parameter_File>
/export/apps/rDock/src/rDock_2013.1_src/data/scripts/dock_solv.prm

>  <Rbt.Receptor>
prm/pocket_docking_8.prm

>  <SCORE>
-32.8152

>  <SCORE.INTER>
-32.8152

>  <SCORE.INTER.CONST>
1

>  <SCORE.INTER.POLAR>
-4.09846

>  <SCORE.INTER.ROT>
0

>  <SCORE.INTER.SOLV>
11.9114

>  <SCORE.INTER.VDW>
-15.7858

>  <SCORE.INTER.norm>
-3.28152

>  <SCORE.INTRA>
0

>  <SCORE.INTRA.DIHEDRAL>
0

>  <SCORE.INTRA.DIHEDRAL.0>
0

>  <SCORE.INTRA.POLAR>
0

>  <SCORE.INTRA.POLAR.0>
0

>  <SCORE.INTRA.REPUL>
0

>  <SCORE.INTRA.REPUL.0>
0

>  <SCORE.INTRA.SOLV>
0

>  <SCORE.INTRA.SOLV.lig_0>
-14.8845

>  <SCORE.INTRA.VDW>
0

>  <SCORE.INTRA.VDW.0>
0

>  <SCORE.INTRA.norm>
0

>  <SCORE.RESTR>
4.01316e-05

>  <SCORE.RESTR.CAVITY>
4.01316e-05

>  <SCORE.RESTR.norm>
4.01316e-06

>  <SCORE.SYSTEM>
0

>  <SCORE.SYSTEM.CONST>
0

>  <SCORE.SYSTEM.DIHEDRAL>
0

>  <SCORE.SYSTEM.SOLV>
0

>  <SCORE.SYSTEM.norm>
0

>  <SCORE.heavy>
10

>  <SCORE.norm>
-3.28152

>  <RMSD>
2.945

$$$$
lig.pdb
 OpenBabel11021811523D
libRbt.so/2013.1/901 2013/11/27
 10 11  0  0  0  0  0  0  0  0999 V2000
  -29.2118   15.4526  -15.0255 N   0  0  0  0  0  0  0  0  0  0  0  0
  -28.5967   15.6142  -16.2365 C   0  0  0  0  0  0  0  0  0  0  0  0
  -29.0332   16.6456  -16.9192 N   0  0  0  0  0  0  0  0  0  0  0  0
  -30.0032   17.1995  -16.1008 C   0  0  0  0  0  0  0  0  0  0  0  0
  -30.8411   18.3201  -16.2485 C   0  0  0  0  0  0  0  0  0  0  0  0
  -30.8304   19.1064  -17.3299 N   0  0  0  0  0  0  0  0  0  0  0  0
  -31.6968   18.6000  -15.2411 N   0  0  0  0  0  0  0  0  0  0  0  0
  -31.7048   17.8075  -14.1635 C   0  0  0  0  0  0  0  0  0  0  0  0
  -30.9644   16.7288  -13.9110 N   0  0  0  0  0  0  0  0  0  0  0  0
  -30.1261   16.4769  -14.9288 C   0  0  0  0  0  0  0  0  0  0  0  0
  1 10  1  0  0  0  0
  2  3  2  0  0  0  0
  2  1  1  0  0  0  0
  3  4  1  0  0  0  0
  4 10  2  0  0  0  0
  4  5  1  0  0  0  0
  5  7  2  0  0  0  0
  6  5  1  0  0  0  0
  7  8  1  0  0  0  0
  9  8  2  0  0  0  0
 10  9  1  0  0  0  0
M  END
>  <CHROM.1>
-30.30994921,17.22871808,-15.64093149,0.50521489,-0.76725712,2.20963645

>  <Name>
lig.pdb

>  <RI>
0

>  <Rbt.Current_Directory>
/home/itssahil/PROJECTS/Mol_Feturizer/New_Systems/rnas/5uza

>  <Rbt.Executable>
rbdock ($Id: //depot/dev/client3/rdock/2013.1/src/exe/rbdock.cxx#4 $)

>  <Rbt.Library>
libRbt.so (2013.1, Build901 2013/11/27)

>  <Rbt.Parameter_File>
/export/apps/rDock/src/rDock_2013.1_src/data/scripts/dock_solv.prm

>  <Rbt.Receptor>
prm/blind_docking_60.prm

>  <SCORE>
-32.8059

>  <SCORE.INTER>
-32.8059

>  <SCORE.INTER.CONST>
1

>  <SCORE.INTER.POLAR>
-4.10384

>  <SCORE.INTER.ROT>
0

>  <SCORE.INTER.SOLV>
11.9534

>  <SCORE.INTER.VDW>
-15.7756

>  <SCORE.INTER.norm>
-3.28059

>  <SCORE.INTRA>
0

>  <SCORE.INTRA.DIHEDRAL>
0

>  <SCORE.INTRA.DIHEDRAL.0>
0

>  <SCORE.INTRA.POLAR>
0

>  <SCORE.INTRA.POLAR.0>
0

>  <SCORE.INTRA.REPUL>
0

>  <SCORE.INTRA.REPUL.0>
0

>  <SCORE.INTRA.SOLV>
0

>  <SCORE.INTRA.SOLV.lig_0>
-14.8845

>  <SCORE.INTRA.VDW>
0

>  <SCORE.INTRA.VDW.0>
0

>  <SCORE.INTRA.norm>
0

>  <SCORE.RESTR>
0

>  <SCORE.RESTR.CAVITY>
0

>  <SCORE.RESTR.norm>
0

>  <SCORE.SYSTEM>
0

>  <SCORE.SYSTEM.CONST>
0

>  <SCORE.SYSTEM.DIHEDRAL>
0

>  <SCORE.SYSTEM.SOLV>
0

>  <SCORE.SYSTEM.norm>
0

>  <SCORE.heavy>
10

>  <SCORE.norm>
-3.28059

>  <RMSD>
2.946

$$$$
lig.pdb
 OpenBabel11021811523D
libRbt.so/2013.1/901 2013/11/27
 10 11  0  0  0  0  0  0  0  0999 V2000
  -29.2132   15.4509  -15.0212 N   0  0  0  0  0  0  0  0  0  0  0  0
  -28.6048   15.6067  -16.2363 C   0  0  0  0  0  0  0  0  0  0  0  0
  -29.0441   16.6357  -16.9209 N   0  0  0  0  0  0  0  0  0  0  0  0
  -30.0088   17.1940  -16.0994 C   0  0  0  0  0  0  0  0  0  0  0  0
  -30.8465   18.3149  -16.2470 C   0  0  0  0  0  0  0  0  0  0  0  0
  -30.8411   19.0966  -17.3317 N   0  0  0  0  0  0  0  0  0  0  0  0
  -31.6961   18.5999  -15.2359 N   0  0  0  0  0  0  0  0  0  0  0  0
  -31.6988   17.8120  -14.1550 C   0  0  0  0  0  0  0  0  0  0  0  0
  -30.9581   16.7336  -13.9021 N   0  0  0  0  0  0  0  0  0  0  0  0
  -30.1258   16.4766  -14.9236 C   0  0  0  0  0  0  0  0  0  0  0  0
  1 10  1  0  0  0  0
  2  3  2  0  0  0  0
  2  1  1  0  0  0  0
  3  4  1  0  0  0  0
  4 10  2  0  0  0  0
  4  5  1  0  0  0  0
  5  7  2  0  0  0  0
  6  5  1  0  0  0  0
  7  8  1  0  0  0  0
  9  8  2  0  0  0  0
 10  9  1  0  0  0  0
M  END
>  <CHROM.1>
-30.31298378,17.22553391,-15.63785600,0.49968731,-0.77147621,2.20155657

>  <Name>
lig.pdb

>  <RI>
0

>  <Rbt.Current_Directory>
/home/itssahil/PROJECTS/Mol_Feturizer/New_Systems/rnas/5uza

>  <Rbt.Executable>
rbdock ($Id: //depot/dev/client3/rdock/2013.1/src/exe/rbdock.cxx#4 $)

>  <Rbt.Library>
libRbt.so (2013.1, Build901 2013/11/27)

>  <Rbt.Parameter_File>
/export/apps/rDock/src/rDock_2013.1_src/data/scripts/dock_solv.prm

>  <Rbt.Receptor>
prm/blind_docking_60.prm

>  <SCORE>
-32.8119

>  <SCORE.INTER>
-32.8119

>  <SCORE.INTER.CONST>
1

>  <SCORE.INTER.POLAR>
-4.10488

>  <SCORE.INTER.ROT>
0

>  <SCORE.INTER.SOLV>
11.9332

>  <SCORE.INTER.VDW>
-15.7694

>  <SCORE.INTER.norm>
-3.28119

>  <SCORE.INTRA>
0

>  <SCORE.INTRA.DIHEDRAL>
0

>  <SCORE.INTRA.DIHEDRAL.0>
0

>  <SCORE.INTRA.POLAR>
0

>  <SCORE.INTRA.POLAR.0>
0

>  <SCORE.INTRA.REPUL>
0

>  <SCORE.INTRA.REPUL.0>
0

>  <SCORE.INTRA.SOLV>
0

>  <SCORE.INTRA.SOLV.lig_0>
-14.8845

>  <SCORE.INTRA.VDW>
0

>  <SCORE.INTRA.VDW.0>
0

>  <SCORE.INTRA.norm>
0

>  <SCORE.RESTR>
0

>  <SCORE.RESTR.CAVITY>
0

>  <SCORE.RESTR.norm>
0

>  <SCORE.SYSTEM>
0

>  <SCORE.SYSTEM.CONST>
0

>  <SCORE.SYSTEM.DIHEDRAL>
0

>  <SCORE.SYSTEM.SOLV>
0

>  <SCORE.SYSTEM.norm>
0

>  <SCORE.heavy>
10

>  <SCORE.norm>
-3.28119

>  <RMSD>
2.946

$$$$
lig.pdb
 OpenBabel11021811523D
libRbt.so/2013.1/901 2013/11/27
 10 11  0  0  0  0  0  0  0  0999 V2000
  -29.2160   15.4488  -15.0231 N   0  0  0  0  0  0  0  0  0  0  0  0
  -28.6086   15.6036  -16.2388 C   0  0  0  0  0  0  0  0  0  0  0  0
  -29.0478   16.6325  -16.9236 N   0  0  0  0  0  0  0  0  0  0  0  0
  -30.0115   17.1918  -16.1015 C   0  0  0  0  0  0  0  0  0  0  0  0
  -30.8485   18.3131  -16.2490 C   0  0  0  0  0  0  0  0  0  0  0  0
  -30.8436   19.0943  -17.3342 N   0  0  0  0  0  0  0  0  0  0  0  0
  -31.6972   18.5992  -15.2374 N   0  0  0  0  0  0  0  0  0  0  0  0
  -31.6994   17.8119  -14.1561 C   0  0  0  0  0  0  0  0  0  0  0  0
  -30.9592   16.7332  -13.9032 N   0  0  0  0  0  0  0  0  0  0  0  0
  -30.1279   16.4750  -14.9253 C   0  0  0  0  0  0  0  0  0  0  0  0
  1 10  1  0  0  0  0
  2  3  2  0  0  0  0
  2  1  1  0  0  0  0
  3  4  1  0  0  0  0
  4 10  2  0  0  0  0
  4  5  1  0  0  0  0
  5  7  2  0  0  0  0
  6  5  1  0  0  0  0
  7  8  1  0  0  0  0
  9  8  2  0  0  0  0
 10  9  1  0  0  0  0
M  END
>  <CHROM.1>
-30.31520812,17.22376526,-15.63976733,0.49925204,-0.77246950,2.20074101

>  <Name>
lig.pdb

>  <RI>
0

>  <Rbt.Current_Directory>
/home/itssahil/PROJECTS/Mol_Feturizer/New_Systems/rnas/5uza

>  <Rbt.Executable>
rbdock ($Id: //depot/dev/client3/rdock/2013.1/src/exe/rbdock.cxx#4 $)

>  <Rbt.Library>
libRbt.so (2013.1, Build901 2013/11/27)

>  <Rbt.Parameter_File>
/export/apps/rDock/src/rDock_2013.1_src/data/scripts/dock_solv.prm

>  <Rbt.Receptor>
prm/blind_docking_60.prm

>  <SCORE>
-32.8103

>  <SCORE.INTER>
-32.8103

>  <SCORE.INTER.CONST>
1

>  <SCORE.INTER.POLAR>
-4.10238

>  <SCORE.INTER.ROT>
0

>  <SCORE.INTER.SOLV>
11.9313

>  <SCORE.INTER.VDW>
-15.776

>  <SCORE.INTER.norm>
-3.28103

>  <SCORE.INTRA>
0

>  <SCORE.INTRA.DIHEDRAL>
0

>  <SCORE.INTRA.DIHEDRAL.0>
0

>  <SCORE.INTRA.POLAR>
0

>  <SCORE.INTRA.POLAR.0>
0

>  <SCORE.INTRA.REPUL>
0

>  <SCORE.INTRA.REPUL.0>
0

>  <SCORE.INTRA.SOLV>
0

>  <SCORE.INTRA.SOLV.lig_0>
-14.8845

>  <SCORE.INTRA.VDW>
0

>  <SCORE.INTRA.VDW.0>
0

>  <SCORE.INTRA.norm>
0

>  <SCORE.RESTR>
0

>  <SCORE.RESTR.CAVITY>
0

>  <SCORE.RESTR.norm>
0

>  <SCORE.SYSTEM>
0

>  <SCORE.SYSTEM.CONST>
0

>  <SCORE.SYSTEM.DIHEDRAL>
0

>  <SCORE.SYSTEM.SOLV>
0

>  <SCORE.SYSTEM.norm>
0

>  <SCORE.heavy>
10

>  <SCORE.norm>
-3.28103

>  <RMSD>
2.946

$$$$
lig.pdb
 OpenBabel11021811523D
libRbt.so/2013.1/901 2013/11/27
 10 11  0  0  0  0  0  0  0  0999 V2000
  -29.2122   15.4520  -15.0195 N   0  0  0  0  0  0  0  0  0  0  0  0
  -28.6081   15.6041  -16.2373 C   0  0  0  0  0  0  0  0  0  0  0  0
  -29.0503   16.6305  -16.9238 N   0  0  0  0  0  0  0  0  0  0  0  0
  -30.0126   17.1910  -16.1009 C   0  0  0  0  0  0  0  0  0  0  0  0
  -30.8514   18.3109  -16.2494 C   0  0  0  0  0  0  0  0  0  0  0  0
  -30.8501   19.0890  -17.3368 N   0  0  0  0  0  0  0  0  0  0  0  0
  -31.6977   18.5988  -15.2364 N   0  0  0  0  0  0  0  0  0  0  0  0
  -31.6962   17.8146  -14.1529 C   0  0  0  0  0  0  0  0  0  0  0  0
  -30.9541   16.7374  -13.8988 N   0  0  0  0  0  0  0  0  0  0  0  0
  -30.1251   16.4774  -14.9224 C   0  0  0  0  0  0  0  0  0  0  0  0
  1 10  1  0  0  0  0
  2  3  2  0  0  0  0
  2  1  1  0  0  0  0
  3  4  1  0  0  0  0
  4 10  2  0  0  0  0
  4  5  1  0  0  0  0
  5  7  2  0  0  0  0
  6  5  1  0  0  0  0
  7  8  1  0  0  0  0
  9  8  2  0  0  0  0
 10  9  1  0  0  0  0
M  END
>  <CHROM.1>
-30.31514763,17.22390203,-15.63843868,0.49536702,-0.77299175,2.19519600

>  <Name>
lig.pdb

>  <RI>
0

>  <Rbt.Current_Directory>
/home/itssahil/PROJECTS/Mol_Feturizer/New_Systems/rnas/5uza

>  <Rbt.Executable>
rbdock ($Id: //depot/dev/client3/rdock/2013.1/src/exe/rbdock.cxx#4 $)

>  <Rbt.Library>
libRbt.so (2013.1, Build901 2013/11/27)

>  <Rbt.Parameter_File>
/export/apps/rDock/src/rDock_2013.1_src/data/scripts/dock_solv.prm

>  <Rbt.Receptor>
prm/blind_docking_60.prm

>  <SCORE>
-32.8142

>  <SCORE.INTER>
-32.8142

>  <SCORE.INTER.CONST>
1

>  <SCORE.INTER.POLAR>
-4.10256

>  <SCORE.INTER.ROT>
0

>  <SCORE.INTER.SOLV>
11.9134

>  <SCORE.INTER.VDW>
-15.772

>  <SCORE.INTER.norm>
-3.28142

>  <SCORE.INTRA>
0

>  <SCORE.INTRA.DIHEDRAL>
0

>  <SCORE.INTRA.DIHEDRAL.0>
0

>  <SCORE.INTRA.POLAR>
0

>  <SCORE.INTRA.POLAR.0>
0

>  <SCORE.INTRA.REPUL>
0

>  <SCORE.INTRA.REPUL.0>
0

>  <SCORE.INTRA.SOLV>
0

>  <SCORE.INTRA.SOLV.lig_0>
-14.8845

>  <SCORE.INTRA.VDW>
0

>  <SCORE.INTRA.VDW.0>
0

>  <SCORE.INTRA.norm>
0

>  <SCORE.RESTR>
0

>  <SCORE.RESTR.CAVITY>
0

>  <SCORE.RESTR.norm>
0

>  <SCORE.SYSTEM>
0

>  <SCORE.SYSTEM.CONST>
0

>  <SCORE.SYSTEM.DIHEDRAL>
0

>  <SCORE.SYSTEM.SOLV>
0

>  <SCORE.SYSTEM.norm>
0

>  <SCORE.heavy>
10

>  <SCORE.norm>
-3.28142

>  <RMSD>
2.946

$$$$
lig.pdb
 OpenBabel11021811523D
libRbt.so/2013.1/901 2013/11/27
 10 11  0  0  0  0  0  0  0  0999 V2000
  -29.2107   15.4534  -15.0184 N   0  0  0  0  0  0  0  0  0  0  0  0
  -28.6041   15.6075  -16.2346 C   0  0  0  0  0  0  0  0  0  0  0  0
  -29.0454   16.6347  -16.9207 N   0  0  0  0  0  0  0  0  0  0  0  0
  -30.0097   17.1936  -16.0991 C   0  0  0  0  0  0  0  0  0  0  0  0
  -30.8487   18.3132  -16.2478 C   0  0  0  0  0  0  0  0  0  0  0  0
  -30.8455   19.0928  -17.3342 N   0  0  0  0  0  0  0  0  0  0  0  0
  -31.6974   18.5993  -15.2363 N   0  0  0  0  0  0  0  0  0  0  0  0
  -31.6978   17.8136  -14.1538 C   0  0  0  0  0  0  0  0  0  0  0  0
  -30.9557   16.7365  -13.8997 N   0  0  0  0  0  0  0  0  0  0  0  0
  -30.1244   16.4783  -14.9218 C   0  0  0  0  0  0  0  0  0  0  0  0
  1 10  1  0  0  0  0
  2  3  2  0  0  0  0
  2  1  1  0  0  0  0
  3  4  1  0  0  0  0
  4 10  2  0  0  0  0
  4  5  1  0  0  0  0
  5  7  2  0  0  0  0
  6  5  1  0  0  0  0
  7  8  1  0  0  0  0
  9  8  2  0  0  0  0
 10  9  1  0  0  0  0
M  END
>  <CHROM.1>
-30.31325604,17.22564908,-15.63724785,0.49739581,-0.77132021,2.19798002

>  <Name>
lig.pdb

>  <RI>
0

>  <Rbt.Current_Directory>
/home/itssahil/PROJECTS/Mol_Feturizer/New_Systems/rnas/5uza

>  <Rbt.Executable>
rbdock ($Id: //depot/dev/client3/rdock/2013.1/src/exe/rbdock.cxx#4 $)

>  <Rbt.Library>
libRbt.so (2013.1, Build901 2013/11/27)

>  <Rbt.Parameter_File>
/export/apps/rDock/src/rDock_2013.1_src/data/scripts/dock_solv.prm

>  <Rbt.Receptor>
prm/blind_docking_80.prm

>  <SCORE>
-32.8139

>  <SCORE.INTER>
-32.8139

>  <SCORE.INTER.CONST>
1

>  <SCORE.INTER.POLAR>
-4.10529

>  <SCORE.INTER.ROT>
0

>  <SCORE.INTER.SOLV>
11.9212

>  <SCORE.INTER.VDW>
-15.7654

>  <SCORE.INTER.norm>
-3.28139

>  <SCORE.INTRA>
0

>  <SCORE.INTRA.DIHEDRAL>
0

>  <SCORE.INTRA.DIHEDRAL.0>
0

>  <SCORE.INTRA.POLAR>
0

>  <SCORE.INTRA.POLAR.0>
0

>  <SCORE.INTRA.REPUL>
0

>  <SCORE.INTRA.REPUL.0>
0

>  <SCORE.INTRA.SOLV>
0

>  <SCORE.INTRA.SOLV.lig_0>
-14.8845

>  <SCORE.INTRA.VDW>
0

>  <SCORE.INTRA.VDW.0>
0

>  <SCORE.INTRA.norm>
0

>  <SCORE.RESTR>
0

>  <SCORE.RESTR.CAVITY>
0

>  <SCORE.RESTR.norm>
0

>  <SCORE.SYSTEM>
0

>  <SCORE.SYSTEM.CONST>
0

>  <SCORE.SYSTEM.DIHEDRAL>
0

>  <SCORE.SYSTEM.SOLV>
0

>  <SCORE.SYSTEM.norm>
0

>  <SCORE.heavy>
10

>  <SCORE.norm>
-3.28139

>  <RMSD>
2.946

$$$$
lig.pdb
 OpenBabel11021811523D
libRbt.so/2013.1/901 2013/11/27
 10 11  0  0  0  0  0  0  0  0999 V2000
  -29.2118   15.4527  -15.0221 N   0  0  0  0  0  0  0  0  0  0  0  0
  -28.6041   15.6078  -16.2377 C   0  0  0  0  0  0  0  0  0  0  0  0
  -29.0443   16.6359  -16.9230 N   0  0  0  0  0  0  0  0  0  0  0  0
  -30.0090   17.1944  -16.1016 C   0  0  0  0  0  0  0  0  0  0  0  0
  -30.8474   18.3146  -16.2499 C   0  0  0  0  0  0  0  0  0  0  0  0
  -30.8429   19.0953  -17.3354 N   0  0  0  0  0  0  0  0  0  0  0  0
  -31.6968   18.6000  -15.2388 N   0  0  0  0  0  0  0  0  0  0  0  0
  -31.6985   17.8131  -14.1571 C   0  0  0  0  0  0  0  0  0  0  0  0
  -30.9571   16.7354  -13.9035 N   0  0  0  0  0  0  0  0  0  0  0  0
  -30.1251   16.4779  -14.9252 C   0  0  0  0  0  0  0  0  0  0  0  0
  1 10  1  0  0  0  0
  2  3  2  0  0  0  0
  2  1  1  0  0  0  0
  3  4  1  0  0  0  0
  4 10  2  0  0  0  0
  4  5  1  0  0  0  0
  5  7  2  0  0  0  0
  6  5  1  0  0  0  0
  7  8  1  0  0  0  0
  9  8  2  0  0  0  0
 10  9  1  0  0  0  0
M  END
>  <CHROM.1>
-30.31299347,17.22610007,-15.64001743,0.49873853,-0.77121141,2.19999175

>  <Name>
lig.pdb

>  <RI>
0

>  <Rbt.Current_Directory>
/home/itssahil/PROJECTS/Mol_Feturizer/New_Systems/rnas/5uza

>  <Rbt.Executable>
rbdock ($Id: //depot/dev/client3/rdock/2013.1/src/exe/rbdock.cxx#4 $)

>  <Rbt.Library>
libRbt.so (2013.1, Build901 2013/11/27)

>  <Rbt.Parameter_File>
/export/apps/rDock/src/rDock_2013.1_src/data/scripts/dock_solv.prm

>  <Rbt.Receptor>
prm/blind_docking_80.prm

>  <SCORE>
-32.8136

>  <SCORE.INTER>
-32.8136

>  <SCORE.INTER.CONST>
1

>  <SCORE.INTER.POLAR>
-4.10178

>  <SCORE.INTER.ROT>
0

>  <SCORE.INTER.SOLV>
11.9269

>  <SCORE.INTER.VDW>
-15.7788

>  <SCORE.INTER.norm>
-3.28136

>  <SCORE.INTRA>
0

>  <SCORE.INTRA.DIHEDRAL>
0

>  <SCORE.INTRA.DIHEDRAL.0>
0

>  <SCORE.INTRA.POLAR>
0

>  <SCORE.INTRA.POLAR.0>
0

>  <SCORE.INTRA.REPUL>
0

>  <SCORE.INTRA.REPUL.0>
0

>  <SCORE.INTRA.SOLV>
0

>  <SCORE.INTRA.SOLV.lig_0>
-14.8845

>  <SCORE.INTRA.VDW>
0

>  <SCORE.INTRA.VDW.0>
0

>  <SCORE.INTRA.norm>
0

>  <SCORE.RESTR>
0

>  <SCORE.RESTR.CAVITY>
0

>  <SCORE.RESTR.norm>
0

>  <SCORE.SYSTEM>
0

>  <SCORE.SYSTEM.CONST>
0

>  <SCORE.SYSTEM.DIHEDRAL>
0

>  <SCORE.SYSTEM.SOLV>
0

>  <SCORE.SYSTEM.norm>
0

>  <SCORE.heavy>
10

>  <SCORE.norm>
-3.28136

>  <RMSD>
2.946

$$$$
lig.pdb
 OpenBabel11021811523D
libRbt.so/2013.1/901 2013/11/27
 10 11  0  0  0  0  0  0  0  0999 V2000
  -29.2118   15.4523  -15.0218 N   0  0  0  0  0  0  0  0  0  0  0  0
  -28.6049   15.6070  -16.2378 C   0  0  0  0  0  0  0  0  0  0  0  0
  -29.0454   16.6349  -16.9231 N   0  0  0  0  0  0  0  0  0  0  0  0
  -30.0094   17.1938  -16.1011 C   0  0  0  0  0  0  0  0  0  0  0  0
  -30.8477   18.3141  -16.2491 C   0  0  0  0  0  0  0  0  0  0  0  0
  -30.8439   19.0946  -17.3348 N   0  0  0  0  0  0  0  0  0  0  0  0
  -31.6963   18.6000  -15.2374 N   0  0  0  0  0  0  0  0  0  0  0  0
  -31.6974   17.8134  -14.1555 C   0  0  0  0  0  0  0  0  0  0  0  0
  -30.9559   16.7356  -13.9022 N   0  0  0  0  0  0  0  0  0  0  0  0
  -30.1248   16.4777  -14.9244 C   0  0  0  0  0  0  0  0  0  0  0  0
  1 10  1  0  0  0  0
  2  3  2  0  0  0  0
  2  1  1  0  0  0  0
  3  4  1  0  0  0  0
  4 10  2  0  0  0  0
  4  5  1  0  0  0  0
  5  7  2  0  0  0  0
  6  5  1  0  0  0  0
  7  8  1  0  0  0  0
  9  8  2  0  0  0  0
 10  9  1  0  0  0  0
M  END
>  <CHROM.1>
-30.31305902,17.22572462,-15.63929819,0.49803695,-0.77180842,2.19923890

>  <Name>
lig.pdb

>  <RI>
0

>  <Rbt.Current_Directory>
/home/itssahil/PROJECTS/Mol_Feturizer/New_Systems/rnas/5uza

>  <Rbt.Executable>
rbdock ($Id: //depot/dev/client3/rdock/2013.1/src/exe/rbdock.cxx#4 $)

>  <Rbt.Library>
libRbt.so (2013.1, Build901 2013/11/27)

>  <Rbt.Parameter_File>
/export/apps/rDock/src/rDock_2013.1_src/data/scripts/dock_solv.prm

>  <Rbt.Receptor>
prm/blind_docking_80.prm

>  <SCORE>
-32.8139

>  <SCORE.INTER>
-32.8139

>  <SCORE.INTER.CONST>
1

>  <SCORE.INTER.POLAR>
-4.102

>  <SCORE.INTER.ROT>
0

>  <SCORE.INTER.SOLV>
11.9251

>  <SCORE.INTER.VDW>
-15.7776

>  <SCORE.INTER.norm>
-3.28139

>  <SCORE.INTRA>
0

>  <SCORE.INTRA.DIHEDRAL>
0

>  <SCORE.INTRA.DIHEDRAL.0>
0

>  <SCORE.INTRA.POLAR>
0

>  <SCORE.INTRA.POLAR.0>
0

>  <SCORE.INTRA.REPUL>
0

>  <SCORE.INTRA.REPUL.0>
0

>  <SCORE.INTRA.SOLV>
0

>  <SCORE.INTRA.SOLV.lig_0>
-14.8845

>  <SCORE.INTRA.VDW>
0

>  <SCORE.INTRA.VDW.0>
0

>  <SCORE.INTRA.norm>
0

>  <SCORE.RESTR>
0

>  <SCORE.RESTR.CAVITY>
0

>  <SCORE.RESTR.norm>
0

>  <SCORE.SYSTEM>
0

>  <SCORE.SYSTEM.CONST>
0

>  <SCORE.SYSTEM.DIHEDRAL>
0

>  <SCORE.SYSTEM.SOLV>
0

>  <SCORE.SYSTEM.norm>
0

>  <SCORE.heavy>
10

>  <SCORE.norm>
-3.28139

>  <RMSD>
2.946

$$$$
lig.pdb
 OpenBabel11021811523D
libRbt.so/2013.1/901 2013/11/27
 10 11  0  0  0  0  0  0  0  0999 V2000
  -29.2099   15.4535  -15.0201 N   0  0  0  0  0  0  0  0  0  0  0  0
  -28.6010   15.6099  -16.2349 C   0  0  0  0  0  0  0  0  0  0  0  0
  -29.0411   16.6383  -16.9198 N   0  0  0  0  0  0  0  0  0  0  0  0
  -30.0070   17.1956  -16.0990 C   0  0  0  0  0  0  0  0  0  0  0  0
  -30.8459   18.3154  -16.2472 C   0  0  0  0  0  0  0  0  0  0  0  0
  -30.8407   19.0970  -17.3321 N   0  0  0  0  0  0  0  0  0  0  0  0
  -31.6966   18.5995  -15.2368 N   0  0  0  0  0  0  0  0  0  0  0  0
  -31.6989   17.8118  -14.1558 C   0  0  0  0  0  0  0  0  0  0  0  0
  -30.9571   16.7343  -13.9023 N   0  0  0  0  0  0  0  0  0  0  0  0
  -30.1239   16.4781  -14.9232 C   0  0  0  0  0  0  0  0  0  0  0  0
  1 10  1  0  0  0  0
  2  3  2  0  0  0  0
  2  1  1  0  0  0  0
  3  4  1  0  0  0  0
  4 10  2  0  0  0  0
  4  5  1  0  0  0  0
  5  7  2  0  0  0  0
  6  5  1  0  0  0  0
  7  8  1  0  0  0  0
  9  8  2  0  0  0  0
 10  9  1  0  0  0  0
M  END
>  <CHROM.1>
-30.31149425,17.22675350,-15.63767327,0.49942353,-0.77012795,2.20126421

>  <Name>
lig.pdb

>  <RI>
0

>  <Rbt.Current_Directory>
/home/itssahil/PROJECTS/Mol_Feturizer/New_Systems/rnas/5uza

>  <Rbt.Executable>
rbdock ($Id: //depot/dev/client3/rdock/2013.1/src/exe/rbdock.cxx#4 $)

>  <Rbt.Library>
libRbt.so (2013.1, Build901 2013/11/27)

>  <Rbt.Parameter_File>
/export/apps/rDock/src/rDock_2013.1_src/data/scripts/dock_solv.prm

>  <Rbt.Receptor>
prm/blind_docking_80.prm

>  <SCORE>
-32.812

>  <SCORE.INTER>
-32.812

>  <SCORE.INTER.CONST>
1

>  <SCORE.INTER.POLAR>
-4.10494

>  <SCORE.INTER.ROT>
0

>  <SCORE.INTER.SOLV>
11.9299

>  <SCORE.INTER.VDW>
-15.7682

>  <SCORE.INTER.norm>
-3.2812

>  <SCORE.INTRA>
0

>  <SCORE.INTRA.DIHEDRAL>
0

>  <SCORE.INTRA.DIHEDRAL.0>
0

>  <SCORE.INTRA.POLAR>
0

>  <SCORE.INTRA.POLAR.0>
0

>  <SCORE.INTRA.REPUL>
0

>  <SCORE.INTRA.REPUL.0>
0

>  <SCORE.INTRA.SOLV>
0

>  <SCORE.INTRA.SOLV.lig_0>
-14.8845

>  <SCORE.INTRA.VDW>
0

>  <SCORE.INTRA.VDW.0>
0

>  <SCORE.INTRA.norm>
0

>  <SCORE.RESTR>
0

>  <SCORE.RESTR.CAVITY>
0

>  <SCORE.RESTR.norm>
0

>  <SCORE.SYSTEM>
0

>  <SCORE.SYSTEM.CONST>
0

>  <SCORE.SYSTEM.DIHEDRAL>
0

>  <SCORE.SYSTEM.SOLV>
0

>  <SCORE.SYSTEM.norm>
0

>  <SCORE.heavy>
10

>  <SCORE.norm>
-3.2812

>  <RMSD>
2.946

$$$$
lig.pdb
 OpenBabel11021811523D
libRbt.so/2013.1/901 2013/11/27
 10 11  0  0  0  0  0  0  0  0999 V2000
  -29.2157   15.4525  -15.0171 N   0  0  0  0  0  0  0  0  0  0  0  0
  -28.6162   15.5989  -16.2378 C   0  0  0  0  0  0  0  0  0  0  0  0
  -29.0556   16.6266  -16.9243 N   0  0  0  0  0  0  0  0  0  0  0  0
  -30.0110   17.1941  -16.0981 C   0  0  0  0  0  0  0  0  0  0  0  0
  -30.8441   18.3184  -16.2450 C   0  0  0  0  0  0  0  0  0  0  0  0
  -30.8433   19.0944  -17.3339 N   0  0  0  0  0  0  0  0  0  0  0  0
  -31.6843   18.6130  -15.2288 N   0  0  0  0  0  0  0  0  0  0  0  0
  -31.6824   17.8307  -14.1438 C   0  0  0  0  0  0  0  0  0  0  0  0
  -30.9452   16.7499  -13.8911 N   0  0  0  0  0  0  0  0  0  0  0  0
  -30.1224   16.4833  -14.9178 C   0  0  0  0  0  0  0  0  0  0  0  0
  1 10  1  0  0  0  0
  2  3  2  0  0  0  0
  2  1  1  0  0  0  0
  3  4  1  0  0  0  0
  4 10  2  0  0  0  0
  4  5  1  0  0  0  0
  5  7  2  0  0  0  0
  6  5  1  0  0  0  0
  7  8  1  0  0  0  0
  9  8  2  0  0  0  0
 10  9  1  0  0  0  0
M  END
>  <CHROM.1>
-30.31135065,17.22948981,-15.63443470,0.49493465,-0.78020121,2.19303006

>  <Name>
lig.pdb

>  <RI>
9.24451e+06

>  <Rbt.Current_Directory>
/home/itssahil/PROJECTS/Mol_Feturizer/New_Systems/rnas/5uza

>  <Rbt.Executable>
rbdock ($Id: //depot/dev/client3/rdock/2013.1/src/exe/rbdock.cxx#4 $)

>  <Rbt.Library>
libRbt.so (2013.1, Build901 2013/11/27)

>  <Rbt.Parameter_File>
/export/apps/rDock/src/rDock_2013.1_src/data/scripts/dock_solv.prm

>  <Rbt.Receptor>
prm/pocket_docking_4.prm

>  <SCORE>
-32.833

>  <SCORE.INTER>
-32.833

>  <SCORE.INTER.CONST>
1

>  <SCORE.INTER.POLAR>
-4.10486

>  <SCORE.INTER.ROT>
0

>  <SCORE.INTER.SOLV>
11.9246

>  <SCORE.INTER.VDW>
-15.7806

>  <SCORE.INTER.norm>
-3.2833

>  <SCORE.INTRA>
0

>  <SCORE.INTRA.DIHEDRAL>
0

>  <SCORE.INTRA.DIHEDRAL.0>
0

>  <SCORE.INTRA.POLAR>
0

>  <SCORE.INTRA.POLAR.0>
0

>  <SCORE.INTRA.REPUL>
0

>  <SCORE.INTRA.REPUL.0>
0

>  <SCORE.INTRA.SOLV>
0

>  <SCORE.INTRA.SOLV.lig_0>
-14.8845

>  <SCORE.INTRA.VDW>
0

>  <SCORE.INTRA.VDW.0>
0

>  <SCORE.INTRA.norm>
0

>  <SCORE.RESTR>
0

>  <SCORE.RESTR.CAVITY>
0

>  <SCORE.RESTR.norm>
0

>  <SCORE.SYSTEM>
0

>  <SCORE.SYSTEM.CONST>
0

>  <SCORE.SYSTEM.DIHEDRAL>
0

>  <SCORE.SYSTEM.SOLV>
0

>  <SCORE.SYSTEM.norm>
0

>  <SCORE.heavy>
10

>  <SCORE.norm>
-3.2833

>  <RMSD>
2.946

$$$$
lig.pdb
 OpenBabel11021811523D
libRbt.so/2013.1/901 2013/11/27
 10 11  0  0  0  0  0  0  0  0999 V2000
  -29.2107   15.4535  -15.0188 N   0  0  0  0  0  0  0  0  0  0  0  0
  -28.6079   15.6044  -16.2374 C   0  0  0  0  0  0  0  0  0  0  0  0
  -29.0510   16.6300  -16.9245 N   0  0  0  0  0  0  0  0  0  0  0  0
  -30.0124   17.1913  -16.1012 C   0  0  0  0  0  0  0  0  0  0  0  0
  -30.8515   18.3109  -16.2500 C   0  0  0  0  0  0  0  0  0  0  0  0
  -30.8515   19.0878  -17.3383 N   0  0  0  0  0  0  0  0  0  0  0  0
  -31.6969   18.5998  -15.2365 N   0  0  0  0  0  0  0  0  0  0  0  0
  -31.6941   17.8167  -14.1521 C   0  0  0  0  0  0  0  0  0  0  0  0
  -30.9515   16.7400  -13.8977 N   0  0  0  0  0  0  0  0  0  0  0  0
  -30.1237   16.4790  -14.9218 C   0  0  0  0  0  0  0  0  0  0  0  0
  1 10  1  0  0  0  0
  2  3  2  0  0  0  0
  2  1  1  0  0  0  0
  3  4  1  0  0  0  0
  4 10  2  0  0  0  0
  4  5  1  0  0  0  0
  5  7  2  0  0  0  0
  6  5  1  0  0  0  0
  7  8  1  0  0  0  0
  9  8  2  0  0  0  0
 10  9  1  0  0  0  0
M  END
>  <CHROM.1>
-30.31453729,17.22462782,-15.63849362,0.49405810,-0.77350909,2.19319555

>  <Name>
lig.pdb

>  <RI>
0

>  <Rbt.Current_Directory>
/home/itssahil/PROJECTS/Mol_Feturizer/New_Systems/rnas/5uza

>  <Rbt.Executable>
rbdock ($Id: //depot/dev/client3/rdock/2013.1/src/exe/rbdock.cxx#4 $)

>  <Rbt.Library>
libRbt.so (2013.1, Build901 2013/11/27)

>  <Rbt.Parameter_File>
/export/apps/rDock/src/rDock_2013.1_src/data/scripts/dock_solv.prm

>  <Rbt.Receptor>
prm/pocket_docking_5.prm

>  <SCORE>
-32.8165

>  <SCORE.INTER>
-32.8165

>  <SCORE.INTER.CONST>
1

>  <SCORE.INTER.POLAR>
-4.10142

>  <SCORE.INTER.ROT>
0

>  <SCORE.INTER.SOLV>
11.9078

>  <SCORE.INTER.VDW>
-15.7755

>  <SCORE.INTER.norm>
-3.28165

>  <SCORE.INTRA>
0

>  <SCORE.INTRA.DIHEDRAL>
0

>  <SCORE.INTRA.DIHEDRAL.0>
0

>  <SCORE.INTRA.POLAR>
0

>  <SCORE.INTRA.POLAR.0>
0

>  <SCORE.INTRA.REPUL>
0

>  <SCORE.INTRA.REPUL.0>
0

>  <SCORE.INTRA.SOLV>
0

>  <SCORE.INTRA.SOLV.lig_0>
-14.8845

>  <SCORE.INTRA.VDW>
0

>  <SCORE.INTRA.VDW.0>
0

>  <SCORE.INTRA.norm>
0

>  <SCORE.RESTR>
0

>  <SCORE.RESTR.CAVITY>
0

>  <SCORE.RESTR.norm>
0

>  <SCORE.SYSTEM>
0

>  <SCORE.SYSTEM.CONST>
0

>  <SCORE.SYSTEM.DIHEDRAL>
0

>  <SCORE.SYSTEM.SOLV>
0

>  <SCORE.SYSTEM.norm>
0

>  <SCORE.heavy>
10

>  <SCORE.norm>
-3.28165

>  <RMSD>
2.946

$$$$
lig.pdb
 OpenBabel11021811523D
libRbt.so/2013.1/901 2013/11/27
 10 11  0  0  0  0  0  0  0  0999 V2000
  -29.2082   15.4557  -15.0219 N   0  0  0  0  0  0  0  0  0  0  0  0
  -28.5997   15.6117  -16.2369 C   0  0  0  0  0  0  0  0  0  0  0  0
  -29.0403   16.6395  -16.9223 N   0  0  0  0  0  0  0  0  0  0  0  0
  -30.0061   17.1969  -16.1014 C   0  0  0  0  0  0  0  0  0  0  0  0
  -30.8454   18.3164  -16.2500 C   0  0  0  0  0  0  0  0  0  0  0  0
  -30.8408   19.0975  -17.3353 N   0  0  0  0  0  0  0  0  0  0  0  0
  -31.6958   18.6008  -15.2394 N   0  0  0  0  0  0  0  0  0  0  0  0
  -31.6977   17.8136  -14.1580 C   0  0  0  0  0  0  0  0  0  0  0  0
  -30.9555   16.7365  -13.9042 N   0  0  0  0  0  0  0  0  0  0  0  0
  -30.1225   16.4800  -14.9253 C   0  0  0  0  0  0  0  0  0  0  0  0
  1 10  1  0  0  0  0
  2  3  2  0  0  0  0
  2  1  1  0  0  0  0
  3  4  1  0  0  0  0
  4 10  2  0  0  0  0
  4  5  1  0  0  0  0
  5  7  2  0  0  0  0
  6  5  1  0  0  0  0
  7  8  1  0  0  0  0
  9  8  2  0  0  0  0
 10  9  1  0  0  0  0
M  END
>  <CHROM.1>
-30.31049476,17.22826151,-15.64002817,0.49884178,-0.77006097,2.20035028

>  <Name>
lig.pdb

>  <RI>
0

>  <Rbt.Current_Directory>
/home/itssahil/PROJECTS/Mol_Feturizer/New_Systems/rnas/5uza

>  <Rbt.Executable>
rbdock ($Id: //depot/dev/client3/rdock/2013.1/src/exe/rbdock.cxx#4 $)

>  <Rbt.Library>
libRbt.so (2013.1, Build901 2013/11/27)

>  <Rbt.Parameter_File>
/export/apps/rDock/src/rDock_2013.1_src/data/scripts/dock_solv.prm

>  <Rbt.Receptor>
prm/pocket_docking_5.prm

>  <SCORE>
-32.8152

>  <SCORE.INTER>
-32.816

>  <SCORE.INTER.CONST>
1

>  <SCORE.INTER.POLAR>
-4.10143

>  <SCORE.INTER.ROT>
0

>  <SCORE.INTER.SOLV>
11.9261

>  <SCORE.INTER.VDW>
-15.7813

>  <SCORE.INTER.norm>
-3.2816

>  <SCORE.INTRA>
0

>  <SCORE.INTRA.DIHEDRAL>
0

>  <SCORE.INTRA.DIHEDRAL.0>
0

>  <SCORE.INTRA.POLAR>
0

>  <SCORE.INTRA.POLAR.0>
0

>  <SCORE.INTRA.REPUL>
0

>  <SCORE.INTRA.REPUL.0>
0

>  <SCORE.INTRA.SOLV>
0

>  <SCORE.INTRA.SOLV.lig_0>
-14.8845

>  <SCORE.INTRA.VDW>
0

>  <SCORE.INTRA.VDW.0>
0

>  <SCORE.INTRA.norm>
0

>  <SCORE.RESTR>
0.000814919

>  <SCORE.RESTR.CAVITY>
0.000814919

>  <SCORE.RESTR.norm>
8.14919e-05

>  <SCORE.SYSTEM>
0

>  <SCORE.SYSTEM.CONST>
0

>  <SCORE.SYSTEM.DIHEDRAL>
0

>  <SCORE.SYSTEM.SOLV>
0

>  <SCORE.SYSTEM.norm>
0

>  <SCORE.heavy>
10

>  <SCORE.norm>
-3.28152

>  <RMSD>
2.946

$$$$
lig.pdb
 OpenBabel11021811523D
libRbt.so/2013.1/901 2013/11/27
 10 11  0  0  0  0  0  0  0  0999 V2000
  -29.2135   15.4511  -15.0194 N   0  0  0  0  0  0  0  0  0  0  0  0
  -28.6097   15.6028  -16.2374 C   0  0  0  0  0  0  0  0  0  0  0  0
  -29.0513   16.6296  -16.9237 N   0  0  0  0  0  0  0  0  0  0  0  0
  -30.0127   17.1909  -16.1004 C   0  0  0  0  0  0  0  0  0  0  0  0
  -30.8506   18.3115  -16.2485 C   0  0  0  0  0  0  0  0  0  0  0  0
  -30.8491   19.0896  -17.3359 N   0  0  0  0  0  0  0  0  0  0  0  0
  -31.6963   18.6002  -15.2352 N   0  0  0  0  0  0  0  0  0  0  0  0
  -31.6951   17.8159  -14.1517 C   0  0  0  0  0  0  0  0  0  0  0  0
  -30.9537   16.7381  -13.8980 N   0  0  0  0  0  0  0  0  0  0  0  0
  -30.1254   16.4774  -14.9218 C   0  0  0  0  0  0  0  0  0  0  0  0
  1 10  1  0  0  0  0
  2  3  2  0  0  0  0
  2  1  1  0  0  0  0
  3  4  1  0  0  0  0
  4 10  2  0  0  0  0
  4  5  1  0  0  0  0
  5  7  2  0  0  0  0
  6  5  1  0  0  0  0
  7  8  1  0  0  0  0
  9  8  2  0  0  0  0
 10  9  1  0  0  0  0
M  END
>  <CHROM.1>
-30.31509739,17.22404065,-15.63780987,0.49563118,-0.77394041,2.19539043

>  <Name>
lig.pdb

>  <RI>
0

>  <Rbt.Current_Directory>
/home/itssahil/PROJECTS/Mol_Feturizer/New_Systems/rnas/5uza

>  <Rbt.Executable>
rbdock ($Id: //depot/dev/client3/rdock/2013.1/src/exe/rbdock.cxx#4 $)

>  <Rbt.Library>
libRbt.so (2013.1, Build901 2013/11/27)

>  <Rbt.Parameter_File>
/export/apps/rDock/src/rDock_2013.1_src/data/scripts/dock_solv.prm

>  <Rbt.Receptor>
prm/pocket_docking_5.prm

>  <SCORE>
-32.8156

>  <SCORE.INTER>
-32.8158

>  <SCORE.INTER.CONST>
1

>  <SCORE.INTER.POLAR>
-4.10326

>  <SCORE.INTER.ROT>
0

>  <SCORE.INTER.SOLV>
11.9163

>  <SCORE.INTER.VDW>
-15.7717

>  <SCORE.INTER.norm>
-3.28158

>  <SCORE.INTRA>
0

>  <SCORE.INTRA.DIHEDRAL>
0

>  <SCORE.INTRA.DIHEDRAL.0>
0

>  <SCORE.INTRA.POLAR>
0

>  <SCORE.INTRA.POLAR.0>
0

>  <SCORE.INTRA.REPUL>
0

>  <SCORE.INTRA.REPUL.0>
0

>  <SCORE.INTRA.SOLV>
0

>  <SCORE.INTRA.SOLV.lig_0>
-14.8845

>  <SCORE.INTRA.VDW>
0

>  <SCORE.INTRA.VDW.0>
0

>  <SCORE.INTRA.norm>
0

>  <SCORE.RESTR>
0.000164725

>  <SCORE.RESTR.CAVITY>
0.000164725

>  <SCORE.RESTR.norm>
1.64725e-05

>  <SCORE.SYSTEM>
0

>  <SCORE.SYSTEM.CONST>
0

>  <SCORE.SYSTEM.DIHEDRAL>
0

>  <SCORE.SYSTEM.SOLV>
0

>  <SCORE.SYSTEM.norm>
0

>  <SCORE.heavy>
10

>  <SCORE.norm>
-3.28156

>  <RMSD>
2.946

$$$$
lig.pdb
 OpenBabel11021811523D
libRbt.so/2013.1/901 2013/11/27
 10 11  0  0  0  0  0  0  0  0999 V2000
  -29.2097   15.4543  -15.0229 N   0  0  0  0  0  0  0  0  0  0  0  0
  -28.5973   15.6136  -16.2356 C   0  0  0  0  0  0  0  0  0  0  0  0
  -29.0359   16.6432  -16.9196 N   0  0  0  0  0  0  0  0  0  0  0  0
  -30.0045   17.1982  -16.1004 C   0  0  0  0  0  0  0  0  0  0  0  0
  -30.8435   18.3180  -16.2488 C   0  0  0  0  0  0  0  0  0  0  0  0
  -30.8355   19.1018  -17.3320 N   0  0  0  0  0  0  0  0  0  0  0  0
  -31.6972   18.5996  -15.2402 N   0  0  0  0  0  0  0  0  0  0  0  0
  -31.7023   17.8095  -14.1608 C   0  0  0  0  0  0  0  0  0  0  0  0
  -30.9607   16.7319  -13.9074 N   0  0  0  0  0  0  0  0  0  0  0  0
  -30.1244   16.4782  -14.9265 C   0  0  0  0  0  0  0  0  0  0  0  0
  1 10  1  0  0  0  0
  2  3  2  0  0  0  0
  2  1  1  0  0  0  0
  3  4  1  0  0  0  0
  4 10  2  0  0  0  0
  4  5  1  0  0  0  0
  5  7  2  0  0  0  0
  6  5  1  0  0  0  0
  7  8  1  0  0  0  0
  9  8  2  0  0  0  0
 10  9  1  0  0  0  0
M  END
>  <CHROM.1>
-30.31029251,17.22830526,-15.63993425,0.50229460,-0.76802823,2.20536372

>  <Name>
lig.pdb

>  <RI>
1.17431e+07

>  <Rbt.Current_Directory>
/home/itssahil/PROJECTS/Mol_Feturizer/New_Systems/rnas/5uza

>  <Rbt.Executable>
rbdock ($Id: //depot/dev/client3/rdock/2013.1/src/exe/rbdock.cxx#4 $)

>  <Rbt.Library>
libRbt.so (2013.1, Build901 2013/11/27)

>  <Rbt.Parameter_File>
/export/apps/rDock/src/rDock_2013.1_src/data/scripts/dock_solv.prm

>  <Rbt.Receptor>
prm/pocket_docking_6.prm

>  <SCORE>
-32.8101

>  <SCORE.INTER>
-32.8101

>  <SCORE.INTER.CONST>
1

>  <SCORE.INTER.POLAR>
-4.10389

>  <SCORE.INTER.ROT>
0

>  <SCORE.INTER.SOLV>
11.9403

>  <SCORE.INTER.VDW>
-15.7739

>  <SCORE.INTER.norm>
-3.28101

>  <SCORE.INTRA>
0

>  <SCORE.INTRA.DIHEDRAL>
0

>  <SCORE.INTRA.DIHEDRAL.0>
0

>  <SCORE.INTRA.POLAR>
0

>  <SCORE.INTRA.POLAR.0>
0

>  <SCORE.INTRA.REPUL>
0

>  <SCORE.INTRA.REPUL.0>
0

>  <SCORE.INTRA.SOLV>
0

>  <SCORE.INTRA.SOLV.lig_0>
-14.8845

>  <SCORE.INTRA.VDW>
0

>  <SCORE.INTRA.VDW.0>
0

>  <SCORE.INTRA.norm>
0

>  <SCORE.RESTR>
0

>  <SCORE.RESTR.CAVITY>
0

>  <SCORE.RESTR.norm>
0

>  <SCORE.SYSTEM>
0

>  <SCORE.SYSTEM.CONST>
0

>  <SCORE.SYSTEM.DIHEDRAL>
0

>  <SCORE.SYSTEM.SOLV>
0

>  <SCORE.SYSTEM.norm>
0

>  <SCORE.heavy>
10

>  <SCORE.norm>
-3.28101

>  <RMSD>
2.946

$$$$
lig.pdb
 OpenBabel11021811523D
libRbt.so/2013.1/901 2013/11/27
 10 11  0  0  0  0  0  0  0  0999 V2000
  -29.2135   15.4502  -15.0230 N   0  0  0  0  0  0  0  0  0  0  0  0
  -28.6060   15.6056  -16.2387 C   0  0  0  0  0  0  0  0  0  0  0  0
  -29.0459   16.6342  -16.9234 N   0  0  0  0  0  0  0  0  0  0  0  0
  -30.0100   17.1929  -16.1014 C   0  0  0  0  0  0  0  0  0  0  0  0
  -30.8479   18.3136  -16.2489 C   0  0  0  0  0  0  0  0  0  0  0  0
  -30.8433   19.0948  -17.3340 N   0  0  0  0  0  0  0  0  0  0  0  0
  -31.6968   18.5990  -15.2373 N   0  0  0  0  0  0  0  0  0  0  0  0
  -31.6986   17.8116  -14.1561 C   0  0  0  0  0  0  0  0  0  0  0  0
  -30.9577   16.7333  -13.9032 N   0  0  0  0  0  0  0  0  0  0  0  0
  -30.1261   16.4759  -14.9253 C   0  0  0  0  0  0  0  0  0  0  0  0
  1 10  1  0  0  0  0
  2  3  2  0  0  0  0
  2  1  1  0  0  0  0
  3  4  1  0  0  0  0
  4 10  2  0  0  0  0
  4  5  1  0  0  0  0
  5  7  2  0  0  0  0
  6  5  1  0  0  0  0
  7  8  1  0  0  0  0
  9  8  2  0  0  0  0
 10  9  1  0  0  0  0
M  END
>  <CHROM.1>
-30.31384880,17.22453832,-15.63967078,0.49882629,-0.77185359,2.20053428

>  <Name>
lig.pdb

>  <RI>
1.17431e+07

>  <Rbt.Current_Directory>
/home/itssahil/PROJECTS/Mol_Feturizer/New_Systems/rnas/5uza

>  <Rbt.Executable>
rbdock ($Id: //depot/dev/client3/rdock/2013.1/src/exe/rbdock.cxx#4 $)

>  <Rbt.Library>
libRbt.so (2013.1, Build901 2013/11/27)

>  <Rbt.Parameter_File>
/export/apps/rDock/src/rDock_2013.1_src/data/scripts/dock_solv.prm

>  <Rbt.Receptor>
prm/pocket_docking_6.prm

>  <SCORE>
-32.8109

>  <SCORE.INTER>
-32.8109

>  <SCORE.INTER.CONST>
1

>  <SCORE.INTER.POLAR>
-4.10178

>  <SCORE.INTER.ROT>
0

>  <SCORE.INTER.SOLV>
11.9289

>  <SCORE.INTER.VDW>
-15.7776

>  <SCORE.INTER.norm>
-3.28109

>  <SCORE.INTRA>
0

>  <SCORE.INTRA.DIHEDRAL>
0

>  <SCORE.INTRA.DIHEDRAL.0>
0

>  <SCORE.INTRA.POLAR>
0

>  <SCORE.INTRA.POLAR.0>
0

>  <SCORE.INTRA.REPUL>
0

>  <SCORE.INTRA.REPUL.0>
0

>  <SCORE.INTRA.SOLV>
0

>  <SCORE.INTRA.SOLV.lig_0>
-14.8845

>  <SCORE.INTRA.VDW>
0

>  <SCORE.INTRA.VDW.0>
0

>  <SCORE.INTRA.norm>
0

>  <SCORE.RESTR>
0

>  <SCORE.RESTR.CAVITY>
0

>  <SCORE.RESTR.norm>
0

>  <SCORE.SYSTEM>
0

>  <SCORE.SYSTEM.CONST>
0

>  <SCORE.SYSTEM.DIHEDRAL>
0

>  <SCORE.SYSTEM.SOLV>
0

>  <SCORE.SYSTEM.norm>
0

>  <SCORE.heavy>
10

>  <SCORE.norm>
-3.28109

>  <RMSD>
2.946

$$$$
lig.pdb
 OpenBabel11021811523D
libRbt.so/2013.1/901 2013/11/27
 10 11  0  0  0  0  0  0  0  0999 V2000
  -29.2111   15.4531  -15.0195 N   0  0  0  0  0  0  0  0  0  0  0  0
  -28.6054   15.6064  -16.2363 C   0  0  0  0  0  0  0  0  0  0  0  0
  -29.0469   16.6333  -16.9225 N   0  0  0  0  0  0  0  0  0  0  0  0
  -30.0103   17.1930  -16.1004 C   0  0  0  0  0  0  0  0  0  0  0  0
  -30.8490   18.3129  -16.2490 C   0  0  0  0  0  0  0  0  0  0  0  0
  -30.8464   19.0919  -17.3357 N   0  0  0  0  0  0  0  0  0  0  0  0
  -31.6967   18.5999  -15.2369 N   0  0  0  0  0  0  0  0  0  0  0  0
  -31.6965   17.8147  -14.1540 C   0  0  0  0  0  0  0  0  0  0  0  0
  -30.9545   16.7375  -13.8999 N   0  0  0  0  0  0  0  0  0  0  0  0
  -30.1243   16.4784  -14.9226 C   0  0  0  0  0  0  0  0  0  0  0  0
  1 10  1  0  0  0  0
  2  3  2  0  0  0  0
  2  1  1  0  0  0  0
  3  4  1  0  0  0  0
  4 10  2  0  0  0  0
  4  5  1  0  0  0  0
  5  7  2  0  0  0  0
  6  5  1  0  0  0  0
  7  8  1  0  0  0  0
  9  8  2  0  0  0  0
 10  9  1  0  0  0  0
M  END
>  <CHROM.1>
-30.31344949,17.22547890,-15.63830677,0.49672743,-0.77216268,2.19699096

>  <Name>
lig.pdb

>  <RI>
1.17431e+07

>  <Rbt.Current_Directory>
/home/itssahil/PROJECTS/Mol_Feturizer/New_Systems/rnas/5uza

>  <Rbt.Executable>
rbdock ($Id: //depot/dev/client3/rdock/2013.1/src/exe/rbdock.cxx#4 $)

>  <Rbt.Library>
libRbt.so (2013.1, Build901 2013/11/27)

>  <Rbt.Parameter_File>
/export/apps/rDock/src/rDock_2013.1_src/data/scripts/dock_solv.prm

>  <Rbt.Receptor>
prm/pocket_docking_6.prm

>  <SCORE>
-32.815

>  <SCORE.INTER>
-32.815

>  <SCORE.INTER.CONST>
1

>  <SCORE.INTER.POLAR>
-4.10303

>  <SCORE.INTER.ROT>
0

>  <SCORE.INTER.SOLV>
11.9187

>  <SCORE.INTER.VDW>
-15.7728

>  <SCORE.INTER.norm>
-3.2815

>  <SCORE.INTRA>
0

>  <SCORE.INTRA.DIHEDRAL>
0

>  <SCORE.INTRA.DIHEDRAL.0>
0

>  <SCORE.INTRA.POLAR>
0

>  <SCORE.INTRA.POLAR.0>
0

>  <SCORE.INTRA.REPUL>
0

>  <SCORE.INTRA.REPUL.0>
0

>  <SCORE.INTRA.SOLV>
0

>  <SCORE.INTRA.SOLV.lig_0>
-14.8845

>  <SCORE.INTRA.VDW>
0

>  <SCORE.INTRA.VDW.0>
0

>  <SCORE.INTRA.norm>
0

>  <SCORE.RESTR>
0

>  <SCORE.RESTR.CAVITY>
0

>  <SCORE.RESTR.norm>
0

>  <SCORE.SYSTEM>
0

>  <SCORE.SYSTEM.CONST>
0

>  <SCORE.SYSTEM.DIHEDRAL>
0

>  <SCORE.SYSTEM.SOLV>
0

>  <SCORE.SYSTEM.norm>
0

>  <SCORE.heavy>
10

>  <SCORE.norm>
-3.2815

>  <RMSD>
2.946

$$$$
lig.pdb
 OpenBabel11021811523D
libRbt.so/2013.1/901 2013/11/27
 10 11  0  0  0  0  0  0  0  0999 V2000
  -29.2105   15.4536  -15.0173 N   0  0  0  0  0  0  0  0  0  0  0  0
  -28.6090   15.6033  -16.2366 C   0  0  0  0  0  0  0  0  0  0  0  0
  -29.0525   16.6285  -16.9241 N   0  0  0  0  0  0  0  0  0  0  0  0
  -30.0129   17.1907  -16.1002 C   0  0  0  0  0  0  0  0  0  0  0  0
  -30.8518   18.3105  -16.2490 C   0  0  0  0  0  0  0  0  0  0  0  0
  -30.8528   19.0865  -17.3378 N   0  0  0  0  0  0  0  0  0  0  0  0
  -31.6960   18.6004  -15.2347 N   0  0  0  0  0  0  0  0  0  0  0  0
  -31.6922   17.8182  -14.1497 C   0  0  0  0  0  0  0  0  0  0  0  0
  -30.9497   16.7415  -13.8953 N   0  0  0  0  0  0  0  0  0  0  0  0
  -30.1230   16.4794  -14.9201 C   0  0  0  0  0  0  0  0  0  0  0  0
  1 10  1  0  0  0  0
  2  3  2  0  0  0  0
  2  1  1  0  0  0  0
  3  4  1  0  0  0  0
  4 10  2  0  0  0  0
  4  5  1  0  0  0  0
  5  7  2  0  0  0  0
  6  5  1  0  0  0  0
  7  8  1  0  0  0  0
  9  8  2  0  0  0  0
 10  9  1  0  0  0  0
M  END
>  <CHROM.1>
-30.31447399,17.22453101,-15.63714992,0.49304431,-0.77439623,2.19168465

>  <Name>
lig.pdb

>  <RI>
1.17431e+07

>  <Rbt.Current_Directory>
/home/itssahil/PROJECTS/Mol_Feturizer/New_Systems/rnas/5uza

>  <Rbt.Executable>
rbdock ($Id: //depot/dev/client3/rdock/2013.1/src/exe/rbdock.cxx#4 $)

>  <Rbt.Library>
libRbt.so (2013.1, Build901 2013/11/27)

>  <Rbt.Parameter_File>
/export/apps/rDock/src/rDock_2013.1_src/data/scripts/dock_solv.prm

>  <Rbt.Receptor>
prm/pocket_docking_6.prm

>  <SCORE>
-32.8171

>  <SCORE.INTER>
-32.8175

>  <SCORE.INTER.CONST>
1

>  <SCORE.INTER.POLAR>
-4.10241

>  <SCORE.INTER.ROT>
0

>  <SCORE.INTER.SOLV>
11.9047

>  <SCORE.INTER.VDW>
-15.7719

>  <SCORE.INTER.norm>
-3.28175

>  <SCORE.INTRA>
0

>  <SCORE.INTRA.DIHEDRAL>
0

>  <SCORE.INTRA.DIHEDRAL.0>
0

>  <SCORE.INTRA.POLAR>
0

>  <SCORE.INTRA.POLAR.0>
0

>  <SCORE.INTRA.REPUL>
0

>  <SCORE.INTRA.REPUL.0>
0

>  <SCORE.INTRA.SOLV>
0

>  <SCORE.INTRA.SOLV.lig_0>
-14.8845

>  <SCORE.INTRA.VDW>
0

>  <SCORE.INTRA.VDW.0>
0

>  <SCORE.INTRA.norm>
0

>  <SCORE.RESTR>
0.000439969

>  <SCORE.RESTR.CAVITY>
0.000439969

>  <SCORE.RESTR.norm>
4.39969e-05

>  <SCORE.SYSTEM>
0

>  <SCORE.SYSTEM.CONST>
0

>  <SCORE.SYSTEM.DIHEDRAL>
0

>  <SCORE.SYSTEM.SOLV>
0

>  <SCORE.SYSTEM.norm>
0

>  <SCORE.heavy>
10

>  <SCORE.norm>
-3.28171

>  <RMSD>
2.946

$$$$
lig.pdb
 OpenBabel11021811523D
libRbt.so/2013.1/901 2013/11/27
 10 11  0  0  0  0  0  0  0  0999 V2000
  -29.2129   15.4510  -15.0216 N   0  0  0  0  0  0  0  0  0  0  0  0
  -28.6083   15.6039  -16.2390 C   0  0  0  0  0  0  0  0  0  0  0  0
  -29.0495   16.6314  -16.9246 N   0  0  0  0  0  0  0  0  0  0  0  0
  -30.0116   17.1918  -16.1015 C   0  0  0  0  0  0  0  0  0  0  0  0
  -30.8494   18.3125  -16.2491 C   0  0  0  0  0  0  0  0  0  0  0  0
  -30.8472   19.0916  -17.3357 N   0  0  0  0  0  0  0  0  0  0  0  0
  -31.6959   18.6001  -15.2361 N   0  0  0  0  0  0  0  0  0  0  0  0
  -31.6954   17.8147  -14.1534 C   0  0  0  0  0  0  0  0  0  0  0  0
  -30.9541   16.7368  -13.9002 N   0  0  0  0  0  0  0  0  0  0  0  0
  -30.1251   16.4771  -14.9237 C   0  0  0  0  0  0  0  0  0  0  0  0
  1 10  1  0  0  0  0
  2  3  2  0  0  0  0
  2  1  1  0  0  0  0
  3  4  1  0  0  0  0
  4 10  2  0  0  0  0
  4  5  1  0  0  0  0
  5  7  2  0  0  0  0
  6  5  1  0  0  0  0
  7  8  1  0  0  0  0
  9  8  2  0  0  0  0
 10  9  1  0  0  0  0
M  END
>  <CHROM.1>
-30.31427362,17.22445710,-15.63909835,0.49637144,-0.77344181,2.19689371

>  <Name>
lig.pdb

>  <RI>
1.17431e+07

>  <Rbt.Current_Directory>
/home/itssahil/PROJECTS/Mol_Feturizer/New_Systems/rnas/5uza

>  <Rbt.Executable>
rbdock ($Id: //depot/dev/client3/rdock/2013.1/src/exe/rbdock.cxx#4 $)

>  <Rbt.Library>
libRbt.so (2013.1, Build901 2013/11/27)

>  <Rbt.Parameter_File>
/export/apps/rDock/src/rDock_2013.1_src/data/scripts/dock_solv.prm

>  <Rbt.Receptor>
prm/pocket_docking_6.prm

>  <SCORE>
-32.8135

>  <SCORE.INTER>
-32.8136

>  <SCORE.INTER.CONST>
1

>  <SCORE.INTER.POLAR>
-4.10092

>  <SCORE.INTER.ROT>
0

>  <SCORE.INTER.SOLV>
11.9195

>  <SCORE.INTER.VDW>
-15.7791

>  <SCORE.INTER.norm>
-3.28136

>  <SCORE.INTRA>
0

>  <SCORE.INTRA.DIHEDRAL>
0

>  <SCORE.INTRA.DIHEDRAL.0>
0

>  <SCORE.INTRA.POLAR>
0

>  <SCORE.INTRA.POLAR.0>
0

>  <SCORE.INTRA.REPUL>
0

>  <SCORE.INTRA.REPUL.0>
0

>  <SCORE.INTRA.SOLV>
0

>  <SCORE.INTRA.SOLV.lig_0>
-14.8845

>  <SCORE.INTRA.VDW>
0

>  <SCORE.INTRA.VDW.0>
0

>  <SCORE.INTRA.norm>
0

>  <SCORE.RESTR>
5.37976e-05

>  <SCORE.RESTR.CAVITY>
5.37976e-05

>  <SCORE.RESTR.norm>
5.37976e-06

>  <SCORE.SYSTEM>
0

>  <SCORE.SYSTEM.CONST>
0

>  <SCORE.SYSTEM.DIHEDRAL>
0

>  <SCORE.SYSTEM.SOLV>
0

>  <SCORE.SYSTEM.norm>
0

>  <SCORE.heavy>
10

>  <SCORE.norm>
-3.28135

>  <RMSD>
2.946

$$$$
lig.pdb
 OpenBabel11021811523D
libRbt.so/2013.1/901 2013/11/27
 10 11  0  0  0  0  0  0  0  0999 V2000
  -29.2080   15.4550  -15.0210 N   0  0  0  0  0  0  0  0  0  0  0  0
  -28.6026   15.6086  -16.2379 C   0  0  0  0  0  0  0  0  0  0  0  0
  -29.0449   16.6351  -16.9242 N   0  0  0  0  0  0  0  0  0  0  0  0
  -30.0086   17.1941  -16.1020 C   0  0  0  0  0  0  0  0  0  0  0  0
  -30.8483   18.3134  -16.2507 C   0  0  0  0  0  0  0  0  0  0  0  0
  -30.8464   19.0922  -17.3376 N   0  0  0  0  0  0  0  0  0  0  0  0
  -31.6961   18.5998  -15.2386 N   0  0  0  0  0  0  0  0  0  0  0  0
  -31.6952   17.8148  -14.1556 C   0  0  0  0  0  0  0  0  0  0  0  0
  -30.9524   16.7381  -13.9015 N   0  0  0  0  0  0  0  0  0  0  0  0
  -30.1220   16.4796  -14.9242 C   0  0  0  0  0  0  0  0  0  0  0  0
  1 10  1  0  0  0  0
  2  3  2  0  0  0  0
  2  1  1  0  0  0  0
  3  4  1  0  0  0  0
  4 10  2  0  0  0  0
  4  5  1  0  0  0  0
  5  7  2  0  0  0  0
  6  5  1  0  0  0  0
  7  8  1  0  0  0  0
  9  8  2  0  0  0  0
 10  9  1  0  0  0  0
M  END
>  <CHROM.1>
-30.31180157,17.22641166,-15.63994734,0.49600133,-0.77155779,2.19635410

>  <Name>
lig.pdb

>  <RI>
2.12818e+07

>  <Rbt.Current_Directory>
/home/itssahil/PROJECTS/Mol_Feturizer/New_Systems/rnas/5uza

>  <Rbt.Executable>
rbdock ($Id: //depot/dev/client3/rdock/2013.1/src/exe/rbdock.cxx#4 $)

>  <Rbt.Library>
libRbt.so (2013.1, Build901 2013/11/27)

>  <Rbt.Parameter_File>
/export/apps/rDock/src/rDock_2013.1_src/data/scripts/dock_solv.prm

>  <Rbt.Receptor>
prm/pocket_docking_7.prm

>  <SCORE>
-32.8133

>  <SCORE.INTER>
-32.8133

>  <SCORE.INTER.CONST>
1

>  <SCORE.INTER.POLAR>
-4.09906

>  <SCORE.INTER.ROT>
0

>  <SCORE.INTER.SOLV>
11.9141

>  <SCORE.INTER.VDW>
-15.7834

>  <SCORE.INTER.norm>
-3.28133

>  <SCORE.INTRA>
0

>  <SCORE.INTRA.DIHEDRAL>
0

>  <SCORE.INTRA.DIHEDRAL.0>
0

>  <SCORE.INTRA.POLAR>
0

>  <SCORE.INTRA.POLAR.0>
0

>  <SCORE.INTRA.REPUL>
0

>  <SCORE.INTRA.REPUL.0>
0

>  <SCORE.INTRA.SOLV>
0

>  <SCORE.INTRA.SOLV.lig_0>
-14.8845

>  <SCORE.INTRA.VDW>
0

>  <SCORE.INTRA.VDW.0>
0

>  <SCORE.INTRA.norm>
0

>  <SCORE.RESTR>
0

>  <SCORE.RESTR.CAVITY>
0

>  <SCORE.RESTR.norm>
0

>  <SCORE.SYSTEM>
0

>  <SCORE.SYSTEM.CONST>
0

>  <SCORE.SYSTEM.DIHEDRAL>
0

>  <SCORE.SYSTEM.SOLV>
0

>  <SCORE.SYSTEM.norm>
0

>  <SCORE.heavy>
10

>  <SCORE.norm>
-3.28133

>  <RMSD>
2.946

$$$$
lig.pdb
 OpenBabel11021811523D
libRbt.so/2013.1/901 2013/11/27
 10 11  0  0  0  0  0  0  0  0999 V2000
  -29.2116   15.4524  -15.0239 N   0  0  0  0  0  0  0  0  0  0  0  0
  -28.6018   15.6097  -16.2381 C   0  0  0  0  0  0  0  0  0  0  0  0
  -29.0412   16.6388  -16.9225 N   0  0  0  0  0  0  0  0  0  0  0  0
  -30.0075   17.1956  -16.1019 C   0  0  0  0  0  0  0  0  0  0  0  0
  -30.8460   18.3158  -16.2498 C   0  0  0  0  0  0  0  0  0  0  0  0
  -30.8399   19.0983  -17.3339 N   0  0  0  0  0  0  0  0  0  0  0  0
  -31.6973   18.5993  -15.2396 N   0  0  0  0  0  0  0  0  0  0  0  0
  -31.7006   17.8106  -14.1593 C   0  0  0  0  0  0  0  0  0  0  0  0
  -30.9593   16.7327  -13.9062 N   0  0  0  0  0  0  0  0  0  0  0  0
  -30.1254   16.4771  -14.9268 C   0  0  0  0  0  0  0  0  0  0  0  0
  1 10  1  0  0  0  0
  2  3  2  0  0  0  0
  2  1  1  0  0  0  0
  3  4  1  0  0  0  0
  4 10  2  0  0  0  0
  4  5  1  0  0  0  0
  5  7  2  0  0  0  0
  6  5  1  0  0  0  0
  7  8  1  0  0  0  0
  9  8  2  0  0  0  0
 10  9  1  0  0  0  0
M  END
>  <CHROM.1>
-30.31229349,17.22647288,-15.64075014,0.50042436,-0.76992371,2.20282386

>  <Name>
lig.pdb

>  <RI>
2.12818e+07

>  <Rbt.Current_Directory>
/home/itssahil/PROJECTS/Mol_Feturizer/New_Systems/rnas/5uza

>  <Rbt.Executable>
rbdock ($Id: //depot/dev/client3/rdock/2013.1/src/exe/rbdock.cxx#4 $)

>  <Rbt.Library>
libRbt.so (2013.1, Build901 2013/11/27)

>  <Rbt.Parameter_File>
/export/apps/rDock/src/rDock_2013.1_src/data/scripts/dock_solv.prm

>  <Rbt.Receptor>
prm/pocket_docking_7.prm

>  <SCORE>
-32.8105

>  <SCORE.INTER>
-32.8105

>  <SCORE.INTER.CONST>
1

>  <SCORE.INTER.POLAR>
-4.10154

>  <SCORE.INTER.ROT>
0

>  <SCORE.INTER.SOLV>
11.9339

>  <SCORE.INTER.VDW>
-15.7798

>  <SCORE.INTER.norm>
-3.28105

>  <SCORE.INTRA>
0

>  <SCORE.INTRA.DIHEDRAL>
0

>  <SCORE.INTRA.DIHEDRAL.0>
0

>  <SCORE.INTRA.POLAR>
0

>  <SCORE.INTRA.POLAR.0>
0

>  <SCORE.INTRA.REPUL>
0

>  <SCORE.INTRA.REPUL.0>
0

>  <SCORE.INTRA.SOLV>
0

>  <SCORE.INTRA.SOLV.lig_0>
-14.8845

>  <SCORE.INTRA.VDW>
0

>  <SCORE.INTRA.VDW.0>
0

>  <SCORE.INTRA.norm>
0

>  <SCORE.RESTR>
0

>  <SCORE.RESTR.CAVITY>
0

>  <SCORE.RESTR.norm>
0

>  <SCORE.SYSTEM>
0

>  <SCORE.SYSTEM.CONST>
0

>  <SCORE.SYSTEM.DIHEDRAL>
0

>  <SCORE.SYSTEM.SOLV>
0

>  <SCORE.SYSTEM.norm>
0

>  <SCORE.heavy>
10

>  <SCORE.norm>
-3.28105

>  <RMSD>
2.946

$$$$
lig.pdb
 OpenBabel11021811523D
libRbt.so/2013.1/901 2013/11/27
 10 11  0  0  0  0  0  0  0  0999 V2000
  -29.2235   15.4426  -15.0272 N   0  0  0  0  0  0  0  0  0  0  0  0
  -28.6075   15.6048  -16.2376 C   0  0  0  0  0  0  0  0  0  0  0  0
  -29.0403   16.6391  -16.9182 N   0  0  0  0  0  0  0  0  0  0  0  0
  -30.0086   17.1945  -16.0989 C   0  0  0  0  0  0  0  0  0  0  0  0
  -30.8428   18.3182  -16.2444 C   0  0  0  0  0  0  0  0  0  0  0  0
  -30.8290   19.1068  -17.3240 N   0  0  0  0  0  0  0  0  0  0  0  0
  -31.6979   18.5988  -15.2366 N   0  0  0  0  0  0  0  0  0  0  0  0
  -31.7088   17.8040  -14.1608 C   0  0  0  0  0  0  0  0  0  0  0  0
  -30.9722   16.7222  -13.9104 N   0  0  0  0  0  0  0  0  0  0  0  0
  -30.1344   16.4697  -14.9285 C   0  0  0  0  0  0  0  0  0  0  0  0
  1 10  1  0  0  0  0
  2  3  2  0  0  0  0
  2  1  1  0  0  0  0
  3  4  1  0  0  0  0
  4 10  2  0  0  0  0
  4  5  1  0  0  0  0
  5  7  2  0  0  0  0
  6  5  1  0  0  0  0
  7  8  1  0  0  0  0
  9  8  2  0  0  0  0
 10  9  1  0  0  0  0
M  END
>  <CHROM.1>
-30.31549599,17.22372542,-15.63905973,0.50838676,-0.76976464,2.21403242

>  <Name>
lig.pdb

>  <RI>
1.17775e+07

>  <Rbt.Current_Directory>
/home/itssahil/PROJECTS/Mol_Feturizer/New_Systems/rnas/5uza

>  <Rbt.Executable>
rbdock ($Id: //depot/dev/client3/rdock/2013.1/src/exe/rbdock.cxx#4 $)

>  <Rbt.Library>
libRbt.so (2013.1, Build901 2013/11/27)

>  <Rbt.Parameter_File>
/export/apps/rDock/src/rDock_2013.1_src/data/scripts/dock_solv.prm

>  <Rbt.Receptor>
prm/pocket_docking_8.prm

>  <SCORE>
-32.7971

>  <SCORE.INTER>
-32.7971

>  <SCORE.INTER.CONST>
1

>  <SCORE.INTER.POLAR>
-4.1086

>  <SCORE.INTER.ROT>
0

>  <SCORE.INTER.SOLV>
11.9738

>  <SCORE.INTER.VDW>
-15.7607

>  <SCORE.INTER.norm>
-3.27971

>  <SCORE.INTRA>
0

>  <SCORE.INTRA.DIHEDRAL>
0

>  <SCORE.INTRA.DIHEDRAL.0>
0

>  <SCORE.INTRA.POLAR>
0

>  <SCORE.INTRA.POLAR.0>
0

>  <SCORE.INTRA.REPUL>
0

>  <SCORE.INTRA.REPUL.0>
0

>  <SCORE.INTRA.SOLV>
0

>  <SCORE.INTRA.SOLV.lig_0>
-14.8845

>  <SCORE.INTRA.VDW>
0

>  <SCORE.INTRA.VDW.0>
0

>  <SCORE.INTRA.norm>
0

>  <SCORE.RESTR>
0

>  <SCORE.RESTR.CAVITY>
0

>  <SCORE.RESTR.norm>
0

>  <SCORE.SYSTEM>
0

>  <SCORE.SYSTEM.CONST>
0

>  <SCORE.SYSTEM.DIHEDRAL>
0

>  <SCORE.SYSTEM.SOLV>
0

>  <SCORE.SYSTEM.norm>
0

>  <SCORE.heavy>
10

>  <SCORE.norm>
-3.27971

>  <RMSD>
2.946

$$$$
lig.pdb
 OpenBabel11021811523D
libRbt.so/2013.1/901 2013/11/27
 10 11  0  0  0  0  0  0  0  0999 V2000
  -29.2144   15.4486  -15.0187 N   0  0  0  0  0  0  0  0  0  0  0  0
  -28.6041   15.6064  -16.2326 C   0  0  0  0  0  0  0  0  0  0  0  0
  -29.0418   16.6368  -16.9160 N   0  0  0  0  0  0  0  0  0  0  0  0
  -30.0075   17.1941  -16.0950 C   0  0  0  0  0  0  0  0  0  0  0  0
  -30.8444   18.3157  -16.2419 C   0  0  0  0  0  0  0  0  0  0  0  0
  -30.8369   19.0993  -17.3253 N   0  0  0  0  0  0  0  0  0  0  0  0
  -31.6955   18.5993  -15.2317 N   0  0  0  0  0  0  0  0  0  0  0  0
  -31.7002   17.8095  -14.1522 C   0  0  0  0  0  0  0  0  0  0  0  0
  -30.9604   16.7303  -13.9000 N   0  0  0  0  0  0  0  0  0  0  0  0
  -30.1267   16.4746  -14.9208 C   0  0  0  0  0  0  0  0  0  0  0  0
  1 10  1  0  0  0  0
  2  3  2  0  0  0  0
  2  1  1  0  0  0  0
  3  4  1  0  0  0  0
  4 10  2  0  0  0  0
  4  5  1  0  0  0  0
  5  7  2  0  0  0  0
  6  5  1  0  0  0  0
  7  8  1  0  0  0  0
  9  8  2  0  0  0  0
 10  9  1  0  0  0  0
M  END
>  <CHROM.1>
-30.31236761,17.22495192,-15.63393150,0.50186220,-0.77096392,2.20485974

>  <Name>
lig.pdb

>  <RI>
2.26746e+07

>  <Rbt.Current_Directory>
/home/itssahil/PROJECTS/Mol_Feturizer/New_Systems/rnas/5uza

>  <Rbt.Executable>
rbdock ($Id: //depot/dev/client3/rdock/2013.1/src/exe/rbdock.cxx#4 $)

>  <Rbt.Library>
libRbt.so (2013.1, Build901 2013/11/27)

>  <Rbt.Parameter_File>
/export/apps/rDock/src/rDock_2013.1_src/data/scripts/dock_solv.prm

>  <Rbt.Receptor>
prm/blind_docking_100.prm

>  <SCORE>
-32.8029

>  <SCORE.INTER>
-32.8029

>  <SCORE.INTER.CONST>
1

>  <SCORE.INTER.POLAR>
-4.11031

>  <SCORE.INTER.ROT>
0

>  <SCORE.INTER.SOLV>
11.9446

>  <SCORE.INTER.VDW>
-15.7491

>  <SCORE.INTER.norm>
-3.28029

>  <SCORE.INTRA>
0

>  <SCORE.INTRA.DIHEDRAL>
0

>  <SCORE.INTRA.DIHEDRAL.0>
0

>  <SCORE.INTRA.POLAR>
0

>  <SCORE.INTRA.POLAR.0>
0

>  <SCORE.INTRA.REPUL>
0

>  <SCORE.INTRA.REPUL.0>
0

>  <SCORE.INTRA.SOLV>
0

>  <SCORE.INTRA.SOLV.lig_0>
-14.8845

>  <SCORE.INTRA.VDW>
0

>  <SCORE.INTRA.VDW.0>
0

>  <SCORE.INTRA.norm>
0

>  <SCORE.RESTR>
0

>  <SCORE.RESTR.CAVITY>
0

>  <SCORE.RESTR.norm>
0

>  <SCORE.SYSTEM>
0

>  <SCORE.SYSTEM.CONST>
0

>  <SCORE.SYSTEM.DIHEDRAL>
0

>  <SCORE.SYSTEM.SOLV>
0

>  <SCORE.SYSTEM.norm>
0

>  <SCORE.heavy>
10

>  <SCORE.norm>
-3.28029

>  <RMSD>
2.947

$$$$
lig.pdb
 OpenBabel11021811523D
libRbt.so/2013.1/901 2013/11/27
 10 11  0  0  0  0  0  0  0  0999 V2000
  -29.2078   15.4544  -15.0184 N   0  0  0  0  0  0  0  0  0  0  0  0
  -28.5981   15.6116  -16.2328 C   0  0  0  0  0  0  0  0  0  0  0  0
  -29.0380   16.6403  -16.9174 N   0  0  0  0  0  0  0  0  0  0  0  0
  -30.0045   17.1969  -16.0970 C   0  0  0  0  0  0  0  0  0  0  0  0
  -30.8435   18.3167  -16.2452 C   0  0  0  0  0  0  0  0  0  0  0  0
  -30.8378   19.0988  -17.3296 N   0  0  0  0  0  0  0  0  0  0  0  0
  -31.6949   18.6001  -15.2351 N   0  0  0  0  0  0  0  0  0  0  0  0
  -31.6978   17.8118  -14.1545 C   0  0  0  0  0  0  0  0  0  0  0  0
  -30.9560   16.7343  -13.9011 N   0  0  0  0  0  0  0  0  0  0  0  0
  -30.1220   16.4788  -14.9217 C   0  0  0  0  0  0  0  0  0  0  0  0
  1 10  1  0  0  0  0
  2  3  2  0  0  0  0
  2  1  1  0  0  0  0
  3  4  1  0  0  0  0
  4 10  2  0  0  0  0
  4  5  1  0  0  0  0
  5  7  2  0  0  0  0
  6  5  1  0  0  0  0
  7  8  1  0  0  0  0
  9  8  2  0  0  0  0
 10  9  1  0  0  0  0
M  END
>  <CHROM.1>
-30.30929560,17.22781733,-15.63582780,0.50001292,-0.76959354,2.20220242

>  <Name>
lig.pdb

>  <RI>
2.26746e+07

>  <Rbt.Current_Directory>
/home/itssahil/PROJECTS/Mol_Feturizer/New_Systems/rnas/5uza

>  <Rbt.Executable>
rbdock ($Id: //depot/dev/client3/rdock/2013.1/src/exe/rbdock.cxx#4 $)

>  <Rbt.Library>
libRbt.so (2013.1, Build901 2013/11/27)

>  <Rbt.Parameter_File>
/export/apps/rDock/src/rDock_2013.1_src/data/scripts/dock_solv.prm

>  <Rbt.Receptor>
prm/blind_docking_100.prm

>  <SCORE>
-32.8096

>  <SCORE.INTER>
-32.8097

>  <SCORE.INTER.CONST>
1

>  <SCORE.INTER.POLAR>
-4.10631

>  <SCORE.INTER.ROT>
0

>  <SCORE.INTER.SOLV>
11.9323

>  <SCORE.INTER.VDW>
-15.7629

>  <SCORE.INTER.norm>
-3.28097

>  <SCORE.INTRA>
0

>  <SCORE.INTRA.DIHEDRAL>
0

>  <SCORE.INTRA.DIHEDRAL.0>
0

>  <SCORE.INTRA.POLAR>
0

>  <SCORE.INTRA.POLAR.0>
0

>  <SCORE.INTRA.REPUL>
0

>  <SCORE.INTRA.REPUL.0>
0

>  <SCORE.INTRA.SOLV>
0

>  <SCORE.INTRA.SOLV.lig_0>
-14.8845

>  <SCORE.INTRA.VDW>
0

>  <SCORE.INTRA.VDW.0>
0

>  <SCORE.INTRA.norm>
0

>  <SCORE.RESTR>
0.000118991

>  <SCORE.RESTR.CAVITY>
0.000118991

>  <SCORE.RESTR.norm>
1.18991e-05

>  <SCORE.SYSTEM>
0

>  <SCORE.SYSTEM.CONST>
0

>  <SCORE.SYSTEM.DIHEDRAL>
0

>  <SCORE.SYSTEM.SOLV>
0

>  <SCORE.SYSTEM.norm>
0

>  <SCORE.heavy>
10

>  <SCORE.norm>
-3.28096

>  <RMSD>
2.947

$$$$
lig.pdb
 OpenBabel11021811523D
libRbt.so/2013.1/901 2013/11/27
 10 11  0  0  0  0  0  0  0  0999 V2000
  -29.2248   15.4350  -15.0311 N   0  0  0  0  0  0  0  0  0  0  0  0
  -28.5892   15.6160  -16.2287 C   0  0  0  0  0  0  0  0  0  0  0  0
  -29.0233   16.6504  -16.9082 N   0  0  0  0  0  0  0  0  0  0  0  0
  -30.0137   17.1857  -16.1021 C   0  0  0  0  0  0  0  0  0  0  0  0
  -30.8601   18.2995  -16.2532 C   0  0  0  0  0  0  0  0  0  0  0  0
  -30.8373   19.0976  -17.3257 N   0  0  0  0  0  0  0  0  0  0  0  0
  -31.7370   18.5599  -15.2589 N   0  0  0  0  0  0  0  0  0  0  0  0
  -31.7568   17.7557  -14.1903 C   0  0  0  0  0  0  0  0  0  0  0  0
  -31.0105   16.6816  -13.9356 N   0  0  0  0  0  0  0  0  0  0  0  0
  -30.1510   16.4491  -14.9404 C   0  0  0  0  0  0  0  0  0  0  0  0
  1 10  1  0  0  0  0
  2  3  2  0  0  0  0
  2  1  1  0  0  0  0
  3  4  1  0  0  0  0
  4 10  2  0  0  0  0
  4  5  1  0  0  0  0
  5  7  2  0  0  0  0
  6  5  1  0  0  0  0
  7  8  1  0  0  0  0
  9  8  2  0  0  0  0
 10  9  1  0  0  0  0
M  END
>  <CHROM.1>
-30.32925736,17.20684247,-15.64768685,0.51723442,-0.74813332,2.22873481

>  <Name>
lig.pdb

>  <RI>
2.26746e+07

>  <Rbt.Current_Directory>
/home/itssahil/PROJECTS/Mol_Feturizer/New_Systems/rnas/5uza

>  <Rbt.Executable>
rbdock ($Id: //depot/dev/client3/rdock/2013.1/src/exe/rbdock.cxx#4 $)

>  <Rbt.Library>
libRbt.so (2013.1, Build901 2013/11/27)

>  <Rbt.Parameter_File>
/export/apps/rDock/src/rDock_2013.1_src/data/scripts/dock_solv.prm

>  <Rbt.Receptor>
prm/blind_docking_100.prm

>  <SCORE>
-32.762

>  <SCORE.INTER>
-32.762

>  <SCORE.INTER.CONST>
1

>  <SCORE.INTER.POLAR>
-4.1112

>  <SCORE.INTER.ROT>
0

>  <SCORE.INTER.SOLV>
11.9794

>  <SCORE.INTER.VDW>
-15.7305

>  <SCORE.INTER.norm>
-3.2762

>  <SCORE.INTRA>
0

>  <SCORE.INTRA.DIHEDRAL>
0

>  <SCORE.INTRA.DIHEDRAL.0>
0

>  <SCORE.INTRA.POLAR>
0

>  <SCORE.INTRA.POLAR.0>
0

>  <SCORE.INTRA.REPUL>
0

>  <SCORE.INTRA.REPUL.0>
0

>  <SCORE.INTRA.SOLV>
0

>  <SCORE.INTRA.SOLV.lig_0>
-14.8845

>  <SCORE.INTRA.VDW>
0

>  <SCORE.INTRA.VDW.0>
0

>  <SCORE.INTRA.norm>
0

>  <SCORE.RESTR>
0

>  <SCORE.RESTR.CAVITY>
0

>  <SCORE.RESTR.norm>
0

>  <SCORE.SYSTEM>
0

>  <SCORE.SYSTEM.CONST>
0

>  <SCORE.SYSTEM.DIHEDRAL>
0

>  <SCORE.SYSTEM.SOLV>
0

>  <SCORE.SYSTEM.norm>
0

>  <SCORE.heavy>
10

>  <SCORE.norm>
-3.2762

>  <RMSD>
2.947

$$$$
lig.pdb
 OpenBabel11021811523D
libRbt.so/2013.1/901 2013/11/27
 10 11  0  0  0  0  0  0  0  0999 V2000
  -29.1921   15.4686  -15.0102 N   0  0  0  0  0  0  0  0  0  0  0  0
  -28.5919   15.6178  -16.2302 C   0  0  0  0  0  0  0  0  0  0  0  0
  -29.0417   16.6381  -16.9209 N   0  0  0  0  0  0  0  0  0  0  0  0
  -30.0051   17.1974  -16.0985 C   0  0  0  0  0  0  0  0  0  0  0  0
  -30.8506   18.3117  -16.2508 C   0  0  0  0  0  0  0  0  0  0  0  0
  -30.8565   19.0841  -17.3422 N   0  0  0  0  0  0  0  0  0  0  0  0
  -31.6962   18.6001  -15.2372 N   0  0  0  0  0  0  0  0  0  0  0  0
  -31.6875   17.8215  -14.1496 C   0  0  0  0  0  0  0  0  0  0  0  0
  -30.9386   16.7500  -13.8918 N   0  0  0  0  0  0  0  0  0  0  0  0
  -30.1107   16.4893  -14.9160 C   0  0  0  0  0  0  0  0  0  0  0  0
  1 10  1  0  0  0  0
  2  3  2  0  0  0  0
  2  1  1  0  0  0  0
  3  4  1  0  0  0  0
  4 10  2  0  0  0  0
  4  5  1  0  0  0  0
  5  7  2  0  0  0  0
  6  5  1  0  0  0  0
  7  8  1  0  0  0  0
  9  8  2  0  0  0  0
 10  9  1  0  0  0  0
M  END
>  <CHROM.1>
-30.30671505,17.23098427,-15.63551539,0.48795289,-0.76977978,2.18482455

>  <Name>
lig.pdb

>  <RI>
0

>  <Rbt.Current_Directory>
/home/itssahil/PROJECTS/Mol_Feturizer/New_Systems/rnas/5uza

>  <Rbt.Executable>
rbdock ($Id: //depot/dev/client3/rdock/2013.1/src/exe/rbdock.cxx#4 $)

>  <Rbt.Library>
libRbt.so (2013.1, Build901 2013/11/27)

>  <Rbt.Parameter_File>
/export/apps/rDock/src/rDock_2013.1_src/data/scripts/dock_solv.prm

>  <Rbt.Receptor>
prm/blind_docking_80.prm

>  <SCORE>
-32.7942

>  <SCORE.INTER>
-32.7943

>  <SCORE.INTER.CONST>
1

>  <SCORE.INTER.POLAR>
-4.10015

>  <SCORE.INTER.ROT>
0

>  <SCORE.INTER.SOLV>
11.8737

>  <SCORE.INTER.VDW>
-15.7536

>  <SCORE.INTER.norm>
-3.27943

>  <SCORE.INTRA>
0

>  <SCORE.INTRA.DIHEDRAL>
0

>  <SCORE.INTRA.DIHEDRAL.0>
0

>  <SCORE.INTRA.POLAR>
0

>  <SCORE.INTRA.POLAR.0>
0

>  <SCORE.INTRA.REPUL>
0

>  <SCORE.INTRA.REPUL.0>
0

>  <SCORE.INTRA.SOLV>
0

>  <SCORE.INTRA.SOLV.lig_0>
-14.8845

>  <SCORE.INTRA.VDW>
0

>  <SCORE.INTRA.VDW.0>
0

>  <SCORE.INTRA.norm>
0

>  <SCORE.RESTR>
7.67344e-05

>  <SCORE.RESTR.CAVITY>
7.67344e-05

>  <SCORE.RESTR.norm>
7.67344e-06

>  <SCORE.SYSTEM>
0

>  <SCORE.SYSTEM.CONST>
0

>  <SCORE.SYSTEM.DIHEDRAL>
0

>  <SCORE.SYSTEM.SOLV>
0

>  <SCORE.SYSTEM.norm>
0

>  <SCORE.heavy>
10

>  <SCORE.norm>
-3.27942

>  <RMSD>
2.947

$$$$
lig.pdb
 OpenBabel11021811523D
libRbt.so/2013.1/901 2013/11/27
 10 11  0  0  0  0  0  0  0  0999 V2000
  -29.2136   15.4509  -15.0193 N   0  0  0  0  0  0  0  0  0  0  0  0
  -28.6057   15.6061  -16.2348 C   0  0  0  0  0  0  0  0  0  0  0  0
  -29.0453   16.6347  -16.9197 N   0  0  0  0  0  0  0  0  0  0  0  0
  -30.0098   17.1934  -16.0982 C   0  0  0  0  0  0  0  0  0  0  0  0
  -30.8476   18.3141  -16.2461 C   0  0  0  0  0  0  0  0  0  0  0  0
  -30.8426   19.0952  -17.3313 N   0  0  0  0  0  0  0  0  0  0  0  0
  -31.6969   18.5997  -15.2349 N   0  0  0  0  0  0  0  0  0  0  0  0
  -31.6990   17.8124  -14.1535 C   0  0  0  0  0  0  0  0  0  0  0  0
  -30.9582   16.7342  -13.9003 N   0  0  0  0  0  0  0  0  0  0  0  0
  -30.1263   16.4766  -14.9220 C   0  0  0  0  0  0  0  0  0  0  0  0
  1 10  1  0  0  0  0
  2  3  2  0  0  0  0
  2  1  1  0  0  0  0
  3  4  1  0  0  0  0
  4 10  2  0  0  0  0
  4  5  1  0  0  0  0
  5  7  2  0  0  0  0
  6  5  1  0  0  0  0
  7  8  1  0  0  0  0
  9  8  2  0  0  0  0
 10  9  1  0  0  0  0
M  END
>  <CHROM.1>
-30.31375641,17.22514641,-15.63655752,0.49921070,-0.77164106,2.20068102

>  <Name>
lig.pdb

>  <RI>
0

>  <Rbt.Current_Directory>
/home/itssahil/PROJECTS/Mol_Feturizer/New_Systems/rnas/5uza

>  <Rbt.Executable>
rbdock ($Id: //depot/dev/client3/rdock/2013.1/src/exe/rbdock.cxx#4 $)

>  <Rbt.Library>
libRbt.so (2013.1, Build901 2013/11/27)

>  <Rbt.Parameter_File>
/export/apps/rDock/src/rDock_2013.1_src/data/scripts/dock_solv.prm

>  <Rbt.Receptor>
prm/pocket_docking_5.prm

>  <SCORE>
-32.8108

>  <SCORE.INTER>
-32.8108

>  <SCORE.INTER.CONST>
1

>  <SCORE.INTER.POLAR>
-4.1069

>  <SCORE.INTER.ROT>
0

>  <SCORE.INTER.SOLV>
11.9315

>  <SCORE.INTER.VDW>
-15.7614

>  <SCORE.INTER.norm>
-3.28108

>  <SCORE.INTRA>
0

>  <SCORE.INTRA.DIHEDRAL>
0

>  <SCORE.INTRA.DIHEDRAL.0>
0

>  <SCORE.INTRA.POLAR>
0

>  <SCORE.INTRA.POLAR.0>
0

>  <SCORE.INTRA.REPUL>
0

>  <SCORE.INTRA.REPUL.0>
0

>  <SCORE.INTRA.SOLV>
0

>  <SCORE.INTRA.SOLV.lig_0>
-14.8845

>  <SCORE.INTRA.VDW>
0

>  <SCORE.INTRA.VDW.0>
0

>  <SCORE.INTRA.norm>
0

>  <SCORE.RESTR>
0

>  <SCORE.RESTR.CAVITY>
0

>  <SCORE.RESTR.norm>
0

>  <SCORE.SYSTEM>
0

>  <SCORE.SYSTEM.CONST>
0

>  <SCORE.SYSTEM.DIHEDRAL>
0

>  <SCORE.SYSTEM.SOLV>
0

>  <SCORE.SYSTEM.norm>
0

>  <SCORE.heavy>
10

>  <SCORE.norm>
-3.28108

>  <RMSD>
2.947

$$$$
lig.pdb
 OpenBabel11021811523D
libRbt.so/2013.1/901 2013/11/27
 10 11  0  0  0  0  0  0  0  0999 V2000
  -29.2110   15.4532  -15.0192 N   0  0  0  0  0  0  0  0  0  0  0  0
  -28.6020   15.6093  -16.2340 C   0  0  0  0  0  0  0  0  0  0  0  0
  -29.0418   16.6377  -16.9190 N   0  0  0  0  0  0  0  0  0  0  0  0
  -30.0075   17.1953  -16.0983 C   0  0  0  0  0  0  0  0  0  0  0  0
  -30.8461   18.3154  -16.2467 C   0  0  0  0  0  0  0  0  0  0  0  0
  -30.8407   19.0968  -17.3317 N   0  0  0  0  0  0  0  0  0  0  0  0
  -31.6967   18.5999  -15.2364 N   0  0  0  0  0  0  0  0  0  0  0  0
  -31.6994   17.8122  -14.1553 C   0  0  0  0  0  0  0  0  0  0  0  0
  -30.9579   16.7346  -13.9016 N   0  0  0  0  0  0  0  0  0  0  0  0
  -30.1247   16.4780  -14.9225 C   0  0  0  0  0  0  0  0  0  0  0  0
  1 10  1  0  0  0  0
  2  3  2  0  0  0  0
  2  1  1  0  0  0  0
  3  4  1  0  0  0  0
  4 10  2  0  0  0  0
  4  5  1  0  0  0  0
  5  7  2  0  0  0  0
  6  5  1  0  0  0  0
  7  8  1  0  0  0  0
  9  8  2  0  0  0  0
 10  9  1  0  0  0  0
M  END
>  <CHROM.1>
-30.31203930,17.22665833,-15.63703298,0.49971374,-0.77032478,2.20135708

>  <Name>
lig.pdb

>  <RI>
1.17431e+07

>  <Rbt.Current_Directory>
/home/itssahil/PROJECTS/Mol_Feturizer/New_Systems/rnas/5uza

>  <Rbt.Executable>
rbdock ($Id: //depot/dev/client3/rdock/2013.1/src/exe/rbdock.cxx#4 $)

>  <Rbt.Library>
libRbt.so (2013.1, Build901 2013/11/27)

>  <Rbt.Parameter_File>
/export/apps/rDock/src/rDock_2013.1_src/data/scripts/dock_solv.prm

>  <Rbt.Receptor>
prm/pocket_docking_6.prm

>  <SCORE>
-32.8139

>  <SCORE.INTER>
-32.8139

>  <SCORE.INTER.CONST>
1

>  <SCORE.INTER.POLAR>
-4.1068

>  <SCORE.INTER.ROT>
0

>  <SCORE.INTER.SOLV>
11.9315

>  <SCORE.INTER.VDW>
-15.7638

>  <SCORE.INTER.norm>
-3.28139

>  <SCORE.INTRA>
0

>  <SCORE.INTRA.DIHEDRAL>
0

>  <SCORE.INTRA.DIHEDRAL.0>
0

>  <SCORE.INTRA.POLAR>
0

>  <SCORE.INTRA.POLAR.0>
0

>  <SCORE.INTRA.REPUL>
0

>  <SCORE.INTRA.REPUL.0>
0

>  <SCORE.INTRA.SOLV>
0

>  <SCORE.INTRA.SOLV.lig_0>
-14.8845

>  <SCORE.INTRA.VDW>
0

>  <SCORE.INTRA.VDW.0>
0

>  <SCORE.INTRA.norm>
0

>  <SCORE.RESTR>
0

>  <SCORE.RESTR.CAVITY>
0

>  <SCORE.RESTR.norm>
0

>  <SCORE.SYSTEM>
0

>  <SCORE.SYSTEM.CONST>
0

>  <SCORE.SYSTEM.DIHEDRAL>
0

>  <SCORE.SYSTEM.SOLV>
0

>  <SCORE.SYSTEM.norm>
0

>  <SCORE.heavy>
10

>  <SCORE.norm>
-3.28139

>  <RMSD>
2.947

$$$$
lig.pdb
 OpenBabel11021811523D
libRbt.so/2013.1/901 2013/11/27
 10 11  0  0  0  0  0  0  0  0999 V2000
  -29.2085   15.4551  -15.0215 N   0  0  0  0  0  0  0  0  0  0  0  0
  -28.5924   15.6176  -16.2319 C   0  0  0  0  0  0  0  0  0  0  0  0
  -29.0294   16.6486  -16.9149 N   0  0  0  0  0  0  0  0  0  0  0  0
  -30.0008   17.2012  -16.0974 C   0  0  0  0  0  0  0  0  0  0  0  0
  -30.8400   18.3208  -16.2457 C   0  0  0  0  0  0  0  0  0  0  0  0
  -30.8291   19.1073  -17.3270 N   0  0  0  0  0  0  0  0  0  0  0  0
  -31.6970   18.5996  -15.2391 N   0  0  0  0  0  0  0  0  0  0  0  0
  -31.7050   17.8070  -14.1616 C   0  0  0  0  0  0  0  0  0  0  0  0
  -30.9637   16.7291  -13.9085 N   0  0  0  0  0  0  0  0  0  0  0  0
  -30.1241   16.4783  -14.9256 C   0  0  0  0  0  0  0  0  0  0  0  0
  1 10  1  0  0  0  0
  2  3  2  0  0  0  0
  2  1  1  0  0  0  0
  3  4  1  0  0  0  0
  4 10  2  0  0  0  0
  4  5  1  0  0  0  0
  5  7  2  0  0  0  0
  6  5  1  0  0  0  0
  7  8  1  0  0  0  0
  9  8  2  0  0  0  0
 10  9  1  0  0  0  0
M  END
>  <CHROM.1>
-30.30811605,17.23002021,-15.63777073,0.50532469,-0.76574423,2.20983590

>  <Name>
lig.pdb

>  <RI>
2.12818e+07

>  <Rbt.Current_Directory>
/home/itssahil/PROJECTS/Mol_Feturizer/New_Systems/rnas/5uza

>  <Rbt.Executable>
rbdock ($Id: //depot/dev/client3/rdock/2013.1/src/exe/rbdock.cxx#4 $)

>  <Rbt.Library>
libRbt.so (2013.1, Build901 2013/11/27)

>  <Rbt.Parameter_File>
/export/apps/rDock/src/rDock_2013.1_src/data/scripts/dock_solv.prm

>  <Rbt.Receptor>
prm/pocket_docking_7.prm

>  <SCORE>
-32.8047

>  <SCORE.INTER>
-32.8047

>  <SCORE.INTER.CONST>
1

>  <SCORE.INTER.POLAR>
-4.10814

>  <SCORE.INTER.ROT>
0

>  <SCORE.INTER.SOLV>
11.9531

>  <SCORE.INTER.VDW>
-15.7603

>  <SCORE.INTER.norm>
-3.28047

>  <SCORE.INTRA>
0

>  <SCORE.INTRA.DIHEDRAL>
0

>  <SCORE.INTRA.DIHEDRAL.0>
0

>  <SCORE.INTRA.POLAR>
0

>  <SCORE.INTRA.POLAR.0>
0

>  <SCORE.INTRA.REPUL>
0

>  <SCORE.INTRA.REPUL.0>
0

>  <SCORE.INTRA.SOLV>
0

>  <SCORE.INTRA.SOLV.lig_0>
-14.8845

>  <SCORE.INTRA.VDW>
0

>  <SCORE.INTRA.VDW.0>
0

>  <SCORE.INTRA.norm>
0

>  <SCORE.RESTR>
0

>  <SCORE.RESTR.CAVITY>
0

>  <SCORE.RESTR.norm>
0

>  <SCORE.SYSTEM>
0

>  <SCORE.SYSTEM.CONST>
0

>  <SCORE.SYSTEM.DIHEDRAL>
0

>  <SCORE.SYSTEM.SOLV>
0

>  <SCORE.SYSTEM.norm>
0

>  <SCORE.heavy>
10

>  <SCORE.norm>
-3.28047

>  <RMSD>
2.947

$$$$
lig.pdb
 OpenBabel11021811523D
libRbt.so/2013.1/901 2013/11/27
 10 11  0  0  0  0  0  0  0  0999 V2000
  -29.2106   15.4521  -15.0207 N   0  0  0  0  0  0  0  0  0  0  0  0
  -28.5957   15.6137  -16.2318 C   0  0  0  0  0  0  0  0  0  0  0  0
  -29.0320   16.6453  -16.9143 N   0  0  0  0  0  0  0  0  0  0  0  0
  -30.0017   17.1993  -16.0956 C   0  0  0  0  0  0  0  0  0  0  0  0
  -30.8395   18.3201  -16.2430 C   0  0  0  0  0  0  0  0  0  0  0  0
  -30.8287   19.1065  -17.3243 N   0  0  0  0  0  0  0  0  0  0  0  0
  -31.6949   18.6000  -15.2354 N   0  0  0  0  0  0  0  0  0  0  0  0
  -31.7028   17.8074  -14.1579 C   0  0  0  0  0  0  0  0  0  0  0  0
  -30.9627   16.7285  -13.9056 N   0  0  0  0  0  0  0  0  0  0  0  0
  -30.1246   16.4766  -14.9237 C   0  0  0  0  0  0  0  0  0  0  0  0
  1 10  1  0  0  0  0
  2  3  2  0  0  0  0
  2  1  1  0  0  0  0
  3  4  1  0  0  0  0
  4 10  2  0  0  0  0
  4  5  1  0  0  0  0
  5  7  2  0  0  0  0
  6  5  1  0  0  0  0
  7  8  1  0  0  0  0
  9  8  2  0  0  0  0
 10  9  1  0  0  0  0
M  END
>  <CHROM.1>
-30.30841781,17.22850444,-15.63567626,0.50519213,-0.76755775,2.20975361

>  <Name>
lig.pdb

>  <RI>
1.17775e+07

>  <Rbt.Current_Directory>
/home/itssahil/PROJECTS/Mol_Feturizer/New_Systems/rnas/5uza

>  <Rbt.Executable>
rbdock ($Id: //depot/dev/client3/rdock/2013.1/src/exe/rbdock.cxx#4 $)

>  <Rbt.Library>
libRbt.so (2013.1, Build901 2013/11/27)

>  <Rbt.Parameter_File>
/export/apps/rDock/src/rDock_2013.1_src/data/scripts/dock_solv.prm

>  <Rbt.Receptor>
prm/pocket_docking_8.prm

>  <SCORE>
-32.8016

>  <SCORE.INTER>
-32.8016

>  <SCORE.INTER.CONST>
1

>  <SCORE.INTER.POLAR>
-4.10914

>  <SCORE.INTER.ROT>
0

>  <SCORE.INTER.SOLV>
11.9555

>  <SCORE.INTER.VDW>
-15.7558

>  <SCORE.INTER.norm>
-3.28016

>  <SCORE.INTRA>
0

>  <SCORE.INTRA.DIHEDRAL>
0

>  <SCORE.INTRA.DIHEDRAL.0>
0

>  <SCORE.INTRA.POLAR>
0

>  <SCORE.INTRA.POLAR.0>
0

>  <SCORE.INTRA.REPUL>
0

>  <SCORE.INTRA.REPUL.0>
0

>  <SCORE.INTRA.SOLV>
0

>  <SCORE.INTRA.SOLV.lig_0>
-14.8845

>  <SCORE.INTRA.VDW>
0

>  <SCORE.INTRA.VDW.0>
0

>  <SCORE.INTRA.norm>
0

>  <SCORE.RESTR>
1.42704e-05

>  <SCORE.RESTR.CAVITY>
1.42704e-05

>  <SCORE.RESTR.norm>
1.42704e-06

>  <SCORE.SYSTEM>
0

>  <SCORE.SYSTEM.CONST>
0

>  <SCORE.SYSTEM.DIHEDRAL>
0

>  <SCORE.SYSTEM.SOLV>
0

>  <SCORE.SYSTEM.norm>
0

>  <SCORE.heavy>
10

>  <SCORE.norm>
-3.28016

>  <RMSD>
2.947

$$$$
lig.pdb
 OpenBabel11021811523D
libRbt.so/2013.1/901 2013/11/27
 10 11  0  0  0  0  0  0  0  0999 V2000
  -29.1917   15.4692  -15.0052 N   0  0  0  0  0  0  0  0  0  0  0  0
  -28.5962   15.6140  -16.2280 C   0  0  0  0  0  0  0  0  0  0  0  0
  -29.0485   16.6319  -16.9206 N   0  0  0  0  0  0  0  0  0  0  0  0
  -30.0087   17.1942  -16.0965 C   0  0  0  0  0  0  0  0  0  0  0  0
  -30.8547   18.3080  -16.2495 C   0  0  0  0  0  0  0  0  0  0  0  0
  -30.8647   19.0765  -17.3436 N   0  0  0  0  0  0  0  0  0  0  0  0
  -31.6963   18.6001  -15.2337 N   0  0  0  0  0  0  0  0  0  0  0  0
  -31.6835   17.8254  -14.1433 C   0  0  0  0  0  0  0  0  0  0  0  0
  -30.9337   16.7547  -13.8847 N   0  0  0  0  0  0  0  0  0  0  0  0
  -30.1098   16.4904  -14.9111 C   0  0  0  0  0  0  0  0  0  0  0  0
  1 10  1  0  0  0  0
  2  3  2  0  0  0  0
  2  1  1  0  0  0  0
  3  4  1  0  0  0  0
  4 10  2  0  0  0  0
  4  5  1  0  0  0  0
  5  7  2  0  0  0  0
  6  5  1  0  0  0  0
  7  8  1  0  0  0  0
  9  8  2  0  0  0  0
 10  9  1  0  0  0  0
M  END
>  <CHROM.1>
-30.30852988,17.22946103,-15.63247869,0.48360756,-0.77208348,2.17822391

>  <Name>
lig.pdb

>  <RI>
1.17775e+07

>  <Rbt.Current_Directory>
/home/itssahil/PROJECTS/Mol_Feturizer/New_Systems/rnas/5uza

>  <Rbt.Executable>
rbdock ($Id: //depot/dev/client3/rdock/2013.1/src/exe/rbdock.cxx#4 $)

>  <Rbt.Library>
libRbt.so (2013.1, Build901 2013/11/27)

>  <Rbt.Parameter_File>
/export/apps/rDock/src/rDock_2013.1_src/data/scripts/dock_solv.prm

>  <Rbt.Receptor>
prm/pocket_docking_8.prm

>  <SCORE>
-32.7932

>  <SCORE.INTER>
-32.7933

>  <SCORE.INTER.CONST>
1

>  <SCORE.INTER.POLAR>
-4.10183

>  <SCORE.INTER.ROT>
0

>  <SCORE.INTER.SOLV>
11.8567

>  <SCORE.INTER.VDW>
-15.7416

>  <SCORE.INTER.norm>
-3.27933

>  <SCORE.INTRA>
0

>  <SCORE.INTRA.DIHEDRAL>
0

>  <SCORE.INTRA.DIHEDRAL.0>
0

>  <SCORE.INTRA.POLAR>
0

>  <SCORE.INTRA.POLAR.0>
0

>  <SCORE.INTRA.REPUL>
0

>  <SCORE.INTRA.REPUL.0>
0

>  <SCORE.INTRA.SOLV>
0

>  <SCORE.INTRA.SOLV.lig_0>
-14.8845

>  <SCORE.INTRA.VDW>
0

>  <SCORE.INTRA.VDW.0>
0

>  <SCORE.INTRA.norm>
0

>  <SCORE.RESTR>
0.000116191

>  <SCORE.RESTR.CAVITY>
0.000116191

>  <SCORE.RESTR.norm>
1.16191e-05

>  <SCORE.SYSTEM>
0

>  <SCORE.SYSTEM.CONST>
0

>  <SCORE.SYSTEM.DIHEDRAL>
0

>  <SCORE.SYSTEM.SOLV>
0

>  <SCORE.SYSTEM.norm>
0

>  <SCORE.heavy>
10

>  <SCORE.norm>
-3.27932

>  <RMSD>
2.947

$$$$
lig.pdb
 OpenBabel11021811523D
libRbt.so/2013.1/901 2013/11/27
 10 11  0  0  0  0  0  0  0  0999 V2000
  -29.2133   15.4514  -15.0129 N   0  0  0  0  0  0  0  0  0  0  0  0
  -28.6065   15.6049  -16.2292 C   0  0  0  0  0  0  0  0  0  0  0  0
  -29.0467   16.6326  -16.9151 N   0  0  0  0  0  0  0  0  0  0  0  0
  -30.0103   17.1925  -16.0934 C   0  0  0  0  0  0  0  0  0  0  0  0
  -30.8480   18.3132  -16.2420 C   0  0  0  0  0  0  0  0  0  0  0  0
  -30.8440   19.0928  -17.3282 N   0  0  0  0  0  0  0  0  0  0  0  0
  -31.6963   18.6002  -15.2304 N   0  0  0  0  0  0  0  0  0  0  0  0
  -31.6976   17.8143  -14.1480 C   0  0  0  0  0  0  0  0  0  0  0  0
  -30.9567   16.7363  -13.8940 N   0  0  0  0  0  0  0  0  0  0  0  0
  -30.1258   16.4773  -14.9161 C   0  0  0  0  0  0  0  0  0  0  0  0
  1 10  1  0  0  0  0
  2  3  2  0  0  0  0
  2  1  1  0  0  0  0
  3  4  1  0  0  0  0
  4 10  2  0  0  0  0
  4  5  1  0  0  0  0
  5  7  2  0  0  0  0
  6  5  1  0  0  0  0
  7  8  1  0  0  0  0
  9  8  2  0  0  0  0
 10  9  1  0  0  0  0
M  END
>  <CHROM.1>
-30.31379803,17.22492740,-15.63151997,0.49826664,-0.77230200,2.19868693

>  <Name>
lig.pdb

>  <RI>
2.26746e+07

>  <Rbt.Current_Directory>
/home/itssahil/PROJECTS/Mol_Feturizer/New_Systems/rnas/5uza

>  <Rbt.Executable>
rbdock ($Id: //depot/dev/client3/rdock/2013.1/src/exe/rbdock.cxx#4 $)

>  <Rbt.Library>
libRbt.so (2013.1, Build901 2013/11/27)

>  <Rbt.Parameter_File>
/export/apps/rDock/src/rDock_2013.1_src/data/scripts/dock_solv.prm

>  <Rbt.Receptor>
prm/blind_docking_100.prm

>  <SCORE>
-32.8094

>  <SCORE.INTER>
-32.8096

>  <SCORE.INTER.CONST>
1

>  <SCORE.INTER.POLAR>
-4.11389

>  <SCORE.INTER.ROT>
0

>  <SCORE.INTER.SOLV>
11.9284

>  <SCORE.INTER.VDW>
-15.7362

>  <SCORE.INTER.norm>
-3.28096

>  <SCORE.INTRA>
0

>  <SCORE.INTRA.DIHEDRAL>
0

>  <SCORE.INTRA.DIHEDRAL.0>
0

>  <SCORE.INTRA.POLAR>
0

>  <SCORE.INTRA.POLAR.0>
0

>  <SCORE.INTRA.REPUL>
0

>  <SCORE.INTRA.REPUL.0>
0

>  <SCORE.INTRA.SOLV>
0

>  <SCORE.INTRA.SOLV.lig_0>
-14.8845

>  <SCORE.INTRA.VDW>
0

>  <SCORE.INTRA.VDW.0>
0

>  <SCORE.INTRA.norm>
0

>  <SCORE.RESTR>
0.000159645

>  <SCORE.RESTR.CAVITY>
0.000159645

>  <SCORE.RESTR.norm>
1.59645e-05

>  <SCORE.SYSTEM>
0

>  <SCORE.SYSTEM.CONST>
0

>  <SCORE.SYSTEM.DIHEDRAL>
0

>  <SCORE.SYSTEM.SOLV>
0

>  <SCORE.SYSTEM.norm>
0

>  <SCORE.heavy>
10

>  <SCORE.norm>
-3.28094

>  <RMSD>
2.948

$$$$
lig.pdb
 OpenBabel11021811523D
libRbt.so/2013.1/901 2013/11/27
 10 11  0  0  0  0  0  0  0  0999 V2000
  -29.2262   15.4406  -15.0211 N   0  0  0  0  0  0  0  0  0  0  0  0
  -28.6105   15.6017  -16.2318 C   0  0  0  0  0  0  0  0  0  0  0  0
  -29.0418   16.6368  -16.9122 N   0  0  0  0  0  0  0  0  0  0  0  0
  -30.0088   17.1938  -16.0925 C   0  0  0  0  0  0  0  0  0  0  0  0
  -30.8411   18.3189  -16.2376 C   0  0  0  0  0  0  0  0  0  0  0  0
  -30.8265   19.1075  -17.3173 N   0  0  0  0  0  0  0  0  0  0  0  0
  -31.6952   18.6010  -15.2294 N   0  0  0  0  0  0  0  0  0  0  0  0
  -31.7070   17.8062  -14.1536 C   0  0  0  0  0  0  0  0  0  0  0  0
  -30.9721   16.7233  -13.9035 N   0  0  0  0  0  0  0  0  0  0  0  0
  -30.1352   16.4693  -14.9220 C   0  0  0  0  0  0  0  0  0  0  0  0
  1 10  1  0  0  0  0
  2  3  2  0  0  0  0
  2  1  1  0  0  0  0
  3  4  1  0  0  0  0
  4 10  2  0  0  0  0
  4  5  1  0  0  0  0
  5  7  2  0  0  0  0
  6  5  1  0  0  0  0
  7  8  1  0  0  0  0
  9  8  2  0  0  0  0
 10  9  1  0  0  0  0
M  END
>  <CHROM.1>
-30.31541373,17.22355884,-15.63248222,0.50925640,-0.77142494,2.21460396

>  <Name>
lig.pdb

>  <RI>
2.26746e+07

>  <Rbt.Current_Directory>
/home/itssahil/PROJECTS/Mol_Feturizer/New_Systems/rnas/5uza

>  <Rbt.Executable>
rbdock ($Id: //depot/dev/client3/rdock/2013.1/src/exe/rbdock.cxx#4 $)

>  <Rbt.Library>
libRbt.so (2013.1, Build901 2013/11/27)

>  <Rbt.Parameter_File>
/export/apps/rDock/src/rDock_2013.1_src/data/scripts/dock_solv.prm

>  <Rbt.Receptor>
prm/blind_docking_100.prm

>  <SCORE>
-32.7921

>  <SCORE.INTER>
-32.793

>  <SCORE.INTER.CONST>
1

>  <SCORE.INTER.POLAR>
-4.11786

>  <SCORE.INTER.ROT>
0

>  <SCORE.INTER.SOLV>
11.983

>  <SCORE.INTER.VDW>
-15.7302

>  <SCORE.INTER.norm>
-3.2793

>  <SCORE.INTRA>
0

>  <SCORE.INTRA.DIHEDRAL>
0

>  <SCORE.INTRA.DIHEDRAL.0>
0

>  <SCORE.INTRA.POLAR>
0

>  <SCORE.INTRA.POLAR.0>
0

>  <SCORE.INTRA.REPUL>
0

>  <SCORE.INTRA.REPUL.0>
0

>  <SCORE.INTRA.SOLV>
0

>  <SCORE.INTRA.SOLV.lig_0>
-14.8845

>  <SCORE.INTRA.VDW>
0

>  <SCORE.INTRA.VDW.0>
0

>  <SCORE.INTRA.norm>
0

>  <SCORE.RESTR>
0.000957976

>  <SCORE.RESTR.CAVITY>
0.000957976

>  <SCORE.RESTR.norm>
9.57976e-05

>  <SCORE.SYSTEM>
0

>  <SCORE.SYSTEM.CONST>
0

>  <SCORE.SYSTEM.DIHEDRAL>
0

>  <SCORE.SYSTEM.SOLV>
0

>  <SCORE.SYSTEM.norm>
0

>  <SCORE.heavy>
10

>  <SCORE.norm>
-3.27921

>  <RMSD>
2.948

$$$$
lig.pdb
 OpenBabel11021811523D
libRbt.so/2013.1/901 2013/11/27
 10 11  0  0  0  0  0  0  0  0999 V2000
  -29.2139   15.4534  -15.0127 N   0  0  0  0  0  0  0  0  0  0  0  0
  -28.6132   15.6011  -16.2327 C   0  0  0  0  0  0  0  0  0  0  0  0
  -29.0527   16.6288  -16.9190 N   0  0  0  0  0  0  0  0  0  0  0  0
  -30.0093   17.1950  -16.0935 C   0  0  0  0  0  0  0  0  0  0  0  0
  -30.8431   18.3188  -16.2405 C   0  0  0  0  0  0  0  0  0  0  0  0
  -30.8417   19.0955  -17.3289 N   0  0  0  0  0  0  0  0  0  0  0  0
  -31.6847   18.6122  -15.2251 N   0  0  0  0  0  0  0  0  0  0  0  0
  -31.6833   17.8292  -14.1406 C   0  0  0  0  0  0  0  0  0  0  0  0
  -30.9456   16.7488  -13.8877 N   0  0  0  0  0  0  0  0  0  0  0  0
  -30.1214   16.4834  -14.9137 C   0  0  0  0  0  0  0  0  0  0  0  0
  1 10  1  0  0  0  0
  2  3  2  0  0  0  0
  2  1  1  0  0  0  0
  3  4  1  0  0  0  0
  4 10  2  0  0  0  0
  4  5  1  0  0  0  0
  5  7  2  0  0  0  0
  6  5  1  0  0  0  0
  7  8  1  0  0  0  0
  9  8  2  0  0  0  0
 10  9  1  0  0  0  0
M  END
>  <CHROM.1>
-30.31020480,17.22996036,-15.63007160,0.49553692,-0.77896700,2.19407032

>  <Name>
lig.pdb

>  <RI>
9.24451e+06

>  <Rbt.Current_Directory>
/home/itssahil/PROJECTS/Mol_Feturizer/New_Systems/rnas/5uza

>  <Rbt.Executable>
rbdock ($Id: //depot/dev/client3/rdock/2013.1/src/exe/rbdock.cxx#4 $)

>  <Rbt.Library>
libRbt.so (2013.1, Build901 2013/11/27)

>  <Rbt.Parameter_File>
/export/apps/rDock/src/rDock_2013.1_src/data/scripts/dock_solv.prm

>  <Rbt.Receptor>
prm/pocket_docking_4.prm

>  <SCORE>
-32.8315

>  <SCORE.INTER>
-32.8315

>  <SCORE.INTER.CONST>
1

>  <SCORE.INTER.POLAR>
-4.11187

>  <SCORE.INTER.ROT>
0

>  <SCORE.INTER.SOLV>
11.9276

>  <SCORE.INTER.VDW>
-15.7573

>  <SCORE.INTER.norm>
-3.28315

>  <SCORE.INTRA>
0

>  <SCORE.INTRA.DIHEDRAL>
0

>  <SCORE.INTRA.DIHEDRAL.0>
0

>  <SCORE.INTRA.POLAR>
0

>  <SCORE.INTRA.POLAR.0>
0

>  <SCORE.INTRA.REPUL>
0

>  <SCORE.INTRA.REPUL.0>
0

>  <SCORE.INTRA.SOLV>
0

>  <SCORE.INTRA.SOLV.lig_0>
-14.8845

>  <SCORE.INTRA.VDW>
0

>  <SCORE.INTRA.VDW.0>
0

>  <SCORE.INTRA.norm>
0

>  <SCORE.RESTR>
1.93993e-05

>  <SCORE.RESTR.CAVITY>
1.93993e-05

>  <SCORE.RESTR.norm>
1.93993e-06

>  <SCORE.SYSTEM>
0

>  <SCORE.SYSTEM.CONST>
0

>  <SCORE.SYSTEM.DIHEDRAL>
0

>  <SCORE.SYSTEM.SOLV>
0

>  <SCORE.SYSTEM.norm>
0

>  <SCORE.heavy>
10

>  <SCORE.norm>
-3.28315

>  <RMSD>
2.948

$$$$
lig.pdb
 OpenBabel11021811523D
libRbt.so/2013.1/901 2013/11/27
 10 11  0  0  0  0  0  0  0  0999 V2000
  -29.1834   15.4762  -14.9987 N   0  0  0  0  0  0  0  0  0  0  0  0
  -28.5911   15.6184  -16.2234 C   0  0  0  0  0  0  0  0  0  0  0  0
  -29.0478   16.6326  -16.9185 N   0  0  0  0  0  0  0  0  0  0  0  0
  -30.0075   17.1952  -16.0940 C   0  0  0  0  0  0  0  0  0  0  0  0
  -30.8569   18.3062  -16.2488 C   0  0  0  0  0  0  0  0  0  0  0  0
  -30.8715   19.0709  -17.3456 N   0  0  0  0  0  0  0  0  0  0  0  0
  -31.6969   18.5995  -15.2321 N   0  0  0  0  0  0  0  0  0  0  0  0
  -31.6795   17.8286  -14.1391 C   0  0  0  0  0  0  0  0  0  0  0  0
  -30.9262   16.7609  -13.8785 N   0  0  0  0  0  0  0  0  0  0  0  0
  -30.1040   16.4952  -14.9060 C   0  0  0  0  0  0  0  0  0  0  0  0
  1 10  1  0  0  0  0
  2  3  2  0  0  0  0
  2  1  1  0  0  0  0
  3  4  1  0  0  0  0
  4 10  2  0  0  0  0
  4  5  1  0  0  0  0
  5  7  2  0  0  0  0
  6  5  1  0  0  0  0
  7  8  1  0  0  0  0
  9  8  2  0  0  0  0
 10  9  1  0  0  0  0
M  END
>  <CHROM.1>
-30.30638459,17.23123973,-15.62942718,0.47880488,-0.77119976,2.17144670

>  <Name>
lig.pdb

>  <RI>
1.17775e+07

>  <Rbt.Current_Directory>
/home/itssahil/PROJECTS/Mol_Feturizer/New_Systems/rnas/5uza

>  <Rbt.Executable>
rbdock ($Id: //depot/dev/client3/rdock/2013.1/src/exe/rbdock.cxx#4 $)

>  <Rbt.Library>
libRbt.so (2013.1, Build901 2013/11/27)

>  <Rbt.Parameter_File>
/export/apps/rDock/src/rDock_2013.1_src/data/scripts/dock_solv.prm

>  <Rbt.Receptor>
prm/pocket_docking_8.prm

>  <SCORE>
-32.7897

>  <SCORE.INTER>
-32.7897

>  <SCORE.INTER.CONST>
1

>  <SCORE.INTER.POLAR>
-4.10217

>  <SCORE.INTER.ROT>
0

>  <SCORE.INTER.SOLV>
11.8351

>  <SCORE.INTER.VDW>
-15.7309

>  <SCORE.INTER.norm>
-3.27897

>  <SCORE.INTRA>
0

>  <SCORE.INTRA.DIHEDRAL>
0

>  <SCORE.INTRA.DIHEDRAL.0>
0

>  <SCORE.INTRA.POLAR>
0

>  <SCORE.INTRA.POLAR.0>
0

>  <SCORE.INTRA.REPUL>
0

>  <SCORE.INTRA.REPUL.0>
0

>  <SCORE.INTRA.SOLV>
0

>  <SCORE.INTRA.SOLV.lig_0>
-14.8845

>  <SCORE.INTRA.VDW>
0

>  <SCORE.INTRA.VDW.0>
0

>  <SCORE.INTRA.norm>
0

>  <SCORE.RESTR>
0

>  <SCORE.RESTR.CAVITY>
0

>  <SCORE.RESTR.norm>
0

>  <SCORE.SYSTEM>
0

>  <SCORE.SYSTEM.CONST>
0

>  <SCORE.SYSTEM.DIHEDRAL>
0

>  <SCORE.SYSTEM.SOLV>
0

>  <SCORE.SYSTEM.norm>
0

>  <SCORE.heavy>
10

>  <SCORE.norm>
-3.27897

>  <RMSD>
2.948

$$$$
lig.pdb
 OpenBabel11021811523D
libRbt.so/2013.1/901 2013/11/27
 10 11  0  0  0  0  0  0  0  0999 V2000
  -29.1830   15.4721  -15.0009 N   0  0  0  0  0  0  0  0  0  0  0  0
  -28.5893   15.6170  -16.2245 C   0  0  0  0  0  0  0  0  0  0  0  0
  -29.0437   16.6341  -16.9170 N   0  0  0  0  0  0  0  0  0  0  0  0
  -30.0034   17.1957  -16.0919 C   0  0  0  0  0  0  0  0  0  0  0  0
  -30.8509   18.3085  -16.2442 C   0  0  0  0  0  0  0  0  0  0  0  0
  -30.8632   19.0765  -17.3386 N   0  0  0  0  0  0  0  0  0  0  0  0
  -31.6915   18.6000  -15.2274 N   0  0  0  0  0  0  0  0  0  0  0  0
  -31.6764   17.8258  -14.1368 C   0  0  0  0  0  0  0  0  0  0  0  0
  -30.9250   16.7561  -13.8786 N   0  0  0  0  0  0  0  0  0  0  0  0
  -30.1021   16.4922  -14.9060 C   0  0  0  0  0  0  0  0  0  0  0  0
  1 10  1  0  0  0  0
  2  3  2  0  0  0  0
  2  1  1  0  0  0  0
  3  4  1  0  0  0  0
  4 10  2  0  0  0  0
  4  5  1  0  0  0  0
  5  7  2  0  0  0  0
  6  5  1  0  0  0  0
  7  8  1  0  0  0  0
  9  8  2  0  0  0  0
 10  9  1  0  0  0  0
M  END
>  <CHROM.1>
-30.30268166,17.23078192,-15.62744439,0.48120614,-0.77189649,2.17613347

>  <Name>
lig.pdb

>  <RI>
0

>  <Rbt.Current_Directory>
/home/itssahil/PROJECTS/Mol_Feturizer/New_Systems/rnas/5uza

>  <Rbt.Executable>
rbdock ($Id: //depot/dev/client3/rdock/2013.1/src/exe/rbdock.cxx#4 $)

>  <Rbt.Library>
libRbt.so (2013.1, Build901 2013/11/27)

>  <Rbt.Parameter_File>
/export/apps/rDock/src/rDock_2013.1_src/data/scripts/dock_solv.prm

>  <Rbt.Receptor>
prm/blind_docking_60.prm

>  <SCORE>
-32.7825

>  <SCORE.INTER>
-32.7826

>  <SCORE.INTER.CONST>
1

>  <SCORE.INTER.POLAR>
-4.10128

>  <SCORE.INTER.ROT>
0

>  <SCORE.INTER.SOLV>
11.8484

>  <SCORE.INTER.VDW>
-15.7336

>  <SCORE.INTER.norm>
-3.27826

>  <SCORE.INTRA>
0

>  <SCORE.INTRA.DIHEDRAL>
0

>  <SCORE.INTRA.DIHEDRAL.0>
0

>  <SCORE.INTRA.POLAR>
0

>  <SCORE.INTRA.POLAR.0>
0

>  <SCORE.INTRA.REPUL>
0

>  <SCORE.INTRA.REPUL.0>
0

>  <SCORE.INTRA.SOLV>
0

>  <SCORE.INTRA.SOLV.lig_0>
-14.8845

>  <SCORE.INTRA.VDW>
0

>  <SCORE.INTRA.VDW.0>
0

>  <SCORE.INTRA.norm>
0

>  <SCORE.RESTR>
2.82961e-05

>  <SCORE.RESTR.CAVITY>
2.82961e-05

>  <SCORE.RESTR.norm>
2.82961e-06

>  <SCORE.SYSTEM>
0

>  <SCORE.SYSTEM.CONST>
0

>  <SCORE.SYSTEM.DIHEDRAL>
0

>  <SCORE.SYSTEM.SOLV>
0

>  <SCORE.SYSTEM.norm>
0

>  <SCORE.heavy>
10

>  <SCORE.norm>
-3.27825

>  <RMSD>
2.949

$$$$
lig.pdb
 OpenBabel11021811523D
libRbt.so/2013.1/901 2013/11/27
 10 11  0  0  0  0  0  0  0  0999 V2000
  -29.1749   15.4823  -15.0013 N   0  0  0  0  0  0  0  0  0  0  0  0
  -28.5739   15.6326  -16.2209 C   0  0  0  0  0  0  0  0  0  0  0  0
  -29.0283   16.6493  -16.9139 N   0  0  0  0  0  0  0  0  0  0  0  0
  -29.9958   17.2048  -16.0937 C   0  0  0  0  0  0  0  0  0  0  0  0
  -30.8471   18.3143  -16.2489 C   0  0  0  0  0  0  0  0  0  0  0  0
  -30.8557   19.0847  -17.3417 N   0  0  0  0  0  0  0  0  0  0  0  0
  -31.6954   18.5999  -15.2369 N   0  0  0  0  0  0  0  0  0  0  0  0
  -31.6839   17.8233  -14.1479 C   0  0  0  0  0  0  0  0  0  0  0  0
  -30.9295   16.7562  -13.8874 N   0  0  0  0  0  0  0  0  0  0  0  0
  -30.0990   16.4983  -14.9101 C   0  0  0  0  0  0  0  0  0  0  0  0
  1 10  1  0  0  0  0
  2  3  2  0  0  0  0
  2  1  1  0  0  0  0
  3  4  1  0  0  0  0
  4 10  2  0  0  0  0
  4  5  1  0  0  0  0
  5  7  2  0  0  0  0
  6  5  1  0  0  0  0
  7  8  1  0  0  0  0
  9  8  2  0  0  0  0
 10  9  1  0  0  0  0
M  END
>  <CHROM.1>
-30.29813902,17.23757423,-15.63112190,0.48504642,-0.76467747,2.18105113

>  <Name>
lig.pdb

>  <RI>
2.12818e+07

>  <Rbt.Current_Directory>
/home/itssahil/PROJECTS/Mol_Feturizer/New_Systems/rnas/5uza

>  <Rbt.Executable>
rbdock ($Id: //depot/dev/client3/rdock/2013.1/src/exe/rbdock.cxx#4 $)

>  <Rbt.Library>
libRbt.so (2013.1, Build901 2013/11/27)

>  <Rbt.Parameter_File>
/export/apps/rDock/src/rDock_2013.1_src/data/scripts/dock_solv.prm

>  <Rbt.Receptor>
prm/pocket_docking_7.prm

>  <SCORE>
-32.7622

>  <SCORE.INTER>
-32.7622

>  <SCORE.INTER.CONST>
1

>  <SCORE.INTER.POLAR>
-4.10144

>  <SCORE.INTER.ROT>
0

>  <SCORE.INTER.SOLV>
11.8551

>  <SCORE.INTER.VDW>
-15.7217

>  <SCORE.INTER.norm>
-3.27622

>  <SCORE.INTRA>
0

>  <SCORE.INTRA.DIHEDRAL>
0

>  <SCORE.INTRA.DIHEDRAL.0>
0

>  <SCORE.INTRA.POLAR>
0

>  <SCORE.INTRA.POLAR.0>
0

>  <SCORE.INTRA.REPUL>
0

>  <SCORE.INTRA.REPUL.0>
0

>  <SCORE.INTRA.SOLV>
0

>  <SCORE.INTRA.SOLV.lig_0>
-14.8845

>  <SCORE.INTRA.VDW>
0

>  <SCORE.INTRA.VDW.0>
0

>  <SCORE.INTRA.norm>
0

>  <SCORE.RESTR>
0

>  <SCORE.RESTR.CAVITY>
0

>  <SCORE.RESTR.norm>
0

>  <SCORE.SYSTEM>
0

>  <SCORE.SYSTEM.CONST>
0

>  <SCORE.SYSTEM.DIHEDRAL>
0

>  <SCORE.SYSTEM.SOLV>
0

>  <SCORE.SYSTEM.norm>
0

>  <SCORE.heavy>
10

>  <SCORE.norm>
-3.27622

>  <RMSD>
2.949

$$$$
lig.pdb
 OpenBabel11021811523D
libRbt.so/2013.1/901 2013/11/27
 10 11  0  0  0  0  0  0  0  0999 V2000
  -29.2048   15.4532  -15.0202 N   0  0  0  0  0  0  0  0  0  0  0  0
  -28.5593   15.6426  -16.2112 C   0  0  0  0  0  0  0  0  0  0  0  0
  -28.9922   16.6780  -16.8899 N   0  0  0  0  0  0  0  0  0  0  0  0
  -29.9924   17.2050  -16.0903 C   0  0  0  0  0  0  0  0  0  0  0  0
  -30.8426   18.3155  -16.2440 C   0  0  0  0  0  0  0  0  0  0  0  0
  -30.8140   19.1186  -17.3127 N   0  0  0  0  0  0  0  0  0  0  0  0
  -31.7297   18.5672  -15.2565 N   0  0  0  0  0  0  0  0  0  0  0  0
  -31.7553   17.7580  -14.1918 C   0  0  0  0  0  0  0  0  0  0  0  0
  -31.0061   16.6864  -13.9352 N   0  0  0  0  0  0  0  0  0  0  0  0
  -30.1366   16.4625  -14.9333 C   0  0  0  0  0  0  0  0  0  0  0  0
  1 10  1  0  0  0  0
  2  3  2  0  0  0  0
  2  1  1  0  0  0  0
  3  4  1  0  0  0  0
  4 10  2  0  0  0  0
  4  5  1  0  0  0  0
  5  7  2  0  0  0  0
  6  5  1  0  0  0  0
  7  8  1  0  0  0  0
  9  8  2  0  0  0  0
 10  9  1  0  0  0  0
M  END
>  <CHROM.1>
-30.31207126,17.22257214,-15.63870596,0.52290810,-0.73887541,2.23711262

>  <Name>
lig.pdb

>  <RI>
2.26746e+07

>  <Rbt.Current_Directory>
/home/itssahil/PROJECTS/Mol_Feturizer/New_Systems/rnas/5uza

>  <Rbt.Executable>
rbdock ($Id: //depot/dev/client3/rdock/2013.1/src/exe/rbdock.cxx#4 $)

>  <Rbt.Library>
libRbt.so (2013.1, Build901 2013/11/27)

>  <Rbt.Parameter_File>
/export/apps/rDock/src/rDock_2013.1_src/data/scripts/dock_solv.prm

>  <Rbt.Receptor>
prm/blind_docking_100.prm

>  <SCORE>
-32.7725

>  <SCORE.INTER>
-32.7725

>  <SCORE.INTER.CONST>
1

>  <SCORE.INTER.POLAR>
-4.12318

>  <SCORE.INTER.ROT>
0

>  <SCORE.INTER.SOLV>
12.0042

>  <SCORE.INTER.VDW>
-15.7058

>  <SCORE.INTER.norm>
-3.27725

>  <SCORE.INTRA>
0

>  <SCORE.INTRA.DIHEDRAL>
0

>  <SCORE.INTRA.DIHEDRAL.0>
0

>  <SCORE.INTRA.POLAR>
0

>  <SCORE.INTRA.POLAR.0>
0

>  <SCORE.INTRA.REPUL>
0

>  <SCORE.INTRA.REPUL.0>
0

>  <SCORE.INTRA.SOLV>
0

>  <SCORE.INTRA.SOLV.lig_0>
-14.8845

>  <SCORE.INTRA.VDW>
0

>  <SCORE.INTRA.VDW.0>
0

>  <SCORE.INTRA.norm>
0

>  <SCORE.RESTR>
0

>  <SCORE.RESTR.CAVITY>
0

>  <SCORE.RESTR.norm>
0

>  <SCORE.SYSTEM>
0

>  <SCORE.SYSTEM.CONST>
0

>  <SCORE.SYSTEM.DIHEDRAL>
0

>  <SCORE.SYSTEM.SOLV>
0

>  <SCORE.SYSTEM.norm>
0

>  <SCORE.heavy>
10

>  <SCORE.norm>
-3.27725

>  <RMSD>
2.951

$$$$
lig.pdb
 OpenBabel11021811523D
libRbt.so/2013.1/901 2013/11/27
 10 11  0  0  0  0  0  0  0  0999 V2000
  -29.2081   15.4505  -15.0192 N   0  0  0  0  0  0  0  0  0  0  0  0
  -28.5624   15.6397  -16.2101 C   0  0  0  0  0  0  0  0  0  0  0  0
  -28.9943   16.6759  -16.8884 N   0  0  0  0  0  0  0  0  0  0  0  0
  -29.9940   17.2035  -16.0886 C   0  0  0  0  0  0  0  0  0  0  0  0
  -30.8432   18.3148  -16.2419 C   0  0  0  0  0  0  0  0  0  0  0  0
  -30.8137   19.1184  -17.3102 N   0  0  0  0  0  0  0  0  0  0  0  0
  -31.7300   18.5670  -15.2543 N   0  0  0  0  0  0  0  0  0  0  0  0
  -31.7565   17.7574  -14.1899 C   0  0  0  0  0  0  0  0  0  0  0  0
  -31.0083   16.6849  -13.9338 N   0  0  0  0  0  0  0  0  0  0  0  0
  -30.1389   16.4607  -14.9319 C   0  0  0  0  0  0  0  0  0  0  0  0
  1 10  1  0  0  0  0
  2  3  2  0  0  0  0
  2  1  1  0  0  0  0
  3  4  1  0  0  0  0
  4 10  2  0  0  0  0
  4  5  1  0  0  0  0
  5  7  2  0  0  0  0
  6  5  1  0  0  0  0
  7  8  1  0  0  0  0
  9  8  2  0  0  0  0
 10  9  1  0  0  0  0
M  END
>  <CHROM.1>
-30.31368013,17.22118450,-15.63701275,0.52377325,-0.73959333,2.23812094

>  <Name>
lig.pdb

>  <RI>
0

>  <Rbt.Current_Directory>
/home/itssahil/PROJECTS/Mol_Feturizer/New_Systems/rnas/5uza

>  <Rbt.Executable>
rbdock ($Id: //depot/dev/client3/rdock/2013.1/src/exe/rbdock.cxx#4 $)

>  <Rbt.Library>
libRbt.so (2013.1, Build901 2013/11/27)

>  <Rbt.Parameter_File>
/export/apps/rDock/src/rDock_2013.1_src/data/scripts/dock_solv.prm

>  <Rbt.Receptor>
prm/pocket_docking_5.prm

>  <SCORE>
-32.7659

>  <SCORE.INTER>
-32.7659

>  <SCORE.INTER.CONST>
1

>  <SCORE.INTER.POLAR>
-4.12575

>  <SCORE.INTER.ROT>
0

>  <SCORE.INTER.SOLV>
12.0101

>  <SCORE.INTER.VDW>
-15.6948

>  <SCORE.INTER.norm>
-3.27659

>  <SCORE.INTRA>
0

>  <SCORE.INTRA.DIHEDRAL>
0

>  <SCORE.INTRA.DIHEDRAL.0>
0

>  <SCORE.INTRA.POLAR>
0

>  <SCORE.INTRA.POLAR.0>
0

>  <SCORE.INTRA.REPUL>
0

>  <SCORE.INTRA.REPUL.0>
0

>  <SCORE.INTRA.SOLV>
0

>  <SCORE.INTRA.SOLV.lig_0>
-14.8845

>  <SCORE.INTRA.VDW>
0

>  <SCORE.INTRA.VDW.0>
0

>  <SCORE.INTRA.norm>
0

>  <SCORE.RESTR>
0

>  <SCORE.RESTR.CAVITY>
0

>  <SCORE.RESTR.norm>
0

>  <SCORE.SYSTEM>
0

>  <SCORE.SYSTEM.CONST>
0

>  <SCORE.SYSTEM.DIHEDRAL>
0

>  <SCORE.SYSTEM.SOLV>
0

>  <SCORE.SYSTEM.norm>
0

>  <SCORE.heavy>
10

>  <SCORE.norm>
-3.27659

>  <RMSD>
2.951

$$$$
lig.pdb
 OpenBabel11021811523D
libRbt.so/2013.1/901 2013/11/27
 10 11  0  0  0  0  0  0  0  0999 V2000
  -29.1772   15.4779  -14.9996 N   0  0  0  0  0  0  0  0  0  0  0  0
  -28.5525   15.6487  -16.2044 C   0  0  0  0  0  0  0  0  0  0  0  0
  -28.9946   16.6761  -16.8896 N   0  0  0  0  0  0  0  0  0  0  0  0
  -29.9788   17.2171  -16.0797 C   0  0  0  0  0  0  0  0  0  0  0  0
  -30.8284   18.3281  -16.2336 C   0  0  0  0  0  0  0  0  0  0  0  0
  -30.8165   19.1162  -17.3137 N   0  0  0  0  0  0  0  0  0  0  0  0
  -31.6969   18.5962  -15.2341 N   0  0  0  0  0  0  0  0  0  0  0  0
  -31.7059   17.8019  -14.1579 C   0  0  0  0  0  0  0  0  0  0  0  0
  -30.9553   16.7315  -13.8999 N   0  0  0  0  0  0  0  0  0  0  0  0
  -30.1044   16.4912  -14.9101 C   0  0  0  0  0  0  0  0  0  0  0  0
  1 10  1  0  0  0  0
  2  3  2  0  0  0  0
  2  1  1  0  0  0  0
  3  4  1  0  0  0  0
  4 10  2  0  0  0  0
  4  5  1  0  0  0  0
  5  7  2  0  0  0  0
  6  5  1  0  0  0  0
  7  8  1  0  0  0  0
  9  8  2  0  0  0  0
 10  9  1  0  0  0  0
M  END
>  <CHROM.1>
-30.29025996,17.24199771,-15.62275388,0.50613361,-0.75211180,2.21188729

>  <Name>
lig.pdb

>  <RI>
2.12818e+07

>  <Rbt.Current_Directory>
/home/itssahil/PROJECTS/Mol_Feturizer/New_Systems/rnas/5uza

>  <Rbt.Executable>
rbdock ($Id: //depot/dev/client3/rdock/2013.1/src/exe/rbdock.cxx#4 $)

>  <Rbt.Library>
libRbt.so (2013.1, Build901 2013/11/27)

>  <Rbt.Parameter_File>
/export/apps/rDock/src/rDock_2013.1_src/data/scripts/dock_solv.prm

>  <Rbt.Receptor>
prm/pocket_docking_7.prm

>  <SCORE>
-32.7504

>  <SCORE.INTER>
-32.7504

>  <SCORE.INTER.CONST>
1

>  <SCORE.INTER.POLAR>
-4.123

>  <SCORE.INTER.ROT>
0

>  <SCORE.INTER.SOLV>
11.9457

>  <SCORE.INTER.VDW>
-15.6722

>  <SCORE.INTER.norm>
-3.27504

>  <SCORE.INTRA>
0

>  <SCORE.INTRA.DIHEDRAL>
0

>  <SCORE.INTRA.DIHEDRAL.0>
0

>  <SCORE.INTRA.POLAR>
0

>  <SCORE.INTRA.POLAR.0>
0

>  <SCORE.INTRA.REPUL>
0

>  <SCORE.INTRA.REPUL.0>
0

>  <SCORE.INTRA.SOLV>
0

>  <SCORE.INTRA.SOLV.lig_0>
-14.8845

>  <SCORE.INTRA.VDW>
0

>  <SCORE.INTRA.VDW.0>
0

>  <SCORE.INTRA.norm>
0

>  <SCORE.RESTR>
0

>  <SCORE.RESTR.CAVITY>
0

>  <SCORE.RESTR.norm>
0

>  <SCORE.SYSTEM>
0

>  <SCORE.SYSTEM.CONST>
0

>  <SCORE.SYSTEM.DIHEDRAL>
0

>  <SCORE.SYSTEM.SOLV>
0

>  <SCORE.SYSTEM.norm>
0

>  <SCORE.heavy>
10

>  <SCORE.norm>
-3.27504

>  <RMSD>
2.953

$$$$
lig.pdb
 OpenBabel11021811523D
libRbt.so/2013.1/901 2013/11/27
 10 11  0  0  0  0  0  0  0  0999 V2000
  -31.4897   18.4924  -14.1807 N   0  0  0  0  0  0  0  0  0  0  0  0
  -30.9938   17.4486  -13.4489 C   0  0  0  0  0  0  0  0  0  0  0  0
  -30.3711   16.5457  -14.1682 N   0  0  0  0  0  0  0  0  0  0  0  0
  -30.4653   17.0289  -15.4624 C   0  0  0  0  0  0  0  0  0  0  0  0
  -30.0008   16.5344  -16.6951 C   0  0  0  0  0  0  0  0  0  0  0  0
  -29.3257   15.3867  -16.8173 N   0  0  0  0  0  0  0  0  0  0  0  0
  -30.2614   17.2644  -17.8016 N   0  0  0  0  0  0  0  0  0  0  0  0
  -30.9400   18.4099  -17.6728 C   0  0  0  0  0  0  0  0  0  0  0  0
  -31.4258   18.9766  -16.5690 N   0  0  0  0  0  0  0  0  0  0  0  0
  -31.1514   18.2286  -15.4885 C   0  0  0  0  0  0  0  0  0  0  0  0
  1 10  1  0  0  0  0
  2  3  2  0  0  0  0
  2  1  1  0  0  0  0
  3  4  1  0  0  0  0
  4 10  2  0  0  0  0
  4  5  1  0  0  0  0
  5  7  2  0  0  0  0
  6  5  1  0  0  0  0
  7  8  1  0  0  0  0
  9  8  2  0  0  0  0
 10  9  1  0  0  0  0
M  END
>  <CHROM.1>
-30.61927203,17.39549622,-15.84755361,2.18288973,-1.03562195,1.81571314

>  <Name>
lig.pdb

>  <RI>
0

>  <Rbt.Current_Directory>
/home/itssahil/PROJECTS/Mol_Feturizer/New_Systems/rnas/5uza

>  <Rbt.Executable>
rbdock ($Id: //depot/dev/client3/rdock/2013.1/src/exe/rbdock.cxx#4 $)

>  <Rbt.Library>
libRbt.so (2013.1, Build901 2013/11/27)

>  <Rbt.Parameter_File>
/export/apps/rDock/src/rDock_2013.1_src/data/scripts/dock_solv.prm

>  <Rbt.Receptor>
prm/blind_docking_60.prm

>  <SCORE>
-29.1432

>  <SCORE.INTER>
-29.1432

>  <SCORE.INTER.CONST>
1

>  <SCORE.INTER.POLAR>
-3.77293

>  <SCORE.INTER.ROT>
0

>  <SCORE.INTER.SOLV>
11.846

>  <SCORE.INTER.VDW>
-14.4011

>  <SCORE.INTER.norm>
-2.91432

>  <SCORE.INTRA>
0

>  <SCORE.INTRA.DIHEDRAL>
0

>  <SCORE.INTRA.DIHEDRAL.0>
0

>  <SCORE.INTRA.POLAR>
0

>  <SCORE.INTRA.POLAR.0>
0

>  <SCORE.INTRA.REPUL>
0

>  <SCORE.INTRA.REPUL.0>
0

>  <SCORE.INTRA.SOLV>
0

>  <SCORE.INTRA.SOLV.lig_0>
-14.8845

>  <SCORE.INTRA.VDW>
0

>  <SCORE.INTRA.VDW.0>
0

>  <SCORE.INTRA.norm>
0

>  <SCORE.RESTR>
0

>  <SCORE.RESTR.CAVITY>
0

>  <SCORE.RESTR.norm>
0

>  <SCORE.SYSTEM>
0

>  <SCORE.SYSTEM.CONST>
0

>  <SCORE.SYSTEM.DIHEDRAL>
0

>  <SCORE.SYSTEM.SOLV>
0

>  <SCORE.SYSTEM.norm>
0

>  <SCORE.heavy>
10

>  <SCORE.norm>
-2.91432

>  <RMSD>
2.955

$$$$
lig.pdb
 OpenBabel11021811523D
libRbt.so/2013.1/901 2013/11/27
 10 11  0  0  0  0  0  0  0  0999 V2000
  -29.1534   15.5014  -14.9700 N   0  0  0  0  0  0  0  0  0  0  0  0
  -28.5501   15.6517  -16.1883 C   0  0  0  0  0  0  0  0  0  0  0  0
  -29.0110   16.6616  -16.8870 N   0  0  0  0  0  0  0  0  0  0  0  0
  -29.9854   17.2124  -16.0719 C   0  0  0  0  0  0  0  0  0  0  0  0
  -30.8456   18.3140  -16.2342 C   0  0  0  0  0  0  0  0  0  0  0  0
  -30.8574   19.0798  -17.3302 N   0  0  0  0  0  0  0  0  0  0  0  0
  -31.6992   18.5966  -15.2259 N   0  0  0  0  0  0  0  0  0  0  0  0
  -31.6844   17.8247  -14.1336 C   0  0  0  0  0  0  0  0  0  0  0  0
  -30.9219   16.7651  -13.8664 N   0  0  0  0  0  0  0  0  0  0  0  0
  -30.0862   16.5099  -14.8857 C   0  0  0  0  0  0  0  0  0  0  0  0
  1 10  1  0  0  0  0
  2  3  2  0  0  0  0
  2  1  1  0  0  0  0
  3  4  1  0  0  0  0
  4 10  2  0  0  0  0
  4  5  1  0  0  0  0
  5  7  2  0  0  0  0
  6  5  1  0  0  0  0
  7  8  1  0  0  0  0
  9  8  2  0  0  0  0
 10  9  1  0  0  0  0
M  END
>  <CHROM.1>
-30.28942296,17.24450201,-15.61033104,0.48177466,-0.75611204,2.17464974

>  <Name>
lig.pdb

>  <RI>
2.12818e+07

>  <Rbt.Current_Directory>
/home/itssahil/PROJECTS/Mol_Feturizer/New_Systems/rnas/5uza

>  <Rbt.Executable>
rbdock ($Id: //depot/dev/client3/rdock/2013.1/src/exe/rbdock.cxx#4 $)

>  <Rbt.Library>
libRbt.so (2013.1, Build901 2013/11/27)

>  <Rbt.Parameter_File>
/export/apps/rDock/src/rDock_2013.1_src/data/scripts/dock_solv.prm

>  <Rbt.Receptor>
prm/pocket_docking_7.prm

>  <SCORE>
-32.762

>  <SCORE.INTER>
-32.762

>  <SCORE.INTER.CONST>
1

>  <SCORE.INTER.POLAR>
-4.1243

>  <SCORE.INTER.ROT>
0

>  <SCORE.INTER.SOLV>
11.8378

>  <SCORE.INTER.VDW>
-15.6396

>  <SCORE.INTER.norm>
-3.2762

>  <SCORE.INTRA>
0

>  <SCORE.INTRA.DIHEDRAL>
0

>  <SCORE.INTRA.DIHEDRAL.0>
0

>  <SCORE.INTRA.POLAR>
0

>  <SCORE.INTRA.POLAR.0>
0

>  <SCORE.INTRA.REPUL>
0

>  <SCORE.INTRA.REPUL.0>
0

>  <SCORE.INTRA.SOLV>
0

>  <SCORE.INTRA.SOLV.lig_0>
-14.8845

>  <SCORE.INTRA.VDW>
0

>  <SCORE.INTRA.VDW.0>
0

>  <SCORE.INTRA.norm>
0

>  <SCORE.RESTR>
0

>  <SCORE.RESTR.CAVITY>
0

>  <SCORE.RESTR.norm>
0

>  <SCORE.SYSTEM>
0

>  <SCORE.SYSTEM.CONST>
0

>  <SCORE.SYSTEM.DIHEDRAL>
0

>  <SCORE.SYSTEM.SOLV>
0

>  <SCORE.SYSTEM.norm>
0

>  <SCORE.heavy>
10

>  <SCORE.norm>
-3.2762

>  <RMSD>
2.956

$$$$
lig.pdb
 OpenBabel11021811523D
libRbt.so/2013.1/901 2013/11/27
 10 11  0  0  0  0  0  0  0  0999 V2000
  -29.1675   15.4891  -14.9765 N   0  0  0  0  0  0  0  0  0  0  0  0
  -28.5590   15.6439  -16.1917 C   0  0  0  0  0  0  0  0  0  0  0  0
  -29.0117   16.6608  -16.8854 N   0  0  0  0  0  0  0  0  0  0  0  0
  -29.9860   17.2118  -16.0703 C   0  0  0  0  0  0  0  0  0  0  0  0
  -30.8395   18.3192  -16.2286 C   0  0  0  0  0  0  0  0  0  0  0  0
  -30.8431   19.0921  -17.3197 N   0  0  0  0  0  0  0  0  0  0  0  0
  -31.6952   18.6001  -15.2216 N   0  0  0  0  0  0  0  0  0  0  0  0
  -31.6887   17.8210  -14.1343 C   0  0  0  0  0  0  0  0  0  0  0  0
  -30.9331   16.7555  -13.8712 N   0  0  0  0  0  0  0  0  0  0  0  0
  -30.0951   16.5022  -14.8890 C   0  0  0  0  0  0  0  0  0  0  0  0
  1 10  1  0  0  0  0
  2  3  2  0  0  0  0
  2  1  1  0  0  0  0
  3  4  1  0  0  0  0
  4 10  2  0  0  0  0
  4  5  1  0  0  0  0
  5  7  2  0  0  0  0
  6  5  1  0  0  0  0
  7  8  1  0  0  0  0
  9  8  2  0  0  0  0
 10  9  1  0  0  0  0
M  END
>  <CHROM.1>
-30.29156051,17.24261246,-15.60968549,0.49027148,-0.75858349,2.18693680

>  <Name>
lig.pdb

>  <RI>
1.17775e+07

>  <Rbt.Current_Directory>
/home/itssahil/PROJECTS/Mol_Feturizer/New_Systems/rnas/5uza

>  <Rbt.Executable>
rbdock ($Id: //depot/dev/client3/rdock/2013.1/src/exe/rbdock.cxx#4 $)

>  <Rbt.Library>
libRbt.so (2013.1, Build901 2013/11/27)

>  <Rbt.Parameter_File>
/export/apps/rDock/src/rDock_2013.1_src/data/scripts/dock_solv.prm

>  <Rbt.Receptor>
prm/pocket_docking_8.prm

>  <SCORE>
-32.7681

>  <SCORE.INTER>
-32.7682

>  <SCORE.INTER.CONST>
1

>  <SCORE.INTER.POLAR>
-4.13305

>  <SCORE.INTER.ROT>
0

>  <SCORE.INTER.SOLV>
11.8828

>  <SCORE.INTER.VDW>
-15.6296

>  <SCORE.INTER.norm>
-3.27682

>  <SCORE.INTRA>
0

>  <SCORE.INTRA.DIHEDRAL>
0

>  <SCORE.INTRA.DIHEDRAL.0>
0

>  <SCORE.INTRA.POLAR>
0

>  <SCORE.INTRA.POLAR.0>
0

>  <SCORE.INTRA.REPUL>
0

>  <SCORE.INTRA.REPUL.0>
0

>  <SCORE.INTRA.SOLV>
0

>  <SCORE.INTRA.SOLV.lig_0>
-14.8845

>  <SCORE.INTRA.VDW>
0

>  <SCORE.INTRA.VDW.0>
0

>  <SCORE.INTRA.norm>
0

>  <SCORE.RESTR>
8.35757e-05

>  <SCORE.RESTR.CAVITY>
8.35757e-05

>  <SCORE.RESTR.norm>
8.35757e-06

>  <SCORE.SYSTEM>
0

>  <SCORE.SYSTEM.CONST>
0

>  <SCORE.SYSTEM.DIHEDRAL>
0

>  <SCORE.SYSTEM.SOLV>
0

>  <SCORE.SYSTEM.norm>
0

>  <SCORE.heavy>
10

>  <SCORE.norm>
-3.27681

>  <RMSD>
2.956

$$$$
lig.pdb
 OpenBabel11021811523D
libRbt.so/2013.1/901 2013/11/27
 10 11  0  0  0  0  0  0  0  0999 V2000
  -31.5187   18.4862  -14.1753 N   0  0  0  0  0  0  0  0  0  0  0  0
  -31.0576   17.4205  -13.4524 C   0  0  0  0  0  0  0  0  0  0  0  0
  -30.4334   16.5207  -14.1742 N   0  0  0  0  0  0  0  0  0  0  0  0
  -30.4892   17.0296  -15.4608 C   0  0  0  0  0  0  0  0  0  0  0  0
  -30.0044   16.5505  -16.6916 C   0  0  0  0  0  0  0  0  0  0  0  0
  -29.3459   15.3938  -16.8202 N   0  0  0  0  0  0  0  0  0  0  0  0
  -30.2269   17.3055  -17.7897 N   0  0  0  0  0  0  0  0  0  0  0  0
  -30.8890   18.4598  -17.6546 C   0  0  0  0  0  0  0  0  0  0  0  0
  -31.3909   19.0140  -16.5517 N   0  0  0  0  0  0  0  0  0  0  0  0
  -31.1544   18.2412  -15.4797 C   0  0  0  0  0  0  0  0  0  0  0  0
  1 10  1  0  0  0  0
  2  3  2  0  0  0  0
  2  1  1  0  0  0  0
  3  4  1  0  0  0  0
  4 10  2  0  0  0  0
  4  5  1  0  0  0  0
  5  7  2  0  0  0  0
  6  5  1  0  0  0  0
  7  8  1  0  0  0  0
  9  8  2  0  0  0  0
 10  9  1  0  0  0  0
M  END
>  <CHROM.1>
-30.62803368,17.40600121,-15.84227829,2.23622733,-1.04556411,1.88069000

>  <Name>
lig.pdb

>  <RI>
2.12818e+07

>  <Rbt.Current_Directory>
/home/itssahil/PROJECTS/Mol_Feturizer/New_Systems/rnas/5uza

>  <Rbt.Executable>
rbdock ($Id: //depot/dev/client3/rdock/2013.1/src/exe/rbdock.cxx#4 $)

>  <Rbt.Library>
libRbt.so (2013.1, Build901 2013/11/27)

>  <Rbt.Parameter_File>
/export/apps/rDock/src/rDock_2013.1_src/data/scripts/dock_solv.prm

>  <Rbt.Receptor>
prm/pocket_docking_7.prm

>  <SCORE>
-29.1148

>  <SCORE.INTER>
-29.1148

>  <SCORE.INTER.CONST>
1

>  <SCORE.INTER.POLAR>
-3.79007

>  <SCORE.INTER.ROT>
0

>  <SCORE.INTER.SOLV>
11.9033

>  <SCORE.INTER.VDW>
-14.344

>  <SCORE.INTER.norm>
-2.91148

>  <SCORE.INTRA>
0

>  <SCORE.INTRA.DIHEDRAL>
0

>  <SCORE.INTRA.DIHEDRAL.0>
0

>  <SCORE.INTRA.POLAR>
0

>  <SCORE.INTRA.POLAR.0>
0

>  <SCORE.INTRA.REPUL>
0

>  <SCORE.INTRA.REPUL.0>
0

>  <SCORE.INTRA.SOLV>
0

>  <SCORE.INTRA.SOLV.lig_0>
-14.8845

>  <SCORE.INTRA.VDW>
0

>  <SCORE.INTRA.VDW.0>
0

>  <SCORE.INTRA.norm>
0

>  <SCORE.RESTR>
0

>  <SCORE.RESTR.CAVITY>
0

>  <SCORE.RESTR.norm>
0

>  <SCORE.SYSTEM>
0

>  <SCORE.SYSTEM.CONST>
0

>  <SCORE.SYSTEM.DIHEDRAL>
0

>  <SCORE.SYSTEM.SOLV>
0

>  <SCORE.SYSTEM.norm>
0

>  <SCORE.heavy>
10

>  <SCORE.norm>
-2.91148

>  <RMSD>
2.961

$$$$
lig.pdb
 OpenBabel11021811523D
libRbt.so/2013.1/901 2013/11/27
 10 11  0  0  0  0  0  0  0  0999 V2000
  -28.9949   15.3995  -14.7285 N   0  0  0  0  0  0  0  0  0  0  0  0
  -28.3484   15.2035  -15.9179 C   0  0  0  0  0  0  0  0  0  0  0  0
  -28.7972   15.9545  -16.8951 N   0  0  0  0  0  0  0  0  0  0  0  0
  -29.8096   16.6943  -16.3077 C   0  0  0  0  0  0  0  0  0  0  0  0
  -30.6789   17.6792  -16.8117 C   0  0  0  0  0  0  0  0  0  0  0  0
  -30.6605   18.0922  -18.0833 N   0  0  0  0  0  0  0  0  0  0  0  0
  -31.5739   18.2219  -15.9575 N   0  0  0  0  0  0  0  0  0  0  0  0
  -31.5891   17.8020  -14.6876 C   0  0  0  0  0  0  0  0  0  0  0  0
  -30.8219   16.8854  -14.0987 N   0  0  0  0  0  0  0  0  0  0  0  0
  -29.9448   16.3653  -14.9719 C   0  0  0  0  0  0  0  0  0  0  0  0
  1 10  1  0  0  0  0
  2  3  2  0  0  0  0
  2  1  1  0  0  0  0
  3  4  1  0  0  0  0
  4 10  2  0  0  0  0
  4  5  1  0  0  0  0
  5  7  2  0  0  0  0
  6  5  1  0  0  0  0
  7  8  1  0  0  0  0
  9  8  2  0  0  0  0
 10  9  1  0  0  0  0
M  END
>  <CHROM.1>
-30.13119228,16.85186327,-15.88553963,0.51216108,-0.72254537,1.89922745

>  <Name>
lig.pdb

>  <RI>
2.34257e+07

>  <Rbt.Current_Directory>
/home/itssahil/PROJECTS/Mol_Feturizer/New_Systems/rnas/5uza

>  <Rbt.Executable>
rbdock ($Id: //depot/dev/client3/rdock/2013.1/src/exe/rbdock.cxx#4 $)

>  <Rbt.Library>
libRbt.so (2013.1, Build901 2013/11/27)

>  <Rbt.Parameter_File>
/export/apps/rDock/src/rDock_2013.1_src/data/scripts/dock_solv.prm

>  <Rbt.Receptor>
prm/blind_docking_40.prm

>  <SCORE>
-26.4304

>  <SCORE.INTER>
-27.0251

>  <SCORE.INTER.CONST>
1

>  <SCORE.INTER.POLAR>
-3.28094

>  <SCORE.INTER.ROT>
0

>  <SCORE.INTER.SOLV>
10.5733

>  <SCORE.INTER.VDW>
-14.2047

>  <SCORE.INTER.norm>
-2.70251

>  <SCORE.INTRA>
0

>  <SCORE.INTRA.DIHEDRAL>
0

>  <SCORE.INTRA.DIHEDRAL.0>
0

>  <SCORE.INTRA.POLAR>
0

>  <SCORE.INTRA.POLAR.0>
0

>  <SCORE.INTRA.REPUL>
0

>  <SCORE.INTRA.REPUL.0>
0

>  <SCORE.INTRA.SOLV>
0

>  <SCORE.INTRA.SOLV.lig_0>
-14.8845

>  <SCORE.INTRA.VDW>
0

>  <SCORE.INTRA.VDW.0>
0

>  <SCORE.INTRA.norm>
0

>  <SCORE.RESTR>
0.594753

>  <SCORE.RESTR.CAVITY>
0.594753

>  <SCORE.RESTR.norm>
0.0594753

>  <SCORE.SYSTEM>
0

>  <SCORE.SYSTEM.CONST>
0

>  <SCORE.SYSTEM.DIHEDRAL>
0

>  <SCORE.SYSTEM.SOLV>
0

>  <SCORE.SYSTEM.norm>
0

>  <SCORE.heavy>
10

>  <SCORE.norm>
-2.64304

>  <RMSD>
2.965

$$$$
lig.pdb
 OpenBabel11021811523D
libRbt.so/2013.1/901 2013/11/27
 10 11  0  0  0  0  0  0  0  0999 V2000
  -31.7868   18.2827  -14.1997 N   0  0  0  0  0  0  0  0  0  0  0  0
  -31.5104   17.1053  -13.5607 C   0  0  0  0  0  0  0  0  0  0  0  0
  -30.8585   16.2408  -14.3011 N   0  0  0  0  0  0  0  0  0  0  0  0
  -30.6964   16.8948  -15.5108 C   0  0  0  0  0  0  0  0  0  0  0  0
  -30.0801   16.5165  -16.7178 C   0  0  0  0  0  0  0  0  0  0  0  0
  -29.4963   15.3278  -16.9019 N   0  0  0  0  0  0  0  0  0  0  0  0
  -30.0910   17.4076  -17.7333 N   0  0  0  0  0  0  0  0  0  0  0  0
  -30.6796   18.5936  -17.5435 C   0  0  0  0  0  0  0  0  0  0  0  0
  -31.2893   19.0622  -16.4553 N   0  0  0  0  0  0  0  0  0  0  0  0
  -31.2622   18.1552  -15.4658 C   0  0  0  0  0  0  0  0  0  0  0  0
  1 10  1  0  0  0  0
  2  3  2  0  0  0  0
  2  1  1  0  0  0  0
  3  4  1  0  0  0  0
  4 10  2  0  0  0  0
  4  5  1  0  0  0  0
  5  7  2  0  0  0  0
  6  5  1  0  0  0  0
  7  8  1  0  0  0  0
  9  8  2  0  0  0  0
 10  9  1  0  0  0  0
M  END
>  <CHROM.1>
-30.75254902,17.32273799,-15.85744663,2.55468256,-1.05066871,2.27677629

>  <Name>
lig.pdb

>  <RI>
0

>  <Rbt.Current_Directory>
/home/itssahil/PROJECTS/Mol_Feturizer/New_Systems/rnas/5uza

>  <Rbt.Executable>
rbdock ($Id: //depot/dev/client3/rdock/2013.1/src/exe/rbdock.cxx#4 $)

>  <Rbt.Library>
libRbt.so (2013.1, Build901 2013/11/27)

>  <Rbt.Parameter_File>
/export/apps/rDock/src/rDock_2013.1_src/data/scripts/dock_solv.prm

>  <Rbt.Receptor>
prm/blind_docking_80.prm

>  <SCORE>
-28.528

>  <SCORE.INTER>
-28.528

>  <SCORE.INTER.CONST>
1

>  <SCORE.INTER.POLAR>
-3.93838

>  <SCORE.INTER.ROT>
0

>  <SCORE.INTER.SOLV>
12.279

>  <SCORE.INTER.VDW>
-13.5837

>  <SCORE.INTER.norm>
-2.8528

>  <SCORE.INTRA>
0

>  <SCORE.INTRA.DIHEDRAL>
0

>  <SCORE.INTRA.DIHEDRAL.0>
0

>  <SCORE.INTRA.POLAR>
0

>  <SCORE.INTRA.POLAR.0>
0

>  <SCORE.INTRA.REPUL>
0

>  <SCORE.INTRA.REPUL.0>
0

>  <SCORE.INTRA.SOLV>
0

>  <SCORE.INTRA.SOLV.lig_0>
-14.8845

>  <SCORE.INTRA.VDW>
0

>  <SCORE.INTRA.VDW.0>
0

>  <SCORE.INTRA.norm>
0

>  <SCORE.RESTR>
0

>  <SCORE.RESTR.CAVITY>
0

>  <SCORE.RESTR.norm>
0

>  <SCORE.SYSTEM>
0

>  <SCORE.SYSTEM.CONST>
0

>  <SCORE.SYSTEM.DIHEDRAL>
0

>  <SCORE.SYSTEM.SOLV>
0

>  <SCORE.SYSTEM.norm>
0

>  <SCORE.heavy>
10

>  <SCORE.norm>
-2.8528

>  <RMSD>
2.972

$$$$
lig.pdb
 OpenBabel11021811523D
libRbt.so/2013.1/901 2013/11/27
 10 11  0  0  0  0  0  0  0  0999 V2000
  -30.1468   16.3955  -14.8548 N   0  0  0  0  0  0  0  0  0  0  0  0
  -29.1158   15.7270  -15.4558 C   0  0  0  0  0  0  0  0  0  0  0  0
  -28.9960   15.9794  -16.7373 N   0  0  0  0  0  0  0  0  0  0  0  0
  -30.0198   16.8747  -16.9969 C   0  0  0  0  0  0  0  0  0  0  0  0
  -30.4307   17.5301  -18.1722 C   0  0  0  0  0  0  0  0  0  0  0  0
  -29.8284   17.3625  -19.3541 N   0  0  0  0  0  0  0  0  0  0  0  0
  -31.4907   18.3636  -18.0872 N   0  0  0  0  0  0  0  0  0  0  0  0
  -32.0906   18.5243  -16.9026 C   0  0  0  0  0  0  0  0  0  0  0  0
  -31.7945   17.9643  -15.7303 N   0  0  0  0  0  0  0  0  0  0  0  0
  -30.7391   17.1429  -15.8473 C   0  0  0  0  0  0  0  0  0  0  0  0
  1 10  1  0  0  0  0
  2  3  2  0  0  0  0
  2  1  1  0  0  0  0
  3  4  1  0  0  0  0
  4 10  2  0  0  0  0
  4  5  1  0  0  0  0
  5  7  2  0  0  0  0
  6  5  1  0  0  0  0
  7  8  1  0  0  0  0
  9  8  2  0  0  0  0
 10  9  1  0  0  0  0
M  END
>  <CHROM.1>
-30.45381269,17.18934363,-16.85853567,1.10190162,-0.66214573,1.83678076

>  <Name>
lig.pdb

>  <RI>
0

>  <Rbt.Current_Directory>
/home/itssahil/PROJECTS/Mol_Feturizer/New_Systems/rnas/5uza

>  <Rbt.Executable>
rbdock ($Id: //depot/dev/client3/rdock/2013.1/src/exe/rbdock.cxx#4 $)

>  <Rbt.Library>
libRbt.so (2013.1, Build901 2013/11/27)

>  <Rbt.Parameter_File>
/export/apps/rDock/src/rDock_2013.1_src/data/scripts/dock_solv.prm

>  <Rbt.Receptor>
prm/blind_docking_80.prm

>  <SCORE>
-24.2619

>  <SCORE.INTER>
-24.3334

>  <SCORE.INTER.CONST>
1

>  <SCORE.INTER.POLAR>
-2.64601

>  <SCORE.INTER.ROT>
0

>  <SCORE.INTER.SOLV>
11.7363

>  <SCORE.INTER.VDW>
-14.9144

>  <SCORE.INTER.norm>
-2.43334

>  <SCORE.INTRA>
0

>  <SCORE.INTRA.DIHEDRAL>
0

>  <SCORE.INTRA.DIHEDRAL.0>
0

>  <SCORE.INTRA.POLAR>
0

>  <SCORE.INTRA.POLAR.0>
0

>  <SCORE.INTRA.REPUL>
0

>  <SCORE.INTRA.REPUL.0>
0

>  <SCORE.INTRA.SOLV>
0

>  <SCORE.INTRA.SOLV.lig_0>
-14.8845

>  <SCORE.INTRA.VDW>
0

>  <SCORE.INTRA.VDW.0>
0

>  <SCORE.INTRA.norm>
0

>  <SCORE.RESTR>
0.0715623

>  <SCORE.RESTR.CAVITY>
0.0715623

>  <SCORE.RESTR.norm>
0.00715623

>  <SCORE.SYSTEM>
0

>  <SCORE.SYSTEM.CONST>
0

>  <SCORE.SYSTEM.DIHEDRAL>
0

>  <SCORE.SYSTEM.SOLV>
0

>  <SCORE.SYSTEM.norm>
0

>  <SCORE.heavy>
10

>  <SCORE.norm>
-2.42619

>  <RMSD>
2.981

$$$$
lig.pdb
 OpenBabel11021811523D
libRbt.so/2013.1/901 2013/11/27
 10 11  0  0  0  0  0  0  0  0999 V2000
  -28.8164   16.4010  -16.6929 N   0  0  0  0  0  0  0  0  0  0  0  0
  -28.4544   16.0054  -15.4345 C   0  0  0  0  0  0  0  0  0  0  0  0
  -29.3035   16.3641  -14.5014 N   0  0  0  0  0  0  0  0  0  0  0  0
  -30.2913   17.0434  -15.1943 C   0  0  0  0  0  0  0  0  0  0  0  0
  -31.4794   17.6723  -14.7785 C   0  0  0  0  0  0  0  0  0  0  0  0
  -31.8761   17.7198  -13.5024 N   0  0  0  0  0  0  0  0  0  0  0  0
  -32.2443   18.2565  -15.7265 N   0  0  0  0  0  0  0  0  0  0  0  0
  -31.8401   18.2081  -17.0007 C   0  0  0  0  0  0  0  0  0  0  0  0
  -30.7455   17.6460  -17.5120 N   0  0  0  0  0  0  0  0  0  0  0  0
  -30.0073   17.0753  -16.5467 C   0  0  0  0  0  0  0  0  0  0  0  0
  1 10  1  0  0  0  0
  2  3  2  0  0  0  0
  2  1  1  0  0  0  0
  3  4  1  0  0  0  0
  4 10  2  0  0  0  0
  4  5  1  0  0  0  0
  5  7  2  0  0  0  0
  6  5  1  0  0  0  0
  7  8  1  0  0  0  0
  9  8  2  0  0  0  0
 10  9  1  0  0  0  0
M  END
>  <CHROM.1>
-30.52976324,17.24748992,-15.65031914,0.14173492,0.52315757,-1.42574909

>  <Name>
lig.pdb

>  <RI>
1.17431e+07

>  <Rbt.Current_Directory>
/home/itssahil/PROJECTS/Mol_Feturizer/New_Systems/rnas/5uza

>  <Rbt.Executable>
rbdock ($Id: //depot/dev/client3/rdock/2013.1/src/exe/rbdock.cxx#4 $)

>  <Rbt.Library>
libRbt.so (2013.1, Build901 2013/11/27)

>  <Rbt.Parameter_File>
/export/apps/rDock/src/rDock_2013.1_src/data/scripts/dock_solv.prm

>  <Rbt.Receptor>
prm/pocket_docking_6.prm

>  <SCORE>
-35.4087

>  <SCORE.INTER>
-35.4087

>  <SCORE.INTER.CONST>
1

>  <SCORE.INTER.POLAR>
-4.64609

>  <SCORE.INTER.ROT>
0

>  <SCORE.INTER.SOLV>
10.9468

>  <SCORE.INTER.VDW>
-15.3678

>  <SCORE.INTER.norm>
-3.54087

>  <SCORE.INTRA>
0

>  <SCORE.INTRA.DIHEDRAL>
0

>  <SCORE.INTRA.DIHEDRAL.0>
0

>  <SCORE.INTRA.POLAR>
0

>  <SCORE.INTRA.POLAR.0>
0

>  <SCORE.INTRA.REPUL>
0

>  <SCORE.INTRA.REPUL.0>
0

>  <SCORE.INTRA.SOLV>
0

>  <SCORE.INTRA.SOLV.lig_0>
-14.8845

>  <SCORE.INTRA.VDW>
0

>  <SCORE.INTRA.VDW.0>
0

>  <SCORE.INTRA.norm>
0

>  <SCORE.RESTR>
0

>  <SCORE.RESTR.CAVITY>
0

>  <SCORE.RESTR.norm>
0

>  <SCORE.SYSTEM>
0

>  <SCORE.SYSTEM.CONST>
0

>  <SCORE.SYSTEM.DIHEDRAL>
0

>  <SCORE.SYSTEM.SOLV>
0

>  <SCORE.SYSTEM.norm>
0

>  <SCORE.heavy>
10

>  <SCORE.norm>
-3.54087

>  <RMSD>
3.174

$$$$
lig.pdb
 OpenBabel11021811523D
libRbt.so/2013.1/901 2013/11/27
 10 11  0  0  0  0  0  0  0  0999 V2000
  -28.7696   16.4440  -16.6628 N   0  0  0  0  0  0  0  0  0  0  0  0
  -28.4220   16.0355  -15.4045 C   0  0  0  0  0  0  0  0  0  0  0  0
  -29.2821   16.3841  -14.4776 N   0  0  0  0  0  0  0  0  0  0  0  0
  -30.2622   17.0702  -15.1747 C   0  0  0  0  0  0  0  0  0  0  0  0
  -31.4552   17.6942  -14.7662 C   0  0  0  0  0  0  0  0  0  0  0  0
  -31.8667   17.7283  -13.4944 N   0  0  0  0  0  0  0  0  0  0  0  0
  -32.2095   18.2880  -15.7169 N   0  0  0  0  0  0  0  0  0  0  0  0
  -31.7905   18.2531  -16.9867 C   0  0  0  0  0  0  0  0  0  0  0  0
  -30.6898   17.6967  -17.4911 N   0  0  0  0  0  0  0  0  0  0  0  0
  -29.9625   17.1163  -16.5234 C   0  0  0  0  0  0  0  0  0  0  0  0
  1 10  1  0  0  0  0
  2  3  2  0  0  0  0
  2  1  1  0  0  0  0
  3  4  1  0  0  0  0
  4 10  2  0  0  0  0
  4  5  1  0  0  0  0
  5  7  2  0  0  0  0
  6  5  1  0  0  0  0
  7  8  1  0  0  0  0
  9  8  2  0  0  0  0
 10  9  1  0  0  0  0
M  END
>  <CHROM.1>
-30.49540590,17.27891066,-15.63137643,0.12861857,0.52094211,-1.40878395

>  <Name>
lig.pdb

>  <RI>
2.12818e+07

>  <Rbt.Current_Directory>
/home/itssahil/PROJECTS/Mol_Feturizer/New_Systems/rnas/5uza

>  <Rbt.Executable>
rbdock ($Id: //depot/dev/client3/rdock/2013.1/src/exe/rbdock.cxx#4 $)

>  <Rbt.Library>
libRbt.so (2013.1, Build901 2013/11/27)

>  <Rbt.Parameter_File>
/export/apps/rDock/src/rDock_2013.1_src/data/scripts/dock_solv.prm

>  <Rbt.Receptor>
prm/pocket_docking_7.prm

>  <SCORE>
-35.3819

>  <SCORE.INTER>
-35.3819

>  <SCORE.INTER.CONST>
1

>  <SCORE.INTER.POLAR>
-4.71433

>  <SCORE.INTER.ROT>
0

>  <SCORE.INTER.SOLV>
10.998

>  <SCORE.INTER.VDW>
-15.1395

>  <SCORE.INTER.norm>
-3.53819

>  <SCORE.INTRA>
0

>  <SCORE.INTRA.DIHEDRAL>
0

>  <SCORE.INTRA.DIHEDRAL.0>
0

>  <SCORE.INTRA.POLAR>
0

>  <SCORE.INTRA.POLAR.0>
0

>  <SCORE.INTRA.REPUL>
0

>  <SCORE.INTRA.REPUL.0>
0

>  <SCORE.INTRA.SOLV>
0

>  <SCORE.INTRA.SOLV.lig_0>
-14.8845

>  <SCORE.INTRA.VDW>
0

>  <SCORE.INTRA.VDW.0>
0

>  <SCORE.INTRA.norm>
0

>  <SCORE.RESTR>
0

>  <SCORE.RESTR.CAVITY>
0

>  <SCORE.RESTR.norm>
0

>  <SCORE.SYSTEM>
0

>  <SCORE.SYSTEM.CONST>
0

>  <SCORE.SYSTEM.DIHEDRAL>
0

>  <SCORE.SYSTEM.SOLV>
0

>  <SCORE.SYSTEM.norm>
0

>  <SCORE.heavy>
10

>  <SCORE.norm>
-3.53819

>  <RMSD>
3.179

$$$$
lig.pdb
 OpenBabel11021811523D
libRbt.so/2013.1/901 2013/11/27
 10 11  0  0  0  0  0  0  0  0999 V2000
  -28.8076   16.3669  -16.6571 N   0  0  0  0  0  0  0  0  0  0  0  0
  -28.4603   15.9659  -15.3963 C   0  0  0  0  0  0  0  0  0  0  0  0
  -29.3111   16.3358  -14.4692 N   0  0  0  0  0  0  0  0  0  0  0  0
  -30.2844   17.0290  -15.1688 C   0  0  0  0  0  0  0  0  0  0  0  0
  -31.4667   17.6739  -14.7613 C   0  0  0  0  0  0  0  0  0  0  0  0
  -31.8719   17.7263  -13.4882 N   0  0  0  0  0  0  0  0  0  0  0  0
  -32.2166   18.2690  -15.7146 N   0  0  0  0  0  0  0  0  0  0  0  0
  -31.8039   18.2156  -16.9858 C   0  0  0  0  0  0  0  0  0  0  0  0
  -30.7135   17.6387  -17.4894 N   0  0  0  0  0  0  0  0  0  0  0  0
  -29.9902   17.0575  -16.5192 C   0  0  0  0  0  0  0  0  0  0  0  0
  1 10  1  0  0  0  0
  2  3  2  0  0  0  0
  2  1  1  0  0  0  0
  3  4  1  0  0  0  0
  4 10  2  0  0  0  0
  4  5  1  0  0  0  0
  5  7  2  0  0  0  0
  6  5  1  0  0  0  0
  7  8  1  0  0  0  0
  9  8  2  0  0  0  0
 10  9  1  0  0  0  0
M  END
>  <CHROM.1>
-30.51671006,17.23647708,-15.62649347,0.13107324,0.53571406,-1.41988645

>  <Name>
lig.pdb

>  <RI>
0

>  <Rbt.Current_Directory>
/home/itssahil/PROJECTS/Mol_Feturizer/New_Systems/rnas/5uza

>  <Rbt.Executable>
rbdock ($Id: //depot/dev/client3/rdock/2013.1/src/exe/rbdock.cxx#4 $)

>  <Rbt.Library>
libRbt.so (2013.1, Build901 2013/11/27)

>  <Rbt.Parameter_File>
/export/apps/rDock/src/rDock_2013.1_src/data/scripts/dock_solv.prm

>  <Rbt.Receptor>
prm/pocket_docking_3.prm

>  <SCORE>
-35.4122

>  <SCORE.INTER>
-35.4122

>  <SCORE.INTER.CONST>
1

>  <SCORE.INTER.POLAR>
-4.66969

>  <SCORE.INTER.ROT>
0

>  <SCORE.INTER.SOLV>
10.9495

>  <SCORE.INTER.VDW>
-15.2923

>  <SCORE.INTER.norm>
-3.54122

>  <SCORE.INTRA>
0

>  <SCORE.INTRA.DIHEDRAL>
0

>  <SCORE.INTRA.DIHEDRAL.0>
0

>  <SCORE.INTRA.POLAR>
0

>  <SCORE.INTRA.POLAR.0>
0

>  <SCORE.INTRA.REPUL>
0

>  <SCORE.INTRA.REPUL.0>
0

>  <SCORE.INTRA.SOLV>
0

>  <SCORE.INTRA.SOLV.lig_0>
-14.8845

>  <SCORE.INTRA.VDW>
0

>  <SCORE.INTRA.VDW.0>
0

>  <SCORE.INTRA.norm>
0

>  <SCORE.RESTR>
0

>  <SCORE.RESTR.CAVITY>
0

>  <SCORE.RESTR.norm>
0

>  <SCORE.SYSTEM>
0

>  <SCORE.SYSTEM.CONST>
0

>  <SCORE.SYSTEM.DIHEDRAL>
0

>  <SCORE.SYSTEM.SOLV>
0

>  <SCORE.SYSTEM.norm>
0

>  <SCORE.heavy>
10

>  <SCORE.norm>
-3.54122

>  <RMSD>
3.188

$$$$
lig.pdb
 OpenBabel11021811523D
libRbt.so/2013.1/901 2013/11/27
 10 11  0  0  0  0  0  0  0  0999 V2000
  -28.8386   16.3106  -16.6625 N   0  0  0  0  0  0  0  0  0  0  0  0
  -28.4900   15.9006  -15.4050 C   0  0  0  0  0  0  0  0  0  0  0  0
  -29.3237   16.2902  -14.4703 N   0  0  0  0  0  0  0  0  0  0  0  0
  -30.2862   17.0069  -15.1612 C   0  0  0  0  0  0  0  0  0  0  0  0
  -31.4490   17.6798  -14.7432 C   0  0  0  0  0  0  0  0  0  0  0  0
  -31.8419   17.7411  -13.4666 N   0  0  0  0  0  0  0  0  0  0  0  0
  -32.1927   18.2933  -15.6897 N   0  0  0  0  0  0  0  0  0  0  0  0
  -31.7924   18.2308  -16.9645 C   0  0  0  0  0  0  0  0  0  0  0  0
  -30.7205   17.6282  -17.4778 N   0  0  0  0  0  0  0  0  0  0  0  0
  -30.0030   17.0292  -16.5141 C   0  0  0  0  0  0  0  0  0  0  0  0
  1 10  1  0  0  0  0
  2  3  2  0  0  0  0
  2  1  1  0  0  0  0
  3  4  1  0  0  0  0
  4 10  2  0  0  0  0
  4  5  1  0  0  0  0
  5  7  2  0  0  0  0
  6  5  1  0  0  0  0
  7  8  1  0  0  0  0
  9  8  2  0  0  0  0
 10  9  1  0  0  0  0
M  END
>  <CHROM.1>
-30.51735859,17.22026760,-15.61677551,0.13692081,0.56069668,-1.42241206

>  <Name>
lig.pdb

>  <RI>
0

>  <Rbt.Current_Directory>
/home/itssahil/PROJECTS/Mol_Feturizer/New_Systems/rnas/5uza

>  <Rbt.Executable>
rbdock ($Id: //depot/dev/client3/rdock/2013.1/src/exe/rbdock.cxx#4 $)

>  <Rbt.Library>
libRbt.so (2013.1, Build901 2013/11/27)

>  <Rbt.Parameter_File>
/export/apps/rDock/src/rDock_2013.1_src/data/scripts/dock_solv.prm

>  <Rbt.Receptor>
prm/pocket_docking_5.prm

>  <SCORE>
-35.4254

>  <SCORE.INTER>
-35.4254

>  <SCORE.INTER.CONST>
1

>  <SCORE.INTER.POLAR>
-4.6317

>  <SCORE.INTER.ROT>
0

>  <SCORE.INTER.SOLV>
10.9393

>  <SCORE.INTER.VDW>
-15.4244

>  <SCORE.INTER.norm>
-3.54254

>  <SCORE.INTRA>
0

>  <SCORE.INTRA.DIHEDRAL>
0

>  <SCORE.INTRA.DIHEDRAL.0>
0

>  <SCORE.INTRA.POLAR>
0

>  <SCORE.INTRA.POLAR.0>
0

>  <SCORE.INTRA.REPUL>
0

>  <SCORE.INTRA.REPUL.0>
0

>  <SCORE.INTRA.SOLV>
0

>  <SCORE.INTRA.SOLV.lig_0>
-14.8845

>  <SCORE.INTRA.VDW>
0

>  <SCORE.INTRA.VDW.0>
0

>  <SCORE.INTRA.norm>
0

>  <SCORE.RESTR>
0

>  <SCORE.RESTR.CAVITY>
0

>  <SCORE.RESTR.norm>
0

>  <SCORE.SYSTEM>
0

>  <SCORE.SYSTEM.CONST>
0

>  <SCORE.SYSTEM.DIHEDRAL>
0

>  <SCORE.SYSTEM.SOLV>
0

>  <SCORE.SYSTEM.norm>
0

>  <SCORE.heavy>
10

>  <SCORE.norm>
-3.54254

>  <RMSD>
3.191

$$$$
lig.pdb
 OpenBabel11021811523D
libRbt.so/2013.1/901 2013/11/27
 10 11  0  0  0  0  0  0  0  0999 V2000
  -28.8358   16.3032  -16.6580 N   0  0  0  0  0  0  0  0  0  0  0  0
  -28.4874   15.8971  -15.3992 C   0  0  0  0  0  0  0  0  0  0  0  0
  -29.3223   16.2879  -14.4662 N   0  0  0  0  0  0  0  0  0  0  0  0
  -30.2854   17.0013  -15.1596 C   0  0  0  0  0  0  0  0  0  0  0  0
  -31.4496   17.6734  -14.7441 C   0  0  0  0  0  0  0  0  0  0  0  0
  -31.8433   17.7375  -13.4679 N   0  0  0  0  0  0  0  0  0  0  0  0
  -32.1936   18.2832  -15.6927 N   0  0  0  0  0  0  0  0  0  0  0  0
  -31.7923   18.2180  -16.9670 C   0  0  0  0  0  0  0  0  0  0  0  0
  -30.7192   17.6157  -17.4780 N   0  0  0  0  0  0  0  0  0  0  0  0
  -30.0014   17.0204  -16.5123 C   0  0  0  0  0  0  0  0  0  0  0  0
  1 10  1  0  0  0  0
  2  3  2  0  0  0  0
  2  1  1  0  0  0  0
  3  4  1  0  0  0  0
  4 10  2  0  0  0  0
  4  5  1  0  0  0  0
  5  7  2  0  0  0  0
  6  5  1  0  0  0  0
  7  8  1  0  0  0  0
  9  8  2  0  0  0  0
 10  9  1  0  0  0  0
M  END
>  <CHROM.1>
-30.51661011,17.21299676,-15.61583896,0.13644252,0.55906279,-1.42482936

>  <Name>
lig.pdb

>  <RI>
0

>  <Rbt.Current_Directory>
/home/itssahil/PROJECTS/Mol_Feturizer/New_Systems/rnas/5uza

>  <Rbt.Executable>
rbdock ($Id: //depot/dev/client3/rdock/2013.1/src/exe/rbdock.cxx#4 $)

>  <Rbt.Library>
libRbt.so (2013.1, Build901 2013/11/27)

>  <Rbt.Parameter_File>
/export/apps/rDock/src/rDock_2013.1_src/data/scripts/dock_solv.prm

>  <Rbt.Receptor>
prm/blind_docking_60.prm

>  <SCORE>
-35.4271

>  <SCORE.INTER>
-35.4271

>  <SCORE.INTER.CONST>
1

>  <SCORE.INTER.POLAR>
-4.63375

>  <SCORE.INTER.ROT>
0

>  <SCORE.INTER.SOLV>
10.9324

>  <SCORE.INTER.VDW>
-15.4163

>  <SCORE.INTER.norm>
-3.54271

>  <SCORE.INTRA>
0

>  <SCORE.INTRA.DIHEDRAL>
0

>  <SCORE.INTRA.DIHEDRAL.0>
0

>  <SCORE.INTRA.POLAR>
0

>  <SCORE.INTRA.POLAR.0>
0

>  <SCORE.INTRA.REPUL>
0

>  <SCORE.INTRA.REPUL.0>
0

>  <SCORE.INTRA.SOLV>
0

>  <SCORE.INTRA.SOLV.lig_0>
-14.8845

>  <SCORE.INTRA.VDW>
0

>  <SCORE.INTRA.VDW.0>
0

>  <SCORE.INTRA.norm>
0

>  <SCORE.RESTR>
0

>  <SCORE.RESTR.CAVITY>
0

>  <SCORE.RESTR.norm>
0

>  <SCORE.SYSTEM>
0

>  <SCORE.SYSTEM.CONST>
0

>  <SCORE.SYSTEM.DIHEDRAL>
0

>  <SCORE.SYSTEM.SOLV>
0

>  <SCORE.SYSTEM.norm>
0

>  <SCORE.heavy>
10

>  <SCORE.norm>
-3.54271

>  <RMSD>
3.193

$$$$
lig.pdb
 OpenBabel11021811523D
libRbt.so/2013.1/901 2013/11/27
 10 11  0  0  0  0  0  0  0  0999 V2000
  -28.8346   16.3176  -16.6556 N   0  0  0  0  0  0  0  0  0  0  0  0
  -28.4918   15.9048  -15.3974 C   0  0  0  0  0  0  0  0  0  0  0  0
  -29.3304   16.2913  -14.4659 N   0  0  0  0  0  0  0  0  0  0  0  0
  -30.2901   17.0088  -15.1596 C   0  0  0  0  0  0  0  0  0  0  0  0
  -31.4556   17.6796  -14.7456 C   0  0  0  0  0  0  0  0  0  0  0  0
  -31.8547   17.7373  -13.4707 N   0  0  0  0  0  0  0  0  0  0  0  0
  -32.1953   18.2948  -15.6942 N   0  0  0  0  0  0  0  0  0  0  0  0
  -31.7887   18.2358  -16.9671 C   0  0  0  0  0  0  0  0  0  0  0  0
  -30.7138   17.6355  -17.4767 N   0  0  0  0  0  0  0  0  0  0  0  0
  -30.0005   17.0348  -16.5110 C   0  0  0  0  0  0  0  0  0  0  0  0
  1 10  1  0  0  0  0
  2  3  2  0  0  0  0
  2  1  1  0  0  0  0
  3  4  1  0  0  0  0
  4 10  2  0  0  0  0
  4  5  1  0  0  0  0
  5  7  2  0  0  0  0
  6  5  1  0  0  0  0
  7  8  1  0  0  0  0
  9  8  2  0  0  0  0
 10  9  1  0  0  0  0
M  END
>  <CHROM.1>
-30.51930640,17.22307748,-15.61576487,0.13143204,0.55904731,-1.41699632

>  <Name>
lig.pdb

>  <RI>
9.24451e+06

>  <Rbt.Current_Directory>
/home/itssahil/PROJECTS/Mol_Feturizer/New_Systems/rnas/5uza

>  <Rbt.Executable>
rbdock ($Id: //depot/dev/client3/rdock/2013.1/src/exe/rbdock.cxx#4 $)

>  <Rbt.Library>
libRbt.so (2013.1, Build901 2013/11/27)

>  <Rbt.Parameter_File>
/export/apps/rDock/src/rDock_2013.1_src/data/scripts/dock_solv.prm

>  <Rbt.Receptor>
prm/pocket_docking_4.prm

>  <SCORE>
-35.428

>  <SCORE.INTER>
-35.428

>  <SCORE.INTER.CONST>
1

>  <SCORE.INTER.POLAR>
-4.63496

>  <SCORE.INTER.ROT>
0

>  <SCORE.INTER.SOLV>
10.9465

>  <SCORE.INTER.VDW>
-15.4176

>  <SCORE.INTER.norm>
-3.5428

>  <SCORE.INTRA>
0

>  <SCORE.INTRA.DIHEDRAL>
0

>  <SCORE.INTRA.DIHEDRAL.0>
0

>  <SCORE.INTRA.POLAR>
0

>  <SCORE.INTRA.POLAR.0>
0

>  <SCORE.INTRA.REPUL>
0

>  <SCORE.INTRA.REPUL.0>
0

>  <SCORE.INTRA.SOLV>
0

>  <SCORE.INTRA.SOLV.lig_0>
-14.8845

>  <SCORE.INTRA.VDW>
0

>  <SCORE.INTRA.VDW.0>
0

>  <SCORE.INTRA.norm>
0

>  <SCORE.RESTR>
0

>  <SCORE.RESTR.CAVITY>
0

>  <SCORE.RESTR.norm>
0

>  <SCORE.SYSTEM>
0

>  <SCORE.SYSTEM.CONST>
0

>  <SCORE.SYSTEM.DIHEDRAL>
0

>  <SCORE.SYSTEM.SOLV>
0

>  <SCORE.SYSTEM.norm>
0

>  <SCORE.heavy>
10

>  <SCORE.norm>
-3.5428

>  <RMSD>
3.193

$$$$
lig.pdb
 OpenBabel11021811523D
libRbt.so/2013.1/901 2013/11/27
 10 11  0  0  0  0  0  0  0  0999 V2000
  -28.8334   16.3101  -16.6567 N   0  0  0  0  0  0  0  0  0  0  0  0
  -28.4884   15.9001  -15.3982 C   0  0  0  0  0  0  0  0  0  0  0  0
  -29.3255   16.2884  -14.4661 N   0  0  0  0  0  0  0  0  0  0  0  0
  -30.2866   17.0042  -15.1597 C   0  0  0  0  0  0  0  0  0  0  0  0
  -31.4516   17.6755  -14.7452 C   0  0  0  0  0  0  0  0  0  0  0  0
  -31.8486   17.7358  -13.4698 N   0  0  0  0  0  0  0  0  0  0  0  0
  -32.1930   18.2884  -15.6938 N   0  0  0  0  0  0  0  0  0  0  0  0
  -31.7886   18.2269  -16.9673 C   0  0  0  0  0  0  0  0  0  0  0  0
  -30.7144   17.6258  -17.4774 N   0  0  0  0  0  0  0  0  0  0  0  0
  -29.9992   17.0273  -16.5117 C   0  0  0  0  0  0  0  0  0  0  0  0
  1 10  1  0  0  0  0
  2  3  2  0  0  0  0
  2  1  1  0  0  0  0
  3  4  1  0  0  0  0
  4 10  2  0  0  0  0
  4  5  1  0  0  0  0
  5  7  2  0  0  0  0
  6  5  1  0  0  0  0
  7  8  1  0  0  0  0
  9  8  2  0  0  0  0
 10  9  1  0  0  0  0
M  END
>  <CHROM.1>
-30.51659730,17.21738575,-15.61594288,0.13343258,0.55902872,-1.42018842

>  <Name>
lig.pdb

>  <RI>
9.24451e+06

>  <Rbt.Current_Directory>
/home/itssahil/PROJECTS/Mol_Feturizer/New_Systems/rnas/5uza

>  <Rbt.Executable>
rbdock ($Id: //depot/dev/client3/rdock/2013.1/src/exe/rbdock.cxx#4 $)

>  <Rbt.Library>
libRbt.so (2013.1, Build901 2013/11/27)

>  <Rbt.Parameter_File>
/export/apps/rDock/src/rDock_2013.1_src/data/scripts/dock_solv.prm

>  <Rbt.Receptor>
prm/pocket_docking_4.prm

>  <SCORE>
-35.4306

>  <SCORE.INTER>
-35.4306

>  <SCORE.INTER.CONST>
1

>  <SCORE.INTER.POLAR>
-4.63462

>  <SCORE.INTER.ROT>
0

>  <SCORE.INTER.SOLV>
10.9395

>  <SCORE.INTER.VDW>
-15.4182

>  <SCORE.INTER.norm>
-3.54306

>  <SCORE.INTRA>
0

>  <SCORE.INTRA.DIHEDRAL>
0

>  <SCORE.INTRA.DIHEDRAL.0>
0

>  <SCORE.INTRA.POLAR>
0

>  <SCORE.INTRA.POLAR.0>
0

>  <SCORE.INTRA.REPUL>
0

>  <SCORE.INTRA.REPUL.0>
0

>  <SCORE.INTRA.SOLV>
0

>  <SCORE.INTRA.SOLV.lig_0>
-14.8845

>  <SCORE.INTRA.VDW>
0

>  <SCORE.INTRA.VDW.0>
0

>  <SCORE.INTRA.norm>
0

>  <SCORE.RESTR>
0

>  <SCORE.RESTR.CAVITY>
0

>  <SCORE.RESTR.norm>
0

>  <SCORE.SYSTEM>
0

>  <SCORE.SYSTEM.CONST>
0

>  <SCORE.SYSTEM.DIHEDRAL>
0

>  <SCORE.SYSTEM.SOLV>
0

>  <SCORE.SYSTEM.norm>
0

>  <SCORE.heavy>
10

>  <SCORE.norm>
-3.54306

>  <RMSD>
3.193

$$$$
lig.pdb
 OpenBabel11021811523D
libRbt.so/2013.1/901 2013/11/27
 10 11  0  0  0  0  0  0  0  0999 V2000
  -28.8328   16.3084  -16.6579 N   0  0  0  0  0  0  0  0  0  0  0  0
  -28.4875   15.8977  -15.3996 C   0  0  0  0  0  0  0  0  0  0  0  0
  -29.3239   16.2864  -14.4671 N   0  0  0  0  0  0  0  0  0  0  0  0
  -30.2847   17.0032  -15.1601 C   0  0  0  0  0  0  0  0  0  0  0  0
  -31.4490   17.6753  -14.7448 C   0  0  0  0  0  0  0  0  0  0  0  0
  -31.8454   17.7357  -13.4692 N   0  0  0  0  0  0  0  0  0  0  0  0
  -32.1904   18.2892  -15.6929 N   0  0  0  0  0  0  0  0  0  0  0  0
  -31.7865   18.2276  -16.9666 C   0  0  0  0  0  0  0  0  0  0  0  0
  -30.7130   17.6258  -17.4774 N   0  0  0  0  0  0  0  0  0  0  0  0
  -29.9979   17.0265  -16.5121 C   0  0  0  0  0  0  0  0  0  0  0  0
  1 10  1  0  0  0  0
  2  3  2  0  0  0  0
  2  1  1  0  0  0  0
  3  4  1  0  0  0  0
  4 10  2  0  0  0  0
  4  5  1  0  0  0  0
  5  7  2  0  0  0  0
  6  5  1  0  0  0  0
  7  8  1  0  0  0  0
  9  8  2  0  0  0  0
 10  9  1  0  0  0  0
M  END
>  <CHROM.1>
-30.51477722,17.21670489,-15.61613153,0.13380988,0.55990708,-1.42011238

>  <Name>
lig.pdb

>  <RI>
1.17431e+07

>  <Rbt.Current_Directory>
/home/itssahil/PROJECTS/Mol_Feturizer/New_Systems/rnas/5uza

>  <Rbt.Executable>
rbdock ($Id: //depot/dev/client3/rdock/2013.1/src/exe/rbdock.cxx#4 $)

>  <Rbt.Library>
libRbt.so (2013.1, Build901 2013/11/27)

>  <Rbt.Parameter_File>
/export/apps/rDock/src/rDock_2013.1_src/data/scripts/dock_solv.prm

>  <Rbt.Receptor>
prm/pocket_docking_6.prm

>  <SCORE>
-35.4289

>  <SCORE.INTER>
-35.4289

>  <SCORE.INTER.CONST>
1

>  <SCORE.INTER.POLAR>
-4.63335

>  <SCORE.INTER.ROT>
0

>  <SCORE.INTER.SOLV>
10.9397

>  <SCORE.INTER.VDW>
-15.4214

>  <SCORE.INTER.norm>
-3.54289

>  <SCORE.INTRA>
0

>  <SCORE.INTRA.DIHEDRAL>
0

>  <SCORE.INTRA.DIHEDRAL.0>
0

>  <SCORE.INTRA.POLAR>
0

>  <SCORE.INTRA.POLAR.0>
0

>  <SCORE.INTRA.REPUL>
0

>  <SCORE.INTRA.REPUL.0>
0

>  <SCORE.INTRA.SOLV>
0

>  <SCORE.INTRA.SOLV.lig_0>
-14.8845

>  <SCORE.INTRA.VDW>
0

>  <SCORE.INTRA.VDW.0>
0

>  <SCORE.INTRA.norm>
0

>  <SCORE.RESTR>
0

>  <SCORE.RESTR.CAVITY>
0

>  <SCORE.RESTR.norm>
0

>  <SCORE.SYSTEM>
0

>  <SCORE.SYSTEM.CONST>
0

>  <SCORE.SYSTEM.DIHEDRAL>
0

>  <SCORE.SYSTEM.SOLV>
0

>  <SCORE.SYSTEM.norm>
0

>  <SCORE.heavy>
10

>  <SCORE.norm>
-3.54289

>  <RMSD>
3.193

$$$$
lig.pdb
 OpenBabel11021811523D
libRbt.so/2013.1/901 2013/11/27
 10 11  0  0  0  0  0  0  0  0999 V2000
  -28.8353   16.2995  -16.6572 N   0  0  0  0  0  0  0  0  0  0  0  0
  -28.4870   15.8937  -15.3982 C   0  0  0  0  0  0  0  0  0  0  0  0
  -29.3216   16.2853  -14.4652 N   0  0  0  0  0  0  0  0  0  0  0  0
  -30.2845   16.9988  -15.1589 C   0  0  0  0  0  0  0  0  0  0  0  0
  -31.4483   17.6716  -14.7436 C   0  0  0  0  0  0  0  0  0  0  0  0
  -31.8420   17.7364  -13.4674 N   0  0  0  0  0  0  0  0  0  0  0  0
  -32.1922   18.2814  -15.6924 N   0  0  0  0  0  0  0  0  0  0  0  0
  -31.7910   18.2155  -16.9667 C   0  0  0  0  0  0  0  0  0  0  0  0
  -30.7182   17.6125  -17.4776 N   0  0  0  0  0  0  0  0  0  0  0  0
  -30.0006   17.0173  -16.5116 C   0  0  0  0  0  0  0  0  0  0  0  0
  1 10  1  0  0  0  0
  2  3  2  0  0  0  0
  2  1  1  0  0  0  0
  3  4  1  0  0  0  0
  4 10  2  0  0  0  0
  4  5  1  0  0  0  0
  5  7  2  0  0  0  0
  6  5  1  0  0  0  0
  7  8  1  0  0  0  0
  9  8  2  0  0  0  0
 10  9  1  0  0  0  0
M  END
>  <CHROM.1>
-30.51564997,17.21046735,-15.61520468,0.13644513,0.55950548,-1.42522278

>  <Name>
lig.pdb

>  <RI>
1.17431e+07

>  <Rbt.Current_Directory>
/home/itssahil/PROJECTS/Mol_Feturizer/New_Systems/rnas/5uza

>  <Rbt.Executable>
rbdock ($Id: //depot/dev/client3/rdock/2013.1/src/exe/rbdock.cxx#4 $)

>  <Rbt.Library>
libRbt.so (2013.1, Build901 2013/11/27)

>  <Rbt.Parameter_File>
/export/apps/rDock/src/rDock_2013.1_src/data/scripts/dock_solv.prm

>  <Rbt.Receptor>
prm/pocket_docking_6.prm

>  <SCORE>
-35.4263

>  <SCORE.INTER>
-35.4263

>  <SCORE.INTER.CONST>
1

>  <SCORE.INTER.POLAR>
-4.63327

>  <SCORE.INTER.ROT>
0

>  <SCORE.INTER.SOLV>
10.9306

>  <SCORE.INTER.VDW>
-15.4168

>  <SCORE.INTER.norm>
-3.54263

>  <SCORE.INTRA>
0

>  <SCORE.INTRA.DIHEDRAL>
0

>  <SCORE.INTRA.DIHEDRAL.0>
0

>  <SCORE.INTRA.POLAR>
0

>  <SCORE.INTRA.POLAR.0>
0

>  <SCORE.INTRA.REPUL>
0

>  <SCORE.INTRA.REPUL.0>
0

>  <SCORE.INTRA.SOLV>
0

>  <SCORE.INTRA.SOLV.lig_0>
-14.8845

>  <SCORE.INTRA.VDW>
0

>  <SCORE.INTRA.VDW.0>
0

>  <SCORE.INTRA.norm>
0

>  <SCORE.RESTR>
0

>  <SCORE.RESTR.CAVITY>
0

>  <SCORE.RESTR.norm>
0

>  <SCORE.SYSTEM>
0

>  <SCORE.SYSTEM.CONST>
0

>  <SCORE.SYSTEM.DIHEDRAL>
0

>  <SCORE.SYSTEM.SOLV>
0

>  <SCORE.SYSTEM.norm>
0

>  <SCORE.heavy>
10

>  <SCORE.norm>
-3.54263

>  <RMSD>
3.193

$$$$
lig.pdb
 OpenBabel11021811523D
libRbt.so/2013.1/901 2013/11/27
 10 11  0  0  0  0  0  0  0  0999 V2000
  -28.8455   16.3419  -16.6546 N   0  0  0  0  0  0  0  0  0  0  0  0
  -28.5021   15.9347  -15.3947 C   0  0  0  0  0  0  0  0  0  0  0  0
  -29.3460   16.3162  -14.4660 N   0  0  0  0  0  0  0  0  0  0  0  0
  -30.3101   17.0242  -15.1635 C   0  0  0  0  0  0  0  0  0  0  0  0
  -31.4821   17.6861  -14.7536 C   0  0  0  0  0  0  0  0  0  0  0  0
  -31.8846   17.7434  -13.4799 N   0  0  0  0  0  0  0  0  0  0  0  0
  -32.2247   18.2930  -15.7053 N   0  0  0  0  0  0  0  0  0  0  0  0
  -31.8147   18.2347  -16.9771 C   0  0  0  0  0  0  0  0  0  0  0  0
  -30.7337   17.6423  -17.4830 N   0  0  0  0  0  0  0  0  0  0  0  0
  -30.0176   17.0496  -16.5143 C   0  0  0  0  0  0  0  0  0  0  0  0
  1 10  1  0  0  0  0
  2  3  2  0  0  0  0
  2  1  1  0  0  0  0
  3  4  1  0  0  0  0
  4 10  2  0  0  0  0
  4  5  1  0  0  0  0
  5  7  2  0  0  0  0
  6  5  1  0  0  0  0
  7  8  1  0  0  0  0
  9  8  2  0  0  0  0
 10  9  1  0  0  0  0
M  END
>  <CHROM.1>
-30.54003417,17.23555541,-15.62066803,0.13025341,0.55045656,-1.41858670

>  <Name>
lig.pdb

>  <RI>
2.12818e+07

>  <Rbt.Current_Directory>
/home/itssahil/PROJECTS/Mol_Feturizer/New_Systems/rnas/5uza

>  <Rbt.Executable>
rbdock ($Id: //depot/dev/client3/rdock/2013.1/src/exe/rbdock.cxx#4 $)

>  <Rbt.Library>
libRbt.so (2013.1, Build901 2013/11/27)

>  <Rbt.Parameter_File>
/export/apps/rDock/src/rDock_2013.1_src/data/scripts/dock_solv.prm

>  <Rbt.Receptor>
prm/pocket_docking_7.prm

>  <SCORE>
-35.4222

>  <SCORE.INTER>
-35.4222

>  <SCORE.INTER.CONST>
1

>  <SCORE.INTER.POLAR>
-4.63423

>  <SCORE.INTER.ROT>
0

>  <SCORE.INTER.SOLV>
10.9475

>  <SCORE.INTER.VDW>
-15.4165

>  <SCORE.INTER.norm>
-3.54222

>  <SCORE.INTRA>
0

>  <SCORE.INTRA.DIHEDRAL>
0

>  <SCORE.INTRA.DIHEDRAL.0>
0

>  <SCORE.INTRA.POLAR>
0

>  <SCORE.INTRA.POLAR.0>
0

>  <SCORE.INTRA.REPUL>
0

>  <SCORE.INTRA.REPUL.0>
0

>  <SCORE.INTRA.SOLV>
0

>  <SCORE.INTRA.SOLV.lig_0>
-14.8845

>  <SCORE.INTRA.VDW>
0

>  <SCORE.INTRA.VDW.0>
0

>  <SCORE.INTRA.norm>
0

>  <SCORE.RESTR>
0

>  <SCORE.RESTR.CAVITY>
0

>  <SCORE.RESTR.norm>
0

>  <SCORE.SYSTEM>
0

>  <SCORE.SYSTEM.CONST>
0

>  <SCORE.SYSTEM.DIHEDRAL>
0

>  <SCORE.SYSTEM.SOLV>
0

>  <SCORE.SYSTEM.norm>
0

>  <SCORE.heavy>
10

>  <SCORE.norm>
-3.54222

>  <RMSD>
3.193

$$$$
lig.pdb
 OpenBabel11021811523D
libRbt.so/2013.1/901 2013/11/27
 10 11  0  0  0  0  0  0  0  0999 V2000
  -28.8321   16.3143  -16.6531 N   0  0  0  0  0  0  0  0  0  0  0  0
  -28.4895   15.9038  -15.3940 C   0  0  0  0  0  0  0  0  0  0  0  0
  -29.3293   16.2904  -14.4637 N   0  0  0  0  0  0  0  0  0  0  0  0
  -30.2897   17.0054  -15.1591 C   0  0  0  0  0  0  0  0  0  0  0  0
  -31.4566   17.6749  -14.7469 C   0  0  0  0  0  0  0  0  0  0  0  0
  -31.8567   17.7339  -13.4724 N   0  0  0  0  0  0  0  0  0  0  0  0
  -32.1965   18.2876  -15.6968 N   0  0  0  0  0  0  0  0  0  0  0  0
  -31.7890   18.2275  -16.9694 C   0  0  0  0  0  0  0  0  0  0  0  0
  -30.7128   17.6281  -17.4774 N   0  0  0  0  0  0  0  0  0  0  0  0
  -29.9991   17.0299  -16.5103 C   0  0  0  0  0  0  0  0  0  0  0  0
  1 10  1  0  0  0  0
  2  3  2  0  0  0  0
  2  1  1  0  0  0  0
  3  4  1  0  0  0  0
  4 10  2  0  0  0  0
  4  5  1  0  0  0  0
  5  7  2  0  0  0  0
  6  5  1  0  0  0  0
  7  8  1  0  0  0  0
  9  8  2  0  0  0  0
 10  9  1  0  0  0  0
M  END
>  <CHROM.1>
-30.51890995,17.21865847,-15.61571916,0.13088789,0.55739122,-1.41814243

>  <Name>
lig.pdb

>  <RI>
2.12818e+07

>  <Rbt.Current_Directory>
/home/itssahil/PROJECTS/Mol_Feturizer/New_Systems/rnas/5uza

>  <Rbt.Executable>
rbdock ($Id: //depot/dev/client3/rdock/2013.1/src/exe/rbdock.cxx#4 $)

>  <Rbt.Library>
libRbt.so (2013.1, Build901 2013/11/27)

>  <Rbt.Parameter_File>
/export/apps/rDock/src/rDock_2013.1_src/data/scripts/dock_solv.prm

>  <Rbt.Receptor>
prm/pocket_docking_7.prm

>  <SCORE>
-35.43

>  <SCORE.INTER>
-35.43

>  <SCORE.INTER.CONST>
1

>  <SCORE.INTER.POLAR>
-4.6363

>  <SCORE.INTER.ROT>
0

>  <SCORE.INTER.SOLV>
10.9417

>  <SCORE.INTER.VDW>
-15.4129

>  <SCORE.INTER.norm>
-3.543

>  <SCORE.INTRA>
0

>  <SCORE.INTRA.DIHEDRAL>
0

>  <SCORE.INTRA.DIHEDRAL.0>
0

>  <SCORE.INTRA.POLAR>
0

>  <SCORE.INTRA.POLAR.0>
0

>  <SCORE.INTRA.REPUL>
0

>  <SCORE.INTRA.REPUL.0>
0

>  <SCORE.INTRA.SOLV>
0

>  <SCORE.INTRA.SOLV.lig_0>
-14.8845

>  <SCORE.INTRA.VDW>
0

>  <SCORE.INTRA.VDW.0>
0

>  <SCORE.INTRA.norm>
0

>  <SCORE.RESTR>
0

>  <SCORE.RESTR.CAVITY>
0

>  <SCORE.RESTR.norm>
0

>  <SCORE.SYSTEM>
0

>  <SCORE.SYSTEM.CONST>
0

>  <SCORE.SYSTEM.DIHEDRAL>
0

>  <SCORE.SYSTEM.SOLV>
0

>  <SCORE.SYSTEM.norm>
0

>  <SCORE.heavy>
10

>  <SCORE.norm>
-3.543

>  <RMSD>
3.194

$$$$
lig.pdb
 OpenBabel11021811523D
libRbt.so/2013.1/901 2013/11/27
 10 11  0  0  0  0  0  0  0  0999 V2000
  -28.8299   16.3133  -16.6522 N   0  0  0  0  0  0  0  0  0  0  0  0
  -28.4886   15.9017  -15.3932 C   0  0  0  0  0  0  0  0  0  0  0  0
  -29.3291   16.2879  -14.4633 N   0  0  0  0  0  0  0  0  0  0  0  0
  -30.2885   17.0040  -15.1590 C   0  0  0  0  0  0  0  0  0  0  0  0
  -31.4553   17.6738  -14.7472 C   0  0  0  0  0  0  0  0  0  0  0  0
  -31.8565   17.7320  -13.4730 N   0  0  0  0  0  0  0  0  0  0  0  0
  -32.1942   18.2876  -15.6973 N   0  0  0  0  0  0  0  0  0  0  0  0
  -31.7856   18.2283  -16.9696 C   0  0  0  0  0  0  0  0  0  0  0  0
  -30.7092   17.6287  -17.4771 N   0  0  0  0  0  0  0  0  0  0  0  0
  -29.9967   17.0294  -16.5099 C   0  0  0  0  0  0  0  0  0  0  0  0
  1 10  1  0  0  0  0
  2  3  2  0  0  0  0
  2  1  1  0  0  0  0
  3  4  1  0  0  0  0
  4 10  2  0  0  0  0
  4  5  1  0  0  0  0
  5  7  2  0  0  0  0
  6  5  1  0  0  0  0
  7  8  1  0  0  0  0
  9  8  2  0  0  0  0
 10  9  1  0  0  0  0
M  END
>  <CHROM.1>
-30.51717236,17.21773967,-15.61561507,0.12981345,0.55776844,-1.41679970

>  <Name>
lig.pdb

>  <RI>
2.12818e+07

>  <Rbt.Current_Directory>
/home/itssahil/PROJECTS/Mol_Feturizer/New_Systems/rnas/5uza

>  <Rbt.Executable>
rbdock ($Id: //depot/dev/client3/rdock/2013.1/src/exe/rbdock.cxx#4 $)

>  <Rbt.Library>
libRbt.so (2013.1, Build901 2013/11/27)

>  <Rbt.Parameter_File>
/export/apps/rDock/src/rDock_2013.1_src/data/scripts/dock_solv.prm

>  <Rbt.Receptor>
prm/pocket_docking_7.prm

>  <SCORE>
-35.4302

>  <SCORE.INTER>
-35.4302

>  <SCORE.INTER.CONST>
1

>  <SCORE.INTER.POLAR>
-4.63605

>  <SCORE.INTER.ROT>
0

>  <SCORE.INTER.SOLV>
10.9429

>  <SCORE.INTER.VDW>
-15.4143

>  <SCORE.INTER.norm>
-3.54302

>  <SCORE.INTRA>
0

>  <SCORE.INTRA.DIHEDRAL>
0

>  <SCORE.INTRA.DIHEDRAL.0>
0

>  <SCORE.INTRA.POLAR>
0

>  <SCORE.INTRA.POLAR.0>
0

>  <SCORE.INTRA.REPUL>
0

>  <SCORE.INTRA.REPUL.0>
0

>  <SCORE.INTRA.SOLV>
0

>  <SCORE.INTRA.SOLV.lig_0>
-14.8845

>  <SCORE.INTRA.VDW>
0

>  <SCORE.INTRA.VDW.0>
0

>  <SCORE.INTRA.norm>
0

>  <SCORE.RESTR>
0

>  <SCORE.RESTR.CAVITY>
0

>  <SCORE.RESTR.norm>
0

>  <SCORE.SYSTEM>
0

>  <SCORE.SYSTEM.CONST>
0

>  <SCORE.SYSTEM.DIHEDRAL>
0

>  <SCORE.SYSTEM.SOLV>
0

>  <SCORE.SYSTEM.norm>
0

>  <SCORE.heavy>
10

>  <SCORE.norm>
-3.54302

>  <RMSD>
3.194

$$$$
lig.pdb
 OpenBabel11021811523D
libRbt.so/2013.1/901 2013/11/27
 10 11  0  0  0  0  0  0  0  0999 V2000
  -28.8321   16.3153  -16.6539 N   0  0  0  0  0  0  0  0  0  0  0  0
  -28.4898   15.9038  -15.3951 C   0  0  0  0  0  0  0  0  0  0  0  0
  -29.3296   16.2900  -14.4646 N   0  0  0  0  0  0  0  0  0  0  0  0
  -30.2896   17.0059  -15.1596 C   0  0  0  0  0  0  0  0  0  0  0  0
  -31.4563   17.6756  -14.7471 C   0  0  0  0  0  0  0  0  0  0  0  0
  -31.8565   17.7338  -13.4726 N   0  0  0  0  0  0  0  0  0  0  0  0
  -32.1959   18.2892  -15.6967 N   0  0  0  0  0  0  0  0  0  0  0  0
  -31.7881   18.2298  -16.9693 C   0  0  0  0  0  0  0  0  0  0  0  0
  -30.7121   17.6304  -17.4775 N   0  0  0  0  0  0  0  0  0  0  0  0
  -29.9989   17.0312  -16.5108 C   0  0  0  0  0  0  0  0  0  0  0  0
  1 10  1  0  0  0  0
  2  3  2  0  0  0  0
  2  1  1  0  0  0  0
  3  4  1  0  0  0  0
  4 10  2  0  0  0  0
  4  5  1  0  0  0  0
  5  7  2  0  0  0  0
  6  5  1  0  0  0  0
  7  8  1  0  0  0  0
  9  8  2  0  0  0  0
 10  9  1  0  0  0  0
M  END
>  <CHROM.1>
-30.51867829,17.21957103,-15.61613446,0.13064940,0.55775799,-1.41731641

>  <Name>
lig.pdb

>  <RI>
2.12818e+07

>  <Rbt.Current_Directory>
/home/itssahil/PROJECTS/Mol_Feturizer/New_Systems/rnas/5uza

>  <Rbt.Executable>
rbdock ($Id: //depot/dev/client3/rdock/2013.1/src/exe/rbdock.cxx#4 $)

>  <Rbt.Library>
libRbt.so (2013.1, Build901 2013/11/27)

>  <Rbt.Parameter_File>
/export/apps/rDock/src/rDock_2013.1_src/data/scripts/dock_solv.prm

>  <Rbt.Receptor>
prm/pocket_docking_7.prm

>  <SCORE>
-35.4295

>  <SCORE.INTER>
-35.4295

>  <SCORE.INTER.CONST>
1

>  <SCORE.INTER.POLAR>
-4.63539

>  <SCORE.INTER.ROT>
0

>  <SCORE.INTER.SOLV>
10.9434

>  <SCORE.INTER.VDW>
-15.4161

>  <SCORE.INTER.norm>
-3.54295

>  <SCORE.INTRA>
0

>  <SCORE.INTRA.DIHEDRAL>
0

>  <SCORE.INTRA.DIHEDRAL.0>
0

>  <SCORE.INTRA.POLAR>
0

>  <SCORE.INTRA.POLAR.0>
0

>  <SCORE.INTRA.REPUL>
0

>  <SCORE.INTRA.REPUL.0>
0

>  <SCORE.INTRA.SOLV>
0

>  <SCORE.INTRA.SOLV.lig_0>
-14.8845

>  <SCORE.INTRA.VDW>
0

>  <SCORE.INTRA.VDW.0>
0

>  <SCORE.INTRA.norm>
0

>  <SCORE.RESTR>
0

>  <SCORE.RESTR.CAVITY>
0

>  <SCORE.RESTR.norm>
0

>  <SCORE.SYSTEM>
0

>  <SCORE.SYSTEM.CONST>
0

>  <SCORE.SYSTEM.DIHEDRAL>
0

>  <SCORE.SYSTEM.SOLV>
0

>  <SCORE.SYSTEM.norm>
0

>  <SCORE.heavy>
10

>  <SCORE.norm>
-3.54295

>  <RMSD>
3.194

$$$$
lig.pdb
 OpenBabel11021811523D
libRbt.so/2013.1/901 2013/11/27
 10 11  0  0  0  0  0  0  0  0999 V2000
  -28.8356   16.2998  -16.6530 N   0  0  0  0  0  0  0  0  0  0  0  0
  -28.4878   15.8971  -15.3929 C   0  0  0  0  0  0  0  0  0  0  0  0
  -29.3242   16.2886  -14.4616 N   0  0  0  0  0  0  0  0  0  0  0  0
  -30.2878   16.9988  -15.1575 C   0  0  0  0  0  0  0  0  0  0  0  0
  -31.4535   17.6699  -14.7446 C   0  0  0  0  0  0  0  0  0  0  0  0
  -31.8486   17.7362  -13.4689 N   0  0  0  0  0  0  0  0  0  0  0  0
  -32.1977   18.2765  -15.6953 N   0  0  0  0  0  0  0  0  0  0  0  0
  -31.7951   18.2091  -16.9690 C   0  0  0  0  0  0  0  0  0  0  0  0
  -30.7205   17.6074  -17.4777 N   0  0  0  0  0  0  0  0  0  0  0  0
  -30.0026   17.0154  -16.5099 C   0  0  0  0  0  0  0  0  0  0  0  0
  1 10  1  0  0  0  0
  2  3  2  0  0  0  0
  2  1  1  0  0  0  0
  3  4  1  0  0  0  0
  4 10  2  0  0  0  0
  4  5  1  0  0  0  0
  5  7  2  0  0  0  0
  6  5  1  0  0  0  0
  7  8  1  0  0  0  0
  9  8  2  0  0  0  0
 10  9  1  0  0  0  0
M  END
>  <CHROM.1>
-30.51899146,17.20917256,-15.61441841,0.13560685,0.55728282,-1.42658745

>  <Name>
lig.pdb

>  <RI>
0

>  <Rbt.Current_Directory>
/home/itssahil/PROJECTS/Mol_Feturizer/New_Systems/rnas/5uza

>  <Rbt.Executable>
rbdock ($Id: //depot/dev/client3/rdock/2013.1/src/exe/rbdock.cxx#4 $)

>  <Rbt.Library>
libRbt.so (2013.1, Build901 2013/11/27)

>  <Rbt.Parameter_File>
/export/apps/rDock/src/rDock_2013.1_src/data/scripts/dock_solv.prm

>  <Rbt.Receptor>
prm/blind_docking_60.prm

>  <SCORE>
-35.4246

>  <SCORE.INTER>
-35.4246

>  <SCORE.INTER.CONST>
1

>  <SCORE.INTER.POLAR>
-4.63651

>  <SCORE.INTER.ROT>
0

>  <SCORE.INTER.SOLV>
10.9286

>  <SCORE.INTER.VDW>
-15.4042

>  <SCORE.INTER.norm>
-3.54246

>  <SCORE.INTRA>
0

>  <SCORE.INTRA.DIHEDRAL>
0

>  <SCORE.INTRA.DIHEDRAL.0>
0

>  <SCORE.INTRA.POLAR>
0

>  <SCORE.INTRA.POLAR.0>
0

>  <SCORE.INTRA.REPUL>
0

>  <SCORE.INTRA.REPUL.0>
0

>  <SCORE.INTRA.SOLV>
0

>  <SCORE.INTRA.SOLV.lig_0>
-14.8845

>  <SCORE.INTRA.VDW>
0

>  <SCORE.INTRA.VDW.0>
0

>  <SCORE.INTRA.norm>
0

>  <SCORE.RESTR>
0

>  <SCORE.RESTR.CAVITY>
0

>  <SCORE.RESTR.norm>
0

>  <SCORE.SYSTEM>
0

>  <SCORE.SYSTEM.CONST>
0

>  <SCORE.SYSTEM.DIHEDRAL>
0

>  <SCORE.SYSTEM.SOLV>
0

>  <SCORE.SYSTEM.norm>
0

>  <SCORE.heavy>
10

>  <SCORE.norm>
-3.54246

>  <RMSD>
3.195

$$$$
lig.pdb
 OpenBabel11021811523D
libRbt.so/2013.1/901 2013/11/27
 10 11  0  0  0  0  0  0  0  0999 V2000
  -28.8316   16.3136  -16.6511 N   0  0  0  0  0  0  0  0  0  0  0  0
  -28.4896   15.9038  -15.3917 C   0  0  0  0  0  0  0  0  0  0  0  0
  -29.3301   16.2904  -14.4620 N   0  0  0  0  0  0  0  0  0  0  0  0
  -30.2903   17.0049  -15.1583 C   0  0  0  0  0  0  0  0  0  0  0  0
  -31.4577   17.6742  -14.7470 C   0  0  0  0  0  0  0  0  0  0  0  0
  -31.8585   17.7335  -13.4728 N   0  0  0  0  0  0  0  0  0  0  0  0
  -32.1972   18.2862  -15.6977 N   0  0  0  0  0  0  0  0  0  0  0  0
  -31.7889   18.2257  -16.9700 C   0  0  0  0  0  0  0  0  0  0  0  0
  -30.7122   17.6265  -17.4771 N   0  0  0  0  0  0  0  0  0  0  0  0
  -29.9990   17.0289  -16.5094 C   0  0  0  0  0  0  0  0  0  0  0  0
  1 10  1  0  0  0  0
  2  3  2  0  0  0  0
  2  1  1  0  0  0  0
  3  4  1  0  0  0  0
  4 10  2  0  0  0  0
  4  5  1  0  0  0  0
  5  7  2  0  0  0  0
  6  5  1  0  0  0  0
  7  8  1  0  0  0  0
  9  8  2  0  0  0  0
 10  9  1  0  0  0  0
M  END
>  <CHROM.1>
-30.51933538,17.21785566,-15.61513022,0.13026092,0.55698519,-1.41821872

>  <Name>
lig.pdb

>  <RI>
0

>  <Rbt.Current_Directory>
/home/itssahil/PROJECTS/Mol_Feturizer/New_Systems/rnas/5uza

>  <Rbt.Executable>
rbdock ($Id: //depot/dev/client3/rdock/2013.1/src/exe/rbdock.cxx#4 $)

>  <Rbt.Library>
libRbt.so (2013.1, Build901 2013/11/27)

>  <Rbt.Parameter_File>
/export/apps/rDock/src/rDock_2013.1_src/data/scripts/dock_solv.prm

>  <Rbt.Receptor>
prm/blind_docking_80.prm

>  <SCORE>
-35.431

>  <SCORE.INTER>
-35.431

>  <SCORE.INTER.CONST>
1

>  <SCORE.INTER.POLAR>
-4.63753

>  <SCORE.INTER.ROT>
0

>  <SCORE.INTER.SOLV>
10.9409

>  <SCORE.INTER.VDW>
-15.4092

>  <SCORE.INTER.norm>
-3.5431

>  <SCORE.INTRA>
0

>  <SCORE.INTRA.DIHEDRAL>
0

>  <SCORE.INTRA.DIHEDRAL.0>
0

>  <SCORE.INTRA.POLAR>
0

>  <SCORE.INTRA.POLAR.0>
0

>  <SCORE.INTRA.REPUL>
0

>  <SCORE.INTRA.REPUL.0>
0

>  <SCORE.INTRA.SOLV>
0

>  <SCORE.INTRA.SOLV.lig_0>
-14.8845

>  <SCORE.INTRA.VDW>
0

>  <SCORE.INTRA.VDW.0>
0

>  <SCORE.INTRA.norm>
0

>  <SCORE.RESTR>
0

>  <SCORE.RESTR.CAVITY>
0

>  <SCORE.RESTR.norm>
0

>  <SCORE.SYSTEM>
0

>  <SCORE.SYSTEM.CONST>
0

>  <SCORE.SYSTEM.DIHEDRAL>
0

>  <SCORE.SYSTEM.SOLV>
0

>  <SCORE.SYSTEM.norm>
0

>  <SCORE.heavy>
10

>  <SCORE.norm>
-3.5431

>  <RMSD>
3.195

$$$$
lig.pdb
 OpenBabel11021811523D
libRbt.so/2013.1/901 2013/11/27
 10 11  0  0  0  0  0  0  0  0999 V2000
  -28.8356   16.3031  -16.6535 N   0  0  0  0  0  0  0  0  0  0  0  0
  -28.4883   15.8991  -15.3936 C   0  0  0  0  0  0  0  0  0  0  0  0
  -29.3250   16.2898  -14.4622 N   0  0  0  0  0  0  0  0  0  0  0  0
  -30.2883   17.0008  -15.1577 C   0  0  0  0  0  0  0  0  0  0  0  0
  -31.4540   17.6717  -14.7446 C   0  0  0  0  0  0  0  0  0  0  0  0
  -31.8495   17.7369  -13.4690 N   0  0  0  0  0  0  0  0  0  0  0  0
  -32.1977   18.2793  -15.6950 N   0  0  0  0  0  0  0  0  0  0  0  0
  -31.7947   18.2130  -16.9687 C   0  0  0  0  0  0  0  0  0  0  0  0
  -30.7200   17.6117  -17.4776 N   0  0  0  0  0  0  0  0  0  0  0  0
  -30.0026   17.0187  -16.5101 C   0  0  0  0  0  0  0  0  0  0  0  0
  1 10  1  0  0  0  0
  2  3  2  0  0  0  0
  2  1  1  0  0  0  0
  3  4  1  0  0  0  0
  4 10  2  0  0  0  0
  4  5  1  0  0  0  0
  5  7  2  0  0  0  0
  6  5  1  0  0  0  0
  7  8  1  0  0  0  0
  9  8  2  0  0  0  0
 10  9  1  0  0  0  0
M  END
>  <CHROM.1>
-30.51921329,17.21166281,-15.61458034,0.13517212,0.55738568,-1.42540135

>  <Name>
lig.pdb

>  <RI>
9.24451e+06

>  <Rbt.Current_Directory>
/home/itssahil/PROJECTS/Mol_Feturizer/New_Systems/rnas/5uza

>  <Rbt.Executable>
rbdock ($Id: //depot/dev/client3/rdock/2013.1/src/exe/rbdock.cxx#4 $)

>  <Rbt.Library>
libRbt.so (2013.1, Build901 2013/11/27)

>  <Rbt.Parameter_File>
/export/apps/rDock/src/rDock_2013.1_src/data/scripts/dock_solv.prm

>  <Rbt.Receptor>
prm/pocket_docking_4.prm

>  <SCORE>
-35.4279

>  <SCORE.INTER>
-35.4279

>  <SCORE.INTER.CONST>
1

>  <SCORE.INTER.POLAR>
-4.63692

>  <SCORE.INTER.ROT>
0

>  <SCORE.INTER.SOLV>
10.9307

>  <SCORE.INTER.VDW>
-15.4058

>  <SCORE.INTER.norm>
-3.54279

>  <SCORE.INTRA>
0

>  <SCORE.INTRA.DIHEDRAL>
0

>  <SCORE.INTRA.DIHEDRAL.0>
0

>  <SCORE.INTRA.POLAR>
0

>  <SCORE.INTRA.POLAR.0>
0

>  <SCORE.INTRA.REPUL>
0

>  <SCORE.INTRA.REPUL.0>
0

>  <SCORE.INTRA.SOLV>
0

>  <SCORE.INTRA.SOLV.lig_0>
-14.8845

>  <SCORE.INTRA.VDW>
0

>  <SCORE.INTRA.VDW.0>
0

>  <SCORE.INTRA.norm>
0

>  <SCORE.RESTR>
0

>  <SCORE.RESTR.CAVITY>
0

>  <SCORE.RESTR.norm>
0

>  <SCORE.SYSTEM>
0

>  <SCORE.SYSTEM.CONST>
0

>  <SCORE.SYSTEM.DIHEDRAL>
0

>  <SCORE.SYSTEM.SOLV>
0

>  <SCORE.SYSTEM.norm>
0

>  <SCORE.heavy>
10

>  <SCORE.norm>
-3.54279

>  <RMSD>
3.195

$$$$
lig.pdb
 OpenBabel11021811523D
libRbt.so/2013.1/901 2013/11/27
 10 11  0  0  0  0  0  0  0  0999 V2000
  -28.8514   16.3272  -16.6491 N   0  0  0  0  0  0  0  0  0  0  0  0
  -28.5053   15.9275  -15.3876 C   0  0  0  0  0  0  0  0  0  0  0  0
  -29.3478   16.3135  -14.4594 N   0  0  0  0  0  0  0  0  0  0  0  0
  -30.3139   17.0166  -15.1591 C   0  0  0  0  0  0  0  0  0  0  0  0
  -31.4858   17.6796  -14.7507 C   0  0  0  0  0  0  0  0  0  0  0  0
  -31.8859   17.7437  -13.4765 N   0  0  0  0  0  0  0  0  0  0  0  0
  -32.2308   18.2804  -15.7044 N   0  0  0  0  0  0  0  0  0  0  0  0
  -31.8232   18.2153  -16.9767 C   0  0  0  0  0  0  0  0  0  0  0  0
  -30.7425   17.6210  -17.4812 N   0  0  0  0  0  0  0  0  0  0  0  0
  -30.0240   17.0346  -16.5106 C   0  0  0  0  0  0  0  0  0  0  0  0
  1 10  1  0  0  0  0
  2  3  2  0  0  0  0
  2  1  1  0  0  0  0
  3  4  1  0  0  0  0
  4 10  2  0  0  0  0
  4  5  1  0  0  0  0
  5  7  2  0  0  0  0
  6  5  1  0  0  0  0
  7  8  1  0  0  0  0
  9  8  2  0  0  0  0
 10  9  1  0  0  0  0
M  END
>  <CHROM.1>
-30.54489489,17.22507954,-15.61698417,0.13265031,0.54977595,-1.42552370

>  <Name>
lig.pdb

>  <RI>
0

>  <Rbt.Current_Directory>
/home/itssahil/PROJECTS/Mol_Feturizer/New_Systems/rnas/5uza

>  <Rbt.Executable>
rbdock ($Id: //depot/dev/client3/rdock/2013.1/src/exe/rbdock.cxx#4 $)

>  <Rbt.Library>
libRbt.so (2013.1, Build901 2013/11/27)

>  <Rbt.Parameter_File>
/export/apps/rDock/src/rDock_2013.1_src/data/scripts/dock_solv.prm

>  <Rbt.Receptor>
prm/blind_docking_60.prm

>  <SCORE>
-35.4306

>  <SCORE.INTER>
-35.4306

>  <SCORE.INTER.CONST>
1

>  <SCORE.INTER.POLAR>
-4.63694

>  <SCORE.INTER.ROT>
0

>  <SCORE.INTER.SOLV>
10.9345

>  <SCORE.INTER.VDW>
-15.4088

>  <SCORE.INTER.norm>
-3.54306

>  <SCORE.INTRA>
0

>  <SCORE.INTRA.DIHEDRAL>
0

>  <SCORE.INTRA.DIHEDRAL.0>
0

>  <SCORE.INTRA.POLAR>
0

>  <SCORE.INTRA.POLAR.0>
0

>  <SCORE.INTRA.REPUL>
0

>  <SCORE.INTRA.REPUL.0>
0

>  <SCORE.INTRA.SOLV>
0

>  <SCORE.INTRA.SOLV.lig_0>
-14.8845

>  <SCORE.INTRA.VDW>
0

>  <SCORE.INTRA.VDW.0>
0

>  <SCORE.INTRA.norm>
0

>  <SCORE.RESTR>
0

>  <SCORE.RESTR.CAVITY>
0

>  <SCORE.RESTR.norm>
0

>  <SCORE.SYSTEM>
0

>  <SCORE.SYSTEM.CONST>
0

>  <SCORE.SYSTEM.DIHEDRAL>
0

>  <SCORE.SYSTEM.SOLV>
0

>  <SCORE.SYSTEM.norm>
0

>  <SCORE.heavy>
10

>  <SCORE.norm>
-3.54306

>  <RMSD>
3.196

$$$$
lig.pdb
 OpenBabel11021811523D
libRbt.so/2013.1/901 2013/11/27
 10 11  0  0  0  0  0  0  0  0999 V2000
  -28.8308   16.3072  -16.6502 N   0  0  0  0  0  0  0  0  0  0  0  0
  -28.4890   15.8978  -15.3906 C   0  0  0  0  0  0  0  0  0  0  0  0
  -29.3291   16.2857  -14.4610 N   0  0  0  0  0  0  0  0  0  0  0  0
  -30.2888   17.0005  -15.1576 C   0  0  0  0  0  0  0  0  0  0  0  0
  -31.4555   17.6710  -14.7466 C   0  0  0  0  0  0  0  0  0  0  0  0
  -31.8562   17.7314  -13.4723 N   0  0  0  0  0  0  0  0  0  0  0  0
  -32.1947   18.2831  -15.6975 N   0  0  0  0  0  0  0  0  0  0  0  0
  -31.7866   18.2215  -16.9698 C   0  0  0  0  0  0  0  0  0  0  0  0
  -30.7105   17.6211  -17.4767 N   0  0  0  0  0  0  0  0  0  0  0  0
  -29.9976   17.0235  -16.5087 C   0  0  0  0  0  0  0  0  0  0  0  0
  1 10  1  0  0  0  0
  2  3  2  0  0  0  0
  2  1  1  0  0  0  0
  3  4  1  0  0  0  0
  4 10  2  0  0  0  0
  4  5  1  0  0  0  0
  5  7  2  0  0  0  0
  6  5  1  0  0  0  0
  7  8  1  0  0  0  0
  9  8  2  0  0  0  0
 10  9  1  0  0  0  0
M  END
>  <CHROM.1>
-30.51767433,17.21339117,-15.61453522,0.13025544,0.55779599,-1.41879433

>  <Name>
lig.pdb

>  <RI>
0

>  <Rbt.Current_Directory>
/home/itssahil/PROJECTS/Mol_Feturizer/New_Systems/rnas/5uza

>  <Rbt.Executable>
rbdock ($Id: //depot/dev/client3/rdock/2013.1/src/exe/rbdock.cxx#4 $)

>  <Rbt.Library>
libRbt.so (2013.1, Build901 2013/11/27)

>  <Rbt.Parameter_File>
/export/apps/rDock/src/rDock_2013.1_src/data/scripts/dock_solv.prm

>  <Rbt.Receptor>
prm/pocket_docking_3.prm

>  <SCORE>
-35.4278

>  <SCORE.INTER>
-35.4278

>  <SCORE.INTER.CONST>
1

>  <SCORE.INTER.POLAR>
-4.63546

>  <SCORE.INTER.ROT>
0

>  <SCORE.INTER.SOLV>
10.9375

>  <SCORE.INTER.VDW>
-15.4128

>  <SCORE.INTER.norm>
-3.54278

>  <SCORE.INTRA>
0

>  <SCORE.INTRA.DIHEDRAL>
0

>  <SCORE.INTRA.DIHEDRAL.0>
0

>  <SCORE.INTRA.POLAR>
0

>  <SCORE.INTRA.POLAR.0>
0

>  <SCORE.INTRA.REPUL>
0

>  <SCORE.INTRA.REPUL.0>
0

>  <SCORE.INTRA.SOLV>
0

>  <SCORE.INTRA.SOLV.lig_0>
-14.8845

>  <SCORE.INTRA.VDW>
0

>  <SCORE.INTRA.VDW.0>
0

>  <SCORE.INTRA.norm>
0

>  <SCORE.RESTR>
0

>  <SCORE.RESTR.CAVITY>
0

>  <SCORE.RESTR.norm>
0

>  <SCORE.SYSTEM>
0

>  <SCORE.SYSTEM.CONST>
0

>  <SCORE.SYSTEM.DIHEDRAL>
0

>  <SCORE.SYSTEM.SOLV>
0

>  <SCORE.SYSTEM.norm>
0

>  <SCORE.heavy>
10

>  <SCORE.norm>
-3.54278

>  <RMSD>
3.196

$$$$
lig.pdb
 OpenBabel11021811523D
libRbt.so/2013.1/901 2013/11/27
 10 11  0  0  0  0  0  0  0  0999 V2000
  -28.8325   16.3100  -16.6497 N   0  0  0  0  0  0  0  0  0  0  0  0
  -28.4892   15.9036  -15.3895 C   0  0  0  0  0  0  0  0  0  0  0  0
  -29.3297   16.2913  -14.4602 N   0  0  0  0  0  0  0  0  0  0  0  0
  -30.2913   17.0029  -15.1576 C   0  0  0  0  0  0  0  0  0  0  0  0
  -31.4592   17.6716  -14.7472 C   0  0  0  0  0  0  0  0  0  0  0  0
  -31.8593   17.7335  -13.4729 N   0  0  0  0  0  0  0  0  0  0  0  0
  -32.2001   18.2804  -15.6988 N   0  0  0  0  0  0  0  0  0  0  0  0
  -31.7925   18.2175  -16.9712 C   0  0  0  0  0  0  0  0  0  0  0  0
  -30.7153   17.6184  -17.4776 N   0  0  0  0  0  0  0  0  0  0  0  0
  -30.0007   17.0241  -16.5089 C   0  0  0  0  0  0  0  0  0  0  0  0
  1 10  1  0  0  0  0
  2  3  2  0  0  0  0
  2  1  1  0  0  0  0
  3  4  1  0  0  0  0
  4 10  2  0  0  0  0
  4  5  1  0  0  0  0
  5  7  2  0  0  0  0
  6  5  1  0  0  0  0
  7  8  1  0  0  0  0
  9  8  2  0  0  0  0
 10  9  1  0  0  0  0
M  END
>  <CHROM.1>
-30.52079953,17.21446139,-15.61478633,0.13120004,0.55579007,-1.42108380

>  <Name>
lig.pdb

>  <RI>
0

>  <Rbt.Current_Directory>
/home/itssahil/PROJECTS/Mol_Feturizer/New_Systems/rnas/5uza

>  <Rbt.Executable>
rbdock ($Id: //depot/dev/client3/rdock/2013.1/src/exe/rbdock.cxx#4 $)

>  <Rbt.Library>
libRbt.so (2013.1, Build901 2013/11/27)

>  <Rbt.Parameter_File>
/export/apps/rDock/src/rDock_2013.1_src/data/scripts/dock_solv.prm

>  <Rbt.Receptor>
prm/pocket_docking_5.prm

>  <SCORE>
-35.4293

>  <SCORE.INTER>
-35.4293

>  <SCORE.INTER.CONST>
1

>  <SCORE.INTER.POLAR>
-4.63861

>  <SCORE.INTER.ROT>
0

>  <SCORE.INTER.SOLV>
10.9352

>  <SCORE.INTER.VDW>
-15.4026

>  <SCORE.INTER.norm>
-3.54293

>  <SCORE.INTRA>
0

>  <SCORE.INTRA.DIHEDRAL>
0

>  <SCORE.INTRA.DIHEDRAL.0>
0

>  <SCORE.INTRA.POLAR>
0

>  <SCORE.INTRA.POLAR.0>
0

>  <SCORE.INTRA.REPUL>
0

>  <SCORE.INTRA.REPUL.0>
0

>  <SCORE.INTRA.SOLV>
0

>  <SCORE.INTRA.SOLV.lig_0>
-14.8845

>  <SCORE.INTRA.VDW>
0

>  <SCORE.INTRA.VDW.0>
0

>  <SCORE.INTRA.norm>
0

>  <SCORE.RESTR>
0

>  <SCORE.RESTR.CAVITY>
0

>  <SCORE.RESTR.norm>
0

>  <SCORE.SYSTEM>
0

>  <SCORE.SYSTEM.CONST>
0

>  <SCORE.SYSTEM.DIHEDRAL>
0

>  <SCORE.SYSTEM.SOLV>
0

>  <SCORE.SYSTEM.norm>
0

>  <SCORE.heavy>
10

>  <SCORE.norm>
-3.54293

>  <RMSD>
3.196

$$$$
lig.pdb
 OpenBabel11021811523D
libRbt.so/2013.1/901 2013/11/27
 10 11  0  0  0  0  0  0  0  0999 V2000
  -28.8280   16.3138  -16.6484 N   0  0  0  0  0  0  0  0  0  0  0  0
  -28.4886   15.9023  -15.3888 C   0  0  0  0  0  0  0  0  0  0  0  0
  -29.3312   16.2877  -14.4604 N   0  0  0  0  0  0  0  0  0  0  0  0
  -30.2899   17.0030  -15.1578 C   0  0  0  0  0  0  0  0  0  0  0  0
  -31.4581   17.6717  -14.7481 C   0  0  0  0  0  0  0  0  0  0  0  0
  -31.8617   17.7294  -13.4747 N   0  0  0  0  0  0  0  0  0  0  0  0
  -32.1957   18.2850  -15.6996 N   0  0  0  0  0  0  0  0  0  0  0  0
  -31.7846   18.2262  -16.9711 C   0  0  0  0  0  0  0  0  0  0  0  0
  -30.7068   17.6276  -17.4766 N   0  0  0  0  0  0  0  0  0  0  0  0
  -29.9957   17.0288  -16.5082 C   0  0  0  0  0  0  0  0  0  0  0  0
  1 10  1  0  0  0  0
  2  3  2  0  0  0  0
  2  1  1  0  0  0  0
  3  4  1  0  0  0  0
  4 10  2  0  0  0  0
  4  5  1  0  0  0  0
  5  7  2  0  0  0  0
  6  5  1  0  0  0  0
  7  8  1  0  0  0  0
  9  8  2  0  0  0  0
 10  9  1  0  0  0  0
M  END
>  <CHROM.1>
-30.51792379,17.21657827,-15.61482907,0.12777854,0.55662531,-1.41560556

>  <Name>
lig.pdb

>  <RI>
1.17431e+07

>  <Rbt.Current_Directory>
/home/itssahil/PROJECTS/Mol_Feturizer/New_Systems/rnas/5uza

>  <Rbt.Executable>
rbdock ($Id: //depot/dev/client3/rdock/2013.1/src/exe/rbdock.cxx#4 $)

>  <Rbt.Library>
libRbt.so (2013.1, Build901 2013/11/27)

>  <Rbt.Parameter_File>
/export/apps/rDock/src/rDock_2013.1_src/data/scripts/dock_solv.prm

>  <Rbt.Receptor>
prm/pocket_docking_6.prm

>  <SCORE>
-35.4274

>  <SCORE.INTER>
-35.4274

>  <SCORE.INTER.CONST>
1

>  <SCORE.INTER.POLAR>
-4.6373

>  <SCORE.INTER.ROT>
0

>  <SCORE.INTER.SOLV>
10.9428

>  <SCORE.INTER.VDW>
-15.4082

>  <SCORE.INTER.norm>
-3.54274

>  <SCORE.INTRA>
0

>  <SCORE.INTRA.DIHEDRAL>
0

>  <SCORE.INTRA.DIHEDRAL.0>
0

>  <SCORE.INTRA.POLAR>
0

>  <SCORE.INTRA.POLAR.0>
0

>  <SCORE.INTRA.REPUL>
0

>  <SCORE.INTRA.REPUL.0>
0

>  <SCORE.INTRA.SOLV>
0

>  <SCORE.INTRA.SOLV.lig_0>
-14.8845

>  <SCORE.INTRA.VDW>
0

>  <SCORE.INTRA.VDW.0>
0

>  <SCORE.INTRA.norm>
0

>  <SCORE.RESTR>
0

>  <SCORE.RESTR.CAVITY>
0

>  <SCORE.RESTR.norm>
0

>  <SCORE.SYSTEM>
0

>  <SCORE.SYSTEM.CONST>
0

>  <SCORE.SYSTEM.DIHEDRAL>
0

>  <SCORE.SYSTEM.SOLV>
0

>  <SCORE.SYSTEM.norm>
0

>  <SCORE.heavy>
10

>  <SCORE.norm>
-3.54274

>  <RMSD>
3.196

$$$$
lig.pdb
 OpenBabel11021811523D
libRbt.so/2013.1/901 2013/11/27
 10 11  0  0  0  0  0  0  0  0999 V2000
  -28.8325   16.3081  -16.6500 N   0  0  0  0  0  0  0  0  0  0  0  0
  -28.4905   15.8993  -15.3903 C   0  0  0  0  0  0  0  0  0  0  0  0
  -29.3306   16.2874  -14.4608 N   0  0  0  0  0  0  0  0  0  0  0  0
  -30.2905   17.0018  -15.1576 C   0  0  0  0  0  0  0  0  0  0  0  0
  -31.4573   17.6722  -14.7467 C   0  0  0  0  0  0  0  0  0  0  0  0
  -31.8579   17.7331  -13.4725 N   0  0  0  0  0  0  0  0  0  0  0  0
  -32.1967   18.2838  -15.6979 N   0  0  0  0  0  0  0  0  0  0  0  0
  -31.7887   18.2217  -16.9702 C   0  0  0  0  0  0  0  0  0  0  0  0
  -30.7125   17.6213  -17.4769 N   0  0  0  0  0  0  0  0  0  0  0  0
  -29.9994   17.0243  -16.5087 C   0  0  0  0  0  0  0  0  0  0  0  0
  1 10  1  0  0  0  0
  2  3  2  0  0  0  0
  2  1  1  0  0  0  0
  3  4  1  0  0  0  0
  4 10  2  0  0  0  0
  4  5  1  0  0  0  0
  5  7  2  0  0  0  0
  6  5  1  0  0  0  0
  7  8  1  0  0  0  0
  9  8  2  0  0  0  0
 10  9  1  0  0  0  0
M  END
>  <CHROM.1>
-30.51946472,17.21444324,-15.61459525,0.13037895,0.55762659,-1.41928370

>  <Name>
lig.pdb

>  <RI>
1.17431e+07

>  <Rbt.Current_Directory>
/home/itssahil/PROJECTS/Mol_Feturizer/New_Systems/rnas/5uza

>  <Rbt.Executable>
rbdock ($Id: //depot/dev/client3/rdock/2013.1/src/exe/rbdock.cxx#4 $)

>  <Rbt.Library>
libRbt.so (2013.1, Build901 2013/11/27)

>  <Rbt.Parameter_File>
/export/apps/rDock/src/rDock_2013.1_src/data/scripts/dock_solv.prm

>  <Rbt.Receptor>
prm/pocket_docking_6.prm

>  <SCORE>
-35.4272

>  <SCORE.INTER>
-35.4272

>  <SCORE.INTER.CONST>
1

>  <SCORE.INTER.POLAR>
-4.6354

>  <SCORE.INTER.ROT>
0

>  <SCORE.INTER.SOLV>
10.9373

>  <SCORE.INTER.VDW>
-15.4125

>  <SCORE.INTER.norm>
-3.54272

>  <SCORE.INTRA>
0

>  <SCORE.INTRA.DIHEDRAL>
0

>  <SCORE.INTRA.DIHEDRAL.0>
0

>  <SCORE.INTRA.POLAR>
0

>  <SCORE.INTRA.POLAR.0>
0

>  <SCORE.INTRA.REPUL>
0

>  <SCORE.INTRA.REPUL.0>
0

>  <SCORE.INTRA.SOLV>
0

>  <SCORE.INTRA.SOLV.lig_0>
-14.8845

>  <SCORE.INTRA.VDW>
0

>  <SCORE.INTRA.VDW.0>
0

>  <SCORE.INTRA.norm>
0

>  <SCORE.RESTR>
0

>  <SCORE.RESTR.CAVITY>
0

>  <SCORE.RESTR.norm>
0

>  <SCORE.SYSTEM>
0

>  <SCORE.SYSTEM.CONST>
0

>  <SCORE.SYSTEM.DIHEDRAL>
0

>  <SCORE.SYSTEM.SOLV>
0

>  <SCORE.SYSTEM.norm>
0

>  <SCORE.heavy>
10

>  <SCORE.norm>
-3.54272

>  <RMSD>
3.196

$$$$
lig.pdb
 OpenBabel11021811523D
libRbt.so/2013.1/901 2013/11/27
 10 11  0  0  0  0  0  0  0  0999 V2000
  -28.8316   16.3121  -16.6497 N   0  0  0  0  0  0  0  0  0  0  0  0
  -28.4896   15.9034  -15.3899 C   0  0  0  0  0  0  0  0  0  0  0  0
  -29.3304   16.2905  -14.4606 N   0  0  0  0  0  0  0  0  0  0  0  0
  -30.2908   17.0039  -15.1577 C   0  0  0  0  0  0  0  0  0  0  0  0
  -31.4585   17.6730  -14.7471 C   0  0  0  0  0  0  0  0  0  0  0  0
  -31.8595   17.7333  -13.4730 N   0  0  0  0  0  0  0  0  0  0  0  0
  -32.1982   18.2839  -15.6984 N   0  0  0  0  0  0  0  0  0  0  0  0
  -31.7897   18.2225  -16.9706 C   0  0  0  0  0  0  0  0  0  0  0  0
  -30.7127   17.6234  -17.4770 N   0  0  0  0  0  0  0  0  0  0  0  0
  -29.9993   17.0269  -16.5087 C   0  0  0  0  0  0  0  0  0  0  0  0
  1 10  1  0  0  0  0
  2  3  2  0  0  0  0
  2  1  1  0  0  0  0
  3  4  1  0  0  0  0
  4 10  2  0  0  0  0
  4  5  1  0  0  0  0
  5  7  2  0  0  0  0
  6  5  1  0  0  0  0
  7  8  1  0  0  0  0
  9  8  2  0  0  0  0
 10  9  1  0  0  0  0
M  END
>  <CHROM.1>
-30.51984328,17.21638484,-15.61469421,0.13018732,0.55650865,-1.41902902

>  <Name>
lig.pdb

>  <RI>
1.17431e+07

>  <Rbt.Current_Directory>
/home/itssahil/PROJECTS/Mol_Feturizer/New_Systems/rnas/5uza

>  <Rbt.Executable>
rbdock ($Id: //depot/dev/client3/rdock/2013.1/src/exe/rbdock.cxx#4 $)

>  <Rbt.Library>
libRbt.so (2013.1, Build901 2013/11/27)

>  <Rbt.Parameter_File>
/export/apps/rDock/src/rDock_2013.1_src/data/scripts/dock_solv.prm

>  <Rbt.Receptor>
prm/pocket_docking_6.prm

>  <SCORE>
-35.4305

>  <SCORE.INTER>
-35.4305

>  <SCORE.INTER.CONST>
1

>  <SCORE.INTER.POLAR>
-4.63829

>  <SCORE.INTER.ROT>
0

>  <SCORE.INTER.SOLV>
10.9388

>  <SCORE.INTER.VDW>
-15.4056

>  <SCORE.INTER.norm>
-3.54305

>  <SCORE.INTRA>
0

>  <SCORE.INTRA.DIHEDRAL>
0

>  <SCORE.INTRA.DIHEDRAL.0>
0

>  <SCORE.INTRA.POLAR>
0

>  <SCORE.INTRA.POLAR.0>
0

>  <SCORE.INTRA.REPUL>
0

>  <SCORE.INTRA.REPUL.0>
0

>  <SCORE.INTRA.SOLV>
0

>  <SCORE.INTRA.SOLV.lig_0>
-14.8845

>  <SCORE.INTRA.VDW>
0

>  <SCORE.INTRA.VDW.0>
0

>  <SCORE.INTRA.norm>
0

>  <SCORE.RESTR>
0

>  <SCORE.RESTR.CAVITY>
0

>  <SCORE.RESTR.norm>
0

>  <SCORE.SYSTEM>
0

>  <SCORE.SYSTEM.CONST>
0

>  <SCORE.SYSTEM.DIHEDRAL>
0

>  <SCORE.SYSTEM.SOLV>
0

>  <SCORE.SYSTEM.norm>
0

>  <SCORE.heavy>
10

>  <SCORE.norm>
-3.54305

>  <RMSD>
3.196

$$$$
lig.pdb
 OpenBabel11021811523D
libRbt.so/2013.1/901 2013/11/27
 10 11  0  0  0  0  0  0  0  0999 V2000
  -28.8296   16.3127  -16.6468 N   0  0  0  0  0  0  0  0  0  0  0  0
  -28.4904   15.9069  -15.3854 C   0  0  0  0  0  0  0  0  0  0  0  0
  -29.3367   16.2905  -14.4597 N   0  0  0  0  0  0  0  0  0  0  0  0
  -30.2981   16.9984  -15.1611 C   0  0  0  0  0  0  0  0  0  0  0  0
  -31.4707   17.6619  -14.7556 C   0  0  0  0  0  0  0  0  0  0  0  0
  -31.8770   17.7213  -13.4831 N   0  0  0  0  0  0  0  0  0  0  0  0
  -32.2099   18.2682  -15.7103 N   0  0  0  0  0  0  0  0  0  0  0  0
  -31.7961   18.2078  -16.9809 C   0  0  0  0  0  0  0  0  0  0  0  0
  -30.7141   17.6137  -17.4826 N   0  0  0  0  0  0  0  0  0  0  0  0
  -30.0015   17.0217  -16.5110 C   0  0  0  0  0  0  0  0  0  0  0  0
  1 10  1  0  0  0  0
  2  3  2  0  0  0  0
  2  1  1  0  0  0  0
  3  4  1  0  0  0  0
  4 10  2  0  0  0  0
  4  5  1  0  0  0  0
  5  7  2  0  0  0  0
  6  5  1  0  0  0  0
  7  8  1  0  0  0  0
  9  8  2  0  0  0  0
 10  9  1  0  0  0  0
M  END
>  <CHROM.1>
-30.52642555,17.20934044,-15.61918747,0.12660619,0.55089404,-1.41804857

>  <Name>
lig.pdb

>  <RI>
0

>  <Rbt.Current_Directory>
/home/itssahil/PROJECTS/Mol_Feturizer/New_Systems/rnas/5uza

>  <Rbt.Executable>
rbdock ($Id: //depot/dev/client3/rdock/2013.1/src/exe/rbdock.cxx#4 $)

>  <Rbt.Library>
libRbt.so (2013.1, Build901 2013/11/27)

>  <Rbt.Parameter_File>
/export/apps/rDock/src/rDock_2013.1_src/data/scripts/dock_solv.prm

>  <Rbt.Receptor>
prm/blind_docking_80.prm

>  <SCORE>
-35.4393

>  <SCORE.INTER>
-35.4393

>  <SCORE.INTER.CONST>
1

>  <SCORE.INTER.POLAR>
-4.63182

>  <SCORE.INTER.ROT>
0

>  <SCORE.INTER.SOLV>
10.9325

>  <SCORE.INTER.VDW>
-15.431

>  <SCORE.INTER.norm>
-3.54393

>  <SCORE.INTRA>
0

>  <SCORE.INTRA.DIHEDRAL>
0

>  <SCORE.INTRA.DIHEDRAL.0>
0

>  <SCORE.INTRA.POLAR>
0

>  <SCORE.INTRA.POLAR.0>
0

>  <SCORE.INTRA.REPUL>
0

>  <SCORE.INTRA.REPUL.0>
0

>  <SCORE.INTRA.SOLV>
0

>  <SCORE.INTRA.SOLV.lig_0>
-14.8845

>  <SCORE.INTRA.VDW>
0

>  <SCORE.INTRA.VDW.0>
0

>  <SCORE.INTRA.norm>
0

>  <SCORE.RESTR>
0

>  <SCORE.RESTR.CAVITY>
0

>  <SCORE.RESTR.norm>
0

>  <SCORE.SYSTEM>
0

>  <SCORE.SYSTEM.CONST>
0

>  <SCORE.SYSTEM.DIHEDRAL>
0

>  <SCORE.SYSTEM.SOLV>
0

>  <SCORE.SYSTEM.norm>
0

>  <SCORE.heavy>
10

>  <SCORE.norm>
-3.54393

>  <RMSD>
3.197

$$$$
lig.pdb
 OpenBabel11021811523D
libRbt.so/2013.1/901 2013/11/27
 10 11  0  0  0  0  0  0  0  0999 V2000
  -28.8489   16.3261  -16.6486 N   0  0  0  0  0  0  0  0  0  0  0  0
  -28.5049   15.9252  -15.3869 C   0  0  0  0  0  0  0  0  0  0  0  0
  -29.3493   16.3098  -14.4599 N   0  0  0  0  0  0  0  0  0  0  0  0
  -30.3144   17.0133  -15.1606 C   0  0  0  0  0  0  0  0  0  0  0  0
  -31.4873   17.6755  -14.7536 C   0  0  0  0  0  0  0  0  0  0  0  0
  -31.8898   17.7380  -13.4801 N   0  0  0  0  0  0  0  0  0  0  0  0
  -32.2307   18.2771  -15.7079 N   0  0  0  0  0  0  0  0  0  0  0  0
  -31.8207   18.2135  -16.9796 C   0  0  0  0  0  0  0  0  0  0  0  0
  -30.7389   17.6202  -17.4827 N   0  0  0  0  0  0  0  0  0  0  0  0
  -30.0220   17.0330  -16.5115 C   0  0  0  0  0  0  0  0  0  0  0  0
  1 10  1  0  0  0  0
  2  3  2  0  0  0  0
  2  1  1  0  0  0  0
  3  4  1  0  0  0  0
  4 10  2  0  0  0  0
  4  5  1  0  0  0  0
  5  7  2  0  0  0  0
  6  5  1  0  0  0  0
  7  8  1  0  0  0  0
  9  8  2  0  0  0  0
 10  9  1  0  0  0  0
M  END
>  <CHROM.1>
-30.54460282,17.22225057,-15.61863531,0.13056554,0.54913682,-1.42330497

>  <Name>
lig.pdb

>  <RI>
9.24451e+06

>  <Rbt.Current_Directory>
/home/itssahil/PROJECTS/Mol_Feturizer/New_Systems/rnas/5uza

>  <Rbt.Executable>
rbdock ($Id: //depot/dev/client3/rdock/2013.1/src/exe/rbdock.cxx#4 $)

>  <Rbt.Library>
libRbt.so (2013.1, Build901 2013/11/27)

>  <Rbt.Parameter_File>
/export/apps/rDock/src/rDock_2013.1_src/data/scripts/dock_solv.prm

>  <Rbt.Receptor>
prm/pocket_docking_4.prm

>  <SCORE>
-35.4301

>  <SCORE.INTER>
-35.4301

>  <SCORE.INTER.CONST>
1

>  <SCORE.INTER.POLAR>
-4.63331

>  <SCORE.INTER.ROT>
0

>  <SCORE.INTER.SOLV>
10.9336

>  <SCORE.INTER.VDW>
-15.4202

>  <SCORE.INTER.norm>
-3.54301

>  <SCORE.INTRA>
0

>  <SCORE.INTRA.DIHEDRAL>
0

>  <SCORE.INTRA.DIHEDRAL.0>
0

>  <SCORE.INTRA.POLAR>
0

>  <SCORE.INTRA.POLAR.0>
0

>  <SCORE.INTRA.REPUL>
0

>  <SCORE.INTRA.REPUL.0>
0

>  <SCORE.INTRA.SOLV>
0

>  <SCORE.INTRA.SOLV.lig_0>
-14.8845

>  <SCORE.INTRA.VDW>
0

>  <SCORE.INTRA.VDW.0>
0

>  <SCORE.INTRA.norm>
0

>  <SCORE.RESTR>
0

>  <SCORE.RESTR.CAVITY>
0

>  <SCORE.RESTR.norm>
0

>  <SCORE.SYSTEM>
0

>  <SCORE.SYSTEM.CONST>
0

>  <SCORE.SYSTEM.DIHEDRAL>
0

>  <SCORE.SYSTEM.SOLV>
0

>  <SCORE.SYSTEM.norm>
0

>  <SCORE.heavy>
10

>  <SCORE.norm>
-3.54301

>  <RMSD>
3.197

$$$$
lig.pdb
 OpenBabel11021811523D
libRbt.so/2013.1/901 2013/11/27
 10 11  0  0  0  0  0  0  0  0999 V2000
  -28.8521   16.3228  -16.6486 N   0  0  0  0  0  0  0  0  0  0  0  0
  -28.5051   15.9255  -15.3865 C   0  0  0  0  0  0  0  0  0  0  0  0
  -29.3477   16.3122  -14.4587 N   0  0  0  0  0  0  0  0  0  0  0  0
  -30.3147   17.0133  -15.1593 C   0  0  0  0  0  0  0  0  0  0  0  0
  -31.4871   17.6759  -14.7516 C   0  0  0  0  0  0  0  0  0  0  0  0
  -31.8868   17.7417  -13.4774 N   0  0  0  0  0  0  0  0  0  0  0  0
  -32.2329   18.2744  -15.7060 N   0  0  0  0  0  0  0  0  0  0  0  0
  -31.8257   18.2076  -16.9783 C   0  0  0  0  0  0  0  0  0  0  0  0
  -30.7446   17.6135  -17.4822 N   0  0  0  0  0  0  0  0  0  0  0  0
  -30.0252   17.0293  -16.5108 C   0  0  0  0  0  0  0  0  0  0  0  0
  1 10  1  0  0  0  0
  2  3  2  0  0  0  0
  2  1  1  0  0  0  0
  3  4  1  0  0  0  0
  4 10  2  0  0  0  0
  4  5  1  0  0  0  0
  5  7  2  0  0  0  0
  6  5  1  0  0  0  0
  7  8  1  0  0  0  0
  9  8  2  0  0  0  0
 10  9  1  0  0  0  0
M  END
>  <CHROM.1>
-30.54603497,17.22079784,-15.61741162,0.13317447,0.54890258,-1.42744348

>  <Name>
lig.pdb

>  <RI>
1.17431e+07

>  <Rbt.Current_Directory>
/home/itssahil/PROJECTS/Mol_Feturizer/New_Systems/rnas/5uza

>  <Rbt.Executable>
rbdock ($Id: //depot/dev/client3/rdock/2013.1/src/exe/rbdock.cxx#4 $)

>  <Rbt.Library>
libRbt.so (2013.1, Build901 2013/11/27)

>  <Rbt.Parameter_File>
/export/apps/rDock/src/rDock_2013.1_src/data/scripts/dock_solv.prm

>  <Rbt.Receptor>
prm/pocket_docking_6.prm

>  <SCORE>
-35.425

>  <SCORE.INTER>
-35.425

>  <SCORE.INTER.CONST>
1

>  <SCORE.INTER.POLAR>
-4.63517

>  <SCORE.INTER.ROT>
0

>  <SCORE.INTER.SOLV>
10.9308

>  <SCORE.INTER.VDW>
-15.4097

>  <SCORE.INTER.norm>
-3.5425

>  <SCORE.INTRA>
0

>  <SCORE.INTRA.DIHEDRAL>
0

>  <SCORE.INTRA.DIHEDRAL.0>
0

>  <SCORE.INTRA.POLAR>
0

>  <SCORE.INTRA.POLAR.0>
0

>  <SCORE.INTRA.REPUL>
0

>  <SCORE.INTRA.REPUL.0>
0

>  <SCORE.INTRA.SOLV>
0

>  <SCORE.INTRA.SOLV.lig_0>
-14.8845

>  <SCORE.INTRA.VDW>
0

>  <SCORE.INTRA.VDW.0>
0

>  <SCORE.INTRA.norm>
0

>  <SCORE.RESTR>
0

>  <SCORE.RESTR.CAVITY>
0

>  <SCORE.RESTR.norm>
0

>  <SCORE.SYSTEM>
0

>  <SCORE.SYSTEM.CONST>
0

>  <SCORE.SYSTEM.DIHEDRAL>
0

>  <SCORE.SYSTEM.SOLV>
0

>  <SCORE.SYSTEM.norm>
0

>  <SCORE.heavy>
10

>  <SCORE.norm>
-3.5425

>  <RMSD>
3.197

$$$$
lig.pdb
 OpenBabel11021811523D
libRbt.so/2013.1/901 2013/11/27
 10 11  0  0  0  0  0  0  0  0999 V2000
  -28.8320   16.3042  -16.6465 N   0  0  0  0  0  0  0  0  0  0  0  0
  -28.4868   15.8969  -15.3872 C   0  0  0  0  0  0  0  0  0  0  0  0
  -29.3224   16.2895  -14.4555 N   0  0  0  0  0  0  0  0  0  0  0  0
  -30.2826   17.0054  -15.1504 C   0  0  0  0  0  0  0  0  0  0  0  0
  -31.4458   17.6803  -14.7368 C   0  0  0  0  0  0  0  0  0  0  0  0
  -31.8417   17.7451  -13.4613 N   0  0  0  0  0  0  0  0  0  0  0  0
  -32.1867   18.2921  -15.6866 N   0  0  0  0  0  0  0  0  0  0  0  0
  -31.7834   18.2262  -16.9603 C   0  0  0  0  0  0  0  0  0  0  0  0
  -30.7108   17.6214  -17.4695 N   0  0  0  0  0  0  0  0  0  0  0  0
  -29.9962   17.0242  -16.5026 C   0  0  0  0  0  0  0  0  0  0  0  0
  1 10  1  0  0  0  0
  2  3  2  0  0  0  0
  2  1  1  0  0  0  0
  3  4  1  0  0  0  0
  4 10  2  0  0  0  0
  4  5  1  0  0  0  0
  5  7  2  0  0  0  0
  6  5  1  0  0  0  0
  7  8  1  0  0  0  0
  9  8  2  0  0  0  0
 10  9  1  0  0  0  0
M  END
>  <CHROM.1>
-30.51246843,17.21781979,-15.60705430,0.13397896,0.56120675,-1.42328962

>  <Name>
lig.pdb

>  <RI>
2.12818e+07

>  <Rbt.Current_Directory>
/home/itssahil/PROJECTS/Mol_Feturizer/New_Systems/rnas/5uza

>  <Rbt.Executable>
rbdock ($Id: //depot/dev/client3/rdock/2013.1/src/exe/rbdock.cxx#4 $)

>  <Rbt.Library>
libRbt.so (2013.1, Build901 2013/11/27)

>  <Rbt.Parameter_File>
/export/apps/rDock/src/rDock_2013.1_src/data/scripts/dock_solv.prm

>  <Rbt.Receptor>
prm/pocket_docking_7.prm

>  <SCORE>
-35.406

>  <SCORE.INTER>
-35.406

>  <SCORE.INTER.CONST>
1

>  <SCORE.INTER.POLAR>
-4.64959

>  <SCORE.INTER.ROT>
0

>  <SCORE.INTER.SOLV>
10.9397

>  <SCORE.INTER.VDW>
-15.3519

>  <SCORE.INTER.norm>
-3.5406

>  <SCORE.INTRA>
0

>  <SCORE.INTRA.DIHEDRAL>
0

>  <SCORE.INTRA.DIHEDRAL.0>
0

>  <SCORE.INTRA.POLAR>
0

>  <SCORE.INTRA.POLAR.0>
0

>  <SCORE.INTRA.REPUL>
0

>  <SCORE.INTRA.REPUL.0>
0

>  <SCORE.INTRA.SOLV>
0

>  <SCORE.INTRA.SOLV.lig_0>
-14.8845

>  <SCORE.INTRA.VDW>
0

>  <SCORE.INTRA.VDW.0>
0

>  <SCORE.INTRA.norm>
0

>  <SCORE.RESTR>
0

>  <SCORE.RESTR.CAVITY>
0

>  <SCORE.RESTR.norm>
0

>  <SCORE.SYSTEM>
0

>  <SCORE.SYSTEM.CONST>
0

>  <SCORE.SYSTEM.DIHEDRAL>
0

>  <SCORE.SYSTEM.SOLV>
0

>  <SCORE.SYSTEM.norm>
0

>  <SCORE.heavy>
10

>  <SCORE.norm>
-3.5406

>  <RMSD>
3.197

$$$$
lig.pdb
 OpenBabel11021811523D
libRbt.so/2013.1/901 2013/11/27
 10 11  0  0  0  0  0  0  0  0999 V2000
  -28.8356   16.3112  -16.6477 N   0  0  0  0  0  0  0  0  0  0  0  0
  -28.4952   15.9062  -15.3863 C   0  0  0  0  0  0  0  0  0  0  0  0
  -29.3401   16.2913  -14.4599 N   0  0  0  0  0  0  0  0  0  0  0  0
  -30.3016   16.9996  -15.1607 C   0  0  0  0  0  0  0  0  0  0  0  0
  -31.4731   17.6645  -14.7544 C   0  0  0  0  0  0  0  0  0  0  0  0
  -31.8778   17.7253  -13.4815 N   0  0  0  0  0  0  0  0  0  0  0  0
  -32.2129   18.2707  -15.7087 N   0  0  0  0  0  0  0  0  0  0  0  0
  -31.8007   18.2089  -16.9797 C   0  0  0  0  0  0  0  0  0  0  0  0
  -30.7199   17.6133  -17.4823 N   0  0  0  0  0  0  0  0  0  0  0  0
  -30.0066   17.0215  -16.5110 C   0  0  0  0  0  0  0  0  0  0  0  0
  1 10  1  0  0  0  0
  2  3  2  0  0  0  0
  2  1  1  0  0  0  0
  3  4  1  0  0  0  0
  4 10  2  0  0  0  0
  4  5  1  0  0  0  0
  5  7  2  0  0  0  0
  6  5  1  0  0  0  0
  7  8  1  0  0  0  0
  9  8  2  0  0  0  0
 10  9  1  0  0  0  0
M  END
>  <CHROM.1>
-30.53030008,17.21031966,-15.61874493,0.12784402,0.55201677,-1.41950726

>  <Name>
lig.pdb

>  <RI>
1.17775e+07

>  <Rbt.Current_Directory>
/home/itssahil/PROJECTS/Mol_Feturizer/New_Systems/rnas/5uza

>  <Rbt.Executable>
rbdock ($Id: //depot/dev/client3/rdock/2013.1/src/exe/rbdock.cxx#4 $)

>  <Rbt.Library>
libRbt.so (2013.1, Build901 2013/11/27)

>  <Rbt.Parameter_File>
/export/apps/rDock/src/rDock_2013.1_src/data/scripts/dock_solv.prm

>  <Rbt.Receptor>
prm/pocket_docking_8.prm

>  <SCORE>
-35.4404

>  <SCORE.INTER>
-35.4404

>  <SCORE.INTER.CONST>
1

>  <SCORE.INTER.POLAR>
-4.62933

>  <SCORE.INTER.ROT>
0

>  <SCORE.INTER.SOLV>
10.9309

>  <SCORE.INTER.VDW>
-15.4394

>  <SCORE.INTER.norm>
-3.54404

>  <SCORE.INTRA>
0

>  <SCORE.INTRA.DIHEDRAL>
0

>  <SCORE.INTRA.DIHEDRAL.0>
0

>  <SCORE.INTRA.POLAR>
0

>  <SCORE.INTRA.POLAR.0>
0

>  <SCORE.INTRA.REPUL>
0

>  <SCORE.INTRA.REPUL.0>
0

>  <SCORE.INTRA.SOLV>
0

>  <SCORE.INTRA.SOLV.lig_0>
-14.8845

>  <SCORE.INTRA.VDW>
0

>  <SCORE.INTRA.VDW.0>
0

>  <SCORE.INTRA.norm>
0

>  <SCORE.RESTR>
0

>  <SCORE.RESTR.CAVITY>
0

>  <SCORE.RESTR.norm>
0

>  <SCORE.SYSTEM>
0

>  <SCORE.SYSTEM.CONST>
0

>  <SCORE.SYSTEM.DIHEDRAL>
0

>  <SCORE.SYSTEM.SOLV>
0

>  <SCORE.SYSTEM.norm>
0

>  <SCORE.heavy>
10

>  <SCORE.norm>
-3.54404

>  <RMSD>
3.197

$$$$
lig.pdb
 OpenBabel11021811523D
libRbt.so/2013.1/901 2013/11/27
 10 11  0  0  0  0  0  0  0  0999 V2000
  -28.8481   16.2667  -16.6514 N   0  0  0  0  0  0  0  0  0  0  0  0
  -28.5181   15.8343  -15.3963 C   0  0  0  0  0  0  0  0  0  0  0  0
  -29.3484   16.2335  -14.4628 N   0  0  0  0  0  0  0  0  0  0  0  0
  -30.2886   16.9811  -15.1517 C   0  0  0  0  0  0  0  0  0  0  0  0
  -31.4376   17.6772  -14.7337 C   0  0  0  0  0  0  0  0  0  0  0  0
  -31.8375   17.7337  -13.4590 N   0  0  0  0  0  0  0  0  0  0  0  0
  -32.1599   18.3191  -15.6780 N   0  0  0  0  0  0  0  0  0  0  0  0
  -31.7525   18.2612  -16.9507 C   0  0  0  0  0  0  0  0  0  0  0  0
  -30.6921   17.6386  -17.4639 N   0  0  0  0  0  0  0  0  0  0  0  0
  -29.9958   17.0116  -16.5024 C   0  0  0  0  0  0  0  0  0  0  0  0
  1 10  1  0  0  0  0
  2  3  2  0  0  0  0
  2  1  1  0  0  0  0
  3  4  1  0  0  0  0
  4 10  2  0  0  0  0
  4  5  1  0  0  0  0
  5  7  2  0  0  0  0
  6  5  1  0  0  0  0
  7  8  1  0  0  0  0
  9  8  2  0  0  0  0
 10  9  1  0  0  0  0
M  END
>  <CHROM.1>
-30.51144891,17.20500051,-15.60634049,0.12462280,0.58355882,-1.40449505

>  <Name>
lig.pdb

>  <RI>
1.17431e+07

>  <Rbt.Current_Directory>
/home/itssahil/PROJECTS/Mol_Feturizer/New_Systems/rnas/5uza

>  <Rbt.Executable>
rbdock ($Id: //depot/dev/client3/rdock/2013.1/src/exe/rbdock.cxx#4 $)

>  <Rbt.Library>
libRbt.so (2013.1, Build901 2013/11/27)

>  <Rbt.Parameter_File>
/export/apps/rDock/src/rDock_2013.1_src/data/scripts/dock_solv.prm

>  <Rbt.Receptor>
prm/pocket_docking_6.prm

>  <SCORE>
-35.4226

>  <SCORE.INTER>
-35.4226

>  <SCORE.INTER.CONST>
1

>  <SCORE.INTER.POLAR>
-4.59085

>  <SCORE.INTER.ROT>
0

>  <SCORE.INTER.SOLV>
10.9531

>  <SCORE.INTER.VDW>
-15.5633

>  <SCORE.INTER.norm>
-3.54226

>  <SCORE.INTRA>
0

>  <SCORE.INTRA.DIHEDRAL>
0

>  <SCORE.INTRA.DIHEDRAL.0>
0

>  <SCORE.INTRA.POLAR>
0

>  <SCORE.INTRA.POLAR.0>
0

>  <SCORE.INTRA.REPUL>
0

>  <SCORE.INTRA.REPUL.0>
0

>  <SCORE.INTRA.SOLV>
0

>  <SCORE.INTRA.SOLV.lig_0>
-14.8845

>  <SCORE.INTRA.VDW>
0

>  <SCORE.INTRA.VDW.0>
0

>  <SCORE.INTRA.norm>
0

>  <SCORE.RESTR>
0

>  <SCORE.RESTR.CAVITY>
0

>  <SCORE.RESTR.norm>
0

>  <SCORE.SYSTEM>
0

>  <SCORE.SYSTEM.CONST>
0

>  <SCORE.SYSTEM.DIHEDRAL>
0

>  <SCORE.SYSTEM.SOLV>
0

>  <SCORE.SYSTEM.norm>
0

>  <SCORE.heavy>
10

>  <SCORE.norm>
-3.54226

>  <RMSD>
3.198

$$$$
lig.pdb
 OpenBabel11021811523D
libRbt.so/2013.1/901 2013/11/27
 10 11  0  0  0  0  0  0  0  0999 V2000
  -28.8485   16.2606  -16.6447 N   0  0  0  0  0  0  0  0  0  0  0  0
  -28.5124   15.8441  -15.3859 C   0  0  0  0  0  0  0  0  0  0  0  0
  -29.3450   16.2450  -14.4550 N   0  0  0  0  0  0  0  0  0  0  0  0
  -30.2931   16.9767  -15.1499 C   0  0  0  0  0  0  0  0  0  0  0  0
  -31.4480   17.6662  -14.7370 C   0  0  0  0  0  0  0  0  0  0  0  0
  -31.8464   17.7320  -13.4623 N   0  0  0  0  0  0  0  0  0  0  0  0
  -32.1777   18.2917  -15.6866 N   0  0  0  0  0  0  0  0  0  0  0  0
  -31.7719   18.2247  -16.9594 C   0  0  0  0  0  0  0  0  0  0  0  0
  -30.7065   17.6068  -17.4679 N   0  0  0  0  0  0  0  0  0  0  0  0
  -30.0029   16.9962  -16.5013 C   0  0  0  0  0  0  0  0  0  0  0  0
  1 10  1  0  0  0  0
  2  3  2  0  0  0  0
  2  1  1  0  0  0  0
  3  4  1  0  0  0  0
  4 10  2  0  0  0  0
  4  5  1  0  0  0  0
  5  7  2  0  0  0  0
  6  5  1  0  0  0  0
  7  8  1  0  0  0  0
  9  8  2  0  0  0  0
 10  9  1  0  0  0  0
M  END
>  <CHROM.1>
-30.51884284,17.19389791,-15.60640325,0.12833947,0.57458703,-1.41668188

>  <Name>
lig.pdb

>  <RI>
2.12818e+07

>  <Rbt.Current_Directory>
/home/itssahil/PROJECTS/Mol_Feturizer/New_Systems/rnas/5uza

>  <Rbt.Executable>
rbdock ($Id: //depot/dev/client3/rdock/2013.1/src/exe/rbdock.cxx#4 $)

>  <Rbt.Library>
libRbt.so (2013.1, Build901 2013/11/27)

>  <Rbt.Parameter_File>
/export/apps/rDock/src/rDock_2013.1_src/data/scripts/dock_solv.prm

>  <Rbt.Receptor>
prm/pocket_docking_7.prm

>  <SCORE>
-35.441

>  <SCORE.INTER>
-35.441

>  <SCORE.INTER.CONST>
1

>  <SCORE.INTER.POLAR>
-4.60187

>  <SCORE.INTER.ROT>
0

>  <SCORE.INTER.SOLV>
10.9288

>  <SCORE.INTER.VDW>
-15.5307

>  <SCORE.INTER.norm>
-3.5441

>  <SCORE.INTRA>
0

>  <SCORE.INTRA.DIHEDRAL>
0

>  <SCORE.INTRA.DIHEDRAL.0>
0

>  <SCORE.INTRA.POLAR>
0

>  <SCORE.INTRA.POLAR.0>
0

>  <SCORE.INTRA.REPUL>
0

>  <SCORE.INTRA.REPUL.0>
0

>  <SCORE.INTRA.SOLV>
0

>  <SCORE.INTRA.SOLV.lig_0>
-14.8845

>  <SCORE.INTRA.VDW>
0

>  <SCORE.INTRA.VDW.0>
0

>  <SCORE.INTRA.norm>
0

>  <SCORE.RESTR>
0

>  <SCORE.RESTR.CAVITY>
0

>  <SCORE.RESTR.norm>
0

>  <SCORE.SYSTEM>
0

>  <SCORE.SYSTEM.CONST>
0

>  <SCORE.SYSTEM.DIHEDRAL>
0

>  <SCORE.SYSTEM.SOLV>
0

>  <SCORE.SYSTEM.norm>
0

>  <SCORE.heavy>
10

>  <SCORE.norm>
-3.5441

>  <RMSD>
3.201

$$$$
lig.pdb
 OpenBabel11021811523D
libRbt.so/2013.1/901 2013/11/27
 10 11  0  0  0  0  0  0  0  0999 V2000
  -28.8457   16.2635  -16.6417 N   0  0  0  0  0  0  0  0  0  0  0  0
  -28.5113   15.8476  -15.3823 C   0  0  0  0  0  0  0  0  0  0  0  0
  -29.3463   16.2470  -14.4530 N   0  0  0  0  0  0  0  0  0  0  0  0
  -30.2945   16.9770  -15.1496 C   0  0  0  0  0  0  0  0  0  0  0  0
  -31.4513   17.6645  -14.7389 C   0  0  0  0  0  0  0  0  0  0  0  0
  -31.8522   17.7296  -13.4649 N   0  0  0  0  0  0  0  0  0  0  0  0
  -32.1804   18.2888  -15.6898 N   0  0  0  0  0  0  0  0  0  0  0  0
  -31.7720   18.2225  -16.9618 C   0  0  0  0  0  0  0  0  0  0  0  0
  -30.7046   17.6066  -17.4684 N   0  0  0  0  0  0  0  0  0  0  0  0
  -30.0017   16.9971  -16.5004 C   0  0  0  0  0  0  0  0  0  0  0  0
  1 10  1  0  0  0  0
  2  3  2  0  0  0  0
  2  1  1  0  0  0  0
  3  4  1  0  0  0  0
  4 10  2  0  0  0  0
  4  5  1  0  0  0  0
  5  7  2  0  0  0  0
  6  5  1  0  0  0  0
  7  8  1  0  0  0  0
  9  8  2  0  0  0  0
 10  9  1  0  0  0  0
M  END
>  <CHROM.1>
-30.51970719,17.19385803,-15.60652417,0.12644612,0.57257506,-1.41561098

>  <Name>
lig.pdb

>  <RI>
2.12818e+07

>  <Rbt.Current_Directory>
/home/itssahil/PROJECTS/Mol_Feturizer/New_Systems/rnas/5uza

>  <Rbt.Executable>
rbdock ($Id: //depot/dev/client3/rdock/2013.1/src/exe/rbdock.cxx#4 $)

>  <Rbt.Library>
libRbt.so (2013.1, Build901 2013/11/27)

>  <Rbt.Parameter_File>
/export/apps/rDock/src/rDock_2013.1_src/data/scripts/dock_solv.prm

>  <Rbt.Receptor>
prm/pocket_docking_7.prm

>  <SCORE>
-35.4415

>  <SCORE.INTER>
-35.4415

>  <SCORE.INTER.CONST>
1

>  <SCORE.INTER.POLAR>
-4.60496

>  <SCORE.INTER.ROT>
0

>  <SCORE.INTER.SOLV>
10.9291

>  <SCORE.INTER.VDW>
-15.5209

>  <SCORE.INTER.norm>
-3.54415

>  <SCORE.INTRA>
0

>  <SCORE.INTRA.DIHEDRAL>
0

>  <SCORE.INTRA.DIHEDRAL.0>
0

>  <SCORE.INTRA.POLAR>
0

>  <SCORE.INTRA.POLAR.0>
0

>  <SCORE.INTRA.REPUL>
0

>  <SCORE.INTRA.REPUL.0>
0

>  <SCORE.INTRA.SOLV>
0

>  <SCORE.INTRA.SOLV.lig_0>
-14.8845

>  <SCORE.INTRA.VDW>
0

>  <SCORE.INTRA.VDW.0>
0

>  <SCORE.INTRA.norm>
0

>  <SCORE.RESTR>
0

>  <SCORE.RESTR.CAVITY>
0

>  <SCORE.RESTR.norm>
0

>  <SCORE.SYSTEM>
0

>  <SCORE.SYSTEM.CONST>
0

>  <SCORE.SYSTEM.DIHEDRAL>
0

>  <SCORE.SYSTEM.SOLV>
0

>  <SCORE.SYSTEM.norm>
0

>  <SCORE.heavy>
10

>  <SCORE.norm>
-3.54415

>  <RMSD>
3.202

$$$$
lig.pdb
 OpenBabel11021811523D
libRbt.so/2013.1/901 2013/11/27
 10 11  0  0  0  0  0  0  0  0999 V2000
  -28.8514   16.2604  -16.6435 N   0  0  0  0  0  0  0  0  0  0  0  0
  -28.5140   15.8458  -15.3845 C   0  0  0  0  0  0  0  0  0  0  0  0
  -29.3455   16.2482  -14.4533 N   0  0  0  0  0  0  0  0  0  0  0  0
  -30.2944   16.9789  -15.1483 C   0  0  0  0  0  0  0  0  0  0  0  0
  -31.4488   17.6691  -14.7351 C   0  0  0  0  0  0  0  0  0  0  0  0
  -31.8457   17.7368  -13.4601 N   0  0  0  0  0  0  0  0  0  0  0  0
  -32.1795   18.2933  -15.6848 N   0  0  0  0  0  0  0  0  0  0  0  0
  -31.7750   18.2243  -16.9579 C   0  0  0  0  0  0  0  0  0  0  0  0
  -30.7103   17.6056  -17.4667 N   0  0  0  0  0  0  0  0  0  0  0  0
  -30.0056   16.9964  -16.5000 C   0  0  0  0  0  0  0  0  0  0  0  0
  1 10  1  0  0  0  0
  2  3  2  0  0  0  0
  2  1  1  0  0  0  0
  3  4  1  0  0  0  0
  4 10  2  0  0  0  0
  4  5  1  0  0  0  0
  5  7  2  0  0  0  0
  6  5  1  0  0  0  0
  7  8  1  0  0  0  0
  9  8  2  0  0  0  0
 10  9  1  0  0  0  0
M  END
>  <CHROM.1>
-30.52059354,17.19542899,-15.60481015,0.12961009,0.57484106,-1.41885324

>  <Name>
lig.pdb

>  <RI>
2.12818e+07

>  <Rbt.Current_Directory>
/home/itssahil/PROJECTS/Mol_Feturizer/New_Systems/rnas/5uza

>  <Rbt.Executable>
rbdock ($Id: //depot/dev/client3/rdock/2013.1/src/exe/rbdock.cxx#4 $)

>  <Rbt.Library>
libRbt.so (2013.1, Build901 2013/11/27)

>  <Rbt.Parameter_File>
/export/apps/rDock/src/rDock_2013.1_src/data/scripts/dock_solv.prm

>  <Rbt.Receptor>
prm/pocket_docking_7.prm

>  <SCORE>
-35.4443

>  <SCORE.INTER>
-35.4443

>  <SCORE.INTER.CONST>
1

>  <SCORE.INTER.POLAR>
-4.60501

>  <SCORE.INTER.ROT>
0

>  <SCORE.INTER.SOLV>
10.9286

>  <SCORE.INTER.VDW>
-15.5224

>  <SCORE.INTER.norm>
-3.54443

>  <SCORE.INTRA>
0

>  <SCORE.INTRA.DIHEDRAL>
0

>  <SCORE.INTRA.DIHEDRAL.0>
0

>  <SCORE.INTRA.POLAR>
0

>  <SCORE.INTRA.POLAR.0>
0

>  <SCORE.INTRA.REPUL>
0

>  <SCORE.INTRA.REPUL.0>
0

>  <SCORE.INTRA.SOLV>
0

>  <SCORE.INTRA.SOLV.lig_0>
-14.8845

>  <SCORE.INTRA.VDW>
0

>  <SCORE.INTRA.VDW.0>
0

>  <SCORE.INTRA.norm>
0

>  <SCORE.RESTR>
0

>  <SCORE.RESTR.CAVITY>
0

>  <SCORE.RESTR.norm>
0

>  <SCORE.SYSTEM>
0

>  <SCORE.SYSTEM.CONST>
0

>  <SCORE.SYSTEM.DIHEDRAL>
0

>  <SCORE.SYSTEM.SOLV>
0

>  <SCORE.SYSTEM.norm>
0

>  <SCORE.heavy>
10

>  <SCORE.norm>
-3.54443

>  <RMSD>
3.202

$$$$
lig.pdb
 OpenBabel11021811523D
libRbt.so/2013.1/901 2013/11/27
 10 11  0  0  0  0  0  0  0  0999 V2000
  -28.8550   16.2461  -16.6471 N   0  0  0  0  0  0  0  0  0  0  0  0
  -28.5127   15.8353  -15.3881 C   0  0  0  0  0  0  0  0  0  0  0  0
  -29.3393   16.2423  -14.4547 N   0  0  0  0  0  0  0  0  0  0  0  0
  -30.2901   16.9721  -15.1479 C   0  0  0  0  0  0  0  0  0  0  0  0
  -31.4415   17.6657  -14.7319 C   0  0  0  0  0  0  0  0  0  0  0  0
  -31.8326   17.7385  -13.4554 N   0  0  0  0  0  0  0  0  0  0  0  0
  -32.1754   18.2878  -15.6805 N   0  0  0  0  0  0  0  0  0  0  0  0
  -31.7768   18.2138  -16.9552 C   0  0  0  0  0  0  0  0  0  0  0  0
  -30.7153   17.5916  -17.4666 N   0  0  0  0  0  0  0  0  0  0  0  0
  -30.0074   16.9845  -16.5009 C   0  0  0  0  0  0  0  0  0  0  0  0
  1 10  1  0  0  0  0
  2  3  2  0  0  0  0
  2  1  1  0  0  0  0
  3  4  1  0  0  0  0
  4 10  2  0  0  0  0
  4  5  1  0  0  0  0
  5  7  2  0  0  0  0
  6  5  1  0  0  0  0
  7  8  1  0  0  0  0
  9  8  2  0  0  0  0
 10  9  1  0  0  0  0
M  END
>  <CHROM.1>
-30.51798880,17.18749592,-15.60414217,0.13461139,0.57714048,-1.42503725

>  <Name>
lig.pdb

>  <RI>
2.12818e+07

>  <Rbt.Current_Directory>
/home/itssahil/PROJECTS/Mol_Feturizer/New_Systems/rnas/5uza

>  <Rbt.Executable>
rbdock ($Id: //depot/dev/client3/rdock/2013.1/src/exe/rbdock.cxx#4 $)

>  <Rbt.Library>
libRbt.so (2013.1, Build901 2013/11/27)

>  <Rbt.Parameter_File>
/export/apps/rDock/src/rDock_2013.1_src/data/scripts/dock_solv.prm

>  <Rbt.Receptor>
prm/pocket_docking_7.prm

>  <SCORE>
-35.458

>  <SCORE.INTER>
-35.458

>  <SCORE.INTER.CONST>
1

>  <SCORE.INTER.POLAR>
-4.59914

>  <SCORE.INTER.ROT>
0

>  <SCORE.INTER.SOLV>
10.9243

>  <SCORE.INTER.VDW>
-15.5496

>  <SCORE.INTER.norm>
-3.5458

>  <SCORE.INTRA>
0

>  <SCORE.INTRA.DIHEDRAL>
0

>  <SCORE.INTRA.DIHEDRAL.0>
0

>  <SCORE.INTRA.POLAR>
0

>  <SCORE.INTRA.POLAR.0>
0

>  <SCORE.INTRA.REPUL>
0

>  <SCORE.INTRA.REPUL.0>
0

>  <SCORE.INTRA.SOLV>
0

>  <SCORE.INTRA.SOLV.lig_0>
-14.8845

>  <SCORE.INTRA.VDW>
0

>  <SCORE.INTRA.VDW.0>
0

>  <SCORE.INTRA.norm>
0

>  <SCORE.RESTR>
0

>  <SCORE.RESTR.CAVITY>
0

>  <SCORE.RESTR.norm>
0

>  <SCORE.SYSTEM>
0

>  <SCORE.SYSTEM.CONST>
0

>  <SCORE.SYSTEM.DIHEDRAL>
0

>  <SCORE.SYSTEM.SOLV>
0

>  <SCORE.SYSTEM.norm>
0

>  <SCORE.heavy>
10

>  <SCORE.norm>
-3.5458

>  <RMSD>
3.202

$$$$
lig.pdb
 OpenBabel11021811523D
libRbt.so/2013.1/901 2013/11/27
 10 11  0  0  0  0  0  0  0  0999 V2000
  -28.8533   16.2480  -16.6420 N   0  0  0  0  0  0  0  0  0  0  0  0
  -28.5152   15.8351  -15.3826 C   0  0  0  0  0  0  0  0  0  0  0  0
  -29.3450   16.2406  -14.4513 N   0  0  0  0  0  0  0  0  0  0  0  0
  -30.2935   16.9715  -15.1465 C   0  0  0  0  0  0  0  0  0  0  0  0
  -31.4463   17.6644  -14.7334 C   0  0  0  0  0  0  0  0  0  0  0  0
  -31.8418   17.7352  -13.4581 N   0  0  0  0  0  0  0  0  0  0  0  0
  -32.1770   18.2880  -15.6835 N   0  0  0  0  0  0  0  0  0  0  0  0
  -31.7741   18.2160  -16.9569 C   0  0  0  0  0  0  0  0  0  0  0  0
  -30.7108   17.5947  -17.4657 N   0  0  0  0  0  0  0  0  0  0  0  0
  -30.0061   16.9861  -16.4986 C   0  0  0  0  0  0  0  0  0  0  0  0
  1 10  1  0  0  0  0
  2  3  2  0  0  0  0
  2  1  1  0  0  0  0
  3  4  1  0  0  0  0
  4 10  2  0  0  0  0
  4  5  1  0  0  0  0
  5  7  2  0  0  0  0
  6  5  1  0  0  0  0
  7  8  1  0  0  0  0
  9  8  2  0  0  0  0
 10  9  1  0  0  0  0
M  END
>  <CHROM.1>
-30.51981584,17.18761907,-15.60324149,0.13060020,0.57660245,-1.42125210

>  <Name>
lig.pdb

>  <RI>
2.26746e+07

>  <Rbt.Current_Directory>
/home/itssahil/PROJECTS/Mol_Feturizer/New_Systems/rnas/5uza

>  <Rbt.Executable>
rbdock ($Id: //depot/dev/client3/rdock/2013.1/src/exe/rbdock.cxx#4 $)

>  <Rbt.Library>
libRbt.so (2013.1, Build901 2013/11/27)

>  <Rbt.Parameter_File>
/export/apps/rDock/src/rDock_2013.1_src/data/scripts/dock_solv.prm

>  <Rbt.Receptor>
prm/blind_docking_100.prm

>  <SCORE>
-35.4596

>  <SCORE.INTER>
-35.4596

>  <SCORE.INTER.CONST>
1

>  <SCORE.INTER.POLAR>
-4.59954

>  <SCORE.INTER.ROT>
0

>  <SCORE.INTER.SOLV>
10.9254

>  <SCORE.INTER.VDW>
-15.5498

>  <SCORE.INTER.norm>
-3.54596

>  <SCORE.INTRA>
0

>  <SCORE.INTRA.DIHEDRAL>
0

>  <SCORE.INTRA.DIHEDRAL.0>
0

>  <SCORE.INTRA.POLAR>
0

>  <SCORE.INTRA.POLAR.0>
0

>  <SCORE.INTRA.REPUL>
0

>  <SCORE.INTRA.REPUL.0>
0

>  <SCORE.INTRA.SOLV>
0

>  <SCORE.INTRA.SOLV.lig_0>
-14.8845

>  <SCORE.INTRA.VDW>
0

>  <SCORE.INTRA.VDW.0>
0

>  <SCORE.INTRA.norm>
0

>  <SCORE.RESTR>
0

>  <SCORE.RESTR.CAVITY>
0

>  <SCORE.RESTR.norm>
0

>  <SCORE.SYSTEM>
0

>  <SCORE.SYSTEM.CONST>
0

>  <SCORE.SYSTEM.DIHEDRAL>
0

>  <SCORE.SYSTEM.SOLV>
0

>  <SCORE.SYSTEM.norm>
0

>  <SCORE.heavy>
10

>  <SCORE.norm>
-3.54596

>  <RMSD>
3.203

$$$$
lig.pdb
 OpenBabel11021811523D
libRbt.so/2013.1/901 2013/11/27
 10 11  0  0  0  0  0  0  0  0999 V2000
  -28.8545   16.2494  -16.6419 N   0  0  0  0  0  0  0  0  0  0  0  0
  -28.5141   15.8400  -15.3819 C   0  0  0  0  0  0  0  0  0  0  0  0
  -29.3437   16.2459  -14.4505 N   0  0  0  0  0  0  0  0  0  0  0  0
  -30.2944   16.9734  -15.1463 C   0  0  0  0  0  0  0  0  0  0  0  0
  -31.4481   17.6649  -14.7334 C   0  0  0  0  0  0  0  0  0  0  0  0
  -31.8423   17.7377  -13.4578 N   0  0  0  0  0  0  0  0  0  0  0  0
  -32.1811   18.2849  -15.6840 N   0  0  0  0  0  0  0  0  0  0  0  0
  -31.7795   18.2110  -16.9577 C   0  0  0  0  0  0  0  0  0  0  0  0
  -30.7156   17.5906  -17.4664 N   0  0  0  0  0  0  0  0  0  0  0  0
  -30.0086   16.9855  -16.4987 C   0  0  0  0  0  0  0  0  0  0  0  0
  1 10  1  0  0  0  0
  2  3  2  0  0  0  0
  2  1  1  0  0  0  0
  3  4  1  0  0  0  0
  4 10  2  0  0  0  0
  4  5  1  0  0  0  0
  5  7  2  0  0  0  0
  6  5  1  0  0  0  0
  7  8  1  0  0  0  0
  9  8  2  0  0  0  0
 10  9  1  0  0  0  0
M  END
>  <CHROM.1>
-30.52166905,17.18802050,-15.60325528,0.13229879,0.57480342,-1.42438545

>  <Name>
lig.pdb

>  <RI>
0

>  <Rbt.Current_Directory>
/home/itssahil/PROJECTS/Mol_Feturizer/New_Systems/rnas/5uza

>  <Rbt.Executable>
rbdock ($Id: //depot/dev/client3/rdock/2013.1/src/exe/rbdock.cxx#4 $)

>  <Rbt.Library>
libRbt.so (2013.1, Build901 2013/11/27)

>  <Rbt.Parameter_File>
/export/apps/rDock/src/rDock_2013.1_src/data/scripts/dock_solv.prm

>  <Rbt.Receptor>
prm/blind_docking_80.prm

>  <SCORE>
-35.4606

>  <SCORE.INTER>
-35.4606

>  <SCORE.INTER.CONST>
1

>  <SCORE.INTER.POLAR>
-4.60381

>  <SCORE.INTER.ROT>
0

>  <SCORE.INTER.SOLV>
10.9242

>  <SCORE.INTER.VDW>
-15.5358

>  <SCORE.INTER.norm>
-3.54606

>  <SCORE.INTRA>
0

>  <SCORE.INTRA.DIHEDRAL>
0

>  <SCORE.INTRA.DIHEDRAL.0>
0

>  <SCORE.INTRA.POLAR>
0

>  <SCORE.INTRA.POLAR.0>
0

>  <SCORE.INTRA.REPUL>
0

>  <SCORE.INTRA.REPUL.0>
0

>  <SCORE.INTRA.SOLV>
0

>  <SCORE.INTRA.SOLV.lig_0>
-14.8845

>  <SCORE.INTRA.VDW>
0

>  <SCORE.INTRA.VDW.0>
0

>  <SCORE.INTRA.norm>
0

>  <SCORE.RESTR>
0

>  <SCORE.RESTR.CAVITY>
0

>  <SCORE.RESTR.norm>
0

>  <SCORE.SYSTEM>
0

>  <SCORE.SYSTEM.CONST>
0

>  <SCORE.SYSTEM.DIHEDRAL>
0

>  <SCORE.SYSTEM.SOLV>
0

>  <SCORE.SYSTEM.norm>
0

>  <SCORE.heavy>
10

>  <SCORE.norm>
-3.54606

>  <RMSD>
3.203

$$$$
lig.pdb
 OpenBabel11021811523D
libRbt.so/2013.1/901 2013/11/27
 10 11  0  0  0  0  0  0  0  0999 V2000
  -28.9116   16.2105  -16.6617 N   0  0  0  0  0  0  0  0  0  0  0  0
  -28.5780   15.7910  -15.4032 C   0  0  0  0  0  0  0  0  0  0  0  0
  -29.4039   16.2026  -14.4711 N   0  0  0  0  0  0  0  0  0  0  0  0
  -30.3447   16.9450  -15.1647 C   0  0  0  0  0  0  0  0  0  0  0  0
  -31.4904   17.6486  -14.7502 C   0  0  0  0  0  0  0  0  0  0  0  0
  -31.8855   17.7202  -13.4748 N   0  0  0  0  0  0  0  0  0  0  0  0
  -32.2145   18.2820  -15.6988 N   0  0  0  0  0  0  0  0  0  0  0  0
  -31.8120   18.2091  -16.9723 C   0  0  0  0  0  0  0  0  0  0  0  0
  -30.7550   17.5782  -17.4824 N   0  0  0  0  0  0  0  0  0  0  0  0
  -30.0568   16.9600  -16.5167 C   0  0  0  0  0  0  0  0  0  0  0  0
  1 10  1  0  0  0  0
  2  3  2  0  0  0  0
  2  1  1  0  0  0  0
  3  4  1  0  0  0  0
  4 10  2  0  0  0  0
  4  5  1  0  0  0  0
  5  7  2  0  0  0  0
  6  5  1  0  0  0  0
  7  8  1  0  0  0  0
  9  8  2  0  0  0  0
 10  9  1  0  0  0  0
M  END
>  <CHROM.1>
-30.56865626,17.16451805,-15.62093763,0.12845061,0.58668521,-1.41755751

>  <Name>
lig.pdb

>  <RI>
0

>  <Rbt.Current_Directory>
/home/itssahil/PROJECTS/Mol_Feturizer/New_Systems/rnas/5uza

>  <Rbt.Executable>
rbdock ($Id: //depot/dev/client3/rdock/2013.1/src/exe/rbdock.cxx#4 $)

>  <Rbt.Library>
libRbt.so (2013.1, Build901 2013/11/27)

>  <Rbt.Parameter_File>
/export/apps/rDock/src/rDock_2013.1_src/data/scripts/dock_solv.prm

>  <Rbt.Receptor>
prm/pocket_docking_3.prm

>  <SCORE>
-35.3693

>  <SCORE.INTER>
-35.3693

>  <SCORE.INTER.CONST>
1

>  <SCORE.INTER.POLAR>
-4.49595

>  <SCORE.INTER.ROT>
0

>  <SCORE.INTER.SOLV>
10.9175

>  <SCORE.INTER.VDW>
-15.8322

>  <SCORE.INTER.norm>
-3.53693

>  <SCORE.INTRA>
0

>  <SCORE.INTRA.DIHEDRAL>
0

>  <SCORE.INTRA.DIHEDRAL.0>
0

>  <SCORE.INTRA.POLAR>
0

>  <SCORE.INTRA.POLAR.0>
0

>  <SCORE.INTRA.REPUL>
0

>  <SCORE.INTRA.REPUL.0>
0

>  <SCORE.INTRA.SOLV>
0

>  <SCORE.INTRA.SOLV.lig_0>
-14.8845

>  <SCORE.INTRA.VDW>
0

>  <SCORE.INTRA.VDW.0>
0

>  <SCORE.INTRA.norm>
0

>  <SCORE.RESTR>
0

>  <SCORE.RESTR.CAVITY>
0

>  <SCORE.RESTR.norm>
0

>  <SCORE.SYSTEM>
0

>  <SCORE.SYSTEM.CONST>
0

>  <SCORE.SYSTEM.DIHEDRAL>
0

>  <SCORE.SYSTEM.SOLV>
0

>  <SCORE.SYSTEM.norm>
0

>  <SCORE.heavy>
10

>  <SCORE.norm>
-3.53693

>  <RMSD>
3.203

$$$$
lig.pdb
 OpenBabel11021811523D
libRbt.so/2013.1/901 2013/11/27
 10 11  0  0  0  0  0  0  0  0999 V2000
  -28.8531   16.2469  -16.6432 N   0  0  0  0  0  0  0  0  0  0  0  0
  -28.5147   15.8335  -15.3841 C   0  0  0  0  0  0  0  0  0  0  0  0
  -29.3437   16.2394  -14.4522 N   0  0  0  0  0  0  0  0  0  0  0  0
  -30.2919   16.9714  -15.1468 C   0  0  0  0  0  0  0  0  0  0  0  0
  -31.4438   17.6653  -14.7330 C   0  0  0  0  0  0  0  0  0  0  0  0
  -31.8385   17.7360  -13.4574 N   0  0  0  0  0  0  0  0  0  0  0  0
  -32.1745   18.2897  -15.6825 N   0  0  0  0  0  0  0  0  0  0  0  0
  -31.7723   18.2177  -16.9561 C   0  0  0  0  0  0  0  0  0  0  0  0
  -30.7098   17.5955  -17.4657 N   0  0  0  0  0  0  0  0  0  0  0  0
  -30.0052   16.9860  -16.4990 C   0  0  0  0  0  0  0  0  0  0  0  0
  1 10  1  0  0  0  0
  2  3  2  0  0  0  0
  2  1  1  0  0  0  0
  3  4  1  0  0  0  0
  4 10  2  0  0  0  0
  4  5  1  0  0  0  0
  5  7  2  0  0  0  0
  6  5  1  0  0  0  0
  7  8  1  0  0  0  0
  9  8  2  0  0  0  0
 10  9  1  0  0  0  0
M  END
>  <CHROM.1>
-30.51821633,17.18780733,-15.60336562,0.13105811,0.57757051,-1.42126363

>  <Name>
lig.pdb

>  <RI>
1.17431e+07

>  <Rbt.Current_Directory>
/home/itssahil/PROJECTS/Mol_Feturizer/New_Systems/rnas/5uza

>  <Rbt.Executable>
rbdock ($Id: //depot/dev/client3/rdock/2013.1/src/exe/rbdock.cxx#4 $)

>  <Rbt.Library>
libRbt.so (2013.1, Build901 2013/11/27)

>  <Rbt.Parameter_File>
/export/apps/rDock/src/rDock_2013.1_src/data/scripts/dock_solv.prm

>  <Rbt.Receptor>
prm/pocket_docking_6.prm

>  <SCORE>
-35.4606

>  <SCORE.INTER>
-35.4606

>  <SCORE.INTER.CONST>
1

>  <SCORE.INTER.POLAR>
-4.59874

>  <SCORE.INTER.ROT>
0

>  <SCORE.INTER.SOLV>
10.9259

>  <SCORE.INTER.VDW>
-15.5532

>  <SCORE.INTER.norm>
-3.54606

>  <SCORE.INTRA>
0

>  <SCORE.INTRA.DIHEDRAL>
0

>  <SCORE.INTRA.DIHEDRAL.0>
0

>  <SCORE.INTRA.POLAR>
0

>  <SCORE.INTRA.POLAR.0>
0

>  <SCORE.INTRA.REPUL>
0

>  <SCORE.INTRA.REPUL.0>
0

>  <SCORE.INTRA.SOLV>
0

>  <SCORE.INTRA.SOLV.lig_0>
-14.8845

>  <SCORE.INTRA.VDW>
0

>  <SCORE.INTRA.VDW.0>
0

>  <SCORE.INTRA.norm>
0

>  <SCORE.RESTR>
0

>  <SCORE.RESTR.CAVITY>
0

>  <SCORE.RESTR.norm>
0

>  <SCORE.SYSTEM>
0

>  <SCORE.SYSTEM.CONST>
0

>  <SCORE.SYSTEM.DIHEDRAL>
0

>  <SCORE.SYSTEM.SOLV>
0

>  <SCORE.SYSTEM.norm>
0

>  <SCORE.heavy>
10

>  <SCORE.norm>
-3.54606

>  <RMSD>
3.203

$$$$
lig.pdb
 OpenBabel11021811523D
libRbt.so/2013.1/901 2013/11/27
 10 11  0  0  0  0  0  0  0  0999 V2000
  -28.8553   16.2481  -16.6422 N   0  0  0  0  0  0  0  0  0  0  0  0
  -28.5155   15.8373  -15.3825 C   0  0  0  0  0  0  0  0  0  0  0  0
  -29.3447   16.2435  -14.4509 N   0  0  0  0  0  0  0  0  0  0  0  0
  -30.2944   16.9729  -15.1462 C   0  0  0  0  0  0  0  0  0  0  0  0
  -31.4472   17.6656  -14.7329 C   0  0  0  0  0  0  0  0  0  0  0  0
  -31.8413   17.7378  -13.4572 N   0  0  0  0  0  0  0  0  0  0  0  0
  -32.1793   18.2873  -15.6830 N   0  0  0  0  0  0  0  0  0  0  0  0
  -31.7777   18.2138  -16.9567 C   0  0  0  0  0  0  0  0  0  0  0  0
  -30.7146   17.5924  -17.4658 N   0  0  0  0  0  0  0  0  0  0  0  0
  -30.0084   16.9857  -16.4986 C   0  0  0  0  0  0  0  0  0  0  0  0
  1 10  1  0  0  0  0
  2  3  2  0  0  0  0
  2  1  1  0  0  0  0
  3  4  1  0  0  0  0
  4 10  2  0  0  0  0
  4  5  1  0  0  0  0
  5  7  2  0  0  0  0
  6  5  1  0  0  0  0
  7  8  1  0  0  0  0
  9  8  2  0  0  0  0
 10  9  1  0  0  0  0
M  END
>  <CHROM.1>
-30.52129702,17.18813089,-15.60297650,0.13196793,0.57610958,-1.42340853

>  <Name>
lig.pdb

>  <RI>
2.12818e+07

>  <Rbt.Current_Directory>
/home/itssahil/PROJECTS/Mol_Feturizer/New_Systems/rnas/5uza

>  <Rbt.Executable>
rbdock ($Id: //depot/dev/client3/rdock/2013.1/src/exe/rbdock.cxx#4 $)

>  <Rbt.Library>
libRbt.so (2013.1, Build901 2013/11/27)

>  <Rbt.Parameter_File>
/export/apps/rDock/src/rDock_2013.1_src/data/scripts/dock_solv.prm

>  <Rbt.Receptor>
prm/pocket_docking_7.prm

>  <SCORE>
-35.4611

>  <SCORE.INTER>
-35.4611

>  <SCORE.INTER.CONST>
1

>  <SCORE.INTER.POLAR>
-4.60157

>  <SCORE.INTER.ROT>
0

>  <SCORE.INTER.SOLV>
10.9249

>  <SCORE.INTER.VDW>
-15.5438

>  <SCORE.INTER.norm>
-3.54611

>  <SCORE.INTRA>
0

>  <SCORE.INTRA.DIHEDRAL>
0

>  <SCORE.INTRA.DIHEDRAL.0>
0

>  <SCORE.INTRA.POLAR>
0

>  <SCORE.INTRA.POLAR.0>
0

>  <SCORE.INTRA.REPUL>
0

>  <SCORE.INTRA.REPUL.0>
0

>  <SCORE.INTRA.SOLV>
0

>  <SCORE.INTRA.SOLV.lig_0>
-14.8845

>  <SCORE.INTRA.VDW>
0

>  <SCORE.INTRA.VDW.0>
0

>  <SCORE.INTRA.norm>
0

>  <SCORE.RESTR>
0

>  <SCORE.RESTR.CAVITY>
0

>  <SCORE.RESTR.norm>
0

>  <SCORE.SYSTEM>
0

>  <SCORE.SYSTEM.CONST>
0

>  <SCORE.SYSTEM.DIHEDRAL>
0

>  <SCORE.SYSTEM.SOLV>
0

>  <SCORE.SYSTEM.norm>
0

>  <SCORE.heavy>
10

>  <SCORE.norm>
-3.54611

>  <RMSD>
3.203

$$$$
lig.pdb
 OpenBabel11021811523D
libRbt.so/2013.1/901 2013/11/27
 10 11  0  0  0  0  0  0  0  0999 V2000
  -28.8485   16.2626  -16.6392 N   0  0  0  0  0  0  0  0  0  0  0  0
  -28.5114   15.8516  -15.3789 C   0  0  0  0  0  0  0  0  0  0  0  0
  -29.3457   16.2528  -14.4497 N   0  0  0  0  0  0  0  0  0  0  0  0
  -30.2962   16.9787  -15.1474 C   0  0  0  0  0  0  0  0  0  0  0  0
  -31.4536   17.6656  -14.7372 C   0  0  0  0  0  0  0  0  0  0  0  0
  -31.8527   17.7343  -13.4629 N   0  0  0  0  0  0  0  0  0  0  0  0
  -32.1852   18.2853  -15.6891 N   0  0  0  0  0  0  0  0  0  0  0  0
  -31.7787   18.2154  -16.9615 C   0  0  0  0  0  0  0  0  0  0  0  0
  -30.7110   17.5996  -17.4677 N   0  0  0  0  0  0  0  0  0  0  0  0
  -30.0055   16.9947  -16.4987 C   0  0  0  0  0  0  0  0  0  0  0  0
  1 10  1  0  0  0  0
  2  3  2  0  0  0  0
  2  1  1  0  0  0  0
  3  4  1  0  0  0  0
  4 10  2  0  0  0  0
  4  5  1  0  0  0  0
  5  7  2  0  0  0  0
  6  5  1  0  0  0  0
  7  8  1  0  0  0  0
  9  8  2  0  0  0  0
 10  9  1  0  0  0  0
M  END
>  <CHROM.1>
-30.52250326,17.19358722,-15.60468598,0.12858965,0.57105586,-1.42020659

>  <Name>
lig.pdb

>  <RI>
1.17775e+07

>  <Rbt.Current_Directory>
/home/itssahil/PROJECTS/Mol_Feturizer/New_Systems/rnas/5uza

>  <Rbt.Executable>
rbdock ($Id: //depot/dev/client3/rdock/2013.1/src/exe/rbdock.cxx#4 $)

>  <Rbt.Library>
libRbt.so (2013.1, Build901 2013/11/27)

>  <Rbt.Parameter_File>
/export/apps/rDock/src/rDock_2013.1_src/data/scripts/dock_solv.prm

>  <Rbt.Receptor>
prm/pocket_docking_8.prm

>  <SCORE>
-35.4433

>  <SCORE.INTER>
-35.4433

>  <SCORE.INTER.CONST>
1

>  <SCORE.INTER.POLAR>
-4.61121

>  <SCORE.INTER.ROT>
0

>  <SCORE.INTER.SOLV>
10.9263

>  <SCORE.INTER.VDW>
-15.5003

>  <SCORE.INTER.norm>
-3.54433

>  <SCORE.INTRA>
0

>  <SCORE.INTRA.DIHEDRAL>
0

>  <SCORE.INTRA.DIHEDRAL.0>
0

>  <SCORE.INTRA.POLAR>
0

>  <SCORE.INTRA.POLAR.0>
0

>  <SCORE.INTRA.REPUL>
0

>  <SCORE.INTRA.REPUL.0>
0

>  <SCORE.INTRA.SOLV>
0

>  <SCORE.INTRA.SOLV.lig_0>
-14.8845

>  <SCORE.INTRA.VDW>
0

>  <SCORE.INTRA.VDW.0>
0

>  <SCORE.INTRA.norm>
0

>  <SCORE.RESTR>
0

>  <SCORE.RESTR.CAVITY>
0

>  <SCORE.RESTR.norm>
0

>  <SCORE.SYSTEM>
0

>  <SCORE.SYSTEM.CONST>
0

>  <SCORE.SYSTEM.DIHEDRAL>
0

>  <SCORE.SYSTEM.SOLV>
0

>  <SCORE.SYSTEM.norm>
0

>  <SCORE.heavy>
10

>  <SCORE.norm>
-3.54433

>  <RMSD>
3.203

$$$$
lig.pdb
 OpenBabel11021811523D
libRbt.so/2013.1/901 2013/11/27
 10 11  0  0  0  0  0  0  0  0999 V2000
  -28.8581   16.2460  -16.6441 N   0  0  0  0  0  0  0  0  0  0  0  0
  -28.5162   15.8366  -15.3845 C   0  0  0  0  0  0  0  0  0  0  0  0
  -29.3435   16.2441  -14.4519 N   0  0  0  0  0  0  0  0  0  0  0  0
  -30.2942   16.9729  -15.1463 C   0  0  0  0  0  0  0  0  0  0  0  0
  -31.4461   17.6664  -14.7316 C   0  0  0  0  0  0  0  0  0  0  0  0
  -31.8379   17.7402  -13.4553 N   0  0  0  0  0  0  0  0  0  0  0  0
  -32.1798   18.2872  -15.6811 N   0  0  0  0  0  0  0  0  0  0  0  0
  -31.7806   18.2121  -16.9555 C   0  0  0  0  0  0  0  0  0  0  0  0
  -30.7186   17.5899  -17.4658 N   0  0  0  0  0  0  0  0  0  0  0  0
  -30.0108   16.9841  -16.4992 C   0  0  0  0  0  0  0  0  0  0  0  0
  1 10  1  0  0  0  0
  2  3  2  0  0  0  0
  2  1  1  0  0  0  0
  3  4  1  0  0  0  0
  4 10  2  0  0  0  0
  4  5  1  0  0  0  0
  5  7  2  0  0  0  0
  6  5  1  0  0  0  0
  7  8  1  0  0  0  0
  9  8  2  0  0  0  0
 10  9  1  0  0  0  0
M  END
>  <CHROM.1>
-30.52196240,17.18768638,-15.60287952,0.13410261,0.57663399,-1.42574024

>  <Name>
lig.pdb

>  <RI>
1.17775e+07

>  <Rbt.Current_Directory>
/home/itssahil/PROJECTS/Mol_Feturizer/New_Systems/rnas/5uza

>  <Rbt.Executable>
rbdock ($Id: //depot/dev/client3/rdock/2013.1/src/exe/rbdock.cxx#4 $)

>  <Rbt.Library>
libRbt.so (2013.1, Build901 2013/11/27)

>  <Rbt.Parameter_File>
/export/apps/rDock/src/rDock_2013.1_src/data/scripts/dock_solv.prm

>  <Rbt.Receptor>
prm/pocket_docking_8.prm

>  <SCORE>
-35.4572

>  <SCORE.INTER>
-35.4572

>  <SCORE.INTER.CONST>
1

>  <SCORE.INTER.POLAR>
-4.60023

>  <SCORE.INTER.ROT>
0

>  <SCORE.INTER.SOLV>
10.9243

>  <SCORE.INTER.VDW>
-15.5455

>  <SCORE.INTER.norm>
-3.54572

>  <SCORE.INTRA>
0

>  <SCORE.INTRA.DIHEDRAL>
0

>  <SCORE.INTRA.DIHEDRAL.0>
0

>  <SCORE.INTRA.POLAR>
0

>  <SCORE.INTRA.POLAR.0>
0

>  <SCORE.INTRA.REPUL>
0

>  <SCORE.INTRA.REPUL.0>
0

>  <SCORE.INTRA.SOLV>
0

>  <SCORE.INTRA.SOLV.lig_0>
-14.8845

>  <SCORE.INTRA.VDW>
0

>  <SCORE.INTRA.VDW.0>
0

>  <SCORE.INTRA.norm>
0

>  <SCORE.RESTR>
0

>  <SCORE.RESTR.CAVITY>
0

>  <SCORE.RESTR.norm>
0

>  <SCORE.SYSTEM>
0

>  <SCORE.SYSTEM.CONST>
0

>  <SCORE.SYSTEM.DIHEDRAL>
0

>  <SCORE.SYSTEM.SOLV>
0

>  <SCORE.SYSTEM.norm>
0

>  <SCORE.heavy>
10

>  <SCORE.norm>
-3.54572

>  <RMSD>
3.203

$$$$
lig.pdb
 OpenBabel11021811523D
libRbt.so/2013.1/901 2013/11/27
 10 11  0  0  0  0  0  0  0  0999 V2000
  -28.8515   16.2514  -16.6398 N   0  0  0  0  0  0  0  0  0  0  0  0
  -28.5129   15.8415  -15.3795 C   0  0  0  0  0  0  0  0  0  0  0  0
  -29.3444   16.2460  -14.4493 N   0  0  0  0  0  0  0  0  0  0  0  0
  -30.2946   16.9731  -15.1462 C   0  0  0  0  0  0  0  0  0  0  0  0
  -31.4496   17.6634  -14.7347 C   0  0  0  0  0  0  0  0  0  0  0  0
  -31.8459   17.7349  -13.4597 N   0  0  0  0  0  0  0  0  0  0  0  0
  -32.1816   18.2834  -15.6861 N   0  0  0  0  0  0  0  0  0  0  0  0
  -31.7778   18.2106  -16.9592 C   0  0  0  0  0  0  0  0  0  0  0  0
  -30.7125   17.5915  -17.4665 N   0  0  0  0  0  0  0  0  0  0  0  0
  -30.0065   16.9865  -16.4981 C   0  0  0  0  0  0  0  0  0  0  0  0
  1 10  1  0  0  0  0
  2  3  2  0  0  0  0
  2  1  1  0  0  0  0
  3  4  1  0  0  0  0
  4 10  2  0  0  0  0
  4  5  1  0  0  0  0
  5  7  2  0  0  0  0
  6  5  1  0  0  0  0
  7  8  1  0  0  0  0
  9  8  2  0  0  0  0
 10  9  1  0  0  0  0
M  END
>  <CHROM.1>
-30.52128083,17.18786691,-15.60333744,0.13047710,0.57369136,-1.42271226

>  <Name>
lig.pdb

>  <RI>
2.26746e+07

>  <Rbt.Current_Directory>
/home/itssahil/PROJECTS/Mol_Feturizer/New_Systems/rnas/5uza

>  <Rbt.Executable>
rbdock ($Id: //depot/dev/client3/rdock/2013.1/src/exe/rbdock.cxx#4 $)

>  <Rbt.Library>
libRbt.so (2013.1, Build901 2013/11/27)

>  <Rbt.Parameter_File>
/export/apps/rDock/src/rDock_2013.1_src/data/scripts/dock_solv.prm

>  <Rbt.Receptor>
prm/blind_docking_100.prm

>  <SCORE>
-35.4602

>  <SCORE.INTER>
-35.4602

>  <SCORE.INTER.CONST>
1

>  <SCORE.INTER.POLAR>
-4.60539

>  <SCORE.INTER.ROT>
0

>  <SCORE.INTER.SOLV>
10.9244

>  <SCORE.INTER.VDW>
-15.5303

>  <SCORE.INTER.norm>
-3.54602

>  <SCORE.INTRA>
0

>  <SCORE.INTRA.DIHEDRAL>
0

>  <SCORE.INTRA.DIHEDRAL.0>
0

>  <SCORE.INTRA.POLAR>
0

>  <SCORE.INTRA.POLAR.0>
0

>  <SCORE.INTRA.REPUL>
0

>  <SCORE.INTRA.REPUL.0>
0

>  <SCORE.INTRA.SOLV>
0

>  <SCORE.INTRA.SOLV.lig_0>
-14.8845

>  <SCORE.INTRA.VDW>
0

>  <SCORE.INTRA.VDW.0>
0

>  <SCORE.INTRA.norm>
0

>  <SCORE.RESTR>
0

>  <SCORE.RESTR.CAVITY>
0

>  <SCORE.RESTR.norm>
0

>  <SCORE.SYSTEM>
0

>  <SCORE.SYSTEM.CONST>
0

>  <SCORE.SYSTEM.DIHEDRAL>
0

>  <SCORE.SYSTEM.SOLV>
0

>  <SCORE.SYSTEM.norm>
0

>  <SCORE.heavy>
10

>  <SCORE.norm>
-3.54602

>  <RMSD>
3.204

$$$$
lig.pdb
 OpenBabel11021811523D
libRbt.so/2013.1/901 2013/11/27
 10 11  0  0  0  0  0  0  0  0999 V2000
  -28.8557   16.2465  -16.6414 N   0  0  0  0  0  0  0  0  0  0  0  0
  -28.5175   15.8339  -15.3819 C   0  0  0  0  0  0  0  0  0  0  0  0
  -29.3467   16.2404  -14.4505 N   0  0  0  0  0  0  0  0  0  0  0  0
  -30.2948   16.9719  -15.1457 C   0  0  0  0  0  0  0  0  0  0  0  0
  -31.4469   17.6659  -14.7325 C   0  0  0  0  0  0  0  0  0  0  0  0
  -31.8419   17.7374  -13.4571 N   0  0  0  0  0  0  0  0  0  0  0  0
  -32.1775   18.2897  -15.6826 N   0  0  0  0  0  0  0  0  0  0  0  0
  -31.7750   18.2168  -16.9561 C   0  0  0  0  0  0  0  0  0  0  0  0
  -30.7124   17.5944  -17.4650 N   0  0  0  0  0  0  0  0  0  0  0  0
  -30.0079   16.9856  -16.4979 C   0  0  0  0  0  0  0  0  0  0  0  0
  1 10  1  0  0  0  0
  2  3  2  0  0  0  0
  2  1  1  0  0  0  0
  3  4  1  0  0  0  0
  4 10  2  0  0  0  0
  4  5  1  0  0  0  0
  5  7  2  0  0  0  0
  6  5  1  0  0  0  0
  7  8  1  0  0  0  0
  9  8  2  0  0  0  0
 10  9  1  0  0  0  0
M  END
>  <CHROM.1>
-30.52113264,17.18794260,-15.60245801,0.13084197,0.57745612,-1.42179940

>  <Name>
lig.pdb

>  <RI>
0

>  <Rbt.Current_Directory>
/home/itssahil/PROJECTS/Mol_Feturizer/New_Systems/rnas/5uza

>  <Rbt.Executable>
rbdock ($Id: //depot/dev/client3/rdock/2013.1/src/exe/rbdock.cxx#4 $)

>  <Rbt.Library>
libRbt.so (2013.1, Build901 2013/11/27)

>  <Rbt.Parameter_File>
/export/apps/rDock/src/rDock_2013.1_src/data/scripts/dock_solv.prm

>  <Rbt.Receptor>
prm/blind_docking_80.prm

>  <SCORE>
-35.4605

>  <SCORE.INTER>
-35.4605

>  <SCORE.INTER.CONST>
1

>  <SCORE.INTER.POLAR>
-4.59915

>  <SCORE.INTER.ROT>
0

>  <SCORE.INTER.SOLV>
10.9261

>  <SCORE.INTER.VDW>
-15.5519

>  <SCORE.INTER.norm>
-3.54605

>  <SCORE.INTRA>
0

>  <SCORE.INTRA.DIHEDRAL>
0

>  <SCORE.INTRA.DIHEDRAL.0>
0

>  <SCORE.INTRA.POLAR>
0

>  <SCORE.INTRA.POLAR.0>
0

>  <SCORE.INTRA.REPUL>
0

>  <SCORE.INTRA.REPUL.0>
0

>  <SCORE.INTRA.SOLV>
0

>  <SCORE.INTRA.SOLV.lig_0>
-14.8845

>  <SCORE.INTRA.VDW>
0

>  <SCORE.INTRA.VDW.0>
0

>  <SCORE.INTRA.norm>
0

>  <SCORE.RESTR>
0

>  <SCORE.RESTR.CAVITY>
0

>  <SCORE.RESTR.norm>
0

>  <SCORE.SYSTEM>
0

>  <SCORE.SYSTEM.CONST>
0

>  <SCORE.SYSTEM.DIHEDRAL>
0

>  <SCORE.SYSTEM.SOLV>
0

>  <SCORE.SYSTEM.norm>
0

>  <SCORE.heavy>
10

>  <SCORE.norm>
-3.54605

>  <RMSD>
3.204

$$$$
lig.pdb
 OpenBabel11021811523D
libRbt.so/2013.1/901 2013/11/27
 10 11  0  0  0  0  0  0  0  0999 V2000
  -28.8543   16.2648  -16.6389 N   0  0  0  0  0  0  0  0  0  0  0  0
  -28.5177   15.8525  -15.3789 C   0  0  0  0  0  0  0  0  0  0  0  0
  -29.3512   16.2544  -14.4493 N   0  0  0  0  0  0  0  0  0  0  0  0
  -30.3008   16.9822  -15.1465 C   0  0  0  0  0  0  0  0  0  0  0  0
  -31.4571   17.6706  -14.7357 C   0  0  0  0  0  0  0  0  0  0  0  0
  -31.8559   17.7391  -13.4613 N   0  0  0  0  0  0  0  0  0  0  0  0
  -32.1879   18.2920  -15.6872 N   0  0  0  0  0  0  0  0  0  0  0  0
  -31.7816   18.2222  -16.9597 C   0  0  0  0  0  0  0  0  0  0  0  0
  -30.7149   17.6051  -17.4663 N   0  0  0  0  0  0  0  0  0  0  0  0
  -30.0102   16.9986  -16.4978 C   0  0  0  0  0  0  0  0  0  0  0  0
  1 10  1  0  0  0  0
  2  3  2  0  0  0  0
  2  1  1  0  0  0  0
  3  4  1  0  0  0  0
  4 10  2  0  0  0  0
  4  5  1  0  0  0  0
  5  7  2  0  0  0  0
  6  5  1  0  0  0  0
  7  8  1  0  0  0  0
  9  8  2  0  0  0  0
 10  9  1  0  0  0  0
M  END
>  <CHROM.1>
-30.52678323,17.19767732,-15.60357841,0.12844544,0.57256737,-1.41951944

>  <Name>
lig.pdb

>  <RI>
9.24451e+06

>  <Rbt.Current_Directory>
/home/itssahil/PROJECTS/Mol_Feturizer/New_Systems/rnas/5uza

>  <Rbt.Executable>
rbdock ($Id: //depot/dev/client3/rdock/2013.1/src/exe/rbdock.cxx#4 $)

>  <Rbt.Library>
libRbt.so (2013.1, Build901 2013/11/27)

>  <Rbt.Parameter_File>
/export/apps/rDock/src/rDock_2013.1_src/data/scripts/dock_solv.prm

>  <Rbt.Receptor>
prm/pocket_docking_4.prm

>  <SCORE>
-35.4451

>  <SCORE.INTER>
-35.4451

>  <SCORE.INTER.CONST>
1

>  <SCORE.INTER.POLAR>
-4.60988

>  <SCORE.INTER.ROT>
0

>  <SCORE.INTER.SOLV>
10.9284

>  <SCORE.INTER.VDW>
-15.5066

>  <SCORE.INTER.norm>
-3.54451

>  <SCORE.INTRA>
0

>  <SCORE.INTRA.DIHEDRAL>
0

>  <SCORE.INTRA.DIHEDRAL.0>
0

>  <SCORE.INTRA.POLAR>
0

>  <SCORE.INTRA.POLAR.0>
0

>  <SCORE.INTRA.REPUL>
0

>  <SCORE.INTRA.REPUL.0>
0

>  <SCORE.INTRA.SOLV>
0

>  <SCORE.INTRA.SOLV.lig_0>
-14.8845

>  <SCORE.INTRA.VDW>
0

>  <SCORE.INTRA.VDW.0>
0

>  <SCORE.INTRA.norm>
0

>  <SCORE.RESTR>
0

>  <SCORE.RESTR.CAVITY>
0

>  <SCORE.RESTR.norm>
0

>  <SCORE.SYSTEM>
0

>  <SCORE.SYSTEM.CONST>
0

>  <SCORE.SYSTEM.DIHEDRAL>
0

>  <SCORE.SYSTEM.SOLV>
0

>  <SCORE.SYSTEM.norm>
0

>  <SCORE.heavy>
10

>  <SCORE.norm>
-3.54451

>  <RMSD>
3.204

$$$$
lig.pdb
 OpenBabel11021811523D
libRbt.so/2013.1/901 2013/11/27
 10 11  0  0  0  0  0  0  0  0999 V2000
  -28.8470   16.2494  -16.6394 N   0  0  0  0  0  0  0  0  0  0  0  0
  -28.5140   15.8332  -15.3797 C   0  0  0  0  0  0  0  0  0  0  0  0
  -29.3479   16.2357  -14.4507 N   0  0  0  0  0  0  0  0  0  0  0  0
  -30.2937   16.9683  -15.1479 C   0  0  0  0  0  0  0  0  0  0  0  0
  -31.4485   17.6596  -14.7377 C   0  0  0  0  0  0  0  0  0  0  0  0
  -31.8493   17.7266  -13.4638 N   0  0  0  0  0  0  0  0  0  0  0  0
  -32.1754   18.2856  -15.6890 N   0  0  0  0  0  0  0  0  0  0  0  0
  -31.7672   18.2174  -16.9609 C   0  0  0  0  0  0  0  0  0  0  0  0
  -30.7016   17.5978  -17.4671 N   0  0  0  0  0  0  0  0  0  0  0  0
  -30.0007   16.9867  -16.4987 C   0  0  0  0  0  0  0  0  0  0  0  0
  1 10  1  0  0  0  0
  2  3  2  0  0  0  0
  2  1  1  0  0  0  0
  3  4  1  0  0  0  0
  4 10  2  0  0  0  0
  4  5  1  0  0  0  0
  5  7  2  0  0  0  0
  6  5  1  0  0  0  0
  7  8  1  0  0  0  0
  9  8  2  0  0  0  0
 10  9  1  0  0  0  0
M  END
>  <CHROM.1>
-30.51821371,17.18557318,-15.60494425,0.12575179,0.57563232,-1.41579816

>  <Name>
lig.pdb

>  <RI>
1.17431e+07

>  <Rbt.Current_Directory>
/home/itssahil/PROJECTS/Mol_Feturizer/New_Systems/rnas/5uza

>  <Rbt.Executable>
rbdock ($Id: //depot/dev/client3/rdock/2013.1/src/exe/rbdock.cxx#4 $)

>  <Rbt.Library>
libRbt.so (2013.1, Build901 2013/11/27)

>  <Rbt.Parameter_File>
/export/apps/rDock/src/rDock_2013.1_src/data/scripts/dock_solv.prm

>  <Rbt.Receptor>
prm/pocket_docking_6.prm

>  <SCORE>
-35.4533

>  <SCORE.INTER>
-35.4533

>  <SCORE.INTER.CONST>
1

>  <SCORE.INTER.POLAR>
-4.5965

>  <SCORE.INTER.ROT>
0

>  <SCORE.INTER.SOLV>
10.9273

>  <SCORE.INTER.VDW>
-15.5563

>  <SCORE.INTER.norm>
-3.54533

>  <SCORE.INTRA>
0

>  <SCORE.INTRA.DIHEDRAL>
0

>  <SCORE.INTRA.DIHEDRAL.0>
0

>  <SCORE.INTRA.POLAR>
0

>  <SCORE.INTRA.POLAR.0>
0

>  <SCORE.INTRA.REPUL>
0

>  <SCORE.INTRA.REPUL.0>
0

>  <SCORE.INTRA.SOLV>
0

>  <SCORE.INTRA.SOLV.lig_0>
-14.8845

>  <SCORE.INTRA.VDW>
0

>  <SCORE.INTRA.VDW.0>
0

>  <SCORE.INTRA.norm>
0

>  <SCORE.RESTR>
0

>  <SCORE.RESTR.CAVITY>
0

>  <SCORE.RESTR.norm>
0

>  <SCORE.SYSTEM>
0

>  <SCORE.SYSTEM.CONST>
0

>  <SCORE.SYSTEM.DIHEDRAL>
0

>  <SCORE.SYSTEM.SOLV>
0

>  <SCORE.SYSTEM.norm>
0

>  <SCORE.heavy>
10

>  <SCORE.norm>
-3.54533

>  <RMSD>
3.204

$$$$
lig.pdb
 OpenBabel11021811523D
libRbt.so/2013.1/901 2013/11/27
 10 11  0  0  0  0  0  0  0  0999 V2000
  -28.8543   16.2496  -16.6397 N   0  0  0  0  0  0  0  0  0  0  0  0
  -28.5162   15.8386  -15.3797 C   0  0  0  0  0  0  0  0  0  0  0  0
  -29.3468   16.2441  -14.4491 N   0  0  0  0  0  0  0  0  0  0  0  0
  -30.2959   16.9732  -15.1456 C   0  0  0  0  0  0  0  0  0  0  0  0
  -31.4496   17.6652  -14.7336 C   0  0  0  0  0  0  0  0  0  0  0  0
  -31.8456   17.7368  -13.4585 N   0  0  0  0  0  0  0  0  0  0  0  0
  -32.1807   18.2869  -15.6846 N   0  0  0  0  0  0  0  0  0  0  0  0
  -31.7772   18.2140  -16.9578 C   0  0  0  0  0  0  0  0  0  0  0  0
  -30.7131   17.5933  -17.4656 N   0  0  0  0  0  0  0  0  0  0  0  0
  -30.0080   16.9866  -16.4975 C   0  0  0  0  0  0  0  0  0  0  0  0
  1 10  1  0  0  0  0
  2  3  2  0  0  0  0
  2  1  1  0  0  0  0
  3  4  1  0  0  0  0
  4 10  2  0  0  0  0
  4  5  1  0  0  0  0
  5  7  2  0  0  0  0
  6  5  1  0  0  0  0
  7  8  1  0  0  0  0
  9  8  2  0  0  0  0
 10  9  1  0  0  0  0
M  END
>  <CHROM.1>
-30.52228338,17.18847731,-15.60257542,0.13037403,0.57539955,-1.42222954

>  <Name>
lig.pdb

>  <RI>
1.17431e+07

>  <Rbt.Current_Directory>
/home/itssahil/PROJECTS/Mol_Feturizer/New_Systems/rnas/5uza

>  <Rbt.Executable>
rbdock ($Id: //depot/dev/client3/rdock/2013.1/src/exe/rbdock.cxx#4 $)

>  <Rbt.Library>
libRbt.so (2013.1, Build901 2013/11/27)

>  <Rbt.Parameter_File>
/export/apps/rDock/src/rDock_2013.1_src/data/scripts/dock_solv.prm

>  <Rbt.Receptor>
prm/pocket_docking_6.prm

>  <SCORE>
-35.4621

>  <SCORE.INTER>
-35.4621

>  <SCORE.INTER.CONST>
1

>  <SCORE.INTER.POLAR>
-4.60315

>  <SCORE.INTER.ROT>
0

>  <SCORE.INTER.SOLV>
10.9256

>  <SCORE.INTER.VDW>
-15.5394

>  <SCORE.INTER.norm>
-3.54621

>  <SCORE.INTRA>
0

>  <SCORE.INTRA.DIHEDRAL>
0

>  <SCORE.INTRA.DIHEDRAL.0>
0

>  <SCORE.INTRA.POLAR>
0

>  <SCORE.INTRA.POLAR.0>
0

>  <SCORE.INTRA.REPUL>
0

>  <SCORE.INTRA.REPUL.0>
0

>  <SCORE.INTRA.SOLV>
0

>  <SCORE.INTRA.SOLV.lig_0>
-14.8845

>  <SCORE.INTRA.VDW>
0

>  <SCORE.INTRA.VDW.0>
0

>  <SCORE.INTRA.norm>
0

>  <SCORE.RESTR>
0

>  <SCORE.RESTR.CAVITY>
0

>  <SCORE.RESTR.norm>
0

>  <SCORE.SYSTEM>
0

>  <SCORE.SYSTEM.CONST>
0

>  <SCORE.SYSTEM.DIHEDRAL>
0

>  <SCORE.SYSTEM.SOLV>
0

>  <SCORE.SYSTEM.norm>
0

>  <SCORE.heavy>
10

>  <SCORE.norm>
-3.54621

>  <RMSD>
3.204

$$$$
lig.pdb
 OpenBabel11021811523D
libRbt.so/2013.1/901 2013/11/27
 10 11  0  0  0  0  0  0  0  0999 V2000
  -28.8577   16.2471  -16.6423 N   0  0  0  0  0  0  0  0  0  0  0  0
  -28.5184   15.8350  -15.3829 C   0  0  0  0  0  0  0  0  0  0  0  0
  -29.3469   16.2419  -14.4509 N   0  0  0  0  0  0  0  0  0  0  0  0
  -30.2956   16.9729  -15.1457 C   0  0  0  0  0  0  0  0  0  0  0  0
  -31.4474   17.6670  -14.7319 C   0  0  0  0  0  0  0  0  0  0  0  0
  -31.8414   17.7391  -13.4562 N   0  0  0  0  0  0  0  0  0  0  0  0
  -32.1788   18.2903  -15.6816 N   0  0  0  0  0  0  0  0  0  0  0  0
  -31.7774   18.2170  -16.9554 C   0  0  0  0  0  0  0  0  0  0  0  0
  -30.7152   17.5944  -17.4650 N   0  0  0  0  0  0  0  0  0  0  0  0
  -30.0098   16.9861  -16.4981 C   0  0  0  0  0  0  0  0  0  0  0  0
  1 10  1  0  0  0  0
  2  3  2  0  0  0  0
  2  1  1  0  0  0  0
  3  4  1  0  0  0  0
  4 10  2  0  0  0  0
  4  5  1  0  0  0  0
  5  7  2  0  0  0  0
  6  5  1  0  0  0  0
  7  8  1  0  0  0  0
  9  8  2  0  0  0  0
 10  9  1  0  0  0  0
M  END
>  <CHROM.1>
-30.52229343,17.18877956,-15.60236710,0.13182872,0.57750068,-1.42276194

>  <Name>
lig.pdb

>  <RI>
2.12818e+07

>  <Rbt.Current_Directory>
/home/itssahil/PROJECTS/Mol_Feturizer/New_Systems/rnas/5uza

>  <Rbt.Executable>
rbdock ($Id: //depot/dev/client3/rdock/2013.1/src/exe/rbdock.cxx#4 $)

>  <Rbt.Library>
libRbt.so (2013.1, Build901 2013/11/27)

>  <Rbt.Parameter_File>
/export/apps/rDock/src/rDock_2013.1_src/data/scripts/dock_solv.prm

>  <Rbt.Receptor>
prm/pocket_docking_7.prm

>  <SCORE>
-35.4607

>  <SCORE.INTER>
-35.4607

>  <SCORE.INTER.CONST>
1

>  <SCORE.INTER.POLAR>
-4.59918

>  <SCORE.INTER.ROT>
0

>  <SCORE.INTER.SOLV>
10.926

>  <SCORE.INTER.VDW>
-15.5519

>  <SCORE.INTER.norm>
-3.54607

>  <SCORE.INTRA>
0

>  <SCORE.INTRA.DIHEDRAL>
0

>  <SCORE.INTRA.DIHEDRAL.0>
0

>  <SCORE.INTRA.POLAR>
0

>  <SCORE.INTRA.POLAR.0>
0

>  <SCORE.INTRA.REPUL>
0

>  <SCORE.INTRA.REPUL.0>
0

>  <SCORE.INTRA.SOLV>
0

>  <SCORE.INTRA.SOLV.lig_0>
-14.8845

>  <SCORE.INTRA.VDW>
0

>  <SCORE.INTRA.VDW.0>
0

>  <SCORE.INTRA.norm>
0

>  <SCORE.RESTR>
0

>  <SCORE.RESTR.CAVITY>
0

>  <SCORE.RESTR.norm>
0

>  <SCORE.SYSTEM>
0

>  <SCORE.SYSTEM.CONST>
0

>  <SCORE.SYSTEM.DIHEDRAL>
0

>  <SCORE.SYSTEM.SOLV>
0

>  <SCORE.SYSTEM.norm>
0

>  <SCORE.heavy>
10

>  <SCORE.norm>
-3.54607

>  <RMSD>
3.204

$$$$
lig.pdb
 OpenBabel11021811523D
libRbt.so/2013.1/901 2013/11/27
 10 11  0  0  0  0  0  0  0  0999 V2000
  -28.8503   16.2498  -16.6403 N   0  0  0  0  0  0  0  0  0  0  0  0
  -28.5130   15.8377  -15.3804 C   0  0  0  0  0  0  0  0  0  0  0  0
  -29.3444   16.2421  -14.4501 N   0  0  0  0  0  0  0  0  0  0  0  0
  -30.2932   16.9716  -15.1465 C   0  0  0  0  0  0  0  0  0  0  0  0
  -31.4474   17.6629  -14.7348 C   0  0  0  0  0  0  0  0  0  0  0  0
  -31.8444   17.7333  -13.4599 N   0  0  0  0  0  0  0  0  0  0  0  0
  -32.1780   18.2852  -15.6858 N   0  0  0  0  0  0  0  0  0  0  0  0
  -31.7736   18.2135  -16.9588 C   0  0  0  0  0  0  0  0  0  0  0  0
  -30.7089   17.5936  -17.4663 N   0  0  0  0  0  0  0  0  0  0  0  0
  -30.0044   16.9862  -16.4983 C   0  0  0  0  0  0  0  0  0  0  0  0
  1 10  1  0  0  0  0
  2  3  2  0  0  0  0
  2  1  1  0  0  0  0
  3  4  1  0  0  0  0
  4 10  2  0  0  0  0
  4  5  1  0  0  0  0
  5  7  2  0  0  0  0
  6  5  1  0  0  0  0
  7  8  1  0  0  0  0
  9  8  2  0  0  0  0
 10  9  1  0  0  0  0
M  END
>  <CHROM.1>
-30.51932327,17.18720530,-15.60352494,0.12958088,0.57500350,-1.42091867

>  <Name>
lig.pdb

>  <RI>
1.17775e+07

>  <Rbt.Current_Directory>
/home/itssahil/PROJECTS/Mol_Feturizer/New_Systems/rnas/5uza

>  <Rbt.Executable>
rbdock ($Id: //depot/dev/client3/rdock/2013.1/src/exe/rbdock.cxx#4 $)

>  <Rbt.Library>
libRbt.so (2013.1, Build901 2013/11/27)

>  <Rbt.Parameter_File>
/export/apps/rDock/src/rDock_2013.1_src/data/scripts/dock_solv.prm

>  <Rbt.Receptor>
prm/pocket_docking_8.prm

>  <SCORE>
-35.4607

>  <SCORE.INTER>
-35.4607

>  <SCORE.INTER.CONST>
1

>  <SCORE.INTER.POLAR>
-4.60276

>  <SCORE.INTER.ROT>
0

>  <SCORE.INTER.SOLV>
10.9252

>  <SCORE.INTER.VDW>
-15.5397

>  <SCORE.INTER.norm>
-3.54607

>  <SCORE.INTRA>
0

>  <SCORE.INTRA.DIHEDRAL>
0

>  <SCORE.INTRA.DIHEDRAL.0>
0

>  <SCORE.INTRA.POLAR>
0

>  <SCORE.INTRA.POLAR.0>
0

>  <SCORE.INTRA.REPUL>
0

>  <SCORE.INTRA.REPUL.0>
0

>  <SCORE.INTRA.SOLV>
0

>  <SCORE.INTRA.SOLV.lig_0>
-14.8845

>  <SCORE.INTRA.VDW>
0

>  <SCORE.INTRA.VDW.0>
0

>  <SCORE.INTRA.norm>
0

>  <SCORE.RESTR>
0

>  <SCORE.RESTR.CAVITY>
0

>  <SCORE.RESTR.norm>
0

>  <SCORE.SYSTEM>
0

>  <SCORE.SYSTEM.CONST>
0

>  <SCORE.SYSTEM.DIHEDRAL>
0

>  <SCORE.SYSTEM.SOLV>
0

>  <SCORE.SYSTEM.norm>
0

>  <SCORE.heavy>
10

>  <SCORE.norm>
-3.54607

>  <RMSD>
3.204

$$$$
lig.pdb
 OpenBabel11021811523D
libRbt.so/2013.1/901 2013/11/27
 10 11  0  0  0  0  0  0  0  0999 V2000
  -28.8520   16.2492  -16.6412 N   0  0  0  0  0  0  0  0  0  0  0  0
  -28.5138   15.8372  -15.3815 C   0  0  0  0  0  0  0  0  0  0  0  0
  -29.3443   16.2423  -14.4506 N   0  0  0  0  0  0  0  0  0  0  0  0
  -30.2932   16.9721  -15.1464 C   0  0  0  0  0  0  0  0  0  0  0  0
  -31.4468   17.6642  -14.7339 C   0  0  0  0  0  0  0  0  0  0  0  0
  -31.8427   17.7351  -13.4588 N   0  0  0  0  0  0  0  0  0  0  0  0
  -32.1778   18.2867  -15.6844 N   0  0  0  0  0  0  0  0  0  0  0  0
  -31.7744   18.2146  -16.9577 C   0  0  0  0  0  0  0  0  0  0  0  0
  -30.7105   17.5939  -17.4660 N   0  0  0  0  0  0  0  0  0  0  0  0
  -30.0055   16.9864  -16.4984 C   0  0  0  0  0  0  0  0  0  0  0  0
  1 10  1  0  0  0  0
  2  3  2  0  0  0  0
  2  1  1  0  0  0  0
  3  4  1  0  0  0  0
  4 10  2  0  0  0  0
  4  5  1  0  0  0  0
  5  7  2  0  0  0  0
  6  5  1  0  0  0  0
  7  8  1  0  0  0  0
  9  8  2  0  0  0  0
 10  9  1  0  0  0  0
M  END
>  <CHROM.1>
-30.51961693,17.18781119,-15.60328362,0.13042725,0.57567576,-1.42157368

>  <Name>
lig.pdb

>  <RI>
1.17775e+07

>  <Rbt.Current_Directory>
/home/itssahil/PROJECTS/Mol_Feturizer/New_Systems/rnas/5uza

>  <Rbt.Executable>
rbdock ($Id: //depot/dev/client3/rdock/2013.1/src/exe/rbdock.cxx#4 $)

>  <Rbt.Library>
libRbt.so (2013.1, Build901 2013/11/27)

>  <Rbt.Parameter_File>
/export/apps/rDock/src/rDock_2013.1_src/data/scripts/dock_solv.prm

>  <Rbt.Receptor>
prm/pocket_docking_8.prm

>  <SCORE>
-35.462

>  <SCORE.INTER>
-35.462

>  <SCORE.INTER.CONST>
1

>  <SCORE.INTER.POLAR>
-4.60224

>  <SCORE.INTER.ROT>
0

>  <SCORE.INTER.SOLV>
10.9253

>  <SCORE.INTER.VDW>
-15.5423

>  <SCORE.INTER.norm>
-3.5462

>  <SCORE.INTRA>
0

>  <SCORE.INTRA.DIHEDRAL>
0

>  <SCORE.INTRA.DIHEDRAL.0>
0

>  <SCORE.INTRA.POLAR>
0

>  <SCORE.INTRA.POLAR.0>
0

>  <SCORE.INTRA.REPUL>
0

>  <SCORE.INTRA.REPUL.0>
0

>  <SCORE.INTRA.SOLV>
0

>  <SCORE.INTRA.SOLV.lig_0>
-14.8845

>  <SCORE.INTRA.VDW>
0

>  <SCORE.INTRA.VDW.0>
0

>  <SCORE.INTRA.norm>
0

>  <SCORE.RESTR>
0

>  <SCORE.RESTR.CAVITY>
0

>  <SCORE.RESTR.norm>
0

>  <SCORE.SYSTEM>
0

>  <SCORE.SYSTEM.CONST>
0

>  <SCORE.SYSTEM.DIHEDRAL>
0

>  <SCORE.SYSTEM.SOLV>
0

>  <SCORE.SYSTEM.norm>
0

>  <SCORE.heavy>
10

>  <SCORE.norm>
-3.5462

>  <RMSD>
3.204

$$$$
lig.pdb
 OpenBabel11021811523D
libRbt.so/2013.1/901 2013/11/27
 10 11  0  0  0  0  0  0  0  0999 V2000
  -28.8540   16.2472  -16.6417 N   0  0  0  0  0  0  0  0  0  0  0  0
  -28.5168   15.8330  -15.3825 C   0  0  0  0  0  0  0  0  0  0  0  0
  -29.3464   16.2388  -14.4511 N   0  0  0  0  0  0  0  0  0  0  0  0
  -30.2937   16.9715  -15.1462 C   0  0  0  0  0  0  0  0  0  0  0  0
  -31.4457   17.6656  -14.7329 C   0  0  0  0  0  0  0  0  0  0  0  0
  -31.8415   17.7360  -13.4576 N   0  0  0  0  0  0  0  0  0  0  0  0
  -32.1753   18.2909  -15.6827 N   0  0  0  0  0  0  0  0  0  0  0  0
  -31.7721   18.2193  -16.9560 C   0  0  0  0  0  0  0  0  0  0  0  0
  -30.7096   17.5969  -17.4650 N   0  0  0  0  0  0  0  0  0  0  0  0
  -30.0060   16.9867  -16.4981 C   0  0  0  0  0  0  0  0  0  0  0  0
  1 10  1  0  0  0  0
  2  3  2  0  0  0  0
  2  1  1  0  0  0  0
  3  4  1  0  0  0  0
  4 10  2  0  0  0  0
  4  5  1  0  0  0  0
  5  7  2  0  0  0  0
  6  5  1  0  0  0  0
  7  8  1  0  0  0  0
  9  8  2  0  0  0  0
 10  9  1  0  0  0  0
M  END
>  <CHROM.1>
-30.51962273,17.18822606,-15.60276979,0.13002942,0.57785745,-1.42022550

>  <Name>
lig.pdb

>  <RI>
1.17775e+07

>  <Rbt.Current_Directory>
/home/itssahil/PROJECTS/Mol_Feturizer/New_Systems/rnas/5uza

>  <Rbt.Executable>
rbdock ($Id: //depot/dev/client3/rdock/2013.1/src/exe/rbdock.cxx#4 $)

>  <Rbt.Library>
libRbt.so (2013.1, Build901 2013/11/27)

>  <Rbt.Parameter_File>
/export/apps/rDock/src/rDock_2013.1_src/data/scripts/dock_solv.prm

>  <Rbt.Receptor>
prm/pocket_docking_8.prm

>  <SCORE>
-35.4621

>  <SCORE.INTER>
-35.4621

>  <SCORE.INTER.CONST>
1

>  <SCORE.INTER.POLAR>
-4.59843

>  <SCORE.INTER.ROT>
0

>  <SCORE.INTER.SOLV>
10.9267

>  <SCORE.INTER.VDW>
-15.5555

>  <SCORE.INTER.norm>
-3.54621

>  <SCORE.INTRA>
0

>  <SCORE.INTRA.DIHEDRAL>
0

>  <SCORE.INTRA.DIHEDRAL.0>
0

>  <SCORE.INTRA.POLAR>
0

>  <SCORE.INTRA.POLAR.0>
0

>  <SCORE.INTRA.REPUL>
0

>  <SCORE.INTRA.REPUL.0>
0

>  <SCORE.INTRA.SOLV>
0

>  <SCORE.INTRA.SOLV.lig_0>
-14.8845

>  <SCORE.INTRA.VDW>
0

>  <SCORE.INTRA.VDW.0>
0

>  <SCORE.INTRA.norm>
0

>  <SCORE.RESTR>
0

>  <SCORE.RESTR.CAVITY>
0

>  <SCORE.RESTR.norm>
0

>  <SCORE.SYSTEM>
0

>  <SCORE.SYSTEM.CONST>
0

>  <SCORE.SYSTEM.DIHEDRAL>
0

>  <SCORE.SYSTEM.SOLV>
0

>  <SCORE.SYSTEM.norm>
0

>  <SCORE.heavy>
10

>  <SCORE.norm>
-3.54621

>  <RMSD>
3.204

$$$$
lig.pdb
 OpenBabel11021811523D
libRbt.so/2013.1/901 2013/11/27
 10 11  0  0  0  0  0  0  0  0999 V2000
  -28.8511   16.2540  -16.6379 N   0  0  0  0  0  0  0  0  0  0  0  0
  -28.5114   15.8475  -15.3768 C   0  0  0  0  0  0  0  0  0  0  0  0
  -29.3441   16.2516  -14.4474 N   0  0  0  0  0  0  0  0  0  0  0  0
  -30.2962   16.9747  -15.1458 C   0  0  0  0  0  0  0  0  0  0  0  0
  -31.4532   17.6626  -14.7358 C   0  0  0  0  0  0  0  0  0  0  0  0
  -31.8497   17.7356  -13.4610 N   0  0  0  0  0  0  0  0  0  0  0  0
  -32.1868   18.2786  -15.6885 N   0  0  0  0  0  0  0  0  0  0  0  0
  -31.7828   18.2044  -16.9614 C   0  0  0  0  0  0  0  0  0  0  0  0
  -30.7158   17.5872  -17.4674 N   0  0  0  0  0  0  0  0  0  0  0  0
  -30.0082   16.9861  -16.4977 C   0  0  0  0  0  0  0  0  0  0  0  0
  1 10  1  0  0  0  0
  2  3  2  0  0  0  0
  2  1  1  0  0  0  0
  3  4  1  0  0  0  0
  4 10  2  0  0  0  0
  4  5  1  0  0  0  0
  5  7  2  0  0  0  0
  6  5  1  0  0  0  0
  7  8  1  0  0  0  0
  9  8  2  0  0  0  0
 10  9  1  0  0  0  0
M  END
>  <CHROM.1>
-30.52350487,17.18789230,-15.60341302,0.13092890,0.57094003,-1.42499230

>  <Name>
lig.pdb

>  <RI>
2.26746e+07

>  <Rbt.Current_Directory>
/home/itssahil/PROJECTS/Mol_Feturizer/New_Systems/rnas/5uza

>  <Rbt.Executable>
rbdock ($Id: //depot/dev/client3/rdock/2013.1/src/exe/rbdock.cxx#4 $)

>  <Rbt.Library>
libRbt.so (2013.1, Build901 2013/11/27)

>  <Rbt.Parameter_File>
/export/apps/rDock/src/rDock_2013.1_src/data/scripts/dock_solv.prm

>  <Rbt.Receptor>
prm/blind_docking_100.prm

>  <SCORE>
-35.4586

>  <SCORE.INTER>
-35.4586

>  <SCORE.INTER.CONST>
1

>  <SCORE.INTER.POLAR>
-4.6107

>  <SCORE.INTER.ROT>
0

>  <SCORE.INTER.SOLV>
10.923

>  <SCORE.INTER.VDW>
-15.511

>  <SCORE.INTER.norm>
-3.54586

>  <SCORE.INTRA>
0

>  <SCORE.INTRA.DIHEDRAL>
0

>  <SCORE.INTRA.DIHEDRAL.0>
0

>  <SCORE.INTRA.POLAR>
0

>  <SCORE.INTRA.POLAR.0>
0

>  <SCORE.INTRA.REPUL>
0

>  <SCORE.INTRA.REPUL.0>
0

>  <SCORE.INTRA.SOLV>
0

>  <SCORE.INTRA.SOLV.lig_0>
-14.8845

>  <SCORE.INTRA.VDW>
0

>  <SCORE.INTRA.VDW.0>
0

>  <SCORE.INTRA.norm>
0

>  <SCORE.RESTR>
0

>  <SCORE.RESTR.CAVITY>
0

>  <SCORE.RESTR.norm>
0

>  <SCORE.SYSTEM>
0

>  <SCORE.SYSTEM.CONST>
0

>  <SCORE.SYSTEM.DIHEDRAL>
0

>  <SCORE.SYSTEM.SOLV>
0

>  <SCORE.SYSTEM.norm>
0

>  <SCORE.heavy>
10

>  <SCORE.norm>
-3.54586

>  <RMSD>
3.205

$$$$
lig.pdb
 OpenBabel11021811523D
libRbt.so/2013.1/901 2013/11/27
 10 11  0  0  0  0  0  0  0  0999 V2000
  -28.8593   16.2451  -16.6396 N   0  0  0  0  0  0  0  0  0  0  0  0
  -28.5238   15.8292  -15.3805 C   0  0  0  0  0  0  0  0  0  0  0  0
  -29.3530   16.2363  -14.4493 N   0  0  0  0  0  0  0  0  0  0  0  0
  -30.2982   16.9717  -15.1444 C   0  0  0  0  0  0  0  0  0  0  0  0
  -31.4488   17.6682  -14.7313 C   0  0  0  0  0  0  0  0  0  0  0  0
  -31.8452   17.7384  -13.4562 N   0  0  0  0  0  0  0  0  0  0  0  0
  -32.1764   18.2958  -15.6811 N   0  0  0  0  0  0  0  0  0  0  0  0
  -31.7726   18.2242  -16.9543 C   0  0  0  0  0  0  0  0  0  0  0  0
  -30.7112   17.5997  -17.4630 N   0  0  0  0  0  0  0  0  0  0  0  0
  -30.0096   16.9872  -16.4962 C   0  0  0  0  0  0  0  0  0  0  0  0
  1 10  1  0  0  0  0
  2  3  2  0  0  0  0
  2  1  1  0  0  0  0
  3  4  1  0  0  0  0
  4 10  2  0  0  0  0
  4  5  1  0  0  0  0
  5  7  2  0  0  0  0
  6  5  1  0  0  0  0
  7  8  1  0  0  0  0
  9  8  2  0  0  0  0
 10  9  1  0  0  0  0
M  END
>  <CHROM.1>
-30.52331454,17.18924901,-15.60098883,0.12888328,0.58005643,-1.41884452

>  <Name>
lig.pdb

>  <RI>
0

>  <Rbt.Current_Directory>
/home/itssahil/PROJECTS/Mol_Feturizer/New_Systems/rnas/5uza

>  <Rbt.Executable>
rbdock ($Id: //depot/dev/client3/rdock/2013.1/src/exe/rbdock.cxx#4 $)

>  <Rbt.Library>
libRbt.so (2013.1, Build901 2013/11/27)

>  <Rbt.Parameter_File>
/export/apps/rDock/src/rDock_2013.1_src/data/scripts/dock_solv.prm

>  <Rbt.Receptor>
prm/blind_docking_60.prm

>  <SCORE>
-35.4611

>  <SCORE.INTER>
-35.4611

>  <SCORE.INTER.CONST>
1

>  <SCORE.INTER.POLAR>
-4.59508

>  <SCORE.INTER.ROT>
0

>  <SCORE.INTER.SOLV>
10.9289

>  <SCORE.INTER.VDW>
-15.5668

>  <SCORE.INTER.norm>
-3.54611

>  <SCORE.INTRA>
0

>  <SCORE.INTRA.DIHEDRAL>
0

>  <SCORE.INTRA.DIHEDRAL.0>
0

>  <SCORE.INTRA.POLAR>
0

>  <SCORE.INTRA.POLAR.0>
0

>  <SCORE.INTRA.REPUL>
0

>  <SCORE.INTRA.REPUL.0>
0

>  <SCORE.INTRA.SOLV>
0

>  <SCORE.INTRA.SOLV.lig_0>
-14.8845

>  <SCORE.INTRA.VDW>
0

>  <SCORE.INTRA.VDW.0>
0

>  <SCORE.INTRA.norm>
0

>  <SCORE.RESTR>
0

>  <SCORE.RESTR.CAVITY>
0

>  <SCORE.RESTR.norm>
0

>  <SCORE.SYSTEM>
0

>  <SCORE.SYSTEM.CONST>
0

>  <SCORE.SYSTEM.DIHEDRAL>
0

>  <SCORE.SYSTEM.SOLV>
0

>  <SCORE.SYSTEM.norm>
0

>  <SCORE.heavy>
10

>  <SCORE.norm>
-3.54611

>  <RMSD>
3.205

$$$$
lig.pdb
 OpenBabel11021811523D
libRbt.so/2013.1/901 2013/11/27
 10 11  0  0  0  0  0  0  0  0999 V2000
  -28.8576   16.2480  -16.6392 N   0  0  0  0  0  0  0  0  0  0  0  0
  -28.5201   15.8360  -15.3794 C   0  0  0  0  0  0  0  0  0  0  0  0
  -29.3501   16.2424  -14.4486 N   0  0  0  0  0  0  0  0  0  0  0  0
  -30.2981   16.9731  -15.1448 C   0  0  0  0  0  0  0  0  0  0  0  0
  -31.4508   17.6667  -14.7325 C   0  0  0  0  0  0  0  0  0  0  0  0
  -31.8466   17.7385  -13.4574 N   0  0  0  0  0  0  0  0  0  0  0  0
  -32.1810   18.2898  -15.6833 N   0  0  0  0  0  0  0  0  0  0  0  0
  -31.7777   18.2167  -16.9565 C   0  0  0  0  0  0  0  0  0  0  0  0
  -30.7145   17.5946  -17.4645 N   0  0  0  0  0  0  0  0  0  0  0  0
  -30.0103   16.9866  -16.4967 C   0  0  0  0  0  0  0  0  0  0  0  0
  1 10  1  0  0  0  0
  2  3  2  0  0  0  0
  2  1  1  0  0  0  0
  3  4  1  0  0  0  0
  4 10  2  0  0  0  0
  4  5  1  0  0  0  0
  5  7  2  0  0  0  0
  6  5  1  0  0  0  0
  7  8  1  0  0  0  0
  9  8  2  0  0  0  0
 10  9  1  0  0  0  0
M  END
>  <CHROM.1>
-30.52419912,17.18894519,-15.60168690,0.13017921,0.57686922,-1.42178580

>  <Name>
lig.pdb

>  <RI>
0

>  <Rbt.Current_Directory>
/home/itssahil/PROJECTS/Mol_Feturizer/New_Systems/rnas/5uza

>  <Rbt.Executable>
rbdock ($Id: //depot/dev/client3/rdock/2013.1/src/exe/rbdock.cxx#4 $)

>  <Rbt.Library>
libRbt.so (2013.1, Build901 2013/11/27)

>  <Rbt.Parameter_File>
/export/apps/rDock/src/rDock_2013.1_src/data/scripts/dock_solv.prm

>  <Rbt.Receptor>
prm/blind_docking_60.prm

>  <SCORE>
-35.4617

>  <SCORE.INTER>
-35.4617

>  <SCORE.INTER.CONST>
1

>  <SCORE.INTER.POLAR>
-4.60068

>  <SCORE.INTER.ROT>
0

>  <SCORE.INTER.SOLV>
10.9266

>  <SCORE.INTER.VDW>
-15.5477

>  <SCORE.INTER.norm>
-3.54617

>  <SCORE.INTRA>
0

>  <SCORE.INTRA.DIHEDRAL>
0

>  <SCORE.INTRA.DIHEDRAL.0>
0

>  <SCORE.INTRA.POLAR>
0

>  <SCORE.INTRA.POLAR.0>
0

>  <SCORE.INTRA.REPUL>
0

>  <SCORE.INTRA.REPUL.0>
0

>  <SCORE.INTRA.SOLV>
0

>  <SCORE.INTRA.SOLV.lig_0>
-14.8845

>  <SCORE.INTRA.VDW>
0

>  <SCORE.INTRA.VDW.0>
0

>  <SCORE.INTRA.norm>
0

>  <SCORE.RESTR>
0

>  <SCORE.RESTR.CAVITY>
0

>  <SCORE.RESTR.norm>
0

>  <SCORE.SYSTEM>
0

>  <SCORE.SYSTEM.CONST>
0

>  <SCORE.SYSTEM.DIHEDRAL>
0

>  <SCORE.SYSTEM.SOLV>
0

>  <SCORE.SYSTEM.norm>
0

>  <SCORE.heavy>
10

>  <SCORE.norm>
-3.54617

>  <RMSD>
3.205

$$$$
lig.pdb
 OpenBabel11021811523D
libRbt.so/2013.1/901 2013/11/27
 10 11  0  0  0  0  0  0  0  0999 V2000
  -28.8602   16.2459  -16.6395 N   0  0  0  0  0  0  0  0  0  0  0  0
  -28.5232   15.8323  -15.3800 C   0  0  0  0  0  0  0  0  0  0  0  0
  -29.3522   16.2397  -14.4488 N   0  0  0  0  0  0  0  0  0  0  0  0
  -30.2988   16.9729  -15.1442 C   0  0  0  0  0  0  0  0  0  0  0  0
  -31.4500   17.6685  -14.7312 C   0  0  0  0  0  0  0  0  0  0  0  0
  -31.8454   17.7402  -13.4559 N   0  0  0  0  0  0  0  0  0  0  0  0
  -32.1792   18.2938  -15.6813 N   0  0  0  0  0  0  0  0  0  0  0  0
  -31.7763   18.2208  -16.9547 C   0  0  0  0  0  0  0  0  0  0  0  0
  -30.7145   17.5970  -17.4634 N   0  0  0  0  0  0  0  0  0  0  0  0
  -30.0113   16.9867  -16.4962 C   0  0  0  0  0  0  0  0  0  0  0  0
  1 10  1  0  0  0  0
  2  3  2  0  0  0  0
  2  1  1  0  0  0  0
  3  4  1  0  0  0  0
  4 10  2  0  0  0  0
  4  5  1  0  0  0  0
  5  7  2  0  0  0  0
  6  5  1  0  0  0  0
  7  8  1  0  0  0  0
  9  8  2  0  0  0  0
 10  9  1  0  0  0  0
M  END
>  <CHROM.1>
-30.52461698,17.18950607,-15.60087613,0.13008283,0.57891977,-1.42099808

>  <Name>
lig.pdb

>  <RI>
0

>  <Rbt.Current_Directory>
/home/itssahil/PROJECTS/Mol_Feturizer/New_Systems/rnas/5uza

>  <Rbt.Executable>
rbdock ($Id: //depot/dev/client3/rdock/2013.1/src/exe/rbdock.cxx#4 $)

>  <Rbt.Library>
libRbt.so (2013.1, Build901 2013/11/27)

>  <Rbt.Parameter_File>
/export/apps/rDock/src/rDock_2013.1_src/data/scripts/dock_solv.prm

>  <Rbt.Receptor>
prm/blind_docking_80.prm

>  <SCORE>
-35.4611

>  <SCORE.INTER>
-35.4611

>  <SCORE.INTER.CONST>
1

>  <SCORE.INTER.POLAR>
-4.59772

>  <SCORE.INTER.ROT>
0

>  <SCORE.INTER.SOLV>
10.928

>  <SCORE.INTER.VDW>
-15.5577

>  <SCORE.INTER.norm>
-3.54611

>  <SCORE.INTRA>
0

>  <SCORE.INTRA.DIHEDRAL>
0

>  <SCORE.INTRA.DIHEDRAL.0>
0

>  <SCORE.INTRA.POLAR>
0

>  <SCORE.INTRA.POLAR.0>
0

>  <SCORE.INTRA.REPUL>
0

>  <SCORE.INTRA.REPUL.0>
0

>  <SCORE.INTRA.SOLV>
0

>  <SCORE.INTRA.SOLV.lig_0>
-14.8845

>  <SCORE.INTRA.VDW>
0

>  <SCORE.INTRA.VDW.0>
0

>  <SCORE.INTRA.norm>
0

>  <SCORE.RESTR>
0

>  <SCORE.RESTR.CAVITY>
0

>  <SCORE.RESTR.norm>
0

>  <SCORE.SYSTEM>
0

>  <SCORE.SYSTEM.CONST>
0

>  <SCORE.SYSTEM.DIHEDRAL>
0

>  <SCORE.SYSTEM.SOLV>
0

>  <SCORE.SYSTEM.norm>
0

>  <SCORE.heavy>
10

>  <SCORE.norm>
-3.54611

>  <RMSD>
3.205

$$$$
lig.pdb
 OpenBabel11021811523D
libRbt.so/2013.1/901 2013/11/27
 10 11  0  0  0  0  0  0  0  0999 V2000
  -28.8572   16.2504  -16.6387 N   0  0  0  0  0  0  0  0  0  0  0  0
  -28.5184   15.8407  -15.3784 C   0  0  0  0  0  0  0  0  0  0  0  0
  -29.3489   16.2468  -14.4479 N   0  0  0  0  0  0  0  0  0  0  0  0
  -30.2986   16.9746  -15.1448 C   0  0  0  0  0  0  0  0  0  0  0  0
  -31.4526   17.6665  -14.7331 C   0  0  0  0  0  0  0  0  0  0  0  0
  -31.8482   17.7392  -13.4579 N   0  0  0  0  0  0  0  0  0  0  0  0
  -32.1843   18.2868  -15.6845 N   0  0  0  0  0  0  0  0  0  0  0  0
  -31.7813   18.2128  -16.9577 C   0  0  0  0  0  0  0  0  0  0  0  0
  -30.7170   17.5922  -17.4653 N   0  0  0  0  0  0  0  0  0  0  0  0
  -30.0113   16.9868  -16.4968 C   0  0  0  0  0  0  0  0  0  0  0  0
  1 10  1  0  0  0  0
  2  3  2  0  0  0  0
  2  1  1  0  0  0  0
  3  4  1  0  0  0  0
  4 10  2  0  0  0  0
  4  5  1  0  0  0  0
  5  7  2  0  0  0  0
  6  5  1  0  0  0  0
  7  8  1  0  0  0  0
  9  8  2  0  0  0  0
 10  9  1  0  0  0  0
M  END
>  <CHROM.1>
-30.52528938,17.18937342,-15.60191184,0.13089612,0.57494127,-1.42352348

>  <Name>
lig.pdb

>  <RI>
0

>  <Rbt.Current_Directory>
/home/itssahil/PROJECTS/Mol_Feturizer/New_Systems/rnas/5uza

>  <Rbt.Executable>
rbdock ($Id: //depot/dev/client3/rdock/2013.1/src/exe/rbdock.cxx#4 $)

>  <Rbt.Library>
libRbt.so (2013.1, Build901 2013/11/27)

>  <Rbt.Parameter_File>
/export/apps/rDock/src/rDock_2013.1_src/data/scripts/dock_solv.prm

>  <Rbt.Receptor>
prm/pocket_docking_3.prm

>  <SCORE>
-35.4619

>  <SCORE.INTER>
-35.4619

>  <SCORE.INTER.CONST>
1

>  <SCORE.INTER.POLAR>
-4.60448

>  <SCORE.INTER.ROT>
0

>  <SCORE.INTER.SOLV>
10.9255

>  <SCORE.INTER.VDW>
-15.5348

>  <SCORE.INTER.norm>
-3.54619

>  <SCORE.INTRA>
0

>  <SCORE.INTRA.DIHEDRAL>
0

>  <SCORE.INTRA.DIHEDRAL.0>
0

>  <SCORE.INTRA.POLAR>
0

>  <SCORE.INTRA.POLAR.0>
0

>  <SCORE.INTRA.REPUL>
0

>  <SCORE.INTRA.REPUL.0>
0

>  <SCORE.INTRA.SOLV>
0

>  <SCORE.INTRA.SOLV.lig_0>
-14.8845

>  <SCORE.INTRA.VDW>
0

>  <SCORE.INTRA.VDW.0>
0

>  <SCORE.INTRA.norm>
0

>  <SCORE.RESTR>
0

>  <SCORE.RESTR.CAVITY>
0

>  <SCORE.RESTR.norm>
0

>  <SCORE.SYSTEM>
0

>  <SCORE.SYSTEM.CONST>
0

>  <SCORE.SYSTEM.DIHEDRAL>
0

>  <SCORE.SYSTEM.SOLV>
0

>  <SCORE.SYSTEM.norm>
0

>  <SCORE.heavy>
10

>  <SCORE.norm>
-3.54619

>  <RMSD>
3.205

$$$$
lig.pdb
 OpenBabel11021811523D
libRbt.so/2013.1/901 2013/11/27
 10 11  0  0  0  0  0  0  0  0999 V2000
  -28.8518   16.2528  -16.6361 N   0  0  0  0  0  0  0  0  0  0  0  0
  -28.5157   15.8420  -15.3754 C   0  0  0  0  0  0  0  0  0  0  0  0
  -29.3490   16.2460  -14.4465 N   0  0  0  0  0  0  0  0  0  0  0  0
  -30.2978   16.9736  -15.1448 C   0  0  0  0  0  0  0  0  0  0  0  0
  -31.4535   17.6636  -14.7352 C   0  0  0  0  0  0  0  0  0  0  0  0
  -31.8524   17.7344  -13.4609 N   0  0  0  0  0  0  0  0  0  0  0  0
  -32.1836   18.2843  -15.6876 N   0  0  0  0  0  0  0  0  0  0  0  0
  -31.7773   18.2123  -16.9599 C   0  0  0  0  0  0  0  0  0  0  0  0
  -30.7111   17.5935  -17.4656 N   0  0  0  0  0  0  0  0  0  0  0  0
  -30.0071   16.9878  -16.4961 C   0  0  0  0  0  0  0  0  0  0  0  0
  1 10  1  0  0  0  0
  2  3  2  0  0  0  0
  2  1  1  0  0  0  0
  3  4  1  0  0  0  0
  4 10  2  0  0  0  0
  4  5  1  0  0  0  0
  5  7  2  0  0  0  0
  6  5  1  0  0  0  0
  7  8  1  0  0  0  0
  9  8  2  0  0  0  0
 10  9  1  0  0  0  0
M  END
>  <CHROM.1>
-30.52356302,17.18865991,-15.60225534,0.12817725,0.57344684,-1.42082851

>  <Name>
lig.pdb

>  <RI>
9.24451e+06

>  <Rbt.Current_Directory>
/home/itssahil/PROJECTS/Mol_Feturizer/New_Systems/rnas/5uza

>  <Rbt.Executable>
rbdock ($Id: //depot/dev/client3/rdock/2013.1/src/exe/rbdock.cxx#4 $)

>  <Rbt.Library>
libRbt.so (2013.1, Build901 2013/11/27)

>  <Rbt.Parameter_File>
/export/apps/rDock/src/rDock_2013.1_src/data/scripts/dock_solv.prm

>  <Rbt.Receptor>
prm/pocket_docking_4.prm

>  <SCORE>
-35.461

>  <SCORE.INTER>
-35.461

>  <SCORE.INTER.CONST>
1

>  <SCORE.INTER.POLAR>
-4.60641

>  <SCORE.INTER.ROT>
0

>  <SCORE.INTER.SOLV>
10.9258

>  <SCORE.INTER.VDW>
-15.5279

>  <SCORE.INTER.norm>
-3.5461

>  <SCORE.INTRA>
0

>  <SCORE.INTRA.DIHEDRAL>
0

>  <SCORE.INTRA.DIHEDRAL.0>
0

>  <SCORE.INTRA.POLAR>
0

>  <SCORE.INTRA.POLAR.0>
0

>  <SCORE.INTRA.REPUL>
0

>  <SCORE.INTRA.REPUL.0>
0

>  <SCORE.INTRA.SOLV>
0

>  <SCORE.INTRA.SOLV.lig_0>
-14.8845

>  <SCORE.INTRA.VDW>
0

>  <SCORE.INTRA.VDW.0>
0

>  <SCORE.INTRA.norm>
0

>  <SCORE.RESTR>
0

>  <SCORE.RESTR.CAVITY>
0

>  <SCORE.RESTR.norm>
0

>  <SCORE.SYSTEM>
0

>  <SCORE.SYSTEM.CONST>
0

>  <SCORE.SYSTEM.DIHEDRAL>
0

>  <SCORE.SYSTEM.SOLV>
0

>  <SCORE.SYSTEM.norm>
0

>  <SCORE.heavy>
10

>  <SCORE.norm>
-3.5461

>  <RMSD>
3.205

$$$$
lig.pdb
 OpenBabel11021811523D
libRbt.so/2013.1/901 2013/11/27
 10 11  0  0  0  0  0  0  0  0999 V2000
  -28.8553   16.2442  -16.6400 N   0  0  0  0  0  0  0  0  0  0  0  0
  -28.5178   15.8318  -15.3803 C   0  0  0  0  0  0  0  0  0  0  0  0
  -29.3474   16.2385  -14.4493 N   0  0  0  0  0  0  0  0  0  0  0  0
  -30.2952   16.9699  -15.1452 C   0  0  0  0  0  0  0  0  0  0  0  0
  -31.4474   17.6640  -14.7327 C   0  0  0  0  0  0  0  0  0  0  0  0
  -31.8430   17.7358  -13.4574 N   0  0  0  0  0  0  0  0  0  0  0  0
  -32.1774   18.2877  -15.6832 N   0  0  0  0  0  0  0  0  0  0  0  0
  -31.7744   18.2146  -16.9565 C   0  0  0  0  0  0  0  0  0  0  0  0
  -30.7116   17.5920  -17.4648 N   0  0  0  0  0  0  0  0  0  0  0  0
  -30.0076   16.9834  -16.4972 C   0  0  0  0  0  0  0  0  0  0  0  0
  1 10  1  0  0  0  0
  2  3  2  0  0  0  0
  2  1  1  0  0  0  0
  3  4  1  0  0  0  0
  4 10  2  0  0  0  0
  4  5  1  0  0  0  0
  5  7  2  0  0  0  0
  6  5  1  0  0  0  0
  7  8  1  0  0  0  0
  9  8  2  0  0  0  0
 10  9  1  0  0  0  0
M  END
>  <CHROM.1>
-30.52121325,17.18588661,-15.60204885,0.13025811,0.57743383,-1.42164041

>  <Name>
lig.pdb

>  <RI>
0

>  <Rbt.Current_Directory>
/home/itssahil/PROJECTS/Mol_Feturizer/New_Systems/rnas/5uza

>  <Rbt.Executable>
rbdock ($Id: //depot/dev/client3/rdock/2013.1/src/exe/rbdock.cxx#4 $)

>  <Rbt.Library>
libRbt.so (2013.1, Build901 2013/11/27)

>  <Rbt.Parameter_File>
/export/apps/rDock/src/rDock_2013.1_src/data/scripts/dock_solv.prm

>  <Rbt.Receptor>
prm/pocket_docking_5.prm

>  <SCORE>
-35.4564

>  <SCORE.INTER>
-35.4564

>  <SCORE.INTER.CONST>
1

>  <SCORE.INTER.POLAR>
-4.59814

>  <SCORE.INTER.ROT>
0

>  <SCORE.INTER.SOLV>
10.9256

>  <SCORE.INTER.VDW>
-15.5523

>  <SCORE.INTER.norm>
-3.54564

>  <SCORE.INTRA>
0

>  <SCORE.INTRA.DIHEDRAL>
0

>  <SCORE.INTRA.DIHEDRAL.0>
0

>  <SCORE.INTRA.POLAR>
0

>  <SCORE.INTRA.POLAR.0>
0

>  <SCORE.INTRA.REPUL>
0

>  <SCORE.INTRA.REPUL.0>
0

>  <SCORE.INTRA.SOLV>
0

>  <SCORE.INTRA.SOLV.lig_0>
-14.8845

>  <SCORE.INTRA.VDW>
0

>  <SCORE.INTRA.VDW.0>
0

>  <SCORE.INTRA.norm>
0

>  <SCORE.RESTR>
0

>  <SCORE.RESTR.CAVITY>
0

>  <SCORE.RESTR.norm>
0

>  <SCORE.SYSTEM>
0

>  <SCORE.SYSTEM.CONST>
0

>  <SCORE.SYSTEM.DIHEDRAL>
0

>  <SCORE.SYSTEM.SOLV>
0

>  <SCORE.SYSTEM.norm>
0

>  <SCORE.heavy>
10

>  <SCORE.norm>
-3.54564

>  <RMSD>
3.205

$$$$
lig.pdb
 OpenBabel11021811523D
libRbt.so/2013.1/901 2013/11/27
 10 11  0  0  0  0  0  0  0  0999 V2000
  -28.8503   16.2530  -16.6356 N   0  0  0  0  0  0  0  0  0  0  0  0
  -28.5094   15.8433  -15.3759 C   0  0  0  0  0  0  0  0  0  0  0  0
  -29.3371   16.2512  -14.4438 N   0  0  0  0  0  0  0  0  0  0  0  0
  -30.2870   16.9806  -15.1388 C   0  0  0  0  0  0  0  0  0  0  0  0
  -31.4388   17.6747  -14.7248 C   0  0  0  0  0  0  0  0  0  0  0  0
  -31.8314   17.7486  -13.4488 N   0  0  0  0  0  0  0  0  0  0  0  0
  -32.1715   18.2960  -15.6748 N   0  0  0  0  0  0  0  0  0  0  0  0
  -31.7714   18.2208  -16.9489 C   0  0  0  0  0  0  0  0  0  0  0  0
  -30.7094   17.5980  -17.4586 N   0  0  0  0  0  0  0  0  0  0  0  0
  -30.0027   16.9917  -16.4915 C   0  0  0  0  0  0  0  0  0  0  0  0
  1 10  1  0  0  0  0
  2  3  2  0  0  0  0
  2  1  1  0  0  0  0
  3  4  1  0  0  0  0
  4 10  2  0  0  0  0
  4  5  1  0  0  0  0
  5  7  2  0  0  0  0
  6  5  1  0  0  0  0
  7  8  1  0  0  0  0
  9  8  2  0  0  0  0
 10  9  1  0  0  0  0
M  END
>  <CHROM.1>
-30.51431801,17.19553432,-15.59549884,0.13319299,0.57709306,-1.42515981

>  <Name>
lig.pdb

>  <RI>
2.12818e+07

>  <Rbt.Current_Directory>
/home/itssahil/PROJECTS/Mol_Feturizer/New_Systems/rnas/5uza

>  <Rbt.Executable>
rbdock ($Id: //depot/dev/client3/rdock/2013.1/src/exe/rbdock.cxx#4 $)

>  <Rbt.Library>
libRbt.so (2013.1, Build901 2013/11/27)

>  <Rbt.Parameter_File>
/export/apps/rDock/src/rDock_2013.1_src/data/scripts/dock_solv.prm

>  <Rbt.Receptor>
prm/pocket_docking_7.prm

>  <SCORE>
-35.4432

>  <SCORE.INTER>
-35.4432

>  <SCORE.INTER.CONST>
1

>  <SCORE.INTER.POLAR>
-4.6219

>  <SCORE.INTER.ROT>
0

>  <SCORE.INTER.SOLV>
10.9297

>  <SCORE.INTER.VDW>
-15.4657

>  <SCORE.INTER.norm>
-3.54432

>  <SCORE.INTRA>
0

>  <SCORE.INTRA.DIHEDRAL>
0

>  <SCORE.INTRA.DIHEDRAL.0>
0

>  <SCORE.INTRA.POLAR>
0

>  <SCORE.INTRA.POLAR.0>
0

>  <SCORE.INTRA.REPUL>
0

>  <SCORE.INTRA.REPUL.0>
0

>  <SCORE.INTRA.SOLV>
0

>  <SCORE.INTRA.SOLV.lig_0>
-14.8845

>  <SCORE.INTRA.VDW>
0

>  <SCORE.INTRA.VDW.0>
0

>  <SCORE.INTRA.norm>
0

>  <SCORE.RESTR>
0

>  <SCORE.RESTR.CAVITY>
0

>  <SCORE.RESTR.norm>
0

>  <SCORE.SYSTEM>
0

>  <SCORE.SYSTEM.CONST>
0

>  <SCORE.SYSTEM.DIHEDRAL>
0

>  <SCORE.SYSTEM.SOLV>
0

>  <SCORE.SYSTEM.norm>
0

>  <SCORE.heavy>
10

>  <SCORE.norm>
-3.54432

>  <RMSD>
3.205

$$$$
lig.pdb
 OpenBabel11021811523D
libRbt.so/2013.1/901 2013/11/27
 10 11  0  0  0  0  0  0  0  0999 V2000
  -28.8373   16.2583  -16.6332 N   0  0  0  0  0  0  0  0  0  0  0  0
  -28.4985   15.8489  -15.3728 C   0  0  0  0  0  0  0  0  0  0  0  0
  -29.3303   16.2531  -14.4427 N   0  0  0  0  0  0  0  0  0  0  0  0
  -30.2809   16.9794  -15.1398 C   0  0  0  0  0  0  0  0  0  0  0  0
  -31.4364   17.6690  -14.7286 C   0  0  0  0  0  0  0  0  0  0  0  0
  -31.8329   17.7406  -13.4537 N   0  0  0  0  0  0  0  0  0  0  0  0
  -32.1688   18.2882  -15.6802 N   0  0  0  0  0  0  0  0  0  0  0  0
  -31.7648   18.2154  -16.9533 C   0  0  0  0  0  0  0  0  0  0  0  0
  -30.6991   17.5969  -17.4604 N   0  0  0  0  0  0  0  0  0  0  0  0
  -29.9928   16.9926  -16.4917 C   0  0  0  0  0  0  0  0  0  0  0  0
  1 10  1  0  0  0  0
  2  3  2  0  0  0  0
  2  1  1  0  0  0  0
  3  4  1  0  0  0  0
  4 10  2  0  0  0  0
  4  5  1  0  0  0  0
  5  7  2  0  0  0  0
  6  5  1  0  0  0  0
  7  8  1  0  0  0  0
  9  8  2  0  0  0  0
 10  9  1  0  0  0  0
M  END
>  <CHROM.1>
-30.50775008,17.19386869,-15.59705979,0.13053457,0.57300735,-1.42302114

>  <Name>
lig.pdb

>  <RI>
2.12818e+07

>  <Rbt.Current_Directory>
/home/itssahil/PROJECTS/Mol_Feturizer/New_Systems/rnas/5uza

>  <Rbt.Executable>
rbdock ($Id: //depot/dev/client3/rdock/2013.1/src/exe/rbdock.cxx#4 $)

>  <Rbt.Library>
libRbt.so (2013.1, Build901 2013/11/27)

>  <Rbt.Parameter_File>
/export/apps/rDock/src/rDock_2013.1_src/data/scripts/dock_solv.prm

>  <Rbt.Receptor>
prm/pocket_docking_7.prm

>  <SCORE>
-35.4406

>  <SCORE.INTER>
-35.4406

>  <SCORE.INTER.CONST>
1

>  <SCORE.INTER.POLAR>
-4.63022

>  <SCORE.INTER.ROT>
0

>  <SCORE.INTER.SOLV>
10.9292

>  <SCORE.INTER.VDW>
-15.4361

>  <SCORE.INTER.norm>
-3.54406

>  <SCORE.INTRA>
0

>  <SCORE.INTRA.DIHEDRAL>
0

>  <SCORE.INTRA.DIHEDRAL.0>
0

>  <SCORE.INTRA.POLAR>
0

>  <SCORE.INTRA.POLAR.0>
0

>  <SCORE.INTRA.REPUL>
0

>  <SCORE.INTRA.REPUL.0>
0

>  <SCORE.INTRA.SOLV>
0

>  <SCORE.INTRA.SOLV.lig_0>
-14.8845

>  <SCORE.INTRA.VDW>
0

>  <SCORE.INTRA.VDW.0>
0

>  <SCORE.INTRA.norm>
0

>  <SCORE.RESTR>
0

>  <SCORE.RESTR.CAVITY>
0

>  <SCORE.RESTR.norm>
0

>  <SCORE.SYSTEM>
0

>  <SCORE.SYSTEM.CONST>
0

>  <SCORE.SYSTEM.DIHEDRAL>
0

>  <SCORE.SYSTEM.SOLV>
0

>  <SCORE.SYSTEM.norm>
0

>  <SCORE.heavy>
10

>  <SCORE.norm>
-3.54406

>  <RMSD>
3.205

$$$$
lig.pdb
 OpenBabel11021811523D
libRbt.so/2013.1/901 2013/11/27
 10 11  0  0  0  0  0  0  0  0999 V2000
  -28.8595   16.2451  -16.6367 N   0  0  0  0  0  0  0  0  0  0  0  0
  -28.5244   15.8309  -15.3769 C   0  0  0  0  0  0  0  0  0  0  0  0
  -29.3546   16.2381  -14.4467 N   0  0  0  0  0  0  0  0  0  0  0  0
  -30.3001   16.9718  -15.1432 C   0  0  0  0  0  0  0  0  0  0  0  0
  -31.4518   17.6675  -14.7316 C   0  0  0  0  0  0  0  0  0  0  0  0
  -31.8490   17.7387  -13.4569 N   0  0  0  0  0  0  0  0  0  0  0  0
  -32.1794   18.2933  -15.6825 N   0  0  0  0  0  0  0  0  0  0  0  0
  -31.7746   18.2208  -16.9554 C   0  0  0  0  0  0  0  0  0  0  0  0
  -30.7122   17.5969  -17.4628 N   0  0  0  0  0  0  0  0  0  0  0  0
  -30.0106   16.9861  -16.4948 C   0  0  0  0  0  0  0  0  0  0  0  0
  1 10  1  0  0  0  0
  2  3  2  0  0  0  0
  2  1  1  0  0  0  0
  3  4  1  0  0  0  0
  4 10  2  0  0  0  0
  4  5  1  0  0  0  0
  5  7  2  0  0  0  0
  6  5  1  0  0  0  0
  7  8  1  0  0  0  0
  9  8  2  0  0  0  0
 10  9  1  0  0  0  0
M  END
>  <CHROM.1>
-30.52516770,17.18861654,-15.60017016,0.12829968,0.57893488,-1.41959180

>  <Name>
lig.pdb

>  <RI>
9.24451e+06

>  <Rbt.Current_Directory>
/home/itssahil/PROJECTS/Mol_Feturizer/New_Systems/rnas/5uza

>  <Rbt.Executable>
rbdock ($Id: //depot/dev/client3/rdock/2013.1/src/exe/rbdock.cxx#4 $)

>  <Rbt.Library>
libRbt.so (2013.1, Build901 2013/11/27)

>  <Rbt.Parameter_File>
/export/apps/rDock/src/rDock_2013.1_src/data/scripts/dock_solv.prm

>  <Rbt.Receptor>
prm/pocket_docking_4.prm

>  <SCORE>
-35.4598

>  <SCORE.INTER>
-35.4598

>  <SCORE.INTER.CONST>
1

>  <SCORE.INTER.POLAR>
-4.59762

>  <SCORE.INTER.ROT>
0

>  <SCORE.INTER.SOLV>
10.9285

>  <SCORE.INTER.VDW>
-15.5573

>  <SCORE.INTER.norm>
-3.54598

>  <SCORE.INTRA>
0

>  <SCORE.INTRA.DIHEDRAL>
0

>  <SCORE.INTRA.DIHEDRAL.0>
0

>  <SCORE.INTRA.POLAR>
0

>  <SCORE.INTRA.POLAR.0>
0

>  <SCORE.INTRA.REPUL>
0

>  <SCORE.INTRA.REPUL.0>
0

>  <SCORE.INTRA.SOLV>
0

>  <SCORE.INTRA.SOLV.lig_0>
-14.8845

>  <SCORE.INTRA.VDW>
0

>  <SCORE.INTRA.VDW.0>
0

>  <SCORE.INTRA.norm>
0

>  <SCORE.RESTR>
0

>  <SCORE.RESTR.CAVITY>
0

>  <SCORE.RESTR.norm>
0

>  <SCORE.SYSTEM>
0

>  <SCORE.SYSTEM.CONST>
0

>  <SCORE.SYSTEM.DIHEDRAL>
0

>  <SCORE.SYSTEM.SOLV>
0

>  <SCORE.SYSTEM.norm>
0

>  <SCORE.heavy>
10

>  <SCORE.norm>
-3.54598

>  <RMSD>
3.206

$$$$
lig.pdb
 OpenBabel11021811523D
libRbt.so/2013.1/901 2013/11/27
 10 11  0  0  0  0  0  0  0  0999 V2000
  -28.8629   16.2471  -16.6384 N   0  0  0  0  0  0  0  0  0  0  0  0
  -28.5265   15.8345  -15.3784 C   0  0  0  0  0  0  0  0  0  0  0  0
  -29.3567   16.2414  -14.4481 N   0  0  0  0  0  0  0  0  0  0  0  0
  -30.3036   16.9732  -15.1446 C   0  0  0  0  0  0  0  0  0  0  0  0
  -31.4560   17.6677  -14.7329 C   0  0  0  0  0  0  0  0  0  0  0  0
  -31.8525   17.7395  -13.4580 N   0  0  0  0  0  0  0  0  0  0  0  0
  -32.1851   18.2916  -15.6840 N   0  0  0  0  0  0  0  0  0  0  0  0
  -31.7811   18.2185  -16.9570 C   0  0  0  0  0  0  0  0  0  0  0  0
  -30.7181   17.5956  -17.4645 N   0  0  0  0  0  0  0  0  0  0  0  0
  -30.0150   16.9867  -16.4964 C   0  0  0  0  0  0  0  0  0  0  0  0
  1 10  1  0  0  0  0
  2  3  2  0  0  0  0
  2  1  1  0  0  0  0
  3  4  1  0  0  0  0
  4 10  2  0  0  0  0
  4  5  1  0  0  0  0
  5  7  2  0  0  0  0
  6  5  1  0  0  0  0
  7  8  1  0  0  0  0
  9  8  2  0  0  0  0
 10  9  1  0  0  0  0
M  END
>  <CHROM.1>
-30.52927867,17.18926591,-15.60163176,0.12930260,0.57764253,-1.42107372

>  <Name>
lig.pdb

>  <RI>
0

>  <Rbt.Current_Directory>
/home/itssahil/PROJECTS/Mol_Feturizer/New_Systems/rnas/5uza

>  <Rbt.Executable>
rbdock ($Id: //depot/dev/client3/rdock/2013.1/src/exe/rbdock.cxx#4 $)

>  <Rbt.Library>
libRbt.so (2013.1, Build901 2013/11/27)

>  <Rbt.Parameter_File>
/export/apps/rDock/src/rDock_2013.1_src/data/scripts/dock_solv.prm

>  <Rbt.Receptor>
prm/pocket_docking_5.prm

>  <SCORE>
-35.4563

>  <SCORE.INTER>
-35.4563

>  <SCORE.INTER.CONST>
1

>  <SCORE.INTER.POLAR>
-4.59634

>  <SCORE.INTER.ROT>
0

>  <SCORE.INTER.SOLV>
10.9274

>  <SCORE.INTER.VDW>
-15.5589

>  <SCORE.INTER.norm>
-3.54563

>  <SCORE.INTRA>
0

>  <SCORE.INTRA.DIHEDRAL>
0

>  <SCORE.INTRA.DIHEDRAL.0>
0

>  <SCORE.INTRA.POLAR>
0

>  <SCORE.INTRA.POLAR.0>
0

>  <SCORE.INTRA.REPUL>
0

>  <SCORE.INTRA.REPUL.0>
0

>  <SCORE.INTRA.SOLV>
0

>  <SCORE.INTRA.SOLV.lig_0>
-14.8845

>  <SCORE.INTRA.VDW>
0

>  <SCORE.INTRA.VDW.0>
0

>  <SCORE.INTRA.norm>
0

>  <SCORE.RESTR>
0

>  <SCORE.RESTR.CAVITY>
0

>  <SCORE.RESTR.norm>
0

>  <SCORE.SYSTEM>
0

>  <SCORE.SYSTEM.CONST>
0

>  <SCORE.SYSTEM.DIHEDRAL>
0

>  <SCORE.SYSTEM.SOLV>
0

>  <SCORE.SYSTEM.norm>
0

>  <SCORE.heavy>
10

>  <SCORE.norm>
-3.54563

>  <RMSD>
3.206

$$$$
lig.pdb
 OpenBabel11021811523D
libRbt.so/2013.1/901 2013/11/27
 10 11  0  0  0  0  0  0  0  0999 V2000
  -28.8503   16.2532  -16.6287 N   0  0  0  0  0  0  0  0  0  0  0  0
  -28.5148   15.8416  -15.3681 C   0  0  0  0  0  0  0  0  0  0  0  0
  -29.3463   16.2484  -14.4389 N   0  0  0  0  0  0  0  0  0  0  0  0
  -30.2931   16.9790  -15.1368 C   0  0  0  0  0  0  0  0  0  0  0  0
  -31.4464   17.6729  -14.7267 C   0  0  0  0  0  0  0  0  0  0  0  0
  -31.8444   17.7452  -13.4523 N   0  0  0  0  0  0  0  0  0  0  0  0
  -32.1750   18.2958  -15.6789 N   0  0  0  0  0  0  0  0  0  0  0  0
  -31.7696   18.2222  -16.9514 C   0  0  0  0  0  0  0  0  0  0  0  0
  -30.7056   17.5998  -17.4575 N   0  0  0  0  0  0  0  0  0  0  0  0
  -30.0031   16.9920  -16.4883 C   0  0  0  0  0  0  0  0  0  0  0  0
  1 10  1  0  0  0  0
  2  3  2  0  0  0  0
  2  1  1  0  0  0  0
  3  4  1  0  0  0  0
  4 10  2  0  0  0  0
  4  5  1  0  0  0  0
  5  7  2  0  0  0  0
  6  5  1  0  0  0  0
  7  8  1  0  0  0  0
  9  8  2  0  0  0  0
 10  9  1  0  0  0  0
M  END
>  <CHROM.1>
-30.51842878,17.19471870,-15.59419202,0.12819594,0.57673921,-1.42102708

>  <Name>
lig.pdb

>  <RI>
2.12818e+07

>  <Rbt.Current_Directory>
/home/itssahil/PROJECTS/Mol_Feturizer/New_Systems/rnas/5uza

>  <Rbt.Executable>
rbdock ($Id: //depot/dev/client3/rdock/2013.1/src/exe/rbdock.cxx#4 $)

>  <Rbt.Library>
libRbt.so (2013.1, Build901 2013/11/27)

>  <Rbt.Parameter_File>
/export/apps/rDock/src/rDock_2013.1_src/data/scripts/dock_solv.prm

>  <Rbt.Receptor>
prm/pocket_docking_7.prm

>  <SCORE>
-35.4376

>  <SCORE.INTER>
-35.4376

>  <SCORE.INTER.CONST>
1

>  <SCORE.INTER.POLAR>
-4.6209

>  <SCORE.INTER.ROT>
0

>  <SCORE.INTER.SOLV>
10.9316

>  <SCORE.INTER.VDW>
-15.466

>  <SCORE.INTER.norm>
-3.54376

>  <SCORE.INTRA>
0

>  <SCORE.INTRA.DIHEDRAL>
0

>  <SCORE.INTRA.DIHEDRAL.0>
0

>  <SCORE.INTRA.POLAR>
0

>  <SCORE.INTRA.POLAR.0>
0

>  <SCORE.INTRA.REPUL>
0

>  <SCORE.INTRA.REPUL.0>
0

>  <SCORE.INTRA.SOLV>
0

>  <SCORE.INTRA.SOLV.lig_0>
-14.8845

>  <SCORE.INTRA.VDW>
0

>  <SCORE.INTRA.VDW.0>
0

>  <SCORE.INTRA.norm>
0

>  <SCORE.RESTR>
0

>  <SCORE.RESTR.CAVITY>
0

>  <SCORE.RESTR.norm>
0

>  <SCORE.SYSTEM>
0

>  <SCORE.SYSTEM.CONST>
0

>  <SCORE.SYSTEM.DIHEDRAL>
0

>  <SCORE.SYSTEM.SOLV>
0

>  <SCORE.SYSTEM.norm>
0

>  <SCORE.heavy>
10

>  <SCORE.norm>
-3.54376

>  <RMSD>
3.208

$$$$
lig.pdb
 OpenBabel11021811523D
libRbt.so/2013.1/901 2013/11/27
 10 11  0  0  0  0  0  0  0  0999 V2000
  -28.9340   16.1770  -16.6559 N   0  0  0  0  0  0  0  0  0  0  0  0
  -28.6148   15.7404  -15.3995 C   0  0  0  0  0  0  0  0  0  0  0  0
  -29.4371   16.1601  -14.4678 N   0  0  0  0  0  0  0  0  0  0  0  0
  -30.3599   16.9265  -15.1595 C   0  0  0  0  0  0  0  0  0  0  0  0
  -31.4938   17.6487  -14.7443 C   0  0  0  0  0  0  0  0  0  0  0  0
  -31.8937   17.7171  -13.4703 N   0  0  0  0  0  0  0  0  0  0  0  0
  -32.2007   18.3041  -15.6909 N   0  0  0  0  0  0  0  0  0  0  0  0
  -31.7935   18.2342  -16.9631 C   0  0  0  0  0  0  0  0  0  0  0  0
  -30.7465   17.5872  -17.4736 N   0  0  0  0  0  0  0  0  0  0  0  0
  -30.0652   16.9473  -16.5099 C   0  0  0  0  0  0  0  0  0  0  0  0
  1 10  1  0  0  0  0
  2  3  2  0  0  0  0
  2  1  1  0  0  0  0
  3  4  1  0  0  0  0
  4 10  2  0  0  0  0
  4  5  1  0  0  0  0
  5  7  2  0  0  0  0
  6  5  1  0  0  0  0
  7  8  1  0  0  0  0
  9  8  2  0  0  0  0
 10  9  1  0  0  0  0
M  END
>  <CHROM.1>
-30.57731961,17.15416528,-15.61486043,0.11895192,0.60508819,-1.40368899

>  <Name>
lig.pdb

>  <RI>
0

>  <Rbt.Current_Directory>
/home/itssahil/PROJECTS/Mol_Feturizer/New_Systems/rnas/5uza

>  <Rbt.Executable>
rbdock ($Id: //depot/dev/client3/rdock/2013.1/src/exe/rbdock.cxx#4 $)

>  <Rbt.Library>
libRbt.so (2013.1, Build901 2013/11/27)

>  <Rbt.Parameter_File>
/export/apps/rDock/src/rDock_2013.1_src/data/scripts/dock_solv.prm

>  <Rbt.Receptor>
prm/blind_docking_80.prm

>  <SCORE>
-35.3552

>  <SCORE.INTER>
-35.3552

>  <SCORE.INTER.CONST>
1

>  <SCORE.INTER.POLAR>
-4.45209

>  <SCORE.INTER.ROT>
0

>  <SCORE.INTER.SOLV>
10.929

>  <SCORE.INTER.VDW>
-15.9729

>  <SCORE.INTER.norm>
-3.53552

>  <SCORE.INTRA>
0

>  <SCORE.INTRA.DIHEDRAL>
0

>  <SCORE.INTRA.DIHEDRAL.0>
0

>  <SCORE.INTRA.POLAR>
0

>  <SCORE.INTRA.POLAR.0>
0

>  <SCORE.INTRA.REPUL>
0

>  <SCORE.INTRA.REPUL.0>
0

>  <SCORE.INTRA.SOLV>
0

>  <SCORE.INTRA.SOLV.lig_0>
-14.8845

>  <SCORE.INTRA.VDW>
0

>  <SCORE.INTRA.VDW.0>
0

>  <SCORE.INTRA.norm>
0

>  <SCORE.RESTR>
0

>  <SCORE.RESTR.CAVITY>
0

>  <SCORE.RESTR.norm>
0

>  <SCORE.SYSTEM>
0

>  <SCORE.SYSTEM.CONST>
0

>  <SCORE.SYSTEM.DIHEDRAL>
0

>  <SCORE.SYSTEM.SOLV>
0

>  <SCORE.SYSTEM.norm>
0

>  <SCORE.heavy>
10

>  <SCORE.norm>
-3.53552

>  <RMSD>
3.209

$$$$
lig.pdb
 OpenBabel11021811523D
libRbt.so/2013.1/901 2013/11/27
 10 11  0  0  0  0  0  0  0  0999 V2000
  -28.9008   16.1883  -16.6394 N   0  0  0  0  0  0  0  0  0  0  0  0
  -28.5650   15.7717  -15.3806 C   0  0  0  0  0  0  0  0  0  0  0  0
  -29.3815   16.1967  -14.4462 N   0  0  0  0  0  0  0  0  0  0  0  0
  -30.3179   16.9456  -15.1386 C   0  0  0  0  0  0  0  0  0  0  0  0
  -31.4539   17.6636  -14.7216 C   0  0  0  0  0  0  0  0  0  0  0  0
  -31.8413   17.7458  -13.4445 N   0  0  0  0  0  0  0  0  0  0  0  0
  -32.1762   18.2999  -15.6696 N   0  0  0  0  0  0  0  0  0  0  0  0
  -31.7813   18.2163  -16.9448 C   0  0  0  0  0  0  0  0  0  0  0  0
  -30.7339   17.5715  -17.4573 N   0  0  0  0  0  0  0  0  0  0  0  0
  -30.0372   16.9508  -16.4921 C   0  0  0  0  0  0  0  0  0  0  0  0
  1 10  1  0  0  0  0
  2  3  2  0  0  0  0
  2  1  1  0  0  0  0
  3  4  1  0  0  0  0
  4 10  2  0  0  0  0
  4  5  1  0  0  0  0
  5  7  2  0  0  0  0
  6  5  1  0  0  0  0
  7  8  1  0  0  0  0
  9  8  2  0  0  0  0
 10  9  1  0  0  0  0
M  END
>  <CHROM.1>
-30.54198404,17.16526146,-15.59474808,0.13289276,0.59805910,-1.42509746

>  <Name>
lig.pdb

>  <RI>
1.17775e+07

>  <Rbt.Current_Directory>
/home/itssahil/PROJECTS/Mol_Feturizer/New_Systems/rnas/5uza

>  <Rbt.Executable>
rbdock ($Id: //depot/dev/client3/rdock/2013.1/src/exe/rbdock.cxx#4 $)

>  <Rbt.Library>
libRbt.so (2013.1, Build901 2013/11/27)

>  <Rbt.Parameter_File>
/export/apps/rDock/src/rDock_2013.1_src/data/scripts/dock_solv.prm

>  <Rbt.Receptor>
prm/pocket_docking_8.prm

>  <SCORE>
-35.4347

>  <SCORE.INTER>
-35.4347

>  <SCORE.INTER.CONST>
1

>  <SCORE.INTER.POLAR>
-4.53936

>  <SCORE.INTER.ROT>
0

>  <SCORE.INTER.SOLV>
10.9271

>  <SCORE.INTER.VDW>
-15.7343

>  <SCORE.INTER.norm>
-3.54347

>  <SCORE.INTRA>
0

>  <SCORE.INTRA.DIHEDRAL>
0

>  <SCORE.INTRA.DIHEDRAL.0>
0

>  <SCORE.INTRA.POLAR>
0

>  <SCORE.INTRA.POLAR.0>
0

>  <SCORE.INTRA.REPUL>
0

>  <SCORE.INTRA.REPUL.0>
0

>  <SCORE.INTRA.SOLV>
0

>  <SCORE.INTRA.SOLV.lig_0>
-14.8845

>  <SCORE.INTRA.VDW>
0

>  <SCORE.INTRA.VDW.0>
0

>  <SCORE.INTRA.norm>
0

>  <SCORE.RESTR>
0

>  <SCORE.RESTR.CAVITY>
0

>  <SCORE.RESTR.norm>
0

>  <SCORE.SYSTEM>
0

>  <SCORE.SYSTEM.CONST>
0

>  <SCORE.SYSTEM.DIHEDRAL>
0

>  <SCORE.SYSTEM.SOLV>
0

>  <SCORE.SYSTEM.norm>
0

>  <SCORE.heavy>
10

>  <SCORE.norm>
-3.54347

>  <RMSD>
3.211

$$$$
lig.pdb
 OpenBabel11021811523D
libRbt.so/2013.1/901 2013/11/27
 10 11  0  0  0  0  0  0  0  0999 V2000
  -28.9297   16.1681  -16.6489 N   0  0  0  0  0  0  0  0  0  0  0  0
  -28.6113   15.7351  -15.3911 C   0  0  0  0  0  0  0  0  0  0  0  0
  -29.4344   16.1570  -14.4611 N   0  0  0  0  0  0  0  0  0  0  0  0
  -30.3569   16.9213  -15.1556 C   0  0  0  0  0  0  0  0  0  0  0  0
  -31.4913   17.6443  -14.7431 C   0  0  0  0  0  0  0  0  0  0  0  0
  -31.8920   17.7160  -13.4695 N   0  0  0  0  0  0  0  0  0  0  0  0
  -32.1978   18.2969  -15.6920 N   0  0  0  0  0  0  0  0  0  0  0  0
  -31.7897   18.2236  -16.9637 C   0  0  0  0  0  0  0  0  0  0  0  0
  -30.7421   17.5755  -17.4717 N   0  0  0  0  0  0  0  0  0  0  0  0
  -30.0613   16.9385  -16.5058 C   0  0  0  0  0  0  0  0  0  0  0  0
  1 10  1  0  0  0  0
  2  3  2  0  0  0  0
  2  1  1  0  0  0  0
  3  4  1  0  0  0  0
  4 10  2  0  0  0  0
  4  5  1  0  0  0  0
  5  7  2  0  0  0  0
  6  5  1  0  0  0  0
  7  8  1  0  0  0  0
  9  8  2  0  0  0  0
 10  9  1  0  0  0  0
M  END
>  <CHROM.1>
-30.57409003,17.14765217,-15.61169555,0.11820509,0.60468229,-1.40599842

>  <Name>
lig.pdb

>  <RI>
1.17775e+07

>  <Rbt.Current_Directory>
/home/itssahil/PROJECTS/Mol_Feturizer/New_Systems/rnas/5uza

>  <Rbt.Executable>
rbdock ($Id: //depot/dev/client3/rdock/2013.1/src/exe/rbdock.cxx#4 $)

>  <Rbt.Library>
libRbt.so (2013.1, Build901 2013/11/27)

>  <Rbt.Parameter_File>
/export/apps/rDock/src/rDock_2013.1_src/data/scripts/dock_solv.prm

>  <Rbt.Receptor>
prm/pocket_docking_8.prm

>  <SCORE>
-35.355

>  <SCORE.INTER>
-35.355

>  <SCORE.INTER.CONST>
1

>  <SCORE.INTER.POLAR>
-4.45213

>  <SCORE.INTER.ROT>
0

>  <SCORE.INTER.SOLV>
10.9252

>  <SCORE.INTER.VDW>
-15.9713

>  <SCORE.INTER.norm>
-3.5355

>  <SCORE.INTRA>
0

>  <SCORE.INTRA.DIHEDRAL>
0

>  <SCORE.INTRA.DIHEDRAL.0>
0

>  <SCORE.INTRA.POLAR>
0

>  <SCORE.INTRA.POLAR.0>
0

>  <SCORE.INTRA.REPUL>
0

>  <SCORE.INTRA.REPUL.0>
0

>  <SCORE.INTRA.SOLV>
0

>  <SCORE.INTRA.SOLV.lig_0>
-14.8845

>  <SCORE.INTRA.VDW>
0

>  <SCORE.INTRA.VDW.0>
0

>  <SCORE.INTRA.norm>
0

>  <SCORE.RESTR>
0

>  <SCORE.RESTR.CAVITY>
0

>  <SCORE.RESTR.norm>
0

>  <SCORE.SYSTEM>
0

>  <SCORE.SYSTEM.CONST>
0

>  <SCORE.SYSTEM.DIHEDRAL>
0

>  <SCORE.SYSTEM.SOLV>
0

>  <SCORE.SYSTEM.norm>
0

>  <SCORE.heavy>
10

>  <SCORE.norm>
-3.5355

>  <RMSD>
3.212

$$$$
lig.pdb
 OpenBabel11021811523D
libRbt.so/2013.1/901 2013/11/27
 10 11  0  0  0  0  0  0  0  0999 V2000
  -28.8960   16.1869  -16.6336 N   0  0  0  0  0  0  0  0  0  0  0  0
  -28.5618   15.7706  -15.3742 C   0  0  0  0  0  0  0  0  0  0  0  0
  -29.3791   16.1964  -14.4409 N   0  0  0  0  0  0  0  0  0  0  0  0
  -30.3145   16.9454  -15.1347 C   0  0  0  0  0  0  0  0  0  0  0  0
  -31.4506   17.6639  -14.7192 C   0  0  0  0  0  0  0  0  0  0  0  0
  -31.8394   17.7468  -13.4426 N   0  0  0  0  0  0  0  0  0  0  0  0
  -32.1717   18.3001  -15.6683 N   0  0  0  0  0  0  0  0  0  0  0  0
  -31.7754   18.2158  -16.9430 C   0  0  0  0  0  0  0  0  0  0  0  0
  -30.7277   17.5704  -17.4541 N   0  0  0  0  0  0  0  0  0  0  0  0
  -30.0323   16.9498  -16.4879 C   0  0  0  0  0  0  0  0  0  0  0  0
  1 10  1  0  0  0  0
  2  3  2  0  0  0  0
  2  1  1  0  0  0  0
  3  4  1  0  0  0  0
  4 10  2  0  0  0  0
  4  5  1  0  0  0  0
  5  7  2  0  0  0  0
  6  5  1  0  0  0  0
  7  8  1  0  0  0  0
  9  8  2  0  0  0  0
 10  9  1  0  0  0  0
M  END
>  <CHROM.1>
-30.53799078,17.16489223,-15.59116147,0.13150616,0.59827177,-1.42474785

>  <Name>
lig.pdb

>  <RI>
1.17431e+07

>  <Rbt.Current_Directory>
/home/itssahil/PROJECTS/Mol_Feturizer/New_Systems/rnas/5uza

>  <Rbt.Executable>
rbdock ($Id: //depot/dev/client3/rdock/2013.1/src/exe/rbdock.cxx#4 $)

>  <Rbt.Library>
libRbt.so (2013.1, Build901 2013/11/27)

>  <Rbt.Parameter_File>
/export/apps/rDock/src/rDock_2013.1_src/data/scripts/dock_solv.prm

>  <Rbt.Receptor>
prm/pocket_docking_6.prm

>  <SCORE>
-35.4443

>  <SCORE.INTER>
-35.4443

>  <SCORE.INTER.CONST>
1

>  <SCORE.INTER.POLAR>
-4.54667

>  <SCORE.INTER.ROT>
0

>  <SCORE.INTER.SOLV>
10.9294

>  <SCORE.INTER.VDW>
-15.7171

>  <SCORE.INTER.norm>
-3.54443

>  <SCORE.INTRA>
0

>  <SCORE.INTRA.DIHEDRAL>
0

>  <SCORE.INTRA.DIHEDRAL.0>
0

>  <SCORE.INTRA.POLAR>
0

>  <SCORE.INTRA.POLAR.0>
0

>  <SCORE.INTRA.REPUL>
0

>  <SCORE.INTRA.REPUL.0>
0

>  <SCORE.INTRA.SOLV>
0

>  <SCORE.INTRA.SOLV.lig_0>
-14.8845

>  <SCORE.INTRA.VDW>
0

>  <SCORE.INTRA.VDW.0>
0

>  <SCORE.INTRA.norm>
0

>  <SCORE.RESTR>
0

>  <SCORE.RESTR.CAVITY>
0

>  <SCORE.RESTR.norm>
0

>  <SCORE.SYSTEM>
0

>  <SCORE.SYSTEM.CONST>
0

>  <SCORE.SYSTEM.DIHEDRAL>
0

>  <SCORE.SYSTEM.SOLV>
0

>  <SCORE.SYSTEM.norm>
0

>  <SCORE.heavy>
10

>  <SCORE.norm>
-3.54443

>  <RMSD>
3.213

$$$$
lig.pdb
 OpenBabel11021811523D
libRbt.so/2013.1/901 2013/11/27
 10 11  0  0  0  0  0  0  0  0999 V2000
  -28.8930   16.1810  -16.6307 N   0  0  0  0  0  0  0  0  0  0  0  0
  -28.5592   15.7660  -15.3708 C   0  0  0  0  0  0  0  0  0  0  0  0
  -29.3767   16.1929  -14.4382 N   0  0  0  0  0  0  0  0  0  0  0  0
  -30.3118   16.9414  -15.1330 C   0  0  0  0  0  0  0  0  0  0  0  0
  -31.4479   17.6606  -14.7186 C   0  0  0  0  0  0  0  0  0  0  0  0
  -31.8370   17.7449  -13.4421 N   0  0  0  0  0  0  0  0  0  0  0  0
  -32.1685   18.2959  -15.6685 N   0  0  0  0  0  0  0  0  0  0  0  0
  -31.7720   18.2102  -16.9431 C   0  0  0  0  0  0  0  0  0  0  0  0
  -30.7242   17.5640  -17.4532 N   0  0  0  0  0  0  0  0  0  0  0  0
  -30.0292   16.9443  -16.4861 C   0  0  0  0  0  0  0  0  0  0  0  0
  1 10  1  0  0  0  0
  2  3  2  0  0  0  0
  2  1  1  0  0  0  0
  3  4  1  0  0  0  0
  4 10  2  0  0  0  0
  4  5  1  0  0  0  0
  5  7  2  0  0  0  0
  6  5  1  0  0  0  0
  7  8  1  0  0  0  0
  9  8  2  0  0  0  0
 10  9  1  0  0  0  0
M  END
>  <CHROM.1>
-30.53511590,17.16041493,-15.58977599,0.13114896,0.59843042,-1.42561127

>  <Name>
lig.pdb

>  <RI>
2.12818e+07

>  <Rbt.Current_Directory>
/home/itssahil/PROJECTS/Mol_Feturizer/New_Systems/rnas/5uza

>  <Rbt.Executable>
rbdock ($Id: //depot/dev/client3/rdock/2013.1/src/exe/rbdock.cxx#4 $)

>  <Rbt.Library>
libRbt.so (2013.1, Build901 2013/11/27)

>  <Rbt.Parameter_File>
/export/apps/rDock/src/rDock_2013.1_src/data/scripts/dock_solv.prm

>  <Rbt.Receptor>
prm/pocket_docking_7.prm

>  <SCORE>
-35.4427

>  <SCORE.INTER>
-35.4427

>  <SCORE.INTER.CONST>
1

>  <SCORE.INTER.POLAR>
-4.54751

>  <SCORE.INTER.ROT>
0

>  <SCORE.INTER.SOLV>
10.9291

>  <SCORE.INTER.VDW>
-15.7131

>  <SCORE.INTER.norm>
-3.54427

>  <SCORE.INTRA>
0

>  <SCORE.INTRA.DIHEDRAL>
0

>  <SCORE.INTRA.DIHEDRAL.0>
0

>  <SCORE.INTRA.POLAR>
0

>  <SCORE.INTRA.POLAR.0>
0

>  <SCORE.INTRA.REPUL>
0

>  <SCORE.INTRA.REPUL.0>
0

>  <SCORE.INTRA.SOLV>
0

>  <SCORE.INTRA.SOLV.lig_0>
-14.8845

>  <SCORE.INTRA.VDW>
0

>  <SCORE.INTRA.VDW.0>
0

>  <SCORE.INTRA.norm>
0

>  <SCORE.RESTR>
0

>  <SCORE.RESTR.CAVITY>
0

>  <SCORE.RESTR.norm>
0

>  <SCORE.SYSTEM>
0

>  <SCORE.SYSTEM.CONST>
0

>  <SCORE.SYSTEM.DIHEDRAL>
0

>  <SCORE.SYSTEM.SOLV>
0

>  <SCORE.SYSTEM.norm>
0

>  <SCORE.heavy>
10

>  <SCORE.norm>
-3.54427

>  <RMSD>
3.214

$$$$
lig.pdb
 OpenBabel11021811523D
libRbt.so/2013.1/901 2013/11/27
 10 11  0  0  0  0  0  0  0  0999 V2000
  -28.8875   16.1876  -16.6282 N   0  0  0  0  0  0  0  0  0  0  0  0
  -28.5566   15.7718  -15.3677 C   0  0  0  0  0  0  0  0  0  0  0  0
  -29.3781   16.1955  -14.4371 N   0  0  0  0  0  0  0  0  0  0  0  0
  -30.3128   16.9425  -15.1339 C   0  0  0  0  0  0  0  0  0  0  0  0
  -31.4520   17.6584  -14.7221 C   0  0  0  0  0  0  0  0  0  0  0  0
  -31.8453   17.7401  -13.4468 N   0  0  0  0  0  0  0  0  0  0  0  0
  -32.1712   18.2932  -15.6735 N   0  0  0  0  0  0  0  0  0  0  0  0
  -31.7705   18.2101  -16.9469 C   0  0  0  0  0  0  0  0  0  0  0  0
  -30.7196   17.5672  -17.4546 N   0  0  0  0  0  0  0  0  0  0  0  0
  -30.0260   16.9479  -16.4861 C   0  0  0  0  0  0  0  0  0  0  0  0
  1 10  1  0  0  0  0
  2  3  2  0  0  0  0
  2  1  1  0  0  0  0
  3  4  1  0  0  0  0
  4 10  2  0  0  0  0
  4  5  1  0  0  0  0
  5  7  2  0  0  0  0
  6  5  1  0  0  0  0
  7  8  1  0  0  0  0
  9  8  2  0  0  0  0
 10  9  1  0  0  0  0
M  END
>  <CHROM.1>
-30.53526978,17.16163601,-15.59109090,0.12785217,0.59551849,-1.42246307

>  <Name>
lig.pdb

>  <RI>
2.12818e+07

>  <Rbt.Current_Directory>
/home/itssahil/PROJECTS/Mol_Feturizer/New_Systems/rnas/5uza

>  <Rbt.Executable>
rbdock ($Id: //depot/dev/client3/rdock/2013.1/src/exe/rbdock.cxx#4 $)

>  <Rbt.Library>
libRbt.so (2013.1, Build901 2013/11/27)

>  <Rbt.Parameter_File>
/export/apps/rDock/src/rDock_2013.1_src/data/scripts/dock_solv.prm

>  <Rbt.Receptor>
prm/pocket_docking_7.prm

>  <SCORE>
-35.4249

>  <SCORE.INTER>
-35.4249

>  <SCORE.INTER.CONST>
1

>  <SCORE.INTER.POLAR>
-4.54699

>  <SCORE.INTER.ROT>
0

>  <SCORE.INTER.SOLV>
10.9292

>  <SCORE.INTER.VDW>
-15.703

>  <SCORE.INTER.norm>
-3.54249

>  <SCORE.INTRA>
0

>  <SCORE.INTRA.DIHEDRAL>
0

>  <SCORE.INTRA.DIHEDRAL.0>
0

>  <SCORE.INTRA.POLAR>
0

>  <SCORE.INTRA.POLAR.0>
0

>  <SCORE.INTRA.REPUL>
0

>  <SCORE.INTRA.REPUL.0>
0

>  <SCORE.INTRA.SOLV>
0

>  <SCORE.INTRA.SOLV.lig_0>
-14.8845

>  <SCORE.INTRA.VDW>
0

>  <SCORE.INTRA.VDW.0>
0

>  <SCORE.INTRA.norm>
0

>  <SCORE.RESTR>
0

>  <SCORE.RESTR.CAVITY>
0

>  <SCORE.RESTR.norm>
0

>  <SCORE.SYSTEM>
0

>  <SCORE.SYSTEM.CONST>
0

>  <SCORE.SYSTEM.DIHEDRAL>
0

>  <SCORE.SYSTEM.SOLV>
0

>  <SCORE.SYSTEM.norm>
0

>  <SCORE.heavy>
10

>  <SCORE.norm>
-3.54249

>  <RMSD>
3.215

$$$$
lig.pdb
 OpenBabel11021811523D
libRbt.so/2013.1/901 2013/11/27
 10 11  0  0  0  0  0  0  0  0999 V2000
  -28.8757   16.0019  -16.5700 N   0  0  0  0  0  0  0  0  0  0  0  0
  -28.5796   15.5264  -15.3221 C   0  0  0  0  0  0  0  0  0  0  0  0
  -29.3354   16.0235  -14.3724 N   0  0  0  0  0  0  0  0  0  0  0  0
  -30.1864   16.8864  -15.0422 C   0  0  0  0  0  0  0  0  0  0  0  0
  -31.2304   17.7202  -14.6014 C   0  0  0  0  0  0  0  0  0  0  0  0
  -31.5962   17.8217  -13.3193 N   0  0  0  0  0  0  0  0  0  0  0  0
  -31.8833   18.4518  -15.5308 N   0  0  0  0  0  0  0  0  0  0  0  0
  -31.5103   18.3480  -16.8111 C   0  0  0  0  0  0  0  0  0  0  0  0
  -30.5467   17.5986  -17.3452 N   0  0  0  0  0  0  0  0  0  0  0  0
  -29.9173   16.8851  -16.3981 C   0  0  0  0  0  0  0  0  0  0  0  0
  1 10  1  0  0  0  0
  2  3  2  0  0  0  0
  2  1  1  0  0  0  0
  3  4  1  0  0  0  0
  4 10  2  0  0  0  0
  4  5  1  0  0  0  0
  5  7  2  0  0  0  0
  6  5  1  0  0  0  0
  7  8  1  0  0  0  0
  9  8  2  0  0  0  0
 10  9  1  0  0  0  0
M  END
>  <CHROM.1>
-30.38763016,17.13843426,-15.49215783,0.12126857,0.71143414,-1.39969751

>  <Name>
lig.pdb

>  <RI>
2.34257e+07

>  <Rbt.Current_Directory>
/home/itssahil/PROJECTS/Mol_Feturizer/New_Systems/rnas/5uza

>  <Rbt.Executable>
rbdock ($Id: //depot/dev/client3/rdock/2013.1/src/exe/rbdock.cxx#4 $)

>  <Rbt.Library>
libRbt.so (2013.1, Build901 2013/11/27)

>  <Rbt.Parameter_File>
/export/apps/rDock/src/rDock_2013.1_src/data/scripts/dock_solv.prm

>  <Rbt.Receptor>
prm/blind_docking_40.prm

>  <SCORE>
-33.9397

>  <SCORE.INTER>
-34.6598

>  <SCORE.INTER.CONST>
1

>  <SCORE.INTER.POLAR>
-4.43392

>  <SCORE.INTER.ROT>
0

>  <SCORE.INTER.SOLV>
11.0499

>  <SCORE.INTER.VDW>
-15.6101

>  <SCORE.INTER.norm>
-3.46598

>  <SCORE.INTRA>
0

>  <SCORE.INTRA.DIHEDRAL>
0

>  <SCORE.INTRA.DIHEDRAL.0>
0

>  <SCORE.INTRA.POLAR>
0

>  <SCORE.INTRA.POLAR.0>
0

>  <SCORE.INTRA.REPUL>
0

>  <SCORE.INTRA.REPUL.0>
0

>  <SCORE.INTRA.SOLV>
0

>  <SCORE.INTRA.SOLV.lig_0>
-14.8845

>  <SCORE.INTRA.VDW>
0

>  <SCORE.INTRA.VDW.0>
0

>  <SCORE.INTRA.norm>
0

>  <SCORE.RESTR>
0.720158

>  <SCORE.RESTR.CAVITY>
0.720158

>  <SCORE.RESTR.norm>
0.0720158

>  <SCORE.SYSTEM>
0

>  <SCORE.SYSTEM.CONST>
0

>  <SCORE.SYSTEM.DIHEDRAL>
0

>  <SCORE.SYSTEM.SOLV>
0

>  <SCORE.SYSTEM.norm>
0

>  <SCORE.heavy>
10

>  <SCORE.norm>
-3.39397

>  <RMSD>
3.247

$$$$
lig.pdb
 OpenBabel11021811523D
libRbt.so/2013.1/901 2013/11/27
 10 11  0  0  0  0  0  0  0  0999 V2000
  -28.8911   15.9808  -16.5630 N   0  0  0  0  0  0  0  0  0  0  0  0
  -28.6000   15.5031  -15.3147 C   0  0  0  0  0  0  0  0  0  0  0  0
  -29.3531   16.0061  -14.3659 N   0  0  0  0  0  0  0  0  0  0  0  0
  -30.1966   16.8754  -15.0367 C   0  0  0  0  0  0  0  0  0  0  0  0
  -31.2348   17.7172  -14.5971 C   0  0  0  0  0  0  0  0  0  0  0  0
  -31.6012   17.8216  -13.3154 N   0  0  0  0  0  0  0  0  0  0  0  0
  -31.8810   18.4537  -15.5273 N   0  0  0  0  0  0  0  0  0  0  0  0
  -31.5074   18.3470  -16.8072 C   0  0  0  0  0  0  0  0  0  0  0  0
  -30.5489   17.5902  -17.3402 N   0  0  0  0  0  0  0  0  0  0  0  0
  -29.9261   16.8719  -16.3923 C   0  0  0  0  0  0  0  0  0  0  0  0
  1 10  1  0  0  0  0
  2  3  2  0  0  0  0
  2  1  1  0  0  0  0
  3  4  1  0  0  0  0
  4 10  2  0  0  0  0
  4  5  1  0  0  0  0
  5  7  2  0  0  0  0
  6  5  1  0  0  0  0
  7  8  1  0  0  0  0
  9  8  2  0  0  0  0
 10  9  1  0  0  0  0
M  END
>  <CHROM.1>
-30.39546774,17.12891385,-15.48688710,0.11806100,0.71877620,-1.39764631

>  <Name>
lig.pdb

>  <RI>
2.34257e+07

>  <Rbt.Current_Directory>
/home/itssahil/PROJECTS/Mol_Feturizer/New_Systems/rnas/5uza

>  <Rbt.Executable>
rbdock ($Id: //depot/dev/client3/rdock/2013.1/src/exe/rbdock.cxx#4 $)

>  <Rbt.Library>
libRbt.so (2013.1, Build901 2013/11/27)

>  <Rbt.Parameter_File>
/export/apps/rDock/src/rDock_2013.1_src/data/scripts/dock_solv.prm

>  <Rbt.Receptor>
prm/blind_docking_40.prm

>  <SCORE>
-33.935

>  <SCORE.INTER>
-34.6486

>  <SCORE.INTER.CONST>
1

>  <SCORE.INTER.POLAR>
-4.41333

>  <SCORE.INTER.ROT>
0

>  <SCORE.INTER.SOLV>
11.0604

>  <SCORE.INTER.VDW>
-15.6748

>  <SCORE.INTER.norm>
-3.46486

>  <SCORE.INTRA>
0

>  <SCORE.INTRA.DIHEDRAL>
0

>  <SCORE.INTRA.DIHEDRAL.0>
0

>  <SCORE.INTRA.POLAR>
0

>  <SCORE.INTRA.POLAR.0>
0

>  <SCORE.INTRA.REPUL>
0

>  <SCORE.INTRA.REPUL.0>
0

>  <SCORE.INTRA.SOLV>
0

>  <SCORE.INTRA.SOLV.lig_0>
-14.8845

>  <SCORE.INTRA.VDW>
0

>  <SCORE.INTRA.VDW.0>
0

>  <SCORE.INTRA.norm>
0

>  <SCORE.RESTR>
0.713585

>  <SCORE.RESTR.CAVITY>
0.713585

>  <SCORE.RESTR.norm>
0.0713585

>  <SCORE.SYSTEM>
0

>  <SCORE.SYSTEM.CONST>
0

>  <SCORE.SYSTEM.DIHEDRAL>
0

>  <SCORE.SYSTEM.SOLV>
0

>  <SCORE.SYSTEM.norm>
0

>  <SCORE.heavy>
10

>  <SCORE.norm>
-3.3935

>  <RMSD>
3.251

$$$$
lig.pdb
 OpenBabel11021811523D
libRbt.so/2013.1/901 2013/11/27
 10 11  0  0  0  0  0  0  0  0999 V2000
  -30.7931   17.2508  -13.5558 N   0  0  0  0  0  0  0  0  0  0  0  0
  -31.7004   18.1095  -14.1129 C   0  0  0  0  0  0  0  0  0  0  0  0
  -31.5682   18.2518  -15.4101 N   0  0  0  0  0  0  0  0  0  0  0  0
  -30.4993   17.4307  -15.7273 C   0  0  0  0  0  0  0  0  0  0  0  0
  -29.8603   17.1344  -16.9453 C   0  0  0  0  0  0  0  0  0  0  0  0
  -30.2273   17.6685  -18.1149 N   0  0  0  0  0  0  0  0  0  0  0  0
  -28.8230   16.2692  -16.9148 N   0  0  0  0  0  0  0  0  0  0  0  0
  -28.4589   15.7411  -15.7411 C   0  0  0  0  0  0  0  0  0  0  0  0
  -28.9832   15.9422  -14.5327 N   0  0  0  0  0  0  0  0  0  0  0  0
  -30.0096   16.8053  -14.5960 C   0  0  0  0  0  0  0  0  0  0  0  0
  1 10  1  0  0  0  0
  2  3  2  0  0  0  0
  2  1  1  0  0  0  0
  3  4  1  0  0  0  0
  4 10  2  0  0  0  0
  4  5  1  0  0  0  0
  5  7  2  0  0  0  0
  6  5  1  0  0  0  0
  7  8  1  0  0  0  0
  9  8  2  0  0  0  0
 10  9  1  0  0  0  0
M  END
>  <CHROM.1>
-30.09494529,17.07123544,-15.60992456,-2.28604477,0.68269417,-1.37910758

>  <Name>
lig.pdb

>  <RI>
2.34257e+07

>  <Rbt.Current_Directory>
/home/itssahil/PROJECTS/Mol_Feturizer/New_Systems/rnas/5uza

>  <Rbt.Executable>
rbdock ($Id: //depot/dev/client3/rdock/2013.1/src/exe/rbdock.cxx#4 $)

>  <Rbt.Library>
libRbt.so (2013.1, Build901 2013/11/27)

>  <Rbt.Parameter_File>
/export/apps/rDock/src/rDock_2013.1_src/data/scripts/dock_solv.prm

>  <Rbt.Receptor>
prm/blind_docking_40.prm

>  <SCORE>
-27.3512

>  <SCORE.INTER>
-27.5119

>  <SCORE.INTER.CONST>
1

>  <SCORE.INTER.POLAR>
-3.60329

>  <SCORE.INTER.ROT>
0

>  <SCORE.INTER.SOLV>
11.1619

>  <SCORE.INTER.VDW>
-13.6509

>  <SCORE.INTER.norm>
-2.75119

>  <SCORE.INTRA>
0

>  <SCORE.INTRA.DIHEDRAL>
0

>  <SCORE.INTRA.DIHEDRAL.0>
0

>  <SCORE.INTRA.POLAR>
0

>  <SCORE.INTRA.POLAR.0>
0

>  <SCORE.INTRA.REPUL>
0

>  <SCORE.INTRA.REPUL.0>
0

>  <SCORE.INTRA.SOLV>
0

>  <SCORE.INTRA.SOLV.lig_0>
-14.8845

>  <SCORE.INTRA.VDW>
0

>  <SCORE.INTRA.VDW.0>
0

>  <SCORE.INTRA.norm>
0

>  <SCORE.RESTR>
0.160682

>  <SCORE.RESTR.CAVITY>
0.160682

>  <SCORE.RESTR.norm>
0.0160682

>  <SCORE.SYSTEM>
0

>  <SCORE.SYSTEM.CONST>
0

>  <SCORE.SYSTEM.DIHEDRAL>
0

>  <SCORE.SYSTEM.SOLV>
0

>  <SCORE.SYSTEM.norm>
0

>  <SCORE.heavy>
10

>  <SCORE.norm>
-2.73512

>  <RMSD>
3.299

$$$$
lig.pdb
 OpenBabel11021811523D
libRbt.so/2013.1/901 2013/11/27
 10 11  0  0  0  0  0  0  0  0999 V2000
  -30.7779   17.2752  -13.4485 N   0  0  0  0  0  0  0  0  0  0  0  0
  -31.6755   18.1864  -13.9333 C   0  0  0  0  0  0  0  0  0  0  0  0
  -31.5666   18.4035  -15.2222 N   0  0  0  0  0  0  0  0  0  0  0  0
  -30.5245   17.5790  -15.6113 C   0  0  0  0  0  0  0  0  0  0  0  0
  -29.9178   17.3423  -16.8586 C   0  0  0  0  0  0  0  0  0  0  0  0
  -30.2960   17.9541  -17.9858 N   0  0  0  0  0  0  0  0  0  0  0  0
  -28.9012   16.4535  -16.9026 N   0  0  0  0  0  0  0  0  0  0  0  0
  -28.5258   15.8475  -15.7708 C   0  0  0  0  0  0  0  0  0  0  0  0
  -29.0202   15.9872  -14.5414 N   0  0  0  0  0  0  0  0  0  0  0  0
  -30.0267   16.8756  -14.5304 C   0  0  0  0  0  0  0  0  0  0  0  0
  1 10  1  0  0  0  0
  2  3  2  0  0  0  0
  2  1  1  0  0  0  0
  3  4  1  0  0  0  0
  4 10  2  0  0  0  0
  4  5  1  0  0  0  0
  5  7  2  0  0  0  0
  6  5  1  0  0  0  0
  7  8  1  0  0  0  0
  9  8  2  0  0  0  0
 10  9  1  0  0  0  0
M  END
>  <CHROM.1>
-30.12650527,17.20404607,-15.52453498,-2.26547672,0.71001649,-1.33221497

>  <Name>
lig.pdb

>  <RI>
0

>  <Rbt.Current_Directory>
/home/itssahil/PROJECTS/Mol_Feturizer/New_Systems/rnas/5uza

>  <Rbt.Executable>
rbdock ($Id: //depot/dev/client3/rdock/2013.1/src/exe/rbdock.cxx#4 $)

>  <Rbt.Library>
libRbt.so (2013.1, Build901 2013/11/27)

>  <Rbt.Parameter_File>
/export/apps/rDock/src/rDock_2013.1_src/data/scripts/dock_solv.prm

>  <Rbt.Receptor>
prm/blind_docking_80.prm

>  <SCORE>
-27.9144

>  <SCORE.INTER>
-27.9144

>  <SCORE.INTER.CONST>
1

>  <SCORE.INTER.POLAR>
-3.59983

>  <SCORE.INTER.ROT>
0

>  <SCORE.INTER.SOLV>
11.0632

>  <SCORE.INTER.VDW>
-13.8979

>  <SCORE.INTER.norm>
-2.79144

>  <SCORE.INTRA>
0

>  <SCORE.INTRA.DIHEDRAL>
0

>  <SCORE.INTRA.DIHEDRAL.0>
0

>  <SCORE.INTRA.POLAR>
0

>  <SCORE.INTRA.POLAR.0>
0

>  <SCORE.INTRA.REPUL>
0

>  <SCORE.INTRA.REPUL.0>
0

>  <SCORE.INTRA.SOLV>
0

>  <SCORE.INTRA.SOLV.lig_0>
-14.8845

>  <SCORE.INTRA.VDW>
0

>  <SCORE.INTRA.VDW.0>
0

>  <SCORE.INTRA.norm>
0

>  <SCORE.RESTR>
0

>  <SCORE.RESTR.CAVITY>
0

>  <SCORE.RESTR.norm>
0

>  <SCORE.SYSTEM>
0

>  <SCORE.SYSTEM.CONST>
0

>  <SCORE.SYSTEM.DIHEDRAL>
0

>  <SCORE.SYSTEM.SOLV>
0

>  <SCORE.SYSTEM.norm>
0

>  <SCORE.heavy>
10

>  <SCORE.norm>
-2.79144

>  <RMSD>
3.368

$$$$
lig.pdb
 OpenBabel11021811523D
libRbt.so/2013.1/901 2013/11/27
 10 11  0  0  0  0  0  0  0  0999 V2000
  -30.7993   17.2739  -13.4490 N   0  0  0  0  0  0  0  0  0  0  0  0
  -31.7045   18.1797  -13.9299 C   0  0  0  0  0  0  0  0  0  0  0  0
  -31.6012   18.3989  -15.2190 N   0  0  0  0  0  0  0  0  0  0  0  0
  -30.5550   17.5817  -15.6123 C   0  0  0  0  0  0  0  0  0  0  0  0
  -29.9508   17.3503  -16.8618 C   0  0  0  0  0  0  0  0  0  0  0  0
  -30.3367   17.9608  -17.9871 N   0  0  0  0  0  0  0  0  0  0  0  0
  -28.9285   16.4683  -16.9101 N   0  0  0  0  0  0  0  0  0  0  0  0
  -28.5454   15.8635  -15.7802 C   0  0  0  0  0  0  0  0  0  0  0  0
  -29.0368   15.9987  -14.5490 N   0  0  0  0  0  0  0  0  0  0  0  0
  -30.0491   16.8804  -14.5338 C   0  0  0  0  0  0  0  0  0  0  0  0
  1 10  1  0  0  0  0
  2  3  2  0  0  0  0
  2  1  1  0  0  0  0
  3  4  1  0  0  0  0
  4 10  2  0  0  0  0
  4  5  1  0  0  0  0
  5  7  2  0  0  0  0
  6  5  1  0  0  0  0
  7  8  1  0  0  0  0
  9  8  2  0  0  0  0
 10  9  1  0  0  0  0
M  END
>  <CHROM.1>
-30.15423639,17.20927650,-15.52724981,-2.25928448,0.70437368,-1.33517753

>  <Name>
lig.pdb

>  <RI>
2.12818e+07

>  <Rbt.Current_Directory>
/home/itssahil/PROJECTS/Mol_Feturizer/New_Systems/rnas/5uza

>  <Rbt.Executable>
rbdock ($Id: //depot/dev/client3/rdock/2013.1/src/exe/rbdock.cxx#4 $)

>  <Rbt.Library>
libRbt.so (2013.1, Build901 2013/11/27)

>  <Rbt.Parameter_File>
/export/apps/rDock/src/rDock_2013.1_src/data/scripts/dock_solv.prm

>  <Rbt.Receptor>
prm/pocket_docking_7.prm

>  <SCORE>
-28.0166

>  <SCORE.INTER>
-28.0166

>  <SCORE.INTER.CONST>
1

>  <SCORE.INTER.POLAR>
-3.58994

>  <SCORE.INTER.ROT>
0

>  <SCORE.INTER.SOLV>
11.0315

>  <SCORE.INTER.VDW>
-13.9885

>  <SCORE.INTER.norm>
-2.80166

>  <SCORE.INTRA>
0

>  <SCORE.INTRA.DIHEDRAL>
0

>  <SCORE.INTRA.DIHEDRAL.0>
0

>  <SCORE.INTRA.POLAR>
0

>  <SCORE.INTRA.POLAR.0>
0

>  <SCORE.INTRA.REPUL>
0

>  <SCORE.INTRA.REPUL.0>
0

>  <SCORE.INTRA.SOLV>
0

>  <SCORE.INTRA.SOLV.lig_0>
-14.8845

>  <SCORE.INTRA.VDW>
0

>  <SCORE.INTRA.VDW.0>
0

>  <SCORE.INTRA.norm>
0

>  <SCORE.RESTR>
0

>  <SCORE.RESTR.CAVITY>
0

>  <SCORE.RESTR.norm>
0

>  <SCORE.SYSTEM>
0

>  <SCORE.SYSTEM.CONST>
0

>  <SCORE.SYSTEM.DIHEDRAL>
0

>  <SCORE.SYSTEM.SOLV>
0

>  <SCORE.SYSTEM.norm>
0

>  <SCORE.heavy>
10

>  <SCORE.norm>
-2.80166

>  <RMSD>
3.369

$$$$
lig.pdb
 OpenBabel11021811523D
libRbt.so/2013.1/901 2013/11/27
 10 11  0  0  0  0  0  0  0  0999 V2000
  -30.7979   17.2758  -13.4408 N   0  0  0  0  0  0  0  0  0  0  0  0
  -31.7015   18.1870  -13.9142 C   0  0  0  0  0  0  0  0  0  0  0  0
  -31.6000   18.4142  -15.2020 N   0  0  0  0  0  0  0  0  0  0  0  0
  -30.5566   17.5967  -15.6025 C   0  0  0  0  0  0  0  0  0  0  0  0
  -29.9554   17.3718  -16.8545 C   0  0  0  0  0  0  0  0  0  0  0  0
  -30.3416   17.9905  -17.9752 N   0  0  0  0  0  0  0  0  0  0  0  0
  -28.9355   16.4874  -16.9103 N   0  0  0  0  0  0  0  0  0  0  0  0
  -28.5520   15.8744  -15.7850 C   0  0  0  0  0  0  0  0  0  0  0  0
  -29.0408   16.0030  -14.5521 N   0  0  0  0  0  0  0  0  0  0  0  0
  -30.0507   16.8872  -14.5294 C   0  0  0  0  0  0  0  0  0  0  0  0
  1 10  1  0  0  0  0
  2  3  2  0  0  0  0
  2  1  1  0  0  0  0
  3  4  1  0  0  0  0
  4 10  2  0  0  0  0
  4  5  1  0  0  0  0
  5  7  2  0  0  0  0
  6  5  1  0  0  0  0
  7  8  1  0  0  0  0
  9  8  2  0  0  0  0
 10  9  1  0  0  0  0
M  END
>  <CHROM.1>
-30.15673735,17.22274540,-15.52053576,-2.25779674,0.70740825,-1.32970692

>  <Name>
lig.pdb

>  <RI>
0

>  <Rbt.Current_Directory>
/home/itssahil/PROJECTS/Mol_Feturizer/New_Systems/rnas/5uza

>  <Rbt.Executable>
rbdock ($Id: //depot/dev/client3/rdock/2013.1/src/exe/rbdock.cxx#4 $)

>  <Rbt.Library>
libRbt.so (2013.1, Build901 2013/11/27)

>  <Rbt.Parameter_File>
/export/apps/rDock/src/rDock_2013.1_src/data/scripts/dock_solv.prm

>  <Rbt.Receptor>
prm/pocket_docking_5.prm

>  <SCORE>
-27.9738

>  <SCORE.INTER>
-27.9738

>  <SCORE.INTER.CONST>
1

>  <SCORE.INTER.POLAR>
-3.58379

>  <SCORE.INTER.ROT>
0

>  <SCORE.INTER.SOLV>
11.0206

>  <SCORE.INTER.VDW>
-13.9768

>  <SCORE.INTER.norm>
-2.79738

>  <SCORE.INTRA>
0

>  <SCORE.INTRA.DIHEDRAL>
0

>  <SCORE.INTRA.DIHEDRAL.0>
0

>  <SCORE.INTRA.POLAR>
0

>  <SCORE.INTRA.POLAR.0>
0

>  <SCORE.INTRA.REPUL>
0

>  <SCORE.INTRA.REPUL.0>
0

>  <SCORE.INTRA.SOLV>
0

>  <SCORE.INTRA.SOLV.lig_0>
-14.8845

>  <SCORE.INTRA.VDW>
0

>  <SCORE.INTRA.VDW.0>
0

>  <SCORE.INTRA.norm>
0

>  <SCORE.RESTR>
0

>  <SCORE.RESTR.CAVITY>
0

>  <SCORE.RESTR.norm>
0

>  <SCORE.SYSTEM>
0

>  <SCORE.SYSTEM.CONST>
0

>  <SCORE.SYSTEM.DIHEDRAL>
0

>  <SCORE.SYSTEM.SOLV>
0

>  <SCORE.SYSTEM.norm>
0

>  <SCORE.heavy>
10

>  <SCORE.norm>
-2.79738

>  <RMSD>
3.376

$$$$
lig.pdb
 OpenBabel11021811523D
libRbt.so/2013.1/901 2013/11/27
 10 11  0  0  0  0  0  0  0  0999 V2000
  -30.9604   16.7214  -14.3982 N   0  0  0  0  0  0  0  0  0  0  0  0
  -31.5392   17.9129  -14.0573 C   0  0  0  0  0  0  0  0  0  0  0  0
  -31.5453   18.7959  -15.0272 N   0  0  0  0  0  0  0  0  0  0  0  0
  -30.9266   18.1397  -16.0779 C   0  0  0  0  0  0  0  0  0  0  0  0
  -30.6260   18.5321  -17.3952 C   0  0  0  0  0  0  0  0  0  0  0  0
  -30.9208   19.7405  -17.8857 N   0  0  0  0  0  0  0  0  0  0  0  0
  -30.0044   17.6339  -18.1904 N   0  0  0  0  0  0  0  0  0  0  0  0
  -29.7095   16.4280  -17.6925 C   0  0  0  0  0  0  0  0  0  0  0  0
  -29.9429   15.9448  -16.4728 N   0  0  0  0  0  0  0  0  0  0  0  0
  -30.5599   16.8593  -15.7078 C   0  0  0  0  0  0  0  0  0  0  0  0
  1 10  1  0  0  0  0
  2  3  2  0  0  0  0
  2  1  1  0  0  0  0
  3  4  1  0  0  0  0
  4 10  2  0  0  0  0
  4  5  1  0  0  0  0
  5  7  2  0  0  0  0
  6  5  1  0  0  0  0
  7  8  1  0  0  0  0
  9  8  2  0  0  0  0
 10  9  1  0  0  0  0
M  END
>  <CHROM.1>
-30.67800108,17.70745508,-16.31836201,-2.14567555,1.09267187,-0.84126626

>  <Name>
lig.pdb

>  <RI>
9.24451e+06

>  <Rbt.Current_Directory>
/home/itssahil/PROJECTS/Mol_Feturizer/New_Systems/rnas/5uza

>  <Rbt.Executable>
rbdock ($Id: //depot/dev/client3/rdock/2013.1/src/exe/rbdock.cxx#4 $)

>  <Rbt.Library>
libRbt.so (2013.1, Build901 2013/11/27)

>  <Rbt.Parameter_File>
/export/apps/rDock/src/rDock_2013.1_src/data/scripts/dock_solv.prm

>  <Rbt.Receptor>
prm/pocket_docking_4.prm

>  <SCORE>
-28.3544

>  <SCORE.INTER>
-28.3544

>  <SCORE.INTER.CONST>
1

>  <SCORE.INTER.POLAR>
-3.11592

>  <SCORE.INTER.ROT>
0

>  <SCORE.INTER.SOLV>
12.7425

>  <SCORE.INTER.VDW>
-16.364

>  <SCORE.INTER.norm>
-2.83544

>  <SCORE.INTRA>
0

>  <SCORE.INTRA.DIHEDRAL>
0

>  <SCORE.INTRA.DIHEDRAL.0>
0

>  <SCORE.INTRA.POLAR>
0

>  <SCORE.INTRA.POLAR.0>
0

>  <SCORE.INTRA.REPUL>
0

>  <SCORE.INTRA.REPUL.0>
0

>  <SCORE.INTRA.SOLV>
0

>  <SCORE.INTRA.SOLV.lig_0>
-14.8845

>  <SCORE.INTRA.VDW>
0

>  <SCORE.INTRA.VDW.0>
0

>  <SCORE.INTRA.norm>
0

>  <SCORE.RESTR>
0

>  <SCORE.RESTR.CAVITY>
0

>  <SCORE.RESTR.norm>
0

>  <SCORE.SYSTEM>
0

>  <SCORE.SYSTEM.CONST>
0

>  <SCORE.SYSTEM.DIHEDRAL>
0

>  <SCORE.SYSTEM.SOLV>
0

>  <SCORE.SYSTEM.norm>
0

>  <SCORE.heavy>
10

>  <SCORE.norm>
-2.83544

>  <RMSD>
3.661

$$$$
lig.pdb
 OpenBabel11021811523D
libRbt.so/2013.1/901 2013/11/27
 10 11  0  0  0  0  0  0  0  0999 V2000
  -25.6802   16.7819  -15.7857 N   0  0  0  0  0  0  0  0  0  0  0  0
  -25.4971   15.6821  -16.5782 C   0  0  0  0  0  0  0  0  0  0  0  0
  -26.5629   14.9259  -16.6897 N   0  0  0  0  0  0  0  0  0  0  0  0
  -27.5118   15.5725  -15.9159 C   0  0  0  0  0  0  0  0  0  0  0  0
  -28.8566   15.2795  -15.6237 C   0  0  0  0  0  0  0  0  0  0  0  0
  -29.4927   14.2038  -16.0991 N   0  0  0  0  0  0  0  0  0  0  0  0
  -29.5235   16.1344  -14.8177 N   0  0  0  0  0  0  0  0  0  0  0  0
  -28.8804   17.2068  -14.3429 C   0  0  0  0  0  0  0  0  0  0  0  0
  -27.6201   17.5874  -14.5486 N   0  0  0  0  0  0  0  0  0  0  0  0
  -26.9848   16.7190  -15.3515 C   0  0  0  0  0  0  0  0  0  0  0  0
  1 10  1  0  0  0  0
  2  3  2  0  0  0  0
  2  1  1  0  0  0  0
  3  4  1  0  0  0  0
  4 10  2  0  0  0  0
  4  5  1  0  0  0  0
  5  7  2  0  0  0  0
  6  5  1  0  0  0  0
  7  8  1  0  0  0  0
  9  8  2  0  0  0  0
 10  9  1  0  0  0  0
M  END
>  <CHROM.1>
-27.69307320,15.97739618,-15.58468591,-0.02854992,0.29450757,0.58302136

>  <Name>
lig.pdb

>  <RI>
2.34257e+07

>  <Rbt.Current_Directory>
/home/itssahil/PROJECTS/Mol_Feturizer/New_Systems/rnas/5uza

>  <Rbt.Executable>
rbdock ($Id: //depot/dev/client3/rdock/2013.1/src/exe/rbdock.cxx#4 $)

>  <Rbt.Library>
libRbt.so (2013.1, Build901 2013/11/27)

>  <Rbt.Parameter_File>
/export/apps/rDock/src/rDock_2013.1_src/data/scripts/dock_solv.prm

>  <Rbt.Receptor>
prm/blind_docking_40.prm

>  <SCORE>
-7.27426

>  <SCORE.INTER>
-7.27426

>  <SCORE.INTER.CONST>
1

>  <SCORE.INTER.POLAR>
-1.43065

>  <SCORE.INTER.ROT>
0

>  <SCORE.INTER.SOLV>
11.4302

>  <SCORE.INTER.VDW>
-7.49072

>  <SCORE.INTER.norm>
-0.727426

>  <SCORE.INTRA>
0

>  <SCORE.INTRA.DIHEDRAL>
0

>  <SCORE.INTRA.DIHEDRAL.0>
0

>  <SCORE.INTRA.POLAR>
0

>  <SCORE.INTRA.POLAR.0>
0

>  <SCORE.INTRA.REPUL>
0

>  <SCORE.INTRA.REPUL.0>
0

>  <SCORE.INTRA.SOLV>
0

>  <SCORE.INTRA.SOLV.lig_0>
-14.8845

>  <SCORE.INTRA.VDW>
0

>  <SCORE.INTRA.VDW.0>
0

>  <SCORE.INTRA.norm>
0

>  <SCORE.RESTR>
0

>  <SCORE.RESTR.CAVITY>
0

>  <SCORE.RESTR.norm>
0

>  <SCORE.SYSTEM>
0

>  <SCORE.SYSTEM.CONST>
0

>  <SCORE.SYSTEM.DIHEDRAL>
0

>  <SCORE.SYSTEM.SOLV>
0

>  <SCORE.SYSTEM.norm>
0

>  <SCORE.heavy>
10

>  <SCORE.norm>
-0.727426

>  <RMSD>
3.762

$$$$
lig.pdb
 OpenBabel11021811523D
libRbt.so/2013.1/901 2013/11/27
 10 11  0  0  0  0  0  0  0  0999 V2000
  -28.5866   16.6794  -15.9843 N   0  0  0  0  0  0  0  0  0  0  0  0
  -29.8614   16.3312  -15.6314 C   0  0  0  0  0  0  0  0  0  0  0  0
  -30.1823   16.6669  -14.4048 N   0  0  0  0  0  0  0  0  0  0  0  0
  -29.0388   17.2768  -13.9172 C   0  0  0  0  0  0  0  0  0  0  0  0
  -28.7314   17.8583  -12.6734 C   0  0  0  0  0  0  0  0  0  0  0  0
  -29.5955   17.9095  -11.6543 N   0  0  0  0  0  0  0  0  0  0  0  0
  -27.4964   18.3826  -12.5147 N   0  0  0  0  0  0  0  0  0  0  0  0
  -26.6358   18.3252  -13.5370 C   0  0  0  0  0  0  0  0  0  0  0  0
  -26.8107   17.8061  -14.7517 N   0  0  0  0  0  0  0  0  0  0  0  0
  -28.0451   17.2936  -14.8779 C   0  0  0  0  0  0  0  0  0  0  0  0
  1 10  1  0  0  0  0
  2  3  2  0  0  0  0
  2  1  1  0  0  0  0
  3  4  1  0  0  0  0
  4 10  2  0  0  0  0
  4  5  1  0  0  0  0
  5  7  2  0  0  0  0
  6  5  1  0  0  0  0
  7  8  1  0  0  0  0
  9  8  2  0  0  0  0
 10  9  1  0  0  0  0
M  END
>  <CHROM.1>
-28.51797236,17.46089474,-13.95353149,-1.89335530,0.33934235,1.21450860

>  <Name>
lig.pdb

>  <RI>
2.34257e+07

>  <Rbt.Current_Directory>
/home/itssahil/PROJECTS/Mol_Feturizer/New_Systems/rnas/5uza

>  <Rbt.Executable>
rbdock ($Id: //depot/dev/client3/rdock/2013.1/src/exe/rbdock.cxx#4 $)

>  <Rbt.Library>
libRbt.so (2013.1, Build901 2013/11/27)

>  <Rbt.Parameter_File>
/export/apps/rDock/src/rDock_2013.1_src/data/scripts/dock_solv.prm

>  <Rbt.Receptor>
prm/blind_docking_40.prm

>  <SCORE>
-14.9013

>  <SCORE.INTER>
-15.565

>  <SCORE.INTER.CONST>
1

>  <SCORE.INTER.POLAR>
-2.55

>  <SCORE.INTER.ROT>
0

>  <SCORE.INTER.SOLV>
11.9324

>  <SCORE.INTER.VDW>
-9.45416

>  <SCORE.INTER.norm>
-1.5565

>  <SCORE.INTRA>
0

>  <SCORE.INTRA.DIHEDRAL>
0

>  <SCORE.INTRA.DIHEDRAL.0>
0

>  <SCORE.INTRA.POLAR>
0

>  <SCORE.INTRA.POLAR.0>
0

>  <SCORE.INTRA.REPUL>
0

>  <SCORE.INTRA.REPUL.0>
0

>  <SCORE.INTRA.SOLV>
0

>  <SCORE.INTRA.SOLV.lig_0>
-14.8845

>  <SCORE.INTRA.VDW>
0

>  <SCORE.INTRA.VDW.0>
0

>  <SCORE.INTRA.norm>
0

>  <SCORE.RESTR>
0.663791

>  <SCORE.RESTR.CAVITY>
0.663791

>  <SCORE.RESTR.norm>
0.0663791

>  <SCORE.SYSTEM>
0

>  <SCORE.SYSTEM.CONST>
0

>  <SCORE.SYSTEM.DIHEDRAL>
0

>  <SCORE.SYSTEM.SOLV>
0

>  <SCORE.SYSTEM.norm>
0

>  <SCORE.heavy>
10

>  <SCORE.norm>
-1.49013

>  <RMSD>
4.062

$$$$
lig.pdb
 OpenBabel11021811523D
libRbt.so/2013.1/901 2013/11/27
 10 11  0  0  0  0  0  0  0  0999 V2000
  -29.5408   15.4434  -16.1250 N   0  0  0  0  0  0  0  0  0  0  0  0
  -29.1466   16.4786  -15.3226 C   0  0  0  0  0  0  0  0  0  0  0  0
  -27.8527   16.5231  -15.1120 N   0  0  0  0  0  0  0  0  0  0  0  0
  -27.3627   15.4415  -15.8242 C   0  0  0  0  0  0  0  0  0  0  0  0
  -26.0613   14.9401  -16.0105 C   0  0  0  0  0  0  0  0  0  0  0  0
  -24.9765   15.4931  -15.4581 N   0  0  0  0  0  0  0  0  0  0  0  0
  -25.9174   13.8424  -16.7848 N   0  0  0  0  0  0  0  0  0  0  0  0
  -27.0070   13.2923  -17.3318 C   0  0  0  0  0  0  0  0  0  0  0  0
  -28.2796   13.6739  -17.2300 N   0  0  0  0  0  0  0  0  0  0  0  0
  -28.3897   14.7649  -16.4554 C   0  0  0  0  0  0  0  0  0  0  0  0
  1 10  1  0  0  0  0
  2  3  2  0  0  0  0
  2  1  1  0  0  0  0
  3  4  1  0  0  0  0
  4 10  2  0  0  0  0
  4  5  1  0  0  0  0
  5  7  2  0  0  0  0
  6  5  1  0  0  0  0
  7  8  1  0  0  0  0
  9  8  2  0  0  0  0
 10  9  1  0  0  0  0
M  END
>  <CHROM.1>
-27.40990405,14.99842710,-16.15283161,2.67846482,-0.11127882,0.62620298

>  <Name>
lig.pdb

>  <RI>
2.34257e+07

>  <Rbt.Current_Directory>
/home/itssahil/PROJECTS/Mol_Feturizer/New_Systems/rnas/5uza

>  <Rbt.Executable>
rbdock ($Id: //depot/dev/client3/rdock/2013.1/src/exe/rbdock.cxx#4 $)

>  <Rbt.Library>
libRbt.so (2013.1, Build901 2013/11/27)

>  <Rbt.Parameter_File>
/export/apps/rDock/src/rDock_2013.1_src/data/scripts/dock_solv.prm

>  <Rbt.Receptor>
prm/blind_docking_40.prm

>  <SCORE>
-20.7108

>  <SCORE.INTER>
-20.7108

>  <SCORE.INTER.CONST>
1

>  <SCORE.INTER.POLAR>
-2.10103

>  <SCORE.INTER.ROT>
0

>  <SCORE.INTER.SOLV>
11.3711

>  <SCORE.INTER.VDW>
-14.1941

>  <SCORE.INTER.norm>
-2.07108

>  <SCORE.INTRA>
0

>  <SCORE.INTRA.DIHEDRAL>
0

>  <SCORE.INTRA.DIHEDRAL.0>
0

>  <SCORE.INTRA.POLAR>
0

>  <SCORE.INTRA.POLAR.0>
0

>  <SCORE.INTRA.REPUL>
0

>  <SCORE.INTRA.REPUL.0>
0

>  <SCORE.INTRA.SOLV>
0

>  <SCORE.INTRA.SOLV.lig_0>
-14.8845

>  <SCORE.INTRA.VDW>
0

>  <SCORE.INTRA.VDW.0>
0

>  <SCORE.INTRA.norm>
0

>  <SCORE.RESTR>
0

>  <SCORE.RESTR.CAVITY>
0

>  <SCORE.RESTR.norm>
0

>  <SCORE.SYSTEM>
0

>  <SCORE.SYSTEM.CONST>
0

>  <SCORE.SYSTEM.DIHEDRAL>
0

>  <SCORE.SYSTEM.SOLV>
0

>  <SCORE.SYSTEM.norm>
0

>  <SCORE.heavy>
10

>  <SCORE.norm>
-2.07108

>  <RMSD>
4.597

$$$$
lig.pdb
 OpenBabel11021811523D
libRbt.so/2013.1/901 2013/11/27
 10 11  0  0  0  0  0  0  0  0999 V2000
  -29.5270   15.4247  -16.1063 N   0  0  0  0  0  0  0  0  0  0  0  0
  -29.1228   16.4674  -15.3187 C   0  0  0  0  0  0  0  0  0  0  0  0
  -27.8282   16.5040  -15.1111 N   0  0  0  0  0  0  0  0  0  0  0  0
  -27.3485   15.4089  -15.8096 C   0  0  0  0  0  0  0  0  0  0  0  0
  -26.0516   14.8944  -15.9914 C   0  0  0  0  0  0  0  0  0  0  0  0
  -24.9612   15.4458  -15.4486 N   0  0  0  0  0  0  0  0  0  0  0  0
  -25.9182   13.7851  -16.7510 N   0  0  0  0  0  0  0  0  0  0  0  0
  -27.0134   13.2366  -17.2885 C   0  0  0  0  0  0  0  0  0  0  0  0
  -28.2826   13.6301  -17.1895 N   0  0  0  0  0  0  0  0  0  0  0  0
  -28.3822   14.7323  -16.4296 C   0  0  0  0  0  0  0  0  0  0  0  0
  1 10  1  0  0  0  0
  2  3  2  0  0  0  0
  2  1  1  0  0  0  0
  3  4  1  0  0  0  0
  4 10  2  0  0  0  0
  4  5  1  0  0  0  0
  5  7  2  0  0  0  0
  6  5  1  0  0  0  0
  7  8  1  0  0  0  0
  9  8  2  0  0  0  0
 10  9  1  0  0  0  0
M  END
>  <CHROM.1>
-27.39994551,14.96185221,-16.13204806,2.67061656,-0.11450672,0.61176872

>  <Name>
lig.pdb

>  <RI>
2.34257e+07

>  <Rbt.Current_Directory>
/home/itssahil/PROJECTS/Mol_Feturizer/New_Systems/rnas/5uza

>  <Rbt.Executable>
rbdock ($Id: //depot/dev/client3/rdock/2013.1/src/exe/rbdock.cxx#4 $)

>  <Rbt.Library>
libRbt.so (2013.1, Build901 2013/11/27)

>  <Rbt.Parameter_File>
/export/apps/rDock/src/rDock_2013.1_src/data/scripts/dock_solv.prm

>  <Rbt.Receptor>
prm/blind_docking_40.prm

>  <SCORE>
-20.7442

>  <SCORE.INTER>
-20.7442

>  <SCORE.INTER.CONST>
1

>  <SCORE.INTER.POLAR>
-2.11172

>  <SCORE.INTER.ROT>
0

>  <SCORE.INTER.SOLV>
11.2665

>  <SCORE.INTER.VDW>
-14.1459

>  <SCORE.INTER.norm>
-2.07442

>  <SCORE.INTRA>
0

>  <SCORE.INTRA.DIHEDRAL>
0

>  <SCORE.INTRA.DIHEDRAL.0>
0

>  <SCORE.INTRA.POLAR>
0

>  <SCORE.INTRA.POLAR.0>
0

>  <SCORE.INTRA.REPUL>
0

>  <SCORE.INTRA.REPUL.0>
0

>  <SCORE.INTRA.SOLV>
0

>  <SCORE.INTRA.SOLV.lig_0>
-14.8845

>  <SCORE.INTRA.VDW>
0

>  <SCORE.INTRA.VDW.0>
0

>  <SCORE.INTRA.norm>
0

>  <SCORE.RESTR>
0

>  <SCORE.RESTR.CAVITY>
0

>  <SCORE.RESTR.norm>
0

>  <SCORE.SYSTEM>
0

>  <SCORE.SYSTEM.CONST>
0

>  <SCORE.SYSTEM.DIHEDRAL>
0

>  <SCORE.SYSTEM.SOLV>
0

>  <SCORE.SYSTEM.norm>
0

>  <SCORE.heavy>
10

>  <SCORE.norm>
-2.07442

>  <RMSD>
4.616

$$$$
lig.pdb
 OpenBabel11021811523D
libRbt.so/2013.1/901 2013/11/27
 10 11  0  0  0  0  0  0  0  0999 V2000
  -25.4633   19.1303  -15.1020 N   0  0  0  0  0  0  0  0  0  0  0  0
  -24.7625   19.8821  -14.1994 C   0  0  0  0  0  0  0  0  0  0  0  0
  -25.2944   19.9030  -13.0007 N   0  0  0  0  0  0  0  0  0  0  0  0
  -26.4236   19.1112  -13.1243 C   0  0  0  0  0  0  0  0  0  0  0  0
  -27.4195   18.7303  -12.2062 C   0  0  0  0  0  0  0  0  0  0  0  0
  -27.4302   19.1273  -10.9294 N   0  0  0  0  0  0  0  0  0  0  0  0
  -28.4098   17.9271  -12.6529 N   0  0  0  0  0  0  0  0  0  0  0  0
  -28.3948   17.5363  -13.9320 C   0  0  0  0  0  0  0  0  0  0  0  0
  -27.5125   17.8276  -14.8871 N   0  0  0  0  0  0  0  0  0  0  0  0
  -26.5429   18.6260  -14.4131 C   0  0  0  0  0  0  0  0  0  0  0  0
  1 10  1  0  0  0  0
  2  3  2  0  0  0  0
  2  1  1  0  0  0  0
  3  4  1  0  0  0  0
  4 10  2  0  0  0  0
  4  5  1  0  0  0  0
  5  7  2  0  0  0  0
  6  5  1  0  0  0  0
  7  8  1  0  0  0  0
  9  8  2  0  0  0  0
 10  9  1  0  0  0  0
M  END
>  <CHROM.1>
-26.77681411,18.78639257,-13.40037524,0.48390063,-0.56810446,-1.87535004

>  <Name>
lig.pdb

>  <RI>
1.17775e+07

>  <Rbt.Current_Directory>
/home/itssahil/PROJECTS/Mol_Feturizer/New_Systems/rnas/5uza

>  <Rbt.Executable>
rbdock ($Id: //depot/dev/client3/rdock/2013.1/src/exe/rbdock.cxx#4 $)

>  <Rbt.Library>
libRbt.so (2013.1, Build901 2013/11/27)

>  <Rbt.Parameter_File>
/export/apps/rDock/src/rDock_2013.1_src/data/scripts/dock_solv.prm

>  <Rbt.Receptor>
prm/pocket_docking_8.prm

>  <SCORE>
-7.08665

>  <SCORE.INTER>
-7.08665

>  <SCORE.INTER.CONST>
1

>  <SCORE.INTER.POLAR>
-2.05306

>  <SCORE.INTER.ROT>
0

>  <SCORE.INTER.SOLV>
13.3041

>  <SCORE.INTER.VDW>
-5.91562

>  <SCORE.INTER.norm>
-0.708665

>  <SCORE.INTRA>
0

>  <SCORE.INTRA.DIHEDRAL>
0

>  <SCORE.INTRA.DIHEDRAL.0>
0

>  <SCORE.INTRA.POLAR>
0

>  <SCORE.INTRA.POLAR.0>
0

>  <SCORE.INTRA.REPUL>
0

>  <SCORE.INTRA.REPUL.0>
0

>  <SCORE.INTRA.SOLV>
0

>  <SCORE.INTRA.SOLV.lig_0>
-14.8845

>  <SCORE.INTRA.VDW>
0

>  <SCORE.INTRA.VDW.0>
0

>  <SCORE.INTRA.norm>
0

>  <SCORE.RESTR>
0

>  <SCORE.RESTR.CAVITY>
0

>  <SCORE.RESTR.norm>
0

>  <SCORE.SYSTEM>
0

>  <SCORE.SYSTEM.CONST>
0

>  <SCORE.SYSTEM.DIHEDRAL>
0

>  <SCORE.SYSTEM.SOLV>
0

>  <SCORE.SYSTEM.norm>
0

>  <SCORE.heavy>
10

>  <SCORE.norm>
-0.708665

>  <RMSD>
5.548

$$$$
lig.pdb
 OpenBabel11021811523D
libRbt.so/2013.1/901 2013/11/27
 10 11  0  0  0  0  0  0  0  0999 V2000
  -25.4624   19.1317  -15.1001 N   0  0  0  0  0  0  0  0  0  0  0  0
  -24.7628   19.8837  -14.1968 C   0  0  0  0  0  0  0  0  0  0  0  0
  -25.2958   19.9042  -12.9985 N   0  0  0  0  0  0  0  0  0  0  0  0
  -26.4245   19.1119  -13.1232 C   0  0  0  0  0  0  0  0  0  0  0  0
  -27.4210   18.7305  -12.2060 C   0  0  0  0  0  0  0  0  0  0  0  0
  -27.4331   19.1273  -10.9292 N   0  0  0  0  0  0  0  0  0  0  0  0
  -28.4106   17.9269  -12.6538 N   0  0  0  0  0  0  0  0  0  0  0  0
  -28.3942   17.5363  -13.9329 C   0  0  0  0  0  0  0  0  0  0  0  0
  -27.5113   17.8281  -14.8872 N   0  0  0  0  0  0  0  0  0  0  0  0
  -26.5424   18.6269  -14.4122 C   0  0  0  0  0  0  0  0  0  0  0  0
  1 10  1  0  0  0  0
  2  3  2  0  0  0  0
  2  1  1  0  0  0  0
  3  4  1  0  0  0  0
  4 10  2  0  0  0  0
  4  5  1  0  0  0  0
  5  7  2  0  0  0  0
  6  5  1  0  0  0  0
  7  8  1  0  0  0  0
  9  8  2  0  0  0  0
 10  9  1  0  0  0  0
M  END
>  <CHROM.1>
-26.77731463,18.78700182,-13.39967102,0.48273671,-0.56826956,-1.87583536

>  <Name>
lig.pdb

>  <RI>
0

>  <Rbt.Current_Directory>
/home/itssahil/PROJECTS/Mol_Feturizer/New_Systems/rnas/5uza

>  <Rbt.Executable>
rbdock ($Id: //depot/dev/client3/rdock/2013.1/src/exe/rbdock.cxx#4 $)

>  <Rbt.Library>
libRbt.so (2013.1, Build901 2013/11/27)

>  <Rbt.Parameter_File>
/export/apps/rDock/src/rDock_2013.1_src/data/scripts/dock_solv.prm

>  <Rbt.Receptor>
prm/blind_docking_60.prm

>  <SCORE>
-7.08352

>  <SCORE.INTER>
-7.08352

>  <SCORE.INTER.CONST>
1

>  <SCORE.INTER.POLAR>
-2.0589

>  <SCORE.INTER.ROT>
0

>  <SCORE.INTER.SOLV>
13.306

>  <SCORE.INTER.VDW>
-5.89467

>  <SCORE.INTER.norm>
-0.708352

>  <SCORE.INTRA>
0

>  <SCORE.INTRA.DIHEDRAL>
0

>  <SCORE.INTRA.DIHEDRAL.0>
0

>  <SCORE.INTRA.POLAR>
0

>  <SCORE.INTRA.POLAR.0>
0

>  <SCORE.INTRA.REPUL>
0

>  <SCORE.INTRA.REPUL.0>
0

>  <SCORE.INTRA.SOLV>
0

>  <SCORE.INTRA.SOLV.lig_0>
-14.8845

>  <SCORE.INTRA.VDW>
0

>  <SCORE.INTRA.VDW.0>
0

>  <SCORE.INTRA.norm>
0

>  <SCORE.RESTR>
0

>  <SCORE.RESTR.CAVITY>
0

>  <SCORE.RESTR.norm>
0

>  <SCORE.SYSTEM>
0

>  <SCORE.SYSTEM.CONST>
0

>  <SCORE.SYSTEM.DIHEDRAL>
0

>  <SCORE.SYSTEM.SOLV>
0

>  <SCORE.SYSTEM.norm>
0

>  <SCORE.heavy>
10

>  <SCORE.norm>
-0.708352

>  <RMSD>
5.549

$$$$
lig.pdb
 OpenBabel11021811523D
libRbt.so/2013.1/901 2013/11/27
 10 11  0  0  0  0  0  0  0  0999 V2000
   -7.8049   30.7532   -7.0755 N   0  0  0  0  0  0  0  0  0  0  0  0
   -7.3252   30.1306   -5.9561 C   0  0  0  0  0  0  0  0  0  0  0  0
   -8.1934   29.3346   -5.3791 N   0  0  0  0  0  0  0  0  0  0  0  0
   -9.3223   29.4424   -6.1736 C   0  0  0  0  0  0  0  0  0  0  0  0
  -10.5935   28.8436   -6.1009 C   0  0  0  0  0  0  0  0  0  0  0  0
  -10.9458   27.9856   -5.1379 N   0  0  0  0  0  0  0  0  0  0  0  0
  -11.4933   29.1649   -7.0561 N   0  0  0  0  0  0  0  0  0  0  0  0
  -11.1355   30.0264   -8.0148 C   0  0  0  0  0  0  0  0  0  0  0  0
   -9.9716   30.6516   -8.1879 N   0  0  0  0  0  0  0  0  0  0  0  0
   -9.1003   30.3126   -7.2245 C   0  0  0  0  0  0  0  0  0  0  0  0
  1 10  1  0  0  0  0
  2  3  2  0  0  0  0
  2  1  1  0  0  0  0
  3  4  1  0  0  0  0
  4 10  2  0  0  0  0
  4  5  1  0  0  0  0
  5  7  2  0  0  0  0
  6  5  1  0  0  0  0
  7  8  1  0  0  0  0
  9  8  2  0  0  0  0
 10  9  1  0  0  0  0
M  END
>  <CHROM.1>
-9.61223403,29.63492479,-6.60417612,0.21066325,-0.33040026,-0.93492589

>  <Name>
lig.pdb

>  <RI>
2.34257e+07

>  <Rbt.Current_Directory>
/home/itssahil/PROJECTS/Mol_Feturizer/New_Systems/rnas/5uza

>  <Rbt.Executable>
rbdock ($Id: //depot/dev/client3/rdock/2013.1/src/exe/rbdock.cxx#4 $)

>  <Rbt.Library>
libRbt.so (2013.1, Build901 2013/11/27)

>  <Rbt.Parameter_File>
/export/apps/rDock/src/rDock_2013.1_src/data/scripts/dock_solv.prm

>  <Rbt.Receptor>
prm/blind_docking_40.prm

>  <SCORE>
-21.2283

>  <SCORE.INTER>
-21.2283

>  <SCORE.INTER.CONST>
1

>  <SCORE.INTER.POLAR>
-2.9364

>  <SCORE.INTER.ROT>
0

>  <SCORE.INTER.SOLV>
8.18536

>  <SCORE.INTER.VDW>
-10.6926

>  <SCORE.INTER.norm>
-2.12283

>  <SCORE.INTRA>
0

>  <SCORE.INTRA.DIHEDRAL>
0

>  <SCORE.INTRA.DIHEDRAL.0>
0

>  <SCORE.INTRA.POLAR>
0

>  <SCORE.INTRA.POLAR.0>
0

>  <SCORE.INTRA.REPUL>
0

>  <SCORE.INTRA.REPUL.0>
0

>  <SCORE.INTRA.SOLV>
0

>  <SCORE.INTRA.SOLV.lig_0>
-14.8845

>  <SCORE.INTRA.VDW>
0

>  <SCORE.INTRA.VDW.0>
0

>  <SCORE.INTRA.norm>
0

>  <SCORE.RESTR>
0

>  <SCORE.RESTR.CAVITY>
0

>  <SCORE.RESTR.norm>
0

>  <SCORE.SYSTEM>
0

>  <SCORE.SYSTEM.CONST>
0

>  <SCORE.SYSTEM.DIHEDRAL>
0

>  <SCORE.SYSTEM.SOLV>
0

>  <SCORE.SYSTEM.norm>
0

>  <SCORE.heavy>
10

>  <SCORE.norm>
-2.12283

>  <RMSD>
26.266

$$$$
lig.pdb
 OpenBabel11021811523D
libRbt.so/2013.1/901 2013/11/27
 10 11  0  0  0  0  0  0  0  0999 V2000
   -7.7654   30.6952   -7.1188 N   0  0  0  0  0  0  0  0  0  0  0  0
   -7.2908   30.1074   -5.9785 C   0  0  0  0  0  0  0  0  0  0  0  0
   -8.1650   29.3375   -5.3757 N   0  0  0  0  0  0  0  0  0  0  0  0
   -9.2926   29.4265   -6.1743 C   0  0  0  0  0  0  0  0  0  0  0  0
  -10.5680   28.8394   -6.0825 C   0  0  0  0  0  0  0  0  0  0  0  0
  -10.9270   28.0170   -5.0913 N   0  0  0  0  0  0  0  0  0  0  0  0
  -11.4650   29.1347   -7.0487 N   0  0  0  0  0  0  0  0  0  0  0  0
  -11.1005   29.9607   -8.0356 C   0  0  0  0  0  0  0  0  0  0  0  0
   -9.9322   30.5715   -8.2289 N   0  0  0  0  0  0  0  0  0  0  0  0
   -9.0638   30.2590   -7.2538 C   0  0  0  0  0  0  0  0  0  0  0  0
  1 10  1  0  0  0  0
  2  3  2  0  0  0  0
  2  1  1  0  0  0  0
  3  4  1  0  0  0  0
  4 10  2  0  0  0  0
  4  5  1  0  0  0  0
  5  7  2  0  0  0  0
  6  5  1  0  0  0  0
  7  8  1  0  0  0  0
  9  8  2  0  0  0  0
 10  9  1  0  0  0  0
M  END
>  <CHROM.1>
-9.58092169,29.60634022,-6.61139165,0.20571395,-0.32502158,-0.97031505

>  <Name>
lig.pdb

>  <RI>
2.34257e+07

>  <Rbt.Current_Directory>
/home/itssahil/PROJECTS/Mol_Feturizer/New_Systems/rnas/5uza

>  <Rbt.Executable>
rbdock ($Id: //depot/dev/client3/rdock/2013.1/src/exe/rbdock.cxx#4 $)

>  <Rbt.Library>
libRbt.so (2013.1, Build901 2013/11/27)

>  <Rbt.Parameter_File>
/export/apps/rDock/src/rDock_2013.1_src/data/scripts/dock_solv.prm

>  <Rbt.Receptor>
prm/blind_docking_40.prm

>  <SCORE>
-21.1635

>  <SCORE.INTER>
-21.1635

>  <SCORE.INTER.CONST>
1

>  <SCORE.INTER.POLAR>
-2.91003

>  <SCORE.INTER.ROT>
0

>  <SCORE.INTER.SOLV>
8.34125

>  <SCORE.INTER.VDW>
-10.7893

>  <SCORE.INTER.norm>
-2.11635

>  <SCORE.INTRA>
0

>  <SCORE.INTRA.DIHEDRAL>
0

>  <SCORE.INTRA.DIHEDRAL.0>
0

>  <SCORE.INTRA.POLAR>
0

>  <SCORE.INTRA.POLAR.0>
0

>  <SCORE.INTRA.REPUL>
0

>  <SCORE.INTRA.REPUL.0>
0

>  <SCORE.INTRA.SOLV>
0

>  <SCORE.INTRA.SOLV.lig_0>
-14.8845

>  <SCORE.INTRA.VDW>
0

>  <SCORE.INTRA.VDW.0>
0

>  <SCORE.INTRA.norm>
0

>  <SCORE.RESTR>
0

>  <SCORE.RESTR.CAVITY>
0

>  <SCORE.RESTR.norm>
0

>  <SCORE.SYSTEM>
0

>  <SCORE.SYSTEM.CONST>
0

>  <SCORE.SYSTEM.DIHEDRAL>
0

>  <SCORE.SYSTEM.SOLV>
0

>  <SCORE.SYSTEM.norm>
0

>  <SCORE.heavy>
10

>  <SCORE.norm>
-2.11635

>  <RMSD>
26.275

$$$$
lig.pdb
 OpenBabel11021811523D
libRbt.so/2013.1/901 2013/11/27
 10 11  0  0  0  0  0  0  0  0999 V2000
   -7.4747   30.2532   -5.4914 N   0  0  0  0  0  0  0  0  0  0  0  0
   -6.7663   29.1095   -5.7383 C   0  0  0  0  0  0  0  0  0  0  0  0
   -7.4281   28.2159   -6.4341 N   0  0  0  0  0  0  0  0  0  0  0  0
   -8.6569   28.8132   -6.6589 C   0  0  0  0  0  0  0  0  0  0  0  0
   -9.8092   28.3830   -7.3421 C   0  0  0  0  0  0  0  0  0  0  0  0
   -9.9045   27.1914   -7.9411 N   0  0  0  0  0  0  0  0  0  0  0  0
  -10.8651   29.2250   -7.3823 N   0  0  0  0  0  0  0  0  0  0  0  0
  -10.7643   30.4142   -6.7783 C   0  0  0  0  0  0  0  0  0  0  0  0
   -9.7344   30.9290   -6.1076 N   0  0  0  0  0  0  0  0  0  0  0  0
   -8.7029   30.0700   -6.0851 C   0  0  0  0  0  0  0  0  0  0  0  0
  1 10  1  0  0  0  0
  2  3  2  0  0  0  0
  2  1  1  0  0  0  0
  3  4  1  0  0  0  0
  4 10  2  0  0  0  0
  4  5  1  0  0  0  0
  5  7  2  0  0  0  0
  6  5  1  0  0  0  0
  7  8  1  0  0  0  0
  9  8  2  0  0  0  0
 10  9  1  0  0  0  0
M  END
>  <CHROM.1>
-9.02610200,29.22387147,-6.61958585,0.41680840,-0.35843299,0.44087165

>  <Name>
lig.pdb

>  <RI>
2.34257e+07

>  <Rbt.Current_Directory>
/home/itssahil/PROJECTS/Mol_Feturizer/New_Systems/rnas/5uza

>  <Rbt.Executable>
rbdock ($Id: //depot/dev/client3/rdock/2013.1/src/exe/rbdock.cxx#4 $)

>  <Rbt.Library>
libRbt.so (2013.1, Build901 2013/11/27)

>  <Rbt.Parameter_File>
/export/apps/rDock/src/rDock_2013.1_src/data/scripts/dock_solv.prm

>  <Rbt.Receptor>
prm/blind_docking_40.prm

>  <SCORE>
-14.8741

>  <SCORE.INTER>
-14.8741

>  <SCORE.INTER.CONST>
1

>  <SCORE.INTER.POLAR>
-1.97188

>  <SCORE.INTER.ROT>
0

>  <SCORE.INTER.SOLV>
7.66211

>  <SCORE.INTER.VDW>
-9.49721

>  <SCORE.INTER.norm>
-1.48741

>  <SCORE.INTRA>
0

>  <SCORE.INTRA.DIHEDRAL>
0

>  <SCORE.INTRA.DIHEDRAL.0>
0

>  <SCORE.INTRA.POLAR>
0

>  <SCORE.INTRA.POLAR.0>
0

>  <SCORE.INTRA.REPUL>
0

>  <SCORE.INTRA.REPUL.0>
0

>  <SCORE.INTRA.SOLV>
0

>  <SCORE.INTRA.SOLV.lig_0>
-14.8845

>  <SCORE.INTRA.VDW>
0

>  <SCORE.INTRA.VDW.0>
0

>  <SCORE.INTRA.norm>
0

>  <SCORE.RESTR>
0

>  <SCORE.RESTR.CAVITY>
0

>  <SCORE.RESTR.norm>
0

>  <SCORE.SYSTEM>
0

>  <SCORE.SYSTEM.CONST>
0

>  <SCORE.SYSTEM.DIHEDRAL>
0

>  <SCORE.SYSTEM.SOLV>
0

>  <SCORE.SYSTEM.norm>
0

>  <SCORE.heavy>
10

>  <SCORE.norm>
-1.48741

>  <RMSD>
26.536

$$$$
lig.pdb
 OpenBabel11021811523D
libRbt.so/2013.1/901 2013/11/27
 10 11  0  0  0  0  0  0  0  0999 V2000
  -10.6568   29.2911   -6.5014 N   0  0  0  0  0  0  0  0  0  0  0  0
  -10.8646   28.2544   -7.3692 C   0  0  0  0  0  0  0  0  0  0  0  0
   -9.7615   27.6669   -7.7669 N   0  0  0  0  0  0  0  0  0  0  0  0
   -8.7591   28.3666   -7.1166 C   0  0  0  0  0  0  0  0  0  0  0  0
   -7.3584   28.2338   -7.1143 C   0  0  0  0  0  0  0  0  0  0  0  0
   -6.7084   27.3085   -7.8278 N   0  0  0  0  0  0  0  0  0  0  0  0
   -6.6485   29.0941   -6.3519 N   0  0  0  0  0  0  0  0  0  0  0  0
   -7.3047   30.0194   -5.6431 C   0  0  0  0  0  0  0  0  0  0  0  0
   -8.6164   30.2403   -5.5642 N   0  0  0  0  0  0  0  0  0  0  0  0
   -9.2932   29.3713   -6.3317 C   0  0  0  0  0  0  0  0  0  0  0  0
  1 10  1  0  0  0  0
  2  3  2  0  0  0  0
  2  1  1  0  0  0  0
  3  4  1  0  0  0  0
  4 10  2  0  0  0  0
  4  5  1  0  0  0  0
  5  7  2  0  0  0  0
  6  5  1  0  0  0  0
  7  8  1  0  0  0  0
  9  8  2  0  0  0  0
 10  9  1  0  0  0  0
M  END
>  <CHROM.1>
-8.56409726,28.75848709,-6.77767823,3.12540079,0.05967551,-2.45345155

>  <Name>
lig.pdb

>  <RI>
2.34257e+07

>  <Rbt.Current_Directory>
/home/itssahil/PROJECTS/Mol_Feturizer/New_Systems/rnas/5uza

>  <Rbt.Executable>
rbdock ($Id: //depot/dev/client3/rdock/2013.1/src/exe/rbdock.cxx#4 $)

>  <Rbt.Library>
libRbt.so (2013.1, Build901 2013/11/27)

>  <Rbt.Parameter_File>
/export/apps/rDock/src/rDock_2013.1_src/data/scripts/dock_solv.prm

>  <Rbt.Receptor>
prm/blind_docking_40.prm

>  <SCORE>
-15.7704

>  <SCORE.INTER>
-15.7704

>  <SCORE.INTER.CONST>
1

>  <SCORE.INTER.POLAR>
-2.11485

>  <SCORE.INTER.ROT>
0

>  <SCORE.INTER.SOLV>
9.42857

>  <SCORE.INTER.VDW>
-10.2069

>  <SCORE.INTER.norm>
-1.57704

>  <SCORE.INTRA>
0

>  <SCORE.INTRA.DIHEDRAL>
0

>  <SCORE.INTRA.DIHEDRAL.0>
0

>  <SCORE.INTRA.POLAR>
0

>  <SCORE.INTRA.POLAR.0>
0

>  <SCORE.INTRA.REPUL>
0

>  <SCORE.INTRA.REPUL.0>
0

>  <SCORE.INTRA.SOLV>
0

>  <SCORE.INTRA.SOLV.lig_0>
-14.8845

>  <SCORE.INTRA.VDW>
0

>  <SCORE.INTRA.VDW.0>
0

>  <SCORE.INTRA.norm>
0

>  <SCORE.RESTR>
0

>  <SCORE.RESTR.CAVITY>
0

>  <SCORE.RESTR.norm>
0

>  <SCORE.SYSTEM>
0

>  <SCORE.SYSTEM.CONST>
0

>  <SCORE.SYSTEM.DIHEDRAL>
0

>  <SCORE.SYSTEM.SOLV>
0

>  <SCORE.SYSTEM.norm>
0

>  <SCORE.heavy>
10

>  <SCORE.norm>
-1.57704

>  <RMSD>
26.551

$$$$
lig.pdb
 OpenBabel11021811523D
libRbt.so/2013.1/901 2013/11/27
 10 11  0  0  0  0  0  0  0  0999 V2000
  -10.5179   28.6405   -5.7567 N   0  0  0  0  0  0  0  0  0  0  0  0
  -10.6308   27.4478   -6.4168 C   0  0  0  0  0  0  0  0  0  0  0  0
   -9.5579   27.1124   -7.0925 N   0  0  0  0  0  0  0  0  0  0  0  0
   -8.6794   28.1575   -6.8616 C   0  0  0  0  0  0  0  0  0  0  0  0
   -7.3637   28.4034   -7.2954 C   0  0  0  0  0  0  0  0  0  0  0  0
   -6.6874   27.5714   -8.0941 N   0  0  0  0  0  0  0  0  0  0  0  0
   -6.7693   29.5432   -6.8795 N   0  0  0  0  0  0  0  0  0  0  0  0
   -7.4526   30.3728   -6.0832 C   0  0  0  0  0  0  0  0  0  0  0  0
   -8.6917   30.2485   -5.6091 N   0  0  0  0  0  0  0  0  0  0  0  0
   -9.2548   29.1083   -6.0396 C   0  0  0  0  0  0  0  0  0  0  0  0
  1 10  1  0  0  0  0
  2  3  2  0  0  0  0
  2  1  1  0  0  0  0
  3  4  1  0  0  0  0
  4 10  2  0  0  0  0
  4  5  1  0  0  0  0
  5  7  2  0  0  0  0
  6  5  1  0  0  0  0
  7  8  1  0  0  0  0
  9  8  2  0  0  0  0
 10  9  1  0  0  0  0
M  END
>  <CHROM.1>
-8.52775228,28.64117166,-6.63897149,3.06120285,-0.36395247,-2.60408839

>  <Name>
lig.pdb

>  <RI>
2.34257e+07

>  <Rbt.Current_Directory>
/home/itssahil/PROJECTS/Mol_Feturizer/New_Systems/rnas/5uza

>  <Rbt.Executable>
rbdock ($Id: //depot/dev/client3/rdock/2013.1/src/exe/rbdock.cxx#4 $)

>  <Rbt.Library>
libRbt.so (2013.1, Build901 2013/11/27)

>  <Rbt.Parameter_File>
/export/apps/rDock/src/rDock_2013.1_src/data/scripts/dock_solv.prm

>  <Rbt.Receptor>
prm/blind_docking_40.prm

>  <SCORE>
-16.0049

>  <SCORE.INTER>
-16.0049

>  <SCORE.INTER.CONST>
1

>  <SCORE.INTER.POLAR>
-2.02683

>  <SCORE.INTER.ROT>
0

>  <SCORE.INTER.SOLV>
10.3059

>  <SCORE.INTER.VDW>
-10.9491

>  <SCORE.INTER.norm>
-1.60049

>  <SCORE.INTRA>
0

>  <SCORE.INTRA.DIHEDRAL>
0

>  <SCORE.INTRA.DIHEDRAL.0>
0

>  <SCORE.INTRA.POLAR>
0

>  <SCORE.INTRA.POLAR.0>
0

>  <SCORE.INTRA.REPUL>
0

>  <SCORE.INTRA.REPUL.0>
0

>  <SCORE.INTRA.SOLV>
0

>  <SCORE.INTRA.SOLV.lig_0>
-14.8845

>  <SCORE.INTRA.VDW>
0

>  <SCORE.INTRA.VDW.0>
0

>  <SCORE.INTRA.norm>
0

>  <SCORE.RESTR>
0

>  <SCORE.RESTR.CAVITY>
0

>  <SCORE.RESTR.norm>
0

>  <SCORE.SYSTEM>
0

>  <SCORE.SYSTEM.CONST>
0

>  <SCORE.SYSTEM.DIHEDRAL>
0

>  <SCORE.SYSTEM.SOLV>
0

>  <SCORE.SYSTEM.norm>
0

>  <SCORE.heavy>
10

>  <SCORE.norm>
-1.60049

>  <RMSD>
26.616

$$$$
lig.pdb
 OpenBabel11021811523D
libRbt.so/2013.1/901 2013/11/27
 10 11  0  0  0  0  0  0  0  0999 V2000
  -10.5148   28.6476   -5.7583 N   0  0  0  0  0  0  0  0  0  0  0  0
  -10.6310   27.4565   -6.4207 C   0  0  0  0  0  0  0  0  0  0  0  0
   -9.5586   27.1191   -7.0964 N   0  0  0  0  0  0  0  0  0  0  0  0
   -8.6771   28.1611   -6.8630 C   0  0  0  0  0  0  0  0  0  0  0  0
   -7.3604   28.4038   -7.2955 C   0  0  0  0  0  0  0  0  0  0  0  0
   -6.6861   27.5712   -8.0954 N   0  0  0  0  0  0  0  0  0  0  0  0
   -6.7628   29.5410   -6.8770 N   0  0  0  0  0  0  0  0  0  0  0  0
   -7.4440   30.3711   -6.0796 C   0  0  0  0  0  0  0  0  0  0  0  0
   -8.6838   30.2497   -5.6064 N   0  0  0  0  0  0  0  0  0  0  0  0
   -9.2501   29.1121   -6.0395 C   0  0  0  0  0  0  0  0  0  0  0  0
  1 10  1  0  0  0  0
  2  3  2  0  0  0  0
  2  1  1  0  0  0  0
  3  4  1  0  0  0  0
  4 10  2  0  0  0  0
  4  5  1  0  0  0  0
  5  7  2  0  0  0  0
  6  5  1  0  0  0  0
  7  8  1  0  0  0  0
  9  8  2  0  0  0  0
 10  9  1  0  0  0  0
M  END
>  <CHROM.1>
-8.52410931,28.64385651,-6.63933740,3.06367987,-0.36184969,-2.60127576

>  <Name>
lig.pdb

>  <RI>
2.34257e+07

>  <Rbt.Current_Directory>
/home/itssahil/PROJECTS/Mol_Feturizer/New_Systems/rnas/5uza

>  <Rbt.Executable>
rbdock ($Id: //depot/dev/client3/rdock/2013.1/src/exe/rbdock.cxx#4 $)

>  <Rbt.Library>
libRbt.so (2013.1, Build901 2013/11/27)

>  <Rbt.Parameter_File>
/export/apps/rDock/src/rDock_2013.1_src/data/scripts/dock_solv.prm

>  <Rbt.Receptor>
prm/blind_docking_40.prm

>  <SCORE>
-16.0011

>  <SCORE.INTER>
-16.0011

>  <SCORE.INTER.CONST>
1

>  <SCORE.INTER.POLAR>
-2.03267

>  <SCORE.INTER.ROT>
0

>  <SCORE.INTER.SOLV>
10.3082

>  <SCORE.INTER.VDW>
-10.9279

>  <SCORE.INTER.norm>
-1.60011

>  <SCORE.INTRA>
0

>  <SCORE.INTRA.DIHEDRAL>
0

>  <SCORE.INTRA.DIHEDRAL.0>
0

>  <SCORE.INTRA.POLAR>
0

>  <SCORE.INTRA.POLAR.0>
0

>  <SCORE.INTRA.REPUL>
0

>  <SCORE.INTRA.REPUL.0>
0

>  <SCORE.INTRA.SOLV>
0

>  <SCORE.INTRA.SOLV.lig_0>
-14.8845

>  <SCORE.INTRA.VDW>
0

>  <SCORE.INTRA.VDW.0>
0

>  <SCORE.INTRA.norm>
0

>  <SCORE.RESTR>
0

>  <SCORE.RESTR.CAVITY>
0

>  <SCORE.RESTR.norm>
0

>  <SCORE.SYSTEM>
0

>  <SCORE.SYSTEM.CONST>
0

>  <SCORE.SYSTEM.DIHEDRAL>
0

>  <SCORE.SYSTEM.SOLV>
0

>  <SCORE.SYSTEM.norm>
0

>  <SCORE.heavy>
10

>  <SCORE.norm>
-1.60011

>  <RMSD>
26.620

$$$$
lig.pdb
 OpenBabel11021811523D
libRbt.so/2013.1/901 2013/11/27
 10 11  0  0  0  0  0  0  0  0999 V2000
  -10.2819   29.6810   -5.9328 N   0  0  0  0  0  0  0  0  0  0  0  0
  -10.3203   28.3300   -6.1432 C   0  0  0  0  0  0  0  0  0  0  0  0
   -9.3088   27.8735   -6.8423 N   0  0  0  0  0  0  0  0  0  0  0  0
   -8.5540   29.0028   -7.1111 C   0  0  0  0  0  0  0  0  0  0  0  0
   -7.3495   29.1930   -7.8132 C   0  0  0  0  0  0  0  0  0  0  0  0
   -6.6780   28.1970   -8.4005 N   0  0  0  0  0  0  0  0  0  0  0  0
   -6.8624   30.4506   -7.8931 N   0  0  0  0  0  0  0  0  0  0  0  0
   -7.5408   31.4428   -7.3061 C   0  0  0  0  0  0  0  0  0  0  0  0
   -8.6808   31.3865   -6.6185 N   0  0  0  0  0  0  0  0  0  0  0  0
   -9.1390   30.1261   -6.5573 C   0  0  0  0  0  0  0  0  0  0  0  0
  1 10  1  0  0  0  0
  2  3  2  0  0  0  0
  2  1  1  0  0  0  0
  3  4  1  0  0  0  0
  4 10  2  0  0  0  0
  4  5  1  0  0  0  0
  5  7  2  0  0  0  0
  6  5  1  0  0  0  0
  7  8  1  0  0  0  0
  9  8  2  0  0  0  0
 10  9  1  0  0  0  0
M  END
>  <CHROM.1>
-8.44010192,29.54392715,-7.08531910,3.00568297,-0.54317813,-2.96960404

>  <Name>
lig.pdb

>  <RI>
2.34257e+07

>  <Rbt.Current_Directory>
/home/itssahil/PROJECTS/Mol_Feturizer/New_Systems/rnas/5uza

>  <Rbt.Executable>
rbdock ($Id: //depot/dev/client3/rdock/2013.1/src/exe/rbdock.cxx#4 $)

>  <Rbt.Library>
libRbt.so (2013.1, Build901 2013/11/27)

>  <Rbt.Parameter_File>
/export/apps/rDock/src/rDock_2013.1_src/data/scripts/dock_solv.prm

>  <Rbt.Receptor>
prm/blind_docking_40.prm

>  <SCORE>
-14.842

>  <SCORE.INTER>
-14.9846

>  <SCORE.INTER.CONST>
1

>  <SCORE.INTER.POLAR>
-1.23002

>  <SCORE.INTER.ROT>
0

>  <SCORE.INTER.SOLV>
9.98898

>  <SCORE.INTER.VDW>
-12.8193

>  <SCORE.INTER.norm>
-1.49846

>  <SCORE.INTRA>
0

>  <SCORE.INTRA.DIHEDRAL>
0

>  <SCORE.INTRA.DIHEDRAL.0>
0

>  <SCORE.INTRA.POLAR>
0

>  <SCORE.INTRA.POLAR.0>
0

>  <SCORE.INTRA.REPUL>
0

>  <SCORE.INTRA.REPUL.0>
0

>  <SCORE.INTRA.SOLV>
0

>  <SCORE.INTRA.SOLV.lig_0>
-14.8845

>  <SCORE.INTRA.VDW>
0

>  <SCORE.INTRA.VDW.0>
0

>  <SCORE.INTRA.norm>
0

>  <SCORE.RESTR>
0.142662

>  <SCORE.RESTR.CAVITY>
0.142662

>  <SCORE.RESTR.norm>
0.0142662

>  <SCORE.SYSTEM>
0

>  <SCORE.SYSTEM.CONST>
0

>  <SCORE.SYSTEM.DIHEDRAL>
0

>  <SCORE.SYSTEM.SOLV>
0

>  <SCORE.SYSTEM.norm>
0

>  <SCORE.heavy>
10

>  <SCORE.norm>
-1.4842

>  <RMSD>
26.949

$$$$
lig.pdb
 OpenBabel11021811523D
libRbt.so/2013.1/901 2013/11/27
 10 11  0  0  0  0  0  0  0  0999 V2000
  -10.0618   30.4079   -5.7890 N   0  0  0  0  0  0  0  0  0  0  0  0
  -10.4487   29.0989   -5.7010 C   0  0  0  0  0  0  0  0  0  0  0  0
   -9.6304   28.2633   -6.2945 N   0  0  0  0  0  0  0  0  0  0  0  0
   -8.6375   29.0796   -6.8094 C   0  0  0  0  0  0  0  0  0  0  0  0
   -7.4721   28.8042   -7.5480 C   0  0  0  0  0  0  0  0  0  0  0  0
   -7.1091   27.5698   -7.9120 N   0  0  0  0  0  0  0  0  0  0  0  0
   -6.6937   29.8497   -7.9037 N   0  0  0  0  0  0  0  0  0  0  0  0
   -7.0642   31.0822   -7.5392 C   0  0  0  0  0  0  0  0  0  0  0  0
   -8.1350   31.4644   -6.8444 N   0  0  0  0  0  0  0  0  0  0  0  0
   -8.8873   30.4050   -6.5067 C   0  0  0  0  0  0  0  0  0  0  0  0
  1 10  1  0  0  0  0
  2  3  2  0  0  0  0
  2  1  1  0  0  0  0
  3  4  1  0  0  0  0
  4 10  2  0  0  0  0
  4  5  1  0  0  0  0
  5  7  2  0  0  0  0
  6  5  1  0  0  0  0
  7  8  1  0  0  0  0
  9  8  2  0  0  0  0
 10  9  1  0  0  0  0
M  END
>  <CHROM.1>
-8.39121286,29.56652107,-6.90276856,-2.97324369,-0.54451971,-3.02864591

>  <Name>
lig.pdb

>  <RI>
2.34257e+07

>  <Rbt.Current_Directory>
/home/itssahil/PROJECTS/Mol_Feturizer/New_Systems/rnas/5uza

>  <Rbt.Executable>
rbdock ($Id: //depot/dev/client3/rdock/2013.1/src/exe/rbdock.cxx#4 $)

>  <Rbt.Library>
libRbt.so (2013.1, Build901 2013/11/27)

>  <Rbt.Parameter_File>
/export/apps/rDock/src/rDock_2013.1_src/data/scripts/dock_solv.prm

>  <Rbt.Receptor>
prm/blind_docking_40.prm

>  <SCORE>
-13.8821

>  <SCORE.INTER>
-13.8821

>  <SCORE.INTER.CONST>
1

>  <SCORE.INTER.POLAR>
-1.22126

>  <SCORE.INTER.ROT>
0

>  <SCORE.INTER.SOLV>
9.94886

>  <SCORE.INTER.VDW>
-12.1001

>  <SCORE.INTER.norm>
-1.38821

>  <SCORE.INTRA>
0

>  <SCORE.INTRA.DIHEDRAL>
0

>  <SCORE.INTRA.DIHEDRAL.0>
0

>  <SCORE.INTRA.POLAR>
0

>  <SCORE.INTRA.POLAR.0>
0

>  <SCORE.INTRA.REPUL>
0

>  <SCORE.INTRA.REPUL.0>
0

>  <SCORE.INTRA.SOLV>
0

>  <SCORE.INTRA.SOLV.lig_0>
-14.8845

>  <SCORE.INTRA.VDW>
0

>  <SCORE.INTRA.VDW.0>
0

>  <SCORE.INTRA.norm>
0

>  <SCORE.RESTR>
0

>  <SCORE.RESTR.CAVITY>
0

>  <SCORE.RESTR.norm>
0

>  <SCORE.SYSTEM>
0

>  <SCORE.SYSTEM.CONST>
0

>  <SCORE.SYSTEM.DIHEDRAL>
0

>  <SCORE.SYSTEM.SOLV>
0

>  <SCORE.SYSTEM.norm>
0

>  <SCORE.heavy>
10

>  <SCORE.norm>
-1.38821

>  <RMSD>
27.076

$$$$
lig.pdb
 OpenBabel11021811523D
libRbt.so/2013.1/901 2013/11/27
 10 11  0  0  0  0  0  0  0  0999 V2000
   -8.4726   32.1401   -8.3338 N   0  0  0  0  0  0  0  0  0  0  0  0
   -7.1483   32.0117   -8.6512 C   0  0  0  0  0  0  0  0  0  0  0  0
   -6.5154   31.1158   -7.9320 N   0  0  0  0  0  0  0  0  0  0  0  0
   -7.4908   30.6222   -7.0822 C   0  0  0  0  0  0  0  0  0  0  0  0
   -7.4615   29.6419   -6.0733 C   0  0  0  0  0  0  0  0  0  0  0  0
   -6.3573   28.9656   -5.7400 N   0  0  0  0  0  0  0  0  0  0  0  0
   -8.6129   29.3858   -5.4145 N   0  0  0  0  0  0  0  0  0  0  0  0
   -9.7131   30.0682   -5.7507 C   0  0  0  0  0  0  0  0  0  0  0  0
   -9.8634   31.0104   -6.6809 N   0  0  0  0  0  0  0  0  0  0  0  0
   -8.7039   31.2422   -7.3165 C   0  0  0  0  0  0  0  0  0  0  0  0
  1 10  1  0  0  0  0
  2  3  2  0  0  0  0
  2  1  1  0  0  0  0
  3  4  1  0  0  0  0
  4 10  2  0  0  0  0
  4  5  1  0  0  0  0
  5  7  2  0  0  0  0
  6  5  1  0  0  0  0
  7  8  1  0  0  0  0
  9  8  2  0  0  0  0
 10  9  1  0  0  0  0
M  END
>  <CHROM.1>
-8.00416116,30.59134114,-6.87732867,1.50453875,0.23122655,-0.80653217

>  <Name>
lig.pdb

>  <RI>
2.34257e+07

>  <Rbt.Current_Directory>
/home/itssahil/PROJECTS/Mol_Feturizer/New_Systems/rnas/5uza

>  <Rbt.Executable>
rbdock ($Id: //depot/dev/client3/rdock/2013.1/src/exe/rbdock.cxx#4 $)

>  <Rbt.Library>
libRbt.so (2013.1, Build901 2013/11/27)

>  <Rbt.Parameter_File>
/export/apps/rDock/src/rDock_2013.1_src/data/scripts/dock_solv.prm

>  <Rbt.Receptor>
prm/blind_docking_40.prm

>  <SCORE>
-19.8887

>  <SCORE.INTER>
-19.8887

>  <SCORE.INTER.CONST>
1

>  <SCORE.INTER.POLAR>
-1.99294

>  <SCORE.INTER.ROT>
0

>  <SCORE.INTER.SOLV>
10.2064

>  <SCORE.INTER.VDW>
-13.6181

>  <SCORE.INTER.norm>
-1.98887

>  <SCORE.INTRA>
0

>  <SCORE.INTRA.DIHEDRAL>
0

>  <SCORE.INTRA.DIHEDRAL.0>
0

>  <SCORE.INTRA.POLAR>
0

>  <SCORE.INTRA.POLAR.0>
0

>  <SCORE.INTRA.REPUL>
0

>  <SCORE.INTRA.REPUL.0>
0

>  <SCORE.INTRA.SOLV>
0

>  <SCORE.INTRA.SOLV.lig_0>
-14.8845

>  <SCORE.INTRA.VDW>
0

>  <SCORE.INTRA.VDW.0>
0

>  <SCORE.INTRA.norm>
0

>  <SCORE.RESTR>
0

>  <SCORE.RESTR.CAVITY>
0

>  <SCORE.RESTR.norm>
0

>  <SCORE.SYSTEM>
0

>  <SCORE.SYSTEM.CONST>
0

>  <SCORE.SYSTEM.DIHEDRAL>
0

>  <SCORE.SYSTEM.SOLV>
0

>  <SCORE.SYSTEM.norm>
0

>  <SCORE.heavy>
10

>  <SCORE.norm>
-1.98887

>  <RMSD>
27.748

$$$$
lig.pdb
 OpenBabel11021811523D
libRbt.so/2013.1/901 2013/11/27
 10 11  0  0  0  0  0  0  0  0999 V2000
   -8.4348   32.1151   -8.3715 N   0  0  0  0  0  0  0  0  0  0  0  0
   -7.1112   31.9730   -8.6859 C   0  0  0  0  0  0  0  0  0  0  0  0
   -6.4848   31.0839   -7.9526 N   0  0  0  0  0  0  0  0  0  0  0  0
   -7.4642   30.6099   -7.0963 C   0  0  0  0  0  0  0  0  0  0  0  0
   -7.4422   29.6449   -6.0725 C   0  0  0  0  0  0  0  0  0  0  0  0
   -6.3428   28.9662   -5.7280 N   0  0  0  0  0  0  0  0  0  0  0  0
   -8.5958   29.4065   -5.4109 N   0  0  0  0  0  0  0  0  0  0  0  0
   -9.6911   30.0911   -5.7584 C   0  0  0  0  0  0  0  0  0  0  0  0
   -9.8345   31.0200   -6.7029 N   0  0  0  0  0  0  0  0  0  0  0  0
   -8.6729   31.2344   -7.3410 C   0  0  0  0  0  0  0  0  0  0  0  0
  1 10  1  0  0  0  0
  2  3  2  0  0  0  0
  2  1  1  0  0  0  0
  3  4  1  0  0  0  0
  4 10  2  0  0  0  0
  4  5  1  0  0  0  0
  5  7  2  0  0  0  0
  6  5  1  0  0  0  0
  7  8  1  0  0  0  0
  9  8  2  0  0  0  0
 10  9  1  0  0  0  0
M  END
>  <CHROM.1>
-7.97791130,30.58555986,-6.89132923,1.49919802,0.23556213,-0.82050293

>  <Name>
lig.pdb

>  <RI>
0

>  <Rbt.Current_Directory>
/home/itssahil/PROJECTS/Mol_Feturizer/New_Systems/rnas/5uza

>  <Rbt.Executable>
rbdock ($Id: //depot/dev/client3/rdock/2013.1/src/exe/rbdock.cxx#4 $)

>  <Rbt.Library>
libRbt.so (2013.1, Build901 2013/11/27)

>  <Rbt.Parameter_File>
/export/apps/rDock/src/rDock_2013.1_src/data/scripts/dock_solv.prm

>  <Rbt.Receptor>
prm/blind_docking_60.prm

>  <SCORE>
-19.9482

>  <SCORE.INTER>
-19.9483

>  <SCORE.INTER.CONST>
1

>  <SCORE.INTER.POLAR>
-2.03201

>  <SCORE.INTER.ROT>
0

>  <SCORE.INTER.SOLV>
10.2901

>  <SCORE.INTER.VDW>
-13.5555

>  <SCORE.INTER.norm>
-1.99483

>  <SCORE.INTRA>
0

>  <SCORE.INTRA.DIHEDRAL>
0

>  <SCORE.INTRA.DIHEDRAL.0>
0

>  <SCORE.INTRA.POLAR>
0

>  <SCORE.INTRA.POLAR.0>
0

>  <SCORE.INTRA.REPUL>
0

>  <SCORE.INTRA.REPUL.0>
0

>  <SCORE.INTRA.SOLV>
0

>  <SCORE.INTRA.SOLV.lig_0>
-14.8845

>  <SCORE.INTRA.VDW>
0

>  <SCORE.INTRA.VDW.0>
0

>  <SCORE.INTRA.norm>
0

>  <SCORE.RESTR>
9.92207e-05

>  <SCORE.RESTR.CAVITY>
9.92207e-05

>  <SCORE.RESTR.norm>
9.92207e-06

>  <SCORE.SYSTEM>
0

>  <SCORE.SYSTEM.CONST>
0

>  <SCORE.SYSTEM.DIHEDRAL>
0

>  <SCORE.SYSTEM.SOLV>
0

>  <SCORE.SYSTEM.norm>
0

>  <SCORE.heavy>
10

>  <SCORE.norm>
-1.99482

>  <RMSD>
27.761

$$$$
lig.pdb
 OpenBabel11021811523D
libRbt.so/2013.1/901 2013/11/27
 10 11  0  0  0  0  0  0  0  0999 V2000
   -8.4351   32.1364   -8.3532 N   0  0  0  0  0  0  0  0  0  0  0  0
   -7.1106   31.9986   -8.6660 C   0  0  0  0  0  0  0  0  0  0  0  0
   -6.4848   31.1039   -7.9392 N   0  0  0  0  0  0  0  0  0  0  0  0
   -7.4654   30.6212   -7.0892 C   0  0  0  0  0  0  0  0  0  0  0  0
   -7.4444   29.6473   -6.0739 C   0  0  0  0  0  0  0  0  0  0  0  0
   -6.3450   28.9670   -5.7330 N   0  0  0  0  0  0  0  0  0  0  0  0
   -8.5991   29.4018   -5.4169 N   0  0  0  0  0  0  0  0  0  0  0  0
   -9.6945   30.0881   -5.7606 C   0  0  0  0  0  0  0  0  0  0  0  0
   -9.8370   31.0251   -6.6973 N   0  0  0  0  0  0  0  0  0  0  0  0
   -8.6743   31.2464   -7.3310 C   0  0  0  0  0  0  0  0  0  0  0  0
  1 10  1  0  0  0  0
  2  3  2  0  0  0  0
  2  1  1  0  0  0  0
  3  4  1  0  0  0  0
  4 10  2  0  0  0  0
  4  5  1  0  0  0  0
  5  7  2  0  0  0  0
  6  5  1  0  0  0  0
  7  8  1  0  0  0  0
  9  8  2  0  0  0  0
 10  9  1  0  0  0  0
M  END
>  <CHROM.1>
-7.97949298,30.59448609,-6.88554820,1.49843971,0.23323255,-0.81154347

>  <Name>
lig.pdb

>  <RI>
2.34257e+07

>  <Rbt.Current_Directory>
/home/itssahil/PROJECTS/Mol_Feturizer/New_Systems/rnas/5uza

>  <Rbt.Executable>
rbdock ($Id: //depot/dev/client3/rdock/2013.1/src/exe/rbdock.cxx#4 $)

>  <Rbt.Library>
libRbt.so (2013.1, Build901 2013/11/27)

>  <Rbt.Parameter_File>
/export/apps/rDock/src/rDock_2013.1_src/data/scripts/dock_solv.prm

>  <Rbt.Receptor>
prm/blind_docking_40.prm

>  <SCORE>
-19.9834

>  <SCORE.INTER>
-19.9834

>  <SCORE.INTER.CONST>
1

>  <SCORE.INTER.POLAR>
-2.01401

>  <SCORE.INTER.ROT>
0

>  <SCORE.INTER.SOLV>
10.2563

>  <SCORE.INTER.VDW>
-13.6277

>  <SCORE.INTER.norm>
-1.99834

>  <SCORE.INTRA>
0

>  <SCORE.INTRA.DIHEDRAL>
0

>  <SCORE.INTRA.DIHEDRAL.0>
0

>  <SCORE.INTRA.POLAR>
0

>  <SCORE.INTRA.POLAR.0>
0

>  <SCORE.INTRA.REPUL>
0

>  <SCORE.INTRA.REPUL.0>
0

>  <SCORE.INTRA.SOLV>
0

>  <SCORE.INTRA.SOLV.lig_0>
-14.8845

>  <SCORE.INTRA.VDW>
0

>  <SCORE.INTRA.VDW.0>
0

>  <SCORE.INTRA.norm>
0

>  <SCORE.RESTR>
0

>  <SCORE.RESTR.CAVITY>
0

>  <SCORE.RESTR.norm>
0

>  <SCORE.SYSTEM>
0

>  <SCORE.SYSTEM.CONST>
0

>  <SCORE.SYSTEM.DIHEDRAL>
0

>  <SCORE.SYSTEM.SOLV>
0

>  <SCORE.SYSTEM.norm>
0

>  <SCORE.heavy>
10

>  <SCORE.norm>
-1.99834

>  <RMSD>
27.766

$$$$
lig.pdb
 OpenBabel11021811523D
libRbt.so/2013.1/901 2013/11/27
 10 11  0  0  0  0  0  0  0  0999 V2000
   -8.4250   32.1862   -8.3340 N   0  0  0  0  0  0  0  0  0  0  0  0
   -7.1024   32.0367   -8.6491 C   0  0  0  0  0  0  0  0  0  0  0  0
   -6.4857   31.1291   -7.9305 N   0  0  0  0  0  0  0  0  0  0  0  0
   -7.4708   30.6499   -7.0836 C   0  0  0  0  0  0  0  0  0  0  0  0
   -7.4595   29.6673   -6.0766 C   0  0  0  0  0  0  0  0  0  0  0  0
   -6.3672   28.9722   -5.7425 N   0  0  0  0  0  0  0  0  0  0  0  0
   -8.6163   29.4288   -5.4206 N   0  0  0  0  0  0  0  0  0  0  0  0
   -9.7044   30.1299   -5.7575 C   0  0  0  0  0  0  0  0  0  0  0  0
   -9.8375   31.0763   -6.6861 N   0  0  0  0  0  0  0  0  0  0  0  0
   -8.6730   31.2903   -7.3190 C   0  0  0  0  0  0  0  0  0  0  0  0
  1 10  1  0  0  0  0
  2  3  2  0  0  0  0
  2  1  1  0  0  0  0
  3  4  1  0  0  0  0
  4 10  2  0  0  0  0
  4  5  1  0  0  0  0
  5  7  2  0  0  0  0
  6  5  1  0  0  0  0
  7  8  1  0  0  0  0
  9  8  2  0  0  0  0
 10  9  1  0  0  0  0
M  END
>  <CHROM.1>
-7.98495898,30.62709826,-6.87976638,1.49136968,0.24170897,-0.80144891

>  <Name>
lig.pdb

>  <RI>
2.34257e+07

>  <Rbt.Current_Directory>
/home/itssahil/PROJECTS/Mol_Feturizer/New_Systems/rnas/5uza

>  <Rbt.Executable>
rbdock ($Id: //depot/dev/client3/rdock/2013.1/src/exe/rbdock.cxx#4 $)

>  <Rbt.Library>
libRbt.so (2013.1, Build901 2013/11/27)

>  <Rbt.Parameter_File>
/export/apps/rDock/src/rDock_2013.1_src/data/scripts/dock_solv.prm

>  <Rbt.Receptor>
prm/blind_docking_40.prm

>  <SCORE>
-19.9625

>  <SCORE.INTER>
-19.9625

>  <SCORE.INTER.CONST>
1

>  <SCORE.INTER.POLAR>
-1.98585

>  <SCORE.INTER.ROT>
0

>  <SCORE.INTER.SOLV>
10.2305

>  <SCORE.INTER.VDW>
-13.699

>  <SCORE.INTER.norm>
-1.99625

>  <SCORE.INTRA>
0

>  <SCORE.INTRA.DIHEDRAL>
0

>  <SCORE.INTRA.DIHEDRAL.0>
0

>  <SCORE.INTRA.POLAR>
0

>  <SCORE.INTRA.POLAR.0>
0

>  <SCORE.INTRA.REPUL>
0

>  <SCORE.INTRA.REPUL.0>
0

>  <SCORE.INTRA.SOLV>
0

>  <SCORE.INTRA.SOLV.lig_0>
-14.8845

>  <SCORE.INTRA.VDW>
0

>  <SCORE.INTRA.VDW.0>
0

>  <SCORE.INTRA.norm>
0

>  <SCORE.RESTR>
0

>  <SCORE.RESTR.CAVITY>
0

>  <SCORE.RESTR.norm>
0

>  <SCORE.SYSTEM>
0

>  <SCORE.SYSTEM.CONST>
0

>  <SCORE.SYSTEM.DIHEDRAL>
0

>  <SCORE.SYSTEM.SOLV>
0

>  <SCORE.SYSTEM.norm>
0

>  <SCORE.heavy>
10

>  <SCORE.norm>
-1.99625

>  <RMSD>
27.780

$$$$
lig.pdb
 OpenBabel11021811523D
libRbt.so/2013.1/901 2013/11/27
 10 11  0  0  0  0  0  0  0  0999 V2000
   -8.4135   32.1629   -8.3518 N   0  0  0  0  0  0  0  0  0  0  0  0
   -7.0909   32.0095   -8.6648 C   0  0  0  0  0  0  0  0  0  0  0  0
   -6.4754   31.1075   -7.9382 N   0  0  0  0  0  0  0  0  0  0  0  0
   -7.4614   30.6364   -7.0879 C   0  0  0  0  0  0  0  0  0  0  0  0
   -7.4517   29.6623   -6.0726 C   0  0  0  0  0  0  0  0  0  0  0  0
   -6.3602   28.9691   -5.7320 N   0  0  0  0  0  0  0  0  0  0  0  0
   -8.6090   29.4305   -5.4153 N   0  0  0  0  0  0  0  0  0  0  0  0
   -9.6964   30.1297   -5.7588 C   0  0  0  0  0  0  0  0  0  0  0  0
   -9.8280   31.0682   -6.6954 N   0  0  0  0  0  0  0  0  0  0  0  0
   -8.6629   31.2758   -7.3294 C   0  0  0  0  0  0  0  0  0  0  0  0
  1 10  1  0  0  0  0
  2  3  2  0  0  0  0
  2  1  1  0  0  0  0
  3  4  1  0  0  0  0
  4 10  2  0  0  0  0
  4  5  1  0  0  0  0
  5  7  2  0  0  0  0
  6  5  1  0  0  0  0
  7  8  1  0  0  0  0
  9  8  2  0  0  0  0
 10  9  1  0  0  0  0
M  END
>  <CHROM.1>
-7.97576018,30.61576937,-6.88414215,1.49026670,0.24195646,-0.80964424

>  <Name>
lig.pdb

>  <RI>
2.34257e+07

>  <Rbt.Current_Directory>
/home/itssahil/PROJECTS/Mol_Feturizer/New_Systems/rnas/5uza

>  <Rbt.Executable>
rbdock ($Id: //depot/dev/client3/rdock/2013.1/src/exe/rbdock.cxx#4 $)

>  <Rbt.Library>
libRbt.so (2013.1, Build901 2013/11/27)

>  <Rbt.Parameter_File>
/export/apps/rDock/src/rDock_2013.1_src/data/scripts/dock_solv.prm

>  <Rbt.Receptor>
prm/blind_docking_40.prm

>  <SCORE>
-19.9704

>  <SCORE.INTER>
-19.9704

>  <SCORE.INTER.CONST>
1

>  <SCORE.INTER.POLAR>
-2.00593

>  <SCORE.INTER.ROT>
0

>  <SCORE.INTER.SOLV>
10.2742

>  <SCORE.INTER.VDW>
-13.6519

>  <SCORE.INTER.norm>
-1.99704

>  <SCORE.INTRA>
0

>  <SCORE.INTRA.DIHEDRAL>
0

>  <SCORE.INTRA.DIHEDRAL.0>
0

>  <SCORE.INTRA.POLAR>
0

>  <SCORE.INTRA.POLAR.0>
0

>  <SCORE.INTRA.REPUL>
0

>  <SCORE.INTRA.REPUL.0>
0

>  <SCORE.INTRA.SOLV>
0

>  <SCORE.INTRA.SOLV.lig_0>
-14.8845

>  <SCORE.INTRA.VDW>
0

>  <SCORE.INTRA.VDW.0>
0

>  <SCORE.INTRA.norm>
0

>  <SCORE.RESTR>
0

>  <SCORE.RESTR.CAVITY>
0

>  <SCORE.RESTR.norm>
0

>  <SCORE.SYSTEM>
0

>  <SCORE.SYSTEM.CONST>
0

>  <SCORE.SYSTEM.DIHEDRAL>
0

>  <SCORE.SYSTEM.SOLV>
0

>  <SCORE.SYSTEM.norm>
0

>  <SCORE.heavy>
10

>  <SCORE.norm>
-1.99704

>  <RMSD>
27.780

$$$$
lig.pdb
 OpenBabel11021811523D
libRbt.so/2013.1/901 2013/11/27
 10 11  0  0  0  0  0  0  0  0999 V2000
   -8.4144   32.1678   -8.3442 N   0  0  0  0  0  0  0  0  0  0  0  0
   -7.0891   32.0257   -8.6512 C   0  0  0  0  0  0  0  0  0  0  0  0
   -6.4713   31.1228   -7.9278 N   0  0  0  0  0  0  0  0  0  0  0  0
   -7.4585   30.6388   -7.0861 C   0  0  0  0  0  0  0  0  0  0  0  0
   -7.4475   29.6576   -6.0778 C   0  0  0  0  0  0  0  0  0  0  0  0
   -6.3531   28.9694   -5.7363 N   0  0  0  0  0  0  0  0  0  0  0  0
   -8.6067   29.4130   -5.4284 N   0  0  0  0  0  0  0  0  0  0  0  0
   -9.6970   30.1072   -5.7727 C   0  0  0  0  0  0  0  0  0  0  0  0
   -9.8301   31.0515   -6.7033 N   0  0  0  0  0  0  0  0  0  0  0  0
   -8.6631   31.2717   -7.3295 C   0  0  0  0  0  0  0  0  0  0  0  0
  1 10  1  0  0  0  0
  2  3  2  0  0  0  0
  2  1  1  0  0  0  0
  3  4  1  0  0  0  0
  4 10  2  0  0  0  0
  4  5  1  0  0  0  0
  5  7  2  0  0  0  0
  6  5  1  0  0  0  0
  7  8  1  0  0  0  0
  9  8  2  0  0  0  0
 10  9  1  0  0  0  0
M  END
>  <CHROM.1>
-7.97378661,30.61317479,-6.88530969,1.49120310,0.23327458,-0.80270945

>  <Name>
lig.pdb

>  <RI>
2.34257e+07

>  <Rbt.Current_Directory>
/home/itssahil/PROJECTS/Mol_Feturizer/New_Systems/rnas/5uza

>  <Rbt.Executable>
rbdock ($Id: //depot/dev/client3/rdock/2013.1/src/exe/rbdock.cxx#4 $)

>  <Rbt.Library>
libRbt.so (2013.1, Build901 2013/11/27)

>  <Rbt.Parameter_File>
/export/apps/rDock/src/rDock_2013.1_src/data/scripts/dock_solv.prm

>  <Rbt.Receptor>
prm/blind_docking_40.prm

>  <SCORE>
-19.972

>  <SCORE.INTER>
-19.972

>  <SCORE.INTER.CONST>
1

>  <SCORE.INTER.POLAR>
-1.99398

>  <SCORE.INTER.ROT>
0

>  <SCORE.INTER.SOLV>
10.2243

>  <SCORE.INTER.VDW>
-13.6762

>  <SCORE.INTER.norm>
-1.9972

>  <SCORE.INTRA>
0

>  <SCORE.INTRA.DIHEDRAL>
0

>  <SCORE.INTRA.DIHEDRAL.0>
0

>  <SCORE.INTRA.POLAR>
0

>  <SCORE.INTRA.POLAR.0>
0

>  <SCORE.INTRA.REPUL>
0

>  <SCORE.INTRA.REPUL.0>
0

>  <SCORE.INTRA.SOLV>
0

>  <SCORE.INTRA.SOLV.lig_0>
-14.8845

>  <SCORE.INTRA.VDW>
0

>  <SCORE.INTRA.VDW.0>
0

>  <SCORE.INTRA.norm>
0

>  <SCORE.RESTR>
0

>  <SCORE.RESTR.CAVITY>
0

>  <SCORE.RESTR.norm>
0

>  <SCORE.SYSTEM>
0

>  <SCORE.SYSTEM.CONST>
0

>  <SCORE.SYSTEM.DIHEDRAL>
0

>  <SCORE.SYSTEM.SOLV>
0

>  <SCORE.SYSTEM.norm>
0

>  <SCORE.heavy>
10

>  <SCORE.norm>
-1.9972

>  <RMSD>
27.781

$$$$
lig.pdb
 OpenBabel11021811523D
libRbt.so/2013.1/901 2013/11/27
 10 11  0  0  0  0  0  0  0  0999 V2000
   -8.1382   32.3957   -7.9402 N   0  0  0  0  0  0  0  0  0  0  0  0
   -6.7725   32.4434   -7.8813 C   0  0  0  0  0  0  0  0  0  0  0  0
   -6.2301   31.3986   -7.3029 N   0  0  0  0  0  0  0  0  0  0  0  0
   -7.3144   30.6103   -6.9564 C   0  0  0  0  0  0  0  0  0  0  0  0
   -7.4124   29.3622   -6.3143 C   0  0  0  0  0  0  0  0  0  0  0  0
   -6.3499   28.6724   -5.8862 N   0  0  0  0  0  0  0  0  0  0  0  0
   -8.6482   28.8504   -6.1239 N   0  0  0  0  0  0  0  0  0  0  0  0
   -9.7069   29.5470   -6.5517 C   0  0  0  0  0  0  0  0  0  0  0  0
   -9.7398   30.7277   -7.1684 N   0  0  0  0  0  0  0  0  0  0  0  0
   -8.4988   31.2095   -7.3424 C   0  0  0  0  0  0  0  0  0  0  0  0
  1 10  1  0  0  0  0
  2  3  2  0  0  0  0
  2  1  1  0  0  0  0
  3  4  1  0  0  0  0
  4 10  2  0  0  0  0
  4  5  1  0  0  0  0
  5  7  2  0  0  0  0
  6  5  1  0  0  0  0
  7  8  1  0  0  0  0
  9  8  2  0  0  0  0
 10  9  1  0  0  0  0
M  END
>  <CHROM.1>
-7.85390879,30.48930510,-6.92817477,1.41283226,-0.05478377,-0.48077969

>  <Name>
lig.pdb

>  <RI>
2.34257e+07

>  <Rbt.Current_Directory>
/home/itssahil/PROJECTS/Mol_Feturizer/New_Systems/rnas/5uza

>  <Rbt.Executable>
rbdock ($Id: //depot/dev/client3/rdock/2013.1/src/exe/rbdock.cxx#4 $)

>  <Rbt.Library>
libRbt.so (2013.1, Build901 2013/11/27)

>  <Rbt.Parameter_File>
/export/apps/rDock/src/rDock_2013.1_src/data/scripts/dock_solv.prm

>  <Rbt.Receptor>
prm/blind_docking_40.prm

>  <SCORE>
-15.8493

>  <SCORE.INTER>
-15.8493

>  <SCORE.INTER.CONST>
1

>  <SCORE.INTER.POLAR>
-1.11806

>  <SCORE.INTER.ROT>
0

>  <SCORE.INTER.SOLV>
8.40959

>  <SCORE.INTER.VDW>
-13.2426

>  <SCORE.INTER.norm>
-1.58493

>  <SCORE.INTRA>
0

>  <SCORE.INTRA.DIHEDRAL>
0

>  <SCORE.INTRA.DIHEDRAL.0>
0

>  <SCORE.INTRA.POLAR>
0

>  <SCORE.INTRA.POLAR.0>
0

>  <SCORE.INTRA.REPUL>
0

>  <SCORE.INTRA.REPUL.0>
0

>  <SCORE.INTRA.SOLV>
0

>  <SCORE.INTRA.SOLV.lig_0>
-14.8845

>  <SCORE.INTRA.VDW>
0

>  <SCORE.INTRA.VDW.0>
0

>  <SCORE.INTRA.norm>
0

>  <SCORE.RESTR>
0

>  <SCORE.RESTR.CAVITY>
0

>  <SCORE.RESTR.norm>
0

>  <SCORE.SYSTEM>
0

>  <SCORE.SYSTEM.CONST>
0

>  <SCORE.SYSTEM.DIHEDRAL>
0

>  <SCORE.SYSTEM.SOLV>
0

>  <SCORE.SYSTEM.norm>
0

>  <SCORE.heavy>
10

>  <SCORE.norm>
-1.58493

>  <RMSD>
27.826

$$$$
lig.pdb
 OpenBabel11021811523D
libRbt.so/2013.1/901 2013/11/27
 10 11  0  0  0  0  0  0  0  0999 V2000
   -7.4638   32.4011   -7.0320 N   0  0  0  0  0  0  0  0  0  0  0  0
   -6.6930   32.4159   -8.1619 C   0  0  0  0  0  0  0  0  0  0  0  0
   -6.4042   31.2221   -8.6221 N   0  0  0  0  0  0  0  0  0  0  0  0
   -7.0273   30.3632   -7.7324 C   0  0  0  0  0  0  0  0  0  0  0  0
   -7.1052   28.9599   -7.6662 C   0  0  0  0  0  0  0  0  0  0  0  0
   -6.5153   28.1502   -8.5517 N   0  0  0  0  0  0  0  0  0  0  0  0
   -7.8110   28.4186   -6.6493 N   0  0  0  0  0  0  0  0  0  0  0  0
   -8.3960   29.2342   -5.7651 C   0  0  0  0  0  0  0  0  0  0  0  0
   -8.3942   30.5661   -5.7246 N   0  0  0  0  0  0  0  0  0  0  0  0
   -7.6857   31.0732   -6.7459 C   0  0  0  0  0  0  0  0  0  0  0  0
  1 10  1  0  0  0  0
  2  3  2  0  0  0  0
  2  1  1  0  0  0  0
  3  4  1  0  0  0  0
  4 10  2  0  0  0  0
  4  5  1  0  0  0  0
  5  7  2  0  0  0  0
  6  5  1  0  0  0  0
  7  8  1  0  0  0  0
  9  8  2  0  0  0  0
 10  9  1  0  0  0  0
M  END
>  <CHROM.1>
-7.33474013,30.24312048,-7.28798135,1.38687533,0.97165536,0.03109992

>  <Name>
lig.pdb

>  <RI>
2.34257e+07

>  <Rbt.Current_Directory>
/home/itssahil/PROJECTS/Mol_Feturizer/New_Systems/rnas/5uza

>  <Rbt.Executable>
rbdock ($Id: //depot/dev/client3/rdock/2013.1/src/exe/rbdock.cxx#4 $)

>  <Rbt.Library>
libRbt.so (2013.1, Build901 2013/11/27)

>  <Rbt.Parameter_File>
/export/apps/rDock/src/rDock_2013.1_src/data/scripts/dock_solv.prm

>  <Rbt.Receptor>
prm/blind_docking_40.prm

>  <SCORE>
-19.9957

>  <SCORE.INTER>
-20.2751

>  <SCORE.INTER.CONST>
1

>  <SCORE.INTER.POLAR>
-2.72221

>  <SCORE.INTER.ROT>
0

>  <SCORE.INTER.SOLV>
11.3924

>  <SCORE.INTER.VDW>
-11.8402

>  <SCORE.INTER.norm>
-2.02751

>  <SCORE.INTRA>
0

>  <SCORE.INTRA.DIHEDRAL>
0

>  <SCORE.INTRA.DIHEDRAL.0>
0

>  <SCORE.INTRA.POLAR>
0

>  <SCORE.INTRA.POLAR.0>
0

>  <SCORE.INTRA.REPUL>
0

>  <SCORE.INTRA.REPUL.0>
0

>  <SCORE.INTRA.SOLV>
0

>  <SCORE.INTRA.SOLV.lig_0>
-14.8845

>  <SCORE.INTRA.VDW>
0

>  <SCORE.INTRA.VDW.0>
0

>  <SCORE.INTRA.norm>
0

>  <SCORE.RESTR>
0.2794

>  <SCORE.RESTR.CAVITY>
0.2794

>  <SCORE.RESTR.norm>
0.02794

>  <SCORE.SYSTEM>
0

>  <SCORE.SYSTEM.CONST>
0

>  <SCORE.SYSTEM.DIHEDRAL>
0

>  <SCORE.SYSTEM.SOLV>
0

>  <SCORE.SYSTEM.norm>
0

>  <SCORE.heavy>
10

>  <SCORE.norm>
-1.99957

>  <RMSD>
28.037

$$$$
lig.pdb
 OpenBabel11021811523D
libRbt.so/2013.1/901 2013/11/27
 10 11  0  0  0  0  0  0  0  0999 V2000
   -7.4586   32.4025   -7.0299 N   0  0  0  0  0  0  0  0  0  0  0  0
   -6.6872   32.4172   -8.1593 C   0  0  0  0  0  0  0  0  0  0  0  0
   -6.3997   31.2234   -8.6204 N   0  0  0  0  0  0  0  0  0  0  0  0
   -7.0243   30.3646   -7.7317 C   0  0  0  0  0  0  0  0  0  0  0  0
   -7.1040   28.9614   -7.6668 C   0  0  0  0  0  0  0  0  0  0  0  0
   -6.5146   28.1516   -8.5526 N   0  0  0  0  0  0  0  0  0  0  0  0
   -7.8110   28.4201   -6.6506 N   0  0  0  0  0  0  0  0  0  0  0  0
   -8.3954   29.2357   -5.7661 C   0  0  0  0  0  0  0  0  0  0  0  0
   -8.3920   30.5675   -5.7244 N   0  0  0  0  0  0  0  0  0  0  0  0
   -7.6823   31.0746   -6.7450 C   0  0  0  0  0  0  0  0  0  0  0  0
  1 10  1  0  0  0  0
  2  3  2  0  0  0  0
  2  1  1  0  0  0  0
  3  4  1  0  0  0  0
  4 10  2  0  0  0  0
  4  5  1  0  0  0  0
  5  7  2  0  0  0  0
  6  5  1  0  0  0  0
  7  8  1  0  0  0  0
  9  8  2  0  0  0  0
 10  9  1  0  0  0  0
M  END
>  <CHROM.1>
-7.33212822,30.24451829,-7.28757293,1.38470811,0.97109828,0.03371479

>  <Name>
lig.pdb

>  <RI>
2.34257e+07

>  <Rbt.Current_Directory>
/home/itssahil/PROJECTS/Mol_Feturizer/New_Systems/rnas/5uza

>  <Rbt.Executable>
rbdock ($Id: //depot/dev/client3/rdock/2013.1/src/exe/rbdock.cxx#4 $)

>  <Rbt.Library>
libRbt.so (2013.1, Build901 2013/11/27)

>  <Rbt.Parameter_File>
/export/apps/rDock/src/rDock_2013.1_src/data/scripts/dock_solv.prm

>  <Rbt.Receptor>
prm/blind_docking_40.prm

>  <SCORE>
-19.9931

>  <SCORE.INTER>
-20.2717

>  <SCORE.INTER.CONST>
1

>  <SCORE.INTER.POLAR>
-2.72636

>  <SCORE.INTER.ROT>
0

>  <SCORE.INTER.SOLV>
11.3975

>  <SCORE.INTER.VDW>
-11.8258

>  <SCORE.INTER.norm>
-2.02717

>  <SCORE.INTRA>
0

>  <SCORE.INTRA.DIHEDRAL>
0

>  <SCORE.INTRA.DIHEDRAL.0>
0

>  <SCORE.INTRA.POLAR>
0

>  <SCORE.INTRA.POLAR.0>
0

>  <SCORE.INTRA.REPUL>
0

>  <SCORE.INTRA.REPUL.0>
0

>  <SCORE.INTRA.SOLV>
0

>  <SCORE.INTRA.SOLV.lig_0>
-14.8845

>  <SCORE.INTRA.VDW>
0

>  <SCORE.INTRA.VDW.0>
0

>  <SCORE.INTRA.norm>
0

>  <SCORE.RESTR>
0.278613

>  <SCORE.RESTR.CAVITY>
0.278613

>  <SCORE.RESTR.norm>
0.0278613

>  <SCORE.SYSTEM>
0

>  <SCORE.SYSTEM.CONST>
0

>  <SCORE.SYSTEM.DIHEDRAL>
0

>  <SCORE.SYSTEM.SOLV>
0

>  <SCORE.SYSTEM.norm>
0

>  <SCORE.heavy>
10

>  <SCORE.norm>
-1.99931

>  <RMSD>
28.040

$$$$
lig.pdb
 OpenBabel11021811523D
libRbt.so/2013.1/901 2013/11/27
 10 11  0  0  0  0  0  0  0  0999 V2000
   -7.4598   32.4040   -7.0318 N   0  0  0  0  0  0  0  0  0  0  0  0
   -6.6908   32.4185   -8.1630 C   0  0  0  0  0  0  0  0  0  0  0  0
   -6.4031   31.2247   -8.6237 N   0  0  0  0  0  0  0  0  0  0  0  0
   -7.0249   30.3660   -7.7331 C   0  0  0  0  0  0  0  0  0  0  0  0
   -7.1032   28.9627   -7.6668 C   0  0  0  0  0  0  0  0  0  0  0  0
   -6.5148   28.1528   -8.5533 N   0  0  0  0  0  0  0  0  0  0  0  0
   -7.8074   28.4215   -6.6488 N   0  0  0  0  0  0  0  0  0  0  0  0
   -8.3908   29.2372   -5.7636 C   0  0  0  0  0  0  0  0  0  0  0  0
   -8.3886   30.5691   -5.7230 N   0  0  0  0  0  0  0  0  0  0  0  0
   -7.6816   31.0761   -6.7455 C   0  0  0  0  0  0  0  0  0  0  0  0
  1 10  1  0  0  0  0
  2  3  2  0  0  0  0
  2  1  1  0  0  0  0
  3  4  1  0  0  0  0
  4 10  2  0  0  0  0
  4  5  1  0  0  0  0
  5  7  2  0  0  0  0
  6  5  1  0  0  0  0
  7  8  1  0  0  0  0
  9  8  2  0  0  0  0
 10  9  1  0  0  0  0
M  END
>  <CHROM.1>
-7.33171844,30.24591795,-7.28814797,1.38632044,0.97326150,0.03160291

>  <Name>
lig.pdb

>  <RI>
2.34257e+07

>  <Rbt.Current_Directory>
/home/itssahil/PROJECTS/Mol_Feturizer/New_Systems/rnas/5uza

>  <Rbt.Executable>
rbdock ($Id: //depot/dev/client3/rdock/2013.1/src/exe/rbdock.cxx#4 $)

>  <Rbt.Library>
libRbt.so (2013.1, Build901 2013/11/27)

>  <Rbt.Parameter_File>
/export/apps/rDock/src/rDock_2013.1_src/data/scripts/dock_solv.prm

>  <Rbt.Receptor>
prm/blind_docking_40.prm

>  <SCORE>
-19.9894

>  <SCORE.INTER>
-20.2672

>  <SCORE.INTER.CONST>
1

>  <SCORE.INTER.POLAR>
-2.72705

>  <SCORE.INTER.ROT>
0

>  <SCORE.INTER.SOLV>
11.4036

>  <SCORE.INTER.VDW>
-11.8225

>  <SCORE.INTER.norm>
-2.02672

>  <SCORE.INTRA>
0

>  <SCORE.INTRA.DIHEDRAL>
0

>  <SCORE.INTRA.DIHEDRAL.0>
0

>  <SCORE.INTRA.POLAR>
0

>  <SCORE.INTRA.POLAR.0>
0

>  <SCORE.INTRA.REPUL>
0

>  <SCORE.INTRA.REPUL.0>
0

>  <SCORE.INTRA.SOLV>
0

>  <SCORE.INTRA.SOLV.lig_0>
-14.8845

>  <SCORE.INTRA.VDW>
0

>  <SCORE.INTRA.VDW.0>
0

>  <SCORE.INTRA.norm>
0

>  <SCORE.RESTR>
0.277852

>  <SCORE.RESTR.CAVITY>
0.277852

>  <SCORE.RESTR.norm>
0.0277852

>  <SCORE.SYSTEM>
0

>  <SCORE.SYSTEM.CONST>
0

>  <SCORE.SYSTEM.DIHEDRAL>
0

>  <SCORE.SYSTEM.SOLV>
0

>  <SCORE.SYSTEM.norm>
0

>  <SCORE.heavy>
10

>  <SCORE.norm>
-1.99894

>  <RMSD>
28.041

$$$$
lig.pdb
 OpenBabel11021811523D
libRbt.so/2013.1/901 2013/11/27
 10 11  0  0  0  0  0  0  0  0999 V2000
   -7.4586   32.4040   -7.0315 N   0  0  0  0  0  0  0  0  0  0  0  0
   -6.6915   32.4188   -8.1639 C   0  0  0  0  0  0  0  0  0  0  0  0
   -6.4044   31.2250   -8.6252 N   0  0  0  0  0  0  0  0  0  0  0  0
   -7.0247   30.3661   -7.7336 C   0  0  0  0  0  0  0  0  0  0  0  0
   -7.1027   28.9628   -7.6674 C   0  0  0  0  0  0  0  0  0  0  0  0
   -6.5158   28.1531   -8.5549 N   0  0  0  0  0  0  0  0  0  0  0  0
   -7.8053   28.4215   -6.6482 N   0  0  0  0  0  0  0  0  0  0  0  0
   -8.3873   29.2371   -5.7621 C   0  0  0  0  0  0  0  0  0  0  0  0
   -8.3851   30.5689   -5.7213 N   0  0  0  0  0  0  0  0  0  0  0  0
   -7.6799   31.0761   -6.7449 C   0  0  0  0  0  0  0  0  0  0  0  0
  1 10  1  0  0  0  0
  2  3  2  0  0  0  0
  2  1  1  0  0  0  0
  3  4  1  0  0  0  0
  4 10  2  0  0  0  0
  4  5  1  0  0  0  0
  5  7  2  0  0  0  0
  6  5  1  0  0  0  0
  7  8  1  0  0  0  0
  9  8  2  0  0  0  0
 10  9  1  0  0  0  0
M  END
>  <CHROM.1>
-7.33079835,30.24598843,-7.28821317,1.38640235,0.97488224,0.03163154

>  <Name>
lig.pdb

>  <RI>
2.34257e+07

>  <Rbt.Current_Directory>
/home/itssahil/PROJECTS/Mol_Feturizer/New_Systems/rnas/5uza

>  <Rbt.Executable>
rbdock ($Id: //depot/dev/client3/rdock/2013.1/src/exe/rbdock.cxx#4 $)

>  <Rbt.Library>
libRbt.so (2013.1, Build901 2013/11/27)

>  <Rbt.Parameter_File>
/export/apps/rDock/src/rDock_2013.1_src/data/scripts/dock_solv.prm

>  <Rbt.Receptor>
prm/blind_docking_40.prm

>  <SCORE>
-19.9912

>  <SCORE.INTER>
-20.2697

>  <SCORE.INTER.CONST>
1

>  <SCORE.INTER.POLAR>
-2.73385

>  <SCORE.INTER.ROT>
0

>  <SCORE.INTER.SOLV>
11.412

>  <SCORE.INTER.VDW>
-11.8043

>  <SCORE.INTER.norm>
-2.02697

>  <SCORE.INTRA>
0

>  <SCORE.INTRA.DIHEDRAL>
0

>  <SCORE.INTRA.DIHEDRAL.0>
0

>  <SCORE.INTRA.POLAR>
0

>  <SCORE.INTRA.POLAR.0>
0

>  <SCORE.INTRA.REPUL>
0

>  <SCORE.INTRA.REPUL.0>
0

>  <SCORE.INTRA.SOLV>
0

>  <SCORE.INTRA.SOLV.lig_0>
-14.8845

>  <SCORE.INTRA.VDW>
0

>  <SCORE.INTRA.VDW.0>
0

>  <SCORE.INTRA.norm>
0

>  <SCORE.RESTR>
0.278451

>  <SCORE.RESTR.CAVITY>
0.278451

>  <SCORE.RESTR.norm>
0.0278451

>  <SCORE.SYSTEM>
0

>  <SCORE.SYSTEM.CONST>
0

>  <SCORE.SYSTEM.DIHEDRAL>
0

>  <SCORE.SYSTEM.SOLV>
0

>  <SCORE.SYSTEM.norm>
0

>  <SCORE.heavy>
10

>  <SCORE.norm>
-1.99912

>  <RMSD>
28.042

$$$$
lig.pdb
 OpenBabel11021811523D
libRbt.so/2013.1/901 2013/11/27
 10 11  0  0  0  0  0  0  0  0999 V2000
   -7.4609   32.4060   -7.0302 N   0  0  0  0  0  0  0  0  0  0  0  0
   -6.6904   32.4227   -8.1602 C   0  0  0  0  0  0  0  0  0  0  0  0
   -6.4011   31.2297   -8.6221 N   0  0  0  0  0  0  0  0  0  0  0  0
   -7.0235   30.3693   -7.7335 C   0  0  0  0  0  0  0  0  0  0  0  0
   -7.1007   28.9659   -7.6693 C   0  0  0  0  0  0  0  0  0  0  0  0
   -6.5105   28.1577   -8.5561 N   0  0  0  0  0  0  0  0  0  0  0  0
   -7.8060   28.4227   -6.6530 N   0  0  0  0  0  0  0  0  0  0  0  0
   -8.3912   29.2368   -5.7676 C   0  0  0  0  0  0  0  0  0  0  0  0
   -8.3901   30.5686   -5.7251 N   0  0  0  0  0  0  0  0  0  0  0  0
   -7.6821   31.0776   -6.7459 C   0  0  0  0  0  0  0  0  0  0  0  0
  1 10  1  0  0  0  0
  2  3  2  0  0  0  0
  2  1  1  0  0  0  0
  3  4  1  0  0  0  0
  4 10  2  0  0  0  0
  4  5  1  0  0  0  0
  5  7  2  0  0  0  0
  6  5  1  0  0  0  0
  7  8  1  0  0  0  0
  9  8  2  0  0  0  0
 10  9  1  0  0  0  0
M  END
>  <CHROM.1>
-7.33080875,30.24837961,-7.28921339,1.38780745,0.97187205,0.03173138

>  <Name>
lig.pdb

>  <RI>
2.34257e+07

>  <Rbt.Current_Directory>
/home/itssahil/PROJECTS/Mol_Feturizer/New_Systems/rnas/5uza

>  <Rbt.Executable>
rbdock ($Id: //depot/dev/client3/rdock/2013.1/src/exe/rbdock.cxx#4 $)

>  <Rbt.Library>
libRbt.so (2013.1, Build901 2013/11/27)

>  <Rbt.Parameter_File>
/export/apps/rDock/src/rDock_2013.1_src/data/scripts/dock_solv.prm

>  <Rbt.Receptor>
prm/blind_docking_40.prm

>  <SCORE>
-19.9785

>  <SCORE.INTER>
-20.2537

>  <SCORE.INTER.CONST>
1

>  <SCORE.INTER.POLAR>
-2.73101

>  <SCORE.INTER.ROT>
0

>  <SCORE.INTER.SOLV>
11.4039

>  <SCORE.INTER.VDW>
-11.8004

>  <SCORE.INTER.norm>
-2.02537

>  <SCORE.INTRA>
0

>  <SCORE.INTRA.DIHEDRAL>
0

>  <SCORE.INTRA.DIHEDRAL.0>
0

>  <SCORE.INTRA.POLAR>
0

>  <SCORE.INTRA.POLAR.0>
0

>  <SCORE.INTRA.REPUL>
0

>  <SCORE.INTRA.REPUL.0>
0

>  <SCORE.INTRA.SOLV>
0

>  <SCORE.INTRA.SOLV.lig_0>
-14.8845

>  <SCORE.INTRA.VDW>
0

>  <SCORE.INTRA.VDW.0>
0

>  <SCORE.INTRA.norm>
0

>  <SCORE.RESTR>
0.275204

>  <SCORE.RESTR.CAVITY>
0.275204

>  <SCORE.RESTR.norm>
0.0275204

>  <SCORE.SYSTEM>
0

>  <SCORE.SYSTEM.CONST>
0

>  <SCORE.SYSTEM.DIHEDRAL>
0

>  <SCORE.SYSTEM.SOLV>
0

>  <SCORE.SYSTEM.norm>
0

>  <SCORE.heavy>
10

>  <SCORE.norm>
-1.99785

>  <RMSD>
28.042

$$$$
lig.pdb
 OpenBabel11021811523D
libRbt.so/2013.1/901 2013/11/27
 10 11  0  0  0  0  0  0  0  0999 V2000
   -7.4529   32.4033   -7.0287 N   0  0  0  0  0  0  0  0  0  0  0  0
   -6.6855   32.4174   -8.1609 C   0  0  0  0  0  0  0  0  0  0  0  0
   -6.4007   31.2235   -8.6231 N   0  0  0  0  0  0  0  0  0  0  0  0
   -7.0229   30.3651   -7.7323 C   0  0  0  0  0  0  0  0  0  0  0  0
   -7.1038   28.9619   -7.6673 C   0  0  0  0  0  0  0  0  0  0  0  0
   -6.5183   28.1518   -8.5553 N   0  0  0  0  0  0  0  0  0  0  0  0
   -7.8076   28.4212   -6.6487 N   0  0  0  0  0  0  0  0  0  0  0  0
   -8.3881   29.2372   -5.7620 C   0  0  0  0  0  0  0  0  0  0  0  0
   -8.3833   30.5690   -5.7202 N   0  0  0  0  0  0  0  0  0  0  0  0
   -7.6768   31.0756   -6.7432 C   0  0  0  0  0  0  0  0  0  0  0  0
  1 10  1  0  0  0  0
  2  3  2  0  0  0  0
  2  1  1  0  0  0  0
  3  4  1  0  0  0  0
  4 10  2  0  0  0  0
  4  5  1  0  0  0  0
  5  7  2  0  0  0  0
  6  5  1  0  0  0  0
  7  8  1  0  0  0  0
  9  8  2  0  0  0  0
 10  9  1  0  0  0  0
M  END
>  <CHROM.1>
-7.32931663,30.24524866,-7.28710818,1.38283134,0.97462569,0.03539994

>  <Name>
lig.pdb

>  <RI>
2.26746e+07

>  <Rbt.Current_Directory>
/home/itssahil/PROJECTS/Mol_Feturizer/New_Systems/rnas/5uza

>  <Rbt.Executable>
rbdock ($Id: //depot/dev/client3/rdock/2013.1/src/exe/rbdock.cxx#4 $)

>  <Rbt.Library>
libRbt.so (2013.1, Build901 2013/11/27)

>  <Rbt.Parameter_File>
/export/apps/rDock/src/rDock_2013.1_src/data/scripts/dock_solv.prm

>  <Rbt.Receptor>
prm/blind_docking_100.prm

>  <SCORE>
-19.9986

>  <SCORE.INTER>
-20.2785

>  <SCORE.INTER.CONST>
1

>  <SCORE.INTER.POLAR>
-2.74015

>  <SCORE.INTER.ROT>
0

>  <SCORE.INTER.SOLV>
11.4169

>  <SCORE.INTER.VDW>
-11.7908

>  <SCORE.INTER.norm>
-2.02785

>  <SCORE.INTRA>
0

>  <SCORE.INTRA.DIHEDRAL>
0

>  <SCORE.INTRA.DIHEDRAL.0>
0

>  <SCORE.INTRA.POLAR>
0

>  <SCORE.INTRA.POLAR.0>
0

>  <SCORE.INTRA.REPUL>
0

>  <SCORE.INTRA.REPUL.0>
0

>  <SCORE.INTRA.SOLV>
0

>  <SCORE.INTRA.SOLV.lig_0>
-14.8845

>  <SCORE.INTRA.VDW>
0

>  <SCORE.INTRA.VDW.0>
0

>  <SCORE.INTRA.norm>
0

>  <SCORE.RESTR>
0.279803

>  <SCORE.RESTR.CAVITY>
0.279803

>  <SCORE.RESTR.norm>
0.0279803

>  <SCORE.SYSTEM>
0

>  <SCORE.SYSTEM.CONST>
0

>  <SCORE.SYSTEM.DIHEDRAL>
0

>  <SCORE.SYSTEM.SOLV>
0

>  <SCORE.SYSTEM.norm>
0

>  <SCORE.heavy>
10

>  <SCORE.norm>
-1.99986

>  <RMSD>
28.043

$$$$
lig.pdb
 OpenBabel11021811523D
libRbt.so/2013.1/901 2013/11/27
 10 11  0  0  0  0  0  0  0  0999 V2000
   -7.4578   32.4056   -7.0301 N   0  0  0  0  0  0  0  0  0  0  0  0
   -6.6884   32.4211   -8.1609 C   0  0  0  0  0  0  0  0  0  0  0  0
   -6.4007   31.2276   -8.6226 N   0  0  0  0  0  0  0  0  0  0  0  0
   -7.0230   30.3682   -7.7329 C   0  0  0  0  0  0  0  0  0  0  0  0
   -7.1014   28.9649   -7.6679 C   0  0  0  0  0  0  0  0  0  0  0  0
   -6.5129   28.1557   -8.5549 N   0  0  0  0  0  0  0  0  0  0  0  0
   -7.8061   28.4229   -6.6506 N   0  0  0  0  0  0  0  0  0  0  0  0
   -8.3897   29.2379   -5.7649 C   0  0  0  0  0  0  0  0  0  0  0  0
   -8.3873   30.5698   -5.7232 N   0  0  0  0  0  0  0  0  0  0  0  0
   -7.6799   31.0776   -6.7449 C   0  0  0  0  0  0  0  0  0  0  0  0
  1 10  1  0  0  0  0
  2  3  2  0  0  0  0
  2  1  1  0  0  0  0
  3  4  1  0  0  0  0
  4 10  2  0  0  0  0
  4  5  1  0  0  0  0
  5  7  2  0  0  0  0
  6  5  1  0  0  0  0
  7  8  1  0  0  0  0
  9  8  2  0  0  0  0
 10  9  1  0  0  0  0
M  END
>  <CHROM.1>
-7.32992088,30.24779829,-7.28819888,1.38607912,0.97289456,0.03267351

>  <Name>
lig.pdb

>  <RI>
2.34257e+07

>  <Rbt.Current_Directory>
/home/itssahil/PROJECTS/Mol_Feturizer/New_Systems/rnas/5uza

>  <Rbt.Executable>
rbdock ($Id: //depot/dev/client3/rdock/2013.1/src/exe/rbdock.cxx#4 $)

>  <Rbt.Library>
libRbt.so (2013.1, Build901 2013/11/27)

>  <Rbt.Parameter_File>
/export/apps/rDock/src/rDock_2013.1_src/data/scripts/dock_solv.prm

>  <Rbt.Receptor>
prm/blind_docking_40.prm

>  <SCORE>
-19.9836

>  <SCORE.INTER>
-20.2598

>  <SCORE.INTER.CONST>
1

>  <SCORE.INTER.POLAR>
-2.73247

>  <SCORE.INTER.ROT>
0

>  <SCORE.INTER.SOLV>
11.4078

>  <SCORE.INTER.VDW>
-11.8009

>  <SCORE.INTER.norm>
-2.02598

>  <SCORE.INTRA>
0

>  <SCORE.INTRA.DIHEDRAL>
0

>  <SCORE.INTRA.DIHEDRAL.0>
0

>  <SCORE.INTRA.POLAR>
0

>  <SCORE.INTRA.POLAR.0>
0

>  <SCORE.INTRA.REPUL>
0

>  <SCORE.INTRA.REPUL.0>
0

>  <SCORE.INTRA.SOLV>
0

>  <SCORE.INTRA.SOLV.lig_0>
-14.8845

>  <SCORE.INTRA.VDW>
0

>  <SCORE.INTRA.VDW.0>
0

>  <SCORE.INTRA.norm>
0

>  <SCORE.RESTR>
0.276204

>  <SCORE.RESTR.CAVITY>
0.276204

>  <SCORE.RESTR.norm>
0.0276204

>  <SCORE.SYSTEM>
0

>  <SCORE.SYSTEM.CONST>
0

>  <SCORE.SYSTEM.DIHEDRAL>
0

>  <SCORE.SYSTEM.SOLV>
0

>  <SCORE.SYSTEM.norm>
0

>  <SCORE.heavy>
10

>  <SCORE.norm>
-1.99836

>  <RMSD>
28.043

$$$$
lig.pdb
 OpenBabel11021811523D
libRbt.so/2013.1/901 2013/11/27
 10 11  0  0  0  0  0  0  0  0999 V2000
   -7.4583   32.4059   -7.0316 N   0  0  0  0  0  0  0  0  0  0  0  0
   -6.6907   32.4208   -8.1636 C   0  0  0  0  0  0  0  0  0  0  0  0
   -6.4032   31.2271   -8.6249 N   0  0  0  0  0  0  0  0  0  0  0  0
   -7.0237   30.3681   -7.7336 C   0  0  0  0  0  0  0  0  0  0  0  0
   -7.1015   28.9648   -7.6675 C   0  0  0  0  0  0  0  0  0  0  0  0
   -6.5141   28.1552   -8.5548 N   0  0  0  0  0  0  0  0  0  0  0  0
   -7.8044   28.4232   -6.6486 N   0  0  0  0  0  0  0  0  0  0  0  0
   -8.3869   29.2387   -5.7627 C   0  0  0  0  0  0  0  0  0  0  0  0
   -8.3850   30.5705   -5.7219 N   0  0  0  0  0  0  0  0  0  0  0  0
   -7.6794   31.0779   -6.7451 C   0  0  0  0  0  0  0  0  0  0  0  0
  1 10  1  0  0  0  0
  2  3  2  0  0  0  0
  2  1  1  0  0  0  0
  3  4  1  0  0  0  0
  4 10  2  0  0  0  0
  4  5  1  0  0  0  0
  5  7  2  0  0  0  0
  6  5  1  0  0  0  0
  7  8  1  0  0  0  0
  9  8  2  0  0  0  0
 10  9  1  0  0  0  0
M  END
>  <CHROM.1>
-7.32995248,30.24787358,-7.28834739,1.38673158,0.97448940,0.03141065

>  <Name>
lig.pdb

>  <RI>
2.34257e+07

>  <Rbt.Current_Directory>
/home/itssahil/PROJECTS/Mol_Feturizer/New_Systems/rnas/5uza

>  <Rbt.Executable>
rbdock ($Id: //depot/dev/client3/rdock/2013.1/src/exe/rbdock.cxx#4 $)

>  <Rbt.Library>
libRbt.so (2013.1, Build901 2013/11/27)

>  <Rbt.Parameter_File>
/export/apps/rDock/src/rDock_2013.1_src/data/scripts/dock_solv.prm

>  <Rbt.Receptor>
prm/blind_docking_40.prm

>  <SCORE>
-19.9841

>  <SCORE.INTER>
-20.2606

>  <SCORE.INTER.CONST>
1

>  <SCORE.INTER.POLAR>
-2.73229

>  <SCORE.INTER.ROT>
0

>  <SCORE.INTER.SOLV>
11.4114

>  <SCORE.INTER.VDW>
-11.8033

>  <SCORE.INTER.norm>
-2.02606

>  <SCORE.INTRA>
0

>  <SCORE.INTRA.DIHEDRAL>
0

>  <SCORE.INTRA.DIHEDRAL.0>
0

>  <SCORE.INTRA.POLAR>
0

>  <SCORE.INTRA.POLAR.0>
0

>  <SCORE.INTRA.REPUL>
0

>  <SCORE.INTRA.REPUL.0>
0

>  <SCORE.INTRA.SOLV>
0

>  <SCORE.INTRA.SOLV.lig_0>
-14.8845

>  <SCORE.INTRA.VDW>
0

>  <SCORE.INTRA.VDW.0>
0

>  <SCORE.INTRA.norm>
0

>  <SCORE.RESTR>
0.276554

>  <SCORE.RESTR.CAVITY>
0.276554

>  <SCORE.RESTR.norm>
0.0276554

>  <SCORE.SYSTEM>
0

>  <SCORE.SYSTEM.CONST>
0

>  <SCORE.SYSTEM.DIHEDRAL>
0

>  <SCORE.SYSTEM.SOLV>
0

>  <SCORE.SYSTEM.norm>
0

>  <SCORE.heavy>
10

>  <SCORE.norm>
-1.99841

>  <RMSD>
28.043

$$$$
lig.pdb
 OpenBabel11021811523D
libRbt.so/2013.1/901 2013/11/27
 10 11  0  0  0  0  0  0  0  0999 V2000
   -7.4557   32.4056   -7.0294 N   0  0  0  0  0  0  0  0  0  0  0  0
   -6.6872   32.4210   -8.1609 C   0  0  0  0  0  0  0  0  0  0  0  0
   -6.4004   31.2274   -8.6230 N   0  0  0  0  0  0  0  0  0  0  0  0
   -7.0224   30.3681   -7.7330 C   0  0  0  0  0  0  0  0  0  0  0  0
   -7.1014   28.9648   -7.6683 C   0  0  0  0  0  0  0  0  0  0  0  0
   -6.5140   28.1556   -8.5559 N   0  0  0  0  0  0  0  0  0  0  0  0
   -7.8056   28.4230   -6.6505 N   0  0  0  0  0  0  0  0  0  0  0  0
   -8.3881   29.2381   -5.7642 C   0  0  0  0  0  0  0  0  0  0  0  0
   -8.3850   30.5699   -5.7222 N   0  0  0  0  0  0  0  0  0  0  0  0
   -7.6782   31.0776   -6.7444 C   0  0  0  0  0  0  0  0  0  0  0  0
  1 10  1  0  0  0  0
  2  3  2  0  0  0  0
  2  1  1  0  0  0  0
  3  4  1  0  0  0  0
  4 10  2  0  0  0  0
  4  5  1  0  0  0  0
  5  7  2  0  0  0  0
  6  5  1  0  0  0  0
  7  8  1  0  0  0  0
  9  8  2  0  0  0  0
 10  9  1  0  0  0  0
M  END
>  <CHROM.1>
-7.32904409,30.24778784,-7.28811466,1.38521705,0.97366835,0.03359559

>  <Name>
lig.pdb

>  <RI>
2.26746e+07

>  <Rbt.Current_Directory>
/home/itssahil/PROJECTS/Mol_Feturizer/New_Systems/rnas/5uza

>  <Rbt.Executable>
rbdock ($Id: //depot/dev/client3/rdock/2013.1/src/exe/rbdock.cxx#4 $)

>  <Rbt.Library>
libRbt.so (2013.1, Build901 2013/11/27)

>  <Rbt.Parameter_File>
/export/apps/rDock/src/rDock_2013.1_src/data/scripts/dock_solv.prm

>  <Rbt.Receptor>
prm/blind_docking_100.prm

>  <SCORE>
-19.9864

>  <SCORE.INTER>
-20.2632

>  <SCORE.INTER.CONST>
1

>  <SCORE.INTER.POLAR>
-2.7366

>  <SCORE.INTER.ROT>
0

>  <SCORE.INTER.SOLV>
11.4133

>  <SCORE.INTER.VDW>
-11.7912

>  <SCORE.INTER.norm>
-2.02632

>  <SCORE.INTRA>
0

>  <SCORE.INTRA.DIHEDRAL>
0

>  <SCORE.INTRA.DIHEDRAL.0>
0

>  <SCORE.INTRA.POLAR>
0

>  <SCORE.INTRA.POLAR.0>
0

>  <SCORE.INTRA.REPUL>
0

>  <SCORE.INTRA.REPUL.0>
0

>  <SCORE.INTRA.SOLV>
0

>  <SCORE.INTRA.SOLV.lig_0>
-14.8845

>  <SCORE.INTRA.VDW>
0

>  <SCORE.INTRA.VDW.0>
0

>  <SCORE.INTRA.norm>
0

>  <SCORE.RESTR>
0.276824

>  <SCORE.RESTR.CAVITY>
0.276824

>  <SCORE.RESTR.norm>
0.0276824

>  <SCORE.SYSTEM>
0

>  <SCORE.SYSTEM.CONST>
0

>  <SCORE.SYSTEM.DIHEDRAL>
0

>  <SCORE.SYSTEM.SOLV>
0

>  <SCORE.SYSTEM.norm>
0

>  <SCORE.heavy>
10

>  <SCORE.norm>
-1.99864

>  <RMSD>
28.044

$$$$
lig.pdb
 OpenBabel11021811523D
libRbt.so/2013.1/901 2013/11/27
 10 11  0  0  0  0  0  0  0  0999 V2000
   -7.4550   32.4056   -7.0286 N   0  0  0  0  0  0  0  0  0  0  0  0
   -6.6849   32.4212   -8.1589 C   0  0  0  0  0  0  0  0  0  0  0  0
   -6.3980   31.2278   -8.6212 N   0  0  0  0  0  0  0  0  0  0  0  0
   -7.0216   30.3683   -7.7326 C   0  0  0  0  0  0  0  0  0  0  0  0
   -7.1015   28.9650   -7.6688 C   0  0  0  0  0  0  0  0  0  0  0  0
   -6.5131   28.1560   -8.5559 N   0  0  0  0  0  0  0  0  0  0  0  0
   -7.8074   28.4229   -6.6523 N   0  0  0  0  0  0  0  0  0  0  0  0
   -8.3908   29.2379   -5.7664 C   0  0  0  0  0  0  0  0  0  0  0  0
   -8.3871   30.5696   -5.7237 N   0  0  0  0  0  0  0  0  0  0  0  0
   -7.6786   31.0776   -6.7446 C   0  0  0  0  0  0  0  0  0  0  0  0
  1 10  1  0  0  0  0
  2  3  2  0  0  0  0
  2  1  1  0  0  0  0
  3  4  1  0  0  0  0
  4 10  2  0  0  0  0
  4  5  1  0  0  0  0
  5  7  2  0  0  0  0
  6  5  1  0  0  0  0
  7  8  1  0  0  0  0
  9  8  2  0  0  0  0
 10  9  1  0  0  0  0
M  END
>  <CHROM.1>
-7.32902770,30.24786621,-7.28823188,1.38445439,0.97219030,0.03476733

>  <Name>
lig.pdb

>  <RI>
2.34257e+07

>  <Rbt.Current_Directory>
/home/itssahil/PROJECTS/Mol_Feturizer/New_Systems/rnas/5uza

>  <Rbt.Executable>
rbdock ($Id: //depot/dev/client3/rdock/2013.1/src/exe/rbdock.cxx#4 $)

>  <Rbt.Library>
libRbt.so (2013.1, Build901 2013/11/27)

>  <Rbt.Parameter_File>
/export/apps/rDock/src/rDock_2013.1_src/data/scripts/dock_solv.prm

>  <Rbt.Receptor>
prm/blind_docking_40.prm

>  <SCORE>
-19.9854

>  <SCORE.INTER>
-20.262

>  <SCORE.INTER.CONST>
1

>  <SCORE.INTER.POLAR>
-2.73459

>  <SCORE.INTER.ROT>
0

>  <SCORE.INTER.SOLV>
11.4097

>  <SCORE.INTER.VDW>
-11.7959

>  <SCORE.INTER.norm>
-2.0262

>  <SCORE.INTRA>
0

>  <SCORE.INTRA.DIHEDRAL>
0

>  <SCORE.INTRA.DIHEDRAL.0>
0

>  <SCORE.INTRA.POLAR>
0

>  <SCORE.INTRA.POLAR.0>
0

>  <SCORE.INTRA.REPUL>
0

>  <SCORE.INTRA.REPUL.0>
0

>  <SCORE.INTRA.SOLV>
0

>  <SCORE.INTRA.SOLV.lig_0>
-14.8845

>  <SCORE.INTRA.VDW>
0

>  <SCORE.INTRA.VDW.0>
0

>  <SCORE.INTRA.norm>
0

>  <SCORE.RESTR>
0.276565

>  <SCORE.RESTR.CAVITY>
0.276565

>  <SCORE.RESTR.norm>
0.0276565

>  <SCORE.SYSTEM>
0

>  <SCORE.SYSTEM.CONST>
0

>  <SCORE.SYSTEM.DIHEDRAL>
0

>  <SCORE.SYSTEM.SOLV>
0

>  <SCORE.SYSTEM.norm>
0

>  <SCORE.heavy>
10

>  <SCORE.norm>
-1.99854

>  <RMSD>
28.044

$$$$
lig.pdb
 OpenBabel11021811523D
libRbt.so/2013.1/901 2013/11/27
 10 11  0  0  0  0  0  0  0  0999 V2000
   -7.4559   32.4194   -7.0444 N   0  0  0  0  0  0  0  0  0  0  0  0
   -6.6910   32.4259   -8.1784 C   0  0  0  0  0  0  0  0  0  0  0  0
   -6.4081   31.2289   -8.6338 N   0  0  0  0  0  0  0  0  0  0  0  0
   -7.0289   30.3765   -7.7363 C   0  0  0  0  0  0  0  0  0  0  0  0
   -7.1105   28.9738   -7.6623 C   0  0  0  0  0  0  0  0  0  0  0  0
   -6.5275   28.1577   -8.5466 N   0  0  0  0  0  0  0  0  0  0  0  0
   -7.8124   28.4399   -6.6388 N   0  0  0  0  0  0  0  0  0  0  0  0
   -8.3904   29.2619   -5.7559 C   0  0  0  0  0  0  0  0  0  0  0  0
   -8.3845   30.5939   -5.7223 N   0  0  0  0  0  0  0  0  0  0  0  0
   -7.6800   31.0936   -6.7501 C   0  0  0  0  0  0  0  0  0  0  0  0
  1 10  1  0  0  0  0
  2  3  2  0  0  0  0
  2  1  1  0  0  0  0
  3  4  1  0  0  0  0
  4 10  2  0  0  0  0
  4  5  1  0  0  0  0
  5  7  2  0  0  0  0
  6  5  1  0  0  0  0
  7  8  1  0  0  0  0
  9  8  2  0  0  0  0
 10  9  1  0  0  0  0
M  END
>  <CHROM.1>
-7.33431898,30.25965202,-7.28961009,1.38150561,0.97685175,0.03025923

>  <Name>
lig.pdb

>  <RI>
2.34257e+07

>  <Rbt.Current_Directory>
/home/itssahil/PROJECTS/Mol_Feturizer/New_Systems/rnas/5uza

>  <Rbt.Executable>
rbdock ($Id: //depot/dev/client3/rdock/2013.1/src/exe/rbdock.cxx#4 $)

>  <Rbt.Library>
libRbt.so (2013.1, Build901 2013/11/27)

>  <Rbt.Parameter_File>
/export/apps/rDock/src/rDock_2013.1_src/data/scripts/dock_solv.prm

>  <Rbt.Receptor>
prm/blind_docking_40.prm

>  <SCORE>
-19.9223

>  <SCORE.INTER>
-20.1909

>  <SCORE.INTER.CONST>
1

>  <SCORE.INTER.POLAR>
-2.67746

>  <SCORE.INTER.ROT>
0

>  <SCORE.INTER.SOLV>
11.394

>  <SCORE.INTER.VDW>
-11.9338

>  <SCORE.INTER.norm>
-2.01909

>  <SCORE.INTRA>
0

>  <SCORE.INTRA.DIHEDRAL>
0

>  <SCORE.INTRA.DIHEDRAL.0>
0

>  <SCORE.INTRA.POLAR>
0

>  <SCORE.INTRA.POLAR.0>
0

>  <SCORE.INTRA.REPUL>
0

>  <SCORE.INTRA.REPUL.0>
0

>  <SCORE.INTRA.SOLV>
0

>  <SCORE.INTRA.SOLV.lig_0>
-14.8845

>  <SCORE.INTRA.VDW>
0

>  <SCORE.INTRA.VDW.0>
0

>  <SCORE.INTRA.norm>
0

>  <SCORE.RESTR>
0.268617

>  <SCORE.RESTR.CAVITY>
0.268617

>  <SCORE.RESTR.norm>
0.0268617

>  <SCORE.SYSTEM>
0

>  <SCORE.SYSTEM.CONST>
0

>  <SCORE.SYSTEM.DIHEDRAL>
0

>  <SCORE.SYSTEM.SOLV>
0

>  <SCORE.SYSTEM.norm>
0

>  <SCORE.heavy>
10

>  <SCORE.norm>
-1.99223

>  <RMSD>
28.044

$$$$
lig.pdb
 OpenBabel11021811523D
libRbt.so/2013.1/901 2013/11/27
 10 11  0  0  0  0  0  0  0  0999 V2000
   -7.4437   32.4048   -7.0262 N   0  0  0  0  0  0  0  0  0  0  0  0
   -6.6759   32.4178   -8.1581 C   0  0  0  0  0  0  0  0  0  0  0  0
   -6.3939   31.2234   -8.6210 N   0  0  0  0  0  0  0  0  0  0  0  0
   -7.0185   30.3660   -7.7310 C   0  0  0  0  0  0  0  0  0  0  0  0
   -7.1028   28.9630   -7.6669 C   0  0  0  0  0  0  0  0  0  0  0  0
   -6.5189   28.1519   -8.5552 N   0  0  0  0  0  0  0  0  0  0  0  0
   -7.8084   28.4233   -6.6489 N   0  0  0  0  0  0  0  0  0  0  0  0
   -8.3872   29.2402   -5.7619 C   0  0  0  0  0  0  0  0  0  0  0  0
   -8.3791   30.5719   -5.7192 N   0  0  0  0  0  0  0  0  0  0  0  0
   -7.6710   31.0774   -6.7416 C   0  0  0  0  0  0  0  0  0  0  0  0
  1 10  1  0  0  0  0
  2  3  2  0  0  0  0
  2  1  1  0  0  0  0
  3  4  1  0  0  0  0
  4 10  2  0  0  0  0
  4  5  1  0  0  0  0
  5  7  2  0  0  0  0
  6  5  1  0  0  0  0
  7  8  1  0  0  0  0
  9  8  2  0  0  0  0
 10  9  1  0  0  0  0
M  END
>  <CHROM.1>
-7.32535265,30.24658627,-7.28598179,1.37849189,0.97414550,0.03963230

>  <Name>
lig.pdb

>  <RI>
2.34257e+07

>  <Rbt.Current_Directory>
/home/itssahil/PROJECTS/Mol_Feturizer/New_Systems/rnas/5uza

>  <Rbt.Executable>
rbdock ($Id: //depot/dev/client3/rdock/2013.1/src/exe/rbdock.cxx#4 $)

>  <Rbt.Library>
libRbt.so (2013.1, Build901 2013/11/27)

>  <Rbt.Parameter_File>
/export/apps/rDock/src/rDock_2013.1_src/data/scripts/dock_solv.prm

>  <Rbt.Receptor>
prm/blind_docking_40.prm

>  <SCORE>
-19.9952

>  <SCORE.INTER>
-20.2747

>  <SCORE.INTER.CONST>
1

>  <SCORE.INTER.POLAR>
-2.74326

>  <SCORE.INTER.ROT>
0

>  <SCORE.INTER.SOLV>
11.424

>  <SCORE.INTER.VDW>
-11.7803

>  <SCORE.INTER.norm>
-2.02747

>  <SCORE.INTRA>
0

>  <SCORE.INTRA.DIHEDRAL>
0

>  <SCORE.INTRA.DIHEDRAL.0>
0

>  <SCORE.INTRA.POLAR>
0

>  <SCORE.INTRA.POLAR.0>
0

>  <SCORE.INTRA.REPUL>
0

>  <SCORE.INTRA.REPUL.0>
0

>  <SCORE.INTRA.SOLV>
0

>  <SCORE.INTRA.SOLV.lig_0>
-14.8845

>  <SCORE.INTRA.VDW>
0

>  <SCORE.INTRA.VDW.0>
0

>  <SCORE.INTRA.norm>
0

>  <SCORE.RESTR>
0.279547

>  <SCORE.RESTR.CAVITY>
0.279547

>  <SCORE.RESTR.norm>
0.0279547

>  <SCORE.SYSTEM>
0

>  <SCORE.SYSTEM.CONST>
0

>  <SCORE.SYSTEM.DIHEDRAL>
0

>  <SCORE.SYSTEM.SOLV>
0

>  <SCORE.SYSTEM.norm>
0

>  <SCORE.heavy>
10

>  <SCORE.norm>
-1.99952

>  <RMSD>
28.047

$$$$
lig.pdb
 OpenBabel11021811523D
libRbt.so/2013.1/901 2013/11/27
 10 11  0  0  0  0  0  0  0  0999 V2000
   -7.4405   32.4030   -7.0244 N   0  0  0  0  0  0  0  0  0  0  0  0
   -6.6712   32.4154   -8.1553 C   0  0  0  0  0  0  0  0  0  0  0  0
   -6.3903   31.2208   -8.6183 N   0  0  0  0  0  0  0  0  0  0  0  0
   -7.0172   30.3639   -7.7294 C   0  0  0  0  0  0  0  0  0  0  0  0
   -7.1035   28.9610   -7.6659 C   0  0  0  0  0  0  0  0  0  0  0  0
   -6.5196   28.1495   -8.5538 N   0  0  0  0  0  0  0  0  0  0  0  0
   -7.8111   28.4219   -6.6491 N   0  0  0  0  0  0  0  0  0  0  0  0
   -8.3900   29.2392   -5.7625 C   0  0  0  0  0  0  0  0  0  0  0  0
   -8.3802   30.5710   -5.7193 N   0  0  0  0  0  0  0  0  0  0  0  0
   -7.6700   31.0759   -6.7406 C   0  0  0  0  0  0  0  0  0  0  0  0
  1 10  1  0  0  0  0
  2  3  2  0  0  0  0
  2  1  1  0  0  0  0
  3  4  1  0  0  0  0
  4 10  2  0  0  0  0
  4  5  1  0  0  0  0
  5  7  2  0  0  0  0
  6  5  1  0  0  0  0
  7  8  1  0  0  0  0
  9  8  2  0  0  0  0
 10  9  1  0  0  0  0
M  END
>  <CHROM.1>
-7.32480467,30.24475902,-7.28482416,1.37615200,0.97280434,0.04193914

>  <Name>
lig.pdb

>  <RI>
2.34257e+07

>  <Rbt.Current_Directory>
/home/itssahil/PROJECTS/Mol_Feturizer/New_Systems/rnas/5uza

>  <Rbt.Executable>
rbdock ($Id: //depot/dev/client3/rdock/2013.1/src/exe/rbdock.cxx#4 $)

>  <Rbt.Library>
libRbt.so (2013.1, Build901 2013/11/27)

>  <Rbt.Parameter_File>
/export/apps/rDock/src/rDock_2013.1_src/data/scripts/dock_solv.prm

>  <Rbt.Receptor>
prm/blind_docking_40.prm

>  <SCORE>
-19.9974

>  <SCORE.INTER>
-20.2784

>  <SCORE.INTER.CONST>
1

>  <SCORE.INTER.POLAR>
-2.74369

>  <SCORE.INTER.ROT>
0

>  <SCORE.INTER.SOLV>
11.4213

>  <SCORE.INTER.VDW>
-11.7804

>  <SCORE.INTER.norm>
-2.02784

>  <SCORE.INTRA>
0

>  <SCORE.INTRA.DIHEDRAL>
0

>  <SCORE.INTRA.DIHEDRAL.0>
0

>  <SCORE.INTRA.POLAR>
0

>  <SCORE.INTRA.POLAR.0>
0

>  <SCORE.INTRA.REPUL>
0

>  <SCORE.INTRA.REPUL.0>
0

>  <SCORE.INTRA.SOLV>
0

>  <SCORE.INTRA.SOLV.lig_0>
-14.8845

>  <SCORE.INTRA.VDW>
0

>  <SCORE.INTRA.VDW.0>
0

>  <SCORE.INTRA.norm>
0

>  <SCORE.RESTR>
0.281006

>  <SCORE.RESTR.CAVITY>
0.281006

>  <SCORE.RESTR.norm>
0.0281006

>  <SCORE.SYSTEM>
0

>  <SCORE.SYSTEM.CONST>
0

>  <SCORE.SYSTEM.DIHEDRAL>
0

>  <SCORE.SYSTEM.SOLV>
0

>  <SCORE.SYSTEM.norm>
0

>  <SCORE.heavy>
10

>  <SCORE.norm>
-1.99974

>  <RMSD>
28.048

$$$$
lig.pdb
 OpenBabel11021811523D
libRbt.so/2013.1/901 2013/11/27
 10 11  0  0  0  0  0  0  0  0999 V2000
   -7.4487   32.4071   -7.0273 N   0  0  0  0  0  0  0  0  0  0  0  0
   -6.6815   32.4219   -8.1597 C   0  0  0  0  0  0  0  0  0  0  0  0
   -6.3970   31.2282   -8.6228 N   0  0  0  0  0  0  0  0  0  0  0  0
   -7.0192   30.3694   -7.7326 C   0  0  0  0  0  0  0  0  0  0  0  0
   -7.1003   28.9661   -7.6685 C   0  0  0  0  0  0  0  0  0  0  0  0
   -6.5151   28.1565   -8.5573 N   0  0  0  0  0  0  0  0  0  0  0  0
   -7.8041   28.4248   -6.6502 N   0  0  0  0  0  0  0  0  0  0  0  0
   -8.3843   29.2402   -5.7628 C   0  0  0  0  0  0  0  0  0  0  0  0
   -8.3792   30.5720   -5.7200 N   0  0  0  0  0  0  0  0  0  0  0  0
   -7.6728   31.0792   -6.7428 C   0  0  0  0  0  0  0  0  0  0  0  0
  1 10  1  0  0  0  0
  2  3  2  0  0  0  0
  2  1  1  0  0  0  0
  3  4  1  0  0  0  0
  4 10  2  0  0  0  0
  4  5  1  0  0  0  0
  5  7  2  0  0  0  0
  6  5  1  0  0  0  0
  7  8  1  0  0  0  0
  9  8  2  0  0  0  0
 10  9  1  0  0  0  0
M  END
>  <CHROM.1>
-7.32555596,30.24922267,-7.28738120,1.38250347,0.97478875,0.03640255

>  <Name>
lig.pdb

>  <RI>
2.34257e+07

>  <Rbt.Current_Directory>
/home/itssahil/PROJECTS/Mol_Feturizer/New_Systems/rnas/5uza

>  <Rbt.Executable>
rbdock ($Id: //depot/dev/client3/rdock/2013.1/src/exe/rbdock.cxx#4 $)

>  <Rbt.Library>
libRbt.so (2013.1, Build901 2013/11/27)

>  <Rbt.Parameter_File>
/export/apps/rDock/src/rDock_2013.1_src/data/scripts/dock_solv.prm

>  <Rbt.Receptor>
prm/blind_docking_40.prm

>  <SCORE>
-19.9854

>  <SCORE.INTER>
-20.262

>  <SCORE.INTER.CONST>
1

>  <SCORE.INTER.POLAR>
-2.74518

>  <SCORE.INTER.ROT>
0

>  <SCORE.INTER.SOLV>
11.4255

>  <SCORE.INTER.VDW>
-11.7659

>  <SCORE.INTER.norm>
-2.0262

>  <SCORE.INTRA>
0

>  <SCORE.INTRA.DIHEDRAL>
0

>  <SCORE.INTRA.DIHEDRAL.0>
0

>  <SCORE.INTRA.POLAR>
0

>  <SCORE.INTRA.POLAR.0>
0

>  <SCORE.INTRA.REPUL>
0

>  <SCORE.INTRA.REPUL.0>
0

>  <SCORE.INTRA.SOLV>
0

>  <SCORE.INTRA.SOLV.lig_0>
-14.8845

>  <SCORE.INTRA.VDW>
0

>  <SCORE.INTRA.VDW.0>
0

>  <SCORE.INTRA.norm>
0

>  <SCORE.RESTR>
0.276678

>  <SCORE.RESTR.CAVITY>
0.276678

>  <SCORE.RESTR.norm>
0.0276678

>  <SCORE.SYSTEM>
0

>  <SCORE.SYSTEM.CONST>
0

>  <SCORE.SYSTEM.DIHEDRAL>
0

>  <SCORE.SYSTEM.SOLV>
0

>  <SCORE.SYSTEM.norm>
0

>  <SCORE.heavy>
10

>  <SCORE.norm>
-1.99854

>  <RMSD>
28.048

$$$$
lig.pdb
 OpenBabel11021811523D
libRbt.so/2013.1/901 2013/11/27
 10 11  0  0  0  0  0  0  0  0999 V2000
   -7.4488   32.4217   -7.0409 N   0  0  0  0  0  0  0  0  0  0  0  0
   -6.6852   32.4297   -8.1758 C   0  0  0  0  0  0  0  0  0  0  0  0
   -6.4029   31.2333   -8.6331 N   0  0  0  0  0  0  0  0  0  0  0  0
   -7.0226   30.3798   -7.7360 C   0  0  0  0  0  0  0  0  0  0  0  0
   -7.1042   28.9770   -7.6637 C   0  0  0  0  0  0  0  0  0  0  0  0
   -6.5222   28.1620   -8.5497 N   0  0  0  0  0  0  0  0  0  0  0  0
   -7.8049   28.4418   -6.6400 N   0  0  0  0  0  0  0  0  0  0  0  0
   -8.3818   29.2626   -5.7554 C   0  0  0  0  0  0  0  0  0  0  0  0
   -8.3760   30.5946   -5.7202 N   0  0  0  0  0  0  0  0  0  0  0  0
   -7.6726   31.0956   -6.7481 C   0  0  0  0  0  0  0  0  0  0  0  0
  1 10  1  0  0  0  0
  2  3  2  0  0  0  0
  2  1  1  0  0  0  0
  3  4  1  0  0  0  0
  4 10  2  0  0  0  0
  4  5  1  0  0  0  0
  5  7  2  0  0  0  0
  6  5  1  0  0  0  0
  7  8  1  0  0  0  0
  9  8  2  0  0  0  0
 10  9  1  0  0  0  0
M  END
>  <CHROM.1>
-7.32754764,30.26231749,-7.28908949,1.38140746,0.97800698,0.03162659

>  <Name>
lig.pdb

>  <RI>
2.26746e+07

>  <Rbt.Current_Directory>
/home/itssahil/PROJECTS/Mol_Feturizer/New_Systems/rnas/5uza

>  <Rbt.Executable>
rbdock ($Id: //depot/dev/client3/rdock/2013.1/src/exe/rbdock.cxx#4 $)

>  <Rbt.Library>
libRbt.so (2013.1, Build901 2013/11/27)

>  <Rbt.Parameter_File>
/export/apps/rDock/src/rDock_2013.1_src/data/scripts/dock_solv.prm

>  <Rbt.Receptor>
prm/blind_docking_100.prm

>  <SCORE>
-19.9102

>  <SCORE.INTER>
-20.1769

>  <SCORE.INTER.CONST>
1

>  <SCORE.INTER.POLAR>
-2.69509

>  <SCORE.INTER.ROT>
0

>  <SCORE.INTER.SOLV>
11.413

>  <SCORE.INTER.VDW>
-11.8719

>  <SCORE.INTER.norm>
-2.01769

>  <SCORE.INTRA>
0

>  <SCORE.INTRA.DIHEDRAL>
0

>  <SCORE.INTRA.DIHEDRAL.0>
0

>  <SCORE.INTRA.POLAR>
0

>  <SCORE.INTRA.POLAR.0>
0

>  <SCORE.INTRA.REPUL>
0

>  <SCORE.INTRA.REPUL.0>
0

>  <SCORE.INTRA.SOLV>
0

>  <SCORE.INTRA.SOLV.lig_0>
-14.8845

>  <SCORE.INTRA.VDW>
0

>  <SCORE.INTRA.VDW.0>
0

>  <SCORE.INTRA.norm>
0

>  <SCORE.RESTR>
0.266663

>  <SCORE.RESTR.CAVITY>
0.266663

>  <SCORE.RESTR.norm>
0.0266663

>  <SCORE.SYSTEM>
0

>  <SCORE.SYSTEM.CONST>
0

>  <SCORE.SYSTEM.DIHEDRAL>
0

>  <SCORE.SYSTEM.SOLV>
0

>  <SCORE.SYSTEM.norm>
0

>  <SCORE.heavy>
10

>  <SCORE.norm>
-1.99102

>  <RMSD>
28.052

$$$$
lig.pdb
 OpenBabel11021811523D
libRbt.so/2013.1/901 2013/11/27
 10 11  0  0  0  0  0  0  0  0999 V2000
   -7.4303   32.4095   -7.0239 N   0  0  0  0  0  0  0  0  0  0  0  0
   -6.6605   32.4203   -8.1545 C   0  0  0  0  0  0  0  0  0  0  0  0
   -6.3816   31.2251   -8.6172 N   0  0  0  0  0  0  0  0  0  0  0  0
   -7.0106   30.3695   -7.7286 C   0  0  0  0  0  0  0  0  0  0  0  0
   -7.0995   28.9668   -7.6650 C   0  0  0  0  0  0  0  0  0  0  0  0
   -6.5168   28.1541   -8.5526 N   0  0  0  0  0  0  0  0  0  0  0  0
   -7.8085   28.4291   -6.6484 N   0  0  0  0  0  0  0  0  0  0  0  0
   -8.3862   29.2476   -5.7621 C   0  0  0  0  0  0  0  0  0  0  0  0
   -8.3739   30.5793   -5.7190 N   0  0  0  0  0  0  0  0  0  0  0  0
   -7.6624   31.0828   -6.7401 C   0  0  0  0  0  0  0  0  0  0  0  0
  1 10  1  0  0  0  0
  2  3  2  0  0  0  0
  2  1  1  0  0  0  0
  3  4  1  0  0  0  0
  4 10  2  0  0  0  0
  4  5  1  0  0  0  0
  5  7  2  0  0  0  0
  6  5  1  0  0  0  0
  7  8  1  0  0  0  0
  9  8  2  0  0  0  0
 10  9  1  0  0  0  0
M  END
>  <CHROM.1>
-7.31853852,30.25099559,-7.28408065,1.37284437,0.97233104,0.04458394

>  <Name>
lig.pdb

>  <RI>
2.26746e+07

>  <Rbt.Current_Directory>
/home/itssahil/PROJECTS/Mol_Feturizer/New_Systems/rnas/5uza

>  <Rbt.Executable>
rbdock ($Id: //depot/dev/client3/rdock/2013.1/src/exe/rbdock.cxx#4 $)

>  <Rbt.Library>
libRbt.so (2013.1, Build901 2013/11/27)

>  <Rbt.Parameter_File>
/export/apps/rDock/src/rDock_2013.1_src/data/scripts/dock_solv.prm

>  <Rbt.Receptor>
prm/blind_docking_100.prm

>  <SCORE>
-19.9689

>  <SCORE.INTER>
-20.2451

>  <SCORE.INTER.CONST>
1

>  <SCORE.INTER.POLAR>
-2.73904

>  <SCORE.INTER.ROT>
0

>  <SCORE.INTER.SOLV>
11.4281

>  <SCORE.INTER.VDW>
-11.7759

>  <SCORE.INTER.norm>
-2.02451

>  <SCORE.INTRA>
0

>  <SCORE.INTRA.DIHEDRAL>
0

>  <SCORE.INTRA.DIHEDRAL.0>
0

>  <SCORE.INTRA.POLAR>
0

>  <SCORE.INTRA.POLAR.0>
0

>  <SCORE.INTRA.REPUL>
0

>  <SCORE.INTRA.REPUL.0>
0

>  <SCORE.INTRA.SOLV>
0

>  <SCORE.INTRA.SOLV.lig_0>
-14.8845

>  <SCORE.INTRA.VDW>
0

>  <SCORE.INTRA.VDW.0>
0

>  <SCORE.INTRA.norm>
0

>  <SCORE.RESTR>
0.276139

>  <SCORE.RESTR.CAVITY>
0.276139

>  <SCORE.RESTR.norm>
0.0276139

>  <SCORE.SYSTEM>
0

>  <SCORE.SYSTEM.CONST>
0

>  <SCORE.SYSTEM.DIHEDRAL>
0

>  <SCORE.SYSTEM.SOLV>
0

>  <SCORE.SYSTEM.norm>
0

>  <SCORE.heavy>
10

>  <SCORE.norm>
-1.99689

>  <RMSD>
28.056

$$$$
lig.pdb
 OpenBabel11021811523D
libRbt.so/2013.1/901 2013/11/27
 10 11  0  0  0  0  0  0  0  0999 V2000
   -7.2908   32.4156   -7.0174 N   0  0  0  0  0  0  0  0  0  0  0  0
   -7.0510   32.4015   -8.3640 C   0  0  0  0  0  0  0  0  0  0  0  0
   -6.8284   31.2038   -8.8502 N   0  0  0  0  0  0  0  0  0  0  0  0
   -6.9274   30.3734   -7.7466 C   0  0  0  0  0  0  0  0  0  0  0  0
   -6.7984   28.9807   -7.5935 C   0  0  0  0  0  0  0  0  0  0  0  0
   -6.5221   28.1540   -8.6075 N   0  0  0  0  0  0  0  0  0  0  0  0
   -6.9601   28.4687   -6.3537 N   0  0  0  0  0  0  0  0  0  0  0  0
   -7.2332   29.3015   -5.3433 C   0  0  0  0  0  0  0  0  0  0  0  0
   -7.3792   30.6258   -5.3647 N   0  0  0  0  0  0  0  0  0  0  0  0
   -7.2127   31.1038   -6.6082 C   0  0  0  0  0  0  0  0  0  0  0  0
  1 10  1  0  0  0  0
  2  3  2  0  0  0  0
  2  1  1  0  0  0  0
  3  4  1  0  0  0  0
  4 10  2  0  0  0  0
  4  5  1  0  0  0  0
  5  7  2  0  0  0  0
  6  5  1  0  0  0  0
  7  8  1  0  0  0  0
  9  8  2  0  0  0  0
 10  9  1  0  0  0  0
M  END
>  <CHROM.1>
-7.01155141,30.26519285,-7.21020761,1.95265041,1.36305407,-0.57102980

>  <Name>
lig.pdb

>  <RI>
2.34257e+07

>  <Rbt.Current_Directory>
/home/itssahil/PROJECTS/Mol_Feturizer/New_Systems/rnas/5uza

>  <Rbt.Executable>
rbdock ($Id: //depot/dev/client3/rdock/2013.1/src/exe/rbdock.cxx#4 $)

>  <Rbt.Library>
libRbt.so (2013.1, Build901 2013/11/27)

>  <Rbt.Parameter_File>
/export/apps/rDock/src/rDock_2013.1_src/data/scripts/dock_solv.prm

>  <Rbt.Receptor>
prm/blind_docking_40.prm

>  <SCORE>
-19.041

>  <SCORE.INTER>
-19.3481

>  <SCORE.INTER.CONST>
1

>  <SCORE.INTER.POLAR>
-2.83475

>  <SCORE.INTER.ROT>
0

>  <SCORE.INTER.SOLV>
13.4469

>  <SCORE.INTER.VDW>
-11.5319

>  <SCORE.INTER.norm>
-1.93481

>  <SCORE.INTRA>
0

>  <SCORE.INTRA.DIHEDRAL>
0

>  <SCORE.INTRA.DIHEDRAL.0>
0

>  <SCORE.INTRA.POLAR>
0

>  <SCORE.INTRA.POLAR.0>
0

>  <SCORE.INTRA.REPUL>
0

>  <SCORE.INTRA.REPUL.0>
0

>  <SCORE.INTRA.SOLV>
0

>  <SCORE.INTRA.SOLV.lig_0>
-14.8845

>  <SCORE.INTRA.VDW>
0

>  <SCORE.INTRA.VDW.0>
0

>  <SCORE.INTRA.norm>
0

>  <SCORE.RESTR>
0.307056

>  <SCORE.RESTR.CAVITY>
0.307056

>  <SCORE.RESTR.norm>
0.0307056

>  <SCORE.SYSTEM>
0

>  <SCORE.SYSTEM.CONST>
0

>  <SCORE.SYSTEM.DIHEDRAL>
0

>  <SCORE.SYSTEM.SOLV>
0

>  <SCORE.SYSTEM.norm>
0

>  <SCORE.heavy>
10

>  <SCORE.norm>
-1.9041

>  <RMSD>
28.343

$$$$
lig.pdb
 OpenBabel11021811523D
libRbt.so/2013.1/901 2013/11/27
 10 11  0  0  0  0  0  0  0  0999 V2000
   -7.2812   32.4183   -7.0141 N   0  0  0  0  0  0  0  0  0  0  0  0
   -7.0369   32.4037   -8.3599 C   0  0  0  0  0  0  0  0  0  0  0  0
   -6.8160   31.2055   -8.8455 N   0  0  0  0  0  0  0  0  0  0  0  0
   -6.9212   30.3752   -7.7424 C   0  0  0  0  0  0  0  0  0  0  0  0
   -6.7967   28.9821   -7.5892 C   0  0  0  0  0  0  0  0  0  0  0  0
   -6.5192   28.1549   -8.6024 N   0  0  0  0  0  0  0  0  0  0  0  0
   -6.9640   28.4704   -6.3501 N   0  0  0  0  0  0  0  0  0  0  0  0
   -7.2382   29.3038   -5.3404 C   0  0  0  0  0  0  0  0  0  0  0  0
   -7.3804   30.6285   -5.3621 N   0  0  0  0  0  0  0  0  0  0  0  0
   -7.2082   31.1062   -6.6049 C   0  0  0  0  0  0  0  0  0  0  0  0
  1 10  1  0  0  0  0
  2  3  2  0  0  0  0
  2  1  1  0  0  0  0
  3  4  1  0  0  0  0
  4 10  2  0  0  0  0
  4  5  1  0  0  0  0
  5  7  2  0  0  0  0
  6  5  1  0  0  0  0
  7  8  1  0  0  0  0
  9  8  2  0  0  0  0
 10  9  1  0  0  0  0
M  END
>  <CHROM.1>
-7.00743006,30.26715962,-7.20638201,1.93215036,1.36167660,-0.55077196

>  <Name>
lig.pdb

>  <RI>
2.26746e+07

>  <Rbt.Current_Directory>
/home/itssahil/PROJECTS/Mol_Feturizer/New_Systems/rnas/5uza

>  <Rbt.Executable>
rbdock ($Id: //depot/dev/client3/rdock/2013.1/src/exe/rbdock.cxx#4 $)

>  <Rbt.Library>
libRbt.so (2013.1, Build901 2013/11/27)

>  <Rbt.Parameter_File>
/export/apps/rDock/src/rDock_2013.1_src/data/scripts/dock_solv.prm

>  <Rbt.Receptor>
prm/blind_docking_100.prm

>  <SCORE>
-19.0371

>  <SCORE.INTER>
-19.3424

>  <SCORE.INTER.CONST>
1

>  <SCORE.INTER.POLAR>
-2.82953

>  <SCORE.INTER.ROT>
0

>  <SCORE.INTER.SOLV>
13.4418

>  <SCORE.INTER.VDW>
-11.5438

>  <SCORE.INTER.norm>
-1.93424

>  <SCORE.INTRA>
0

>  <SCORE.INTRA.DIHEDRAL>
0

>  <SCORE.INTRA.DIHEDRAL.0>
0

>  <SCORE.INTRA.POLAR>
0

>  <SCORE.INTRA.POLAR.0>
0

>  <SCORE.INTRA.REPUL>
0

>  <SCORE.INTRA.REPUL.0>
0

>  <SCORE.INTRA.SOLV>
0

>  <SCORE.INTRA.SOLV.lig_0>
-14.8845

>  <SCORE.INTRA.VDW>
0

>  <SCORE.INTRA.VDW.0>
0

>  <SCORE.INTRA.norm>
0

>  <SCORE.RESTR>
0.30527

>  <SCORE.RESTR.CAVITY>
0.30527

>  <SCORE.RESTR.norm>
0.030527

>  <SCORE.SYSTEM>
0

>  <SCORE.SYSTEM.CONST>
0

>  <SCORE.SYSTEM.DIHEDRAL>
0

>  <SCORE.SYSTEM.SOLV>
0

>  <SCORE.SYSTEM.norm>
0

>  <SCORE.heavy>
10

>  <SCORE.norm>
-1.90371

>  <RMSD>
28.349

$$$$
lig.pdb
 OpenBabel11021811523D
libRbt.so/2013.1/901 2013/11/27
 10 11  0  0  0  0  0  0  0  0999 V2000
   -7.2800   32.4194   -7.0148 N   0  0  0  0  0  0  0  0  0  0  0  0
   -7.0374   32.4046   -8.3608 C   0  0  0  0  0  0  0  0  0  0  0  0
   -6.8176   31.2062   -8.8466 N   0  0  0  0  0  0  0  0  0  0  0  0
   -6.9217   30.3761   -7.7432 C   0  0  0  0  0  0  0  0  0  0  0  0
   -6.7976   28.9830   -7.5900 C   0  0  0  0  0  0  0  0  0  0  0  0
   -6.5218   28.1555   -8.6034 N   0  0  0  0  0  0  0  0  0  0  0  0
   -6.9636   28.4715   -6.3506 N   0  0  0  0  0  0  0  0  0  0  0  0
   -7.2361   29.3051   -5.3407 C   0  0  0  0  0  0  0  0  0  0  0  0
   -7.3778   30.6299   -5.3623 N   0  0  0  0  0  0  0  0  0  0  0  0
   -7.2070   31.1074   -6.6054 C   0  0  0  0  0  0  0  0  0  0  0  0
  1 10  1  0  0  0  0
  2  3  2  0  0  0  0
  2  1  1  0  0  0  0
  3  4  1  0  0  0  0
  4 10  2  0  0  0  0
  4  5  1  0  0  0  0
  5  7  2  0  0  0  0
  6  5  1  0  0  0  0
  7  8  1  0  0  0  0
  9  8  2  0  0  0  0
 10  9  1  0  0  0  0
M  END
>  <CHROM.1>
-7.00736181,30.26816476,-7.20706039,1.93379918,1.36299330,-0.55253462

>  <Name>
lig.pdb

>  <RI>
2.34257e+07

>  <Rbt.Current_Directory>
/home/itssahil/PROJECTS/Mol_Feturizer/New_Systems/rnas/5uza

>  <Rbt.Executable>
rbdock ($Id: //depot/dev/client3/rdock/2013.1/src/exe/rbdock.cxx#4 $)

>  <Rbt.Library>
libRbt.so (2013.1, Build901 2013/11/27)

>  <Rbt.Parameter_File>
/export/apps/rDock/src/rDock_2013.1_src/data/scripts/dock_solv.prm

>  <Rbt.Receptor>
prm/blind_docking_40.prm

>  <SCORE>
-19.042

>  <SCORE.INTER>
-19.3483

>  <SCORE.INTER.CONST>
1

>  <SCORE.INTER.POLAR>
-2.82727

>  <SCORE.INTER.ROT>
0

>  <SCORE.INTER.SOLV>
13.4441

>  <SCORE.INTER.VDW>
-11.556

>  <SCORE.INTER.norm>
-1.93483

>  <SCORE.INTRA>
0

>  <SCORE.INTRA.DIHEDRAL>
0

>  <SCORE.INTRA.DIHEDRAL.0>
0

>  <SCORE.INTRA.POLAR>
0

>  <SCORE.INTRA.POLAR.0>
0

>  <SCORE.INTRA.REPUL>
0

>  <SCORE.INTRA.REPUL.0>
0

>  <SCORE.INTRA.SOLV>
0

>  <SCORE.INTRA.SOLV.lig_0>
-14.8845

>  <SCORE.INTRA.VDW>
0

>  <SCORE.INTRA.VDW.0>
0

>  <SCORE.INTRA.norm>
0

>  <SCORE.RESTR>
0.306355

>  <SCORE.RESTR.CAVITY>
0.306355

>  <SCORE.RESTR.norm>
0.0306355

>  <SCORE.SYSTEM>
0

>  <SCORE.SYSTEM.CONST>
0

>  <SCORE.SYSTEM.DIHEDRAL>
0

>  <SCORE.SYSTEM.SOLV>
0

>  <SCORE.SYSTEM.norm>
0

>  <SCORE.heavy>
10

>  <SCORE.norm>
-1.9042

>  <RMSD>
28.349

$$$$
lig.pdb
 OpenBabel11021811523D
libRbt.so/2013.1/901 2013/11/27
 10 11  0  0  0  0  0  0  0  0999 V2000
   -7.2886   32.4225   -7.0192 N   0  0  0  0  0  0  0  0  0  0  0  0
   -7.0441   32.4049   -8.3649 C   0  0  0  0  0  0  0  0  0  0  0  0
   -6.8188   31.2062   -8.8470 N   0  0  0  0  0  0  0  0  0  0  0  0
   -6.9210   30.3787   -7.7415 C   0  0  0  0  0  0  0  0  0  0  0  0
   -6.7914   28.9865   -7.5843 C   0  0  0  0  0  0  0  0  0  0  0  0
   -6.5108   28.1573   -8.5950 N   0  0  0  0  0  0  0  0  0  0  0  0
   -6.9569   28.4777   -6.3437 N   0  0  0  0  0  0  0  0  0  0  0  0
   -7.2342   29.3130   -5.3364 C   0  0  0  0  0  0  0  0  0  0  0  0
   -7.3812   30.6371   -5.3620 N   0  0  0  0  0  0  0  0  0  0  0  0
   -7.2108   31.1119   -6.6061 C   0  0  0  0  0  0  0  0  0  0  0  0
  1 10  1  0  0  0  0
  2  3  2  0  0  0  0
  2  1  1  0  0  0  0
  3  4  1  0  0  0  0
  4 10  2  0  0  0  0
  4  5  1  0  0  0  0
  5  7  2  0  0  0  0
  6  5  1  0  0  0  0
  7  8  1  0  0  0  0
  9  8  2  0  0  0  0
 10  9  1  0  0  0  0
M  END
>  <CHROM.1>
-7.00686376,30.27184265,-7.20517569,1.94703061,1.35967979,-0.56823203

>  <Name>
lig.pdb

>  <RI>
2.34257e+07

>  <Rbt.Current_Directory>
/home/itssahil/PROJECTS/Mol_Feturizer/New_Systems/rnas/5uza

>  <Rbt.Executable>
rbdock ($Id: //depot/dev/client3/rdock/2013.1/src/exe/rbdock.cxx#4 $)

>  <Rbt.Library>
libRbt.so (2013.1, Build901 2013/11/27)

>  <Rbt.Parameter_File>
/export/apps/rDock/src/rDock_2013.1_src/data/scripts/dock_solv.prm

>  <Rbt.Receptor>
prm/blind_docking_40.prm

>  <SCORE>
-19.0275

>  <SCORE.INTER>
-19.3341

>  <SCORE.INTER.CONST>
1

>  <SCORE.INTER.POLAR>
-2.81061

>  <SCORE.INTER.ROT>
0

>  <SCORE.INTER.SOLV>
13.4387

>  <SCORE.INTER.VDW>
-11.6003

>  <SCORE.INTER.norm>
-1.93341

>  <SCORE.INTRA>
0

>  <SCORE.INTRA.DIHEDRAL>
0

>  <SCORE.INTRA.DIHEDRAL.0>
0

>  <SCORE.INTRA.POLAR>
0

>  <SCORE.INTRA.POLAR.0>
0

>  <SCORE.INTRA.REPUL>
0

>  <SCORE.INTRA.REPUL.0>
0

>  <SCORE.INTRA.SOLV>
0

>  <SCORE.INTRA.SOLV.lig_0>
-14.8845

>  <SCORE.INTRA.VDW>
0

>  <SCORE.INTRA.VDW.0>
0

>  <SCORE.INTRA.norm>
0

>  <SCORE.RESTR>
0.306572

>  <SCORE.RESTR.CAVITY>
0.306572

>  <SCORE.RESTR.norm>
0.0306572

>  <SCORE.SYSTEM>
0

>  <SCORE.SYSTEM.CONST>
0

>  <SCORE.SYSTEM.DIHEDRAL>
0

>  <SCORE.SYSTEM.SOLV>
0

>  <SCORE.SYSTEM.norm>
0

>  <SCORE.heavy>
10

>  <SCORE.norm>
-1.90275

>  <RMSD>
28.351

$$$$
lig.pdb
 OpenBabel11021811523D
libRbt.so/2013.1/901 2013/11/27
 10 11  0  0  0  0  0  0  0  0999 V2000
   -7.2762   32.4193   -7.0066 N   0  0  0  0  0  0  0  0  0  0  0  0
   -7.0346   32.4053   -8.3528 C   0  0  0  0  0  0  0  0  0  0  0  0
   -6.8173   31.2071   -8.8400 N   0  0  0  0  0  0  0  0  0  0  0  0
   -6.9221   30.3761   -7.7374 C   0  0  0  0  0  0  0  0  0  0  0  0
   -6.8003   28.9825   -7.5856 C   0  0  0  0  0  0  0  0  0  0  0  0
   -6.5267   28.1556   -8.6000 N   0  0  0  0  0  0  0  0  0  0  0  0
   -6.9662   28.4701   -6.3465 N   0  0  0  0  0  0  0  0  0  0  0  0
   -7.2365   29.3032   -5.3356 C   0  0  0  0  0  0  0  0  0  0  0  0
   -7.3759   30.6282   -5.3559 N   0  0  0  0  0  0  0  0  0  0  0  0
   -7.2052   31.1067   -6.5986 C   0  0  0  0  0  0  0  0  0  0  0  0
  1 10  1  0  0  0  0
  2  3  2  0  0  0  0
  2  1  1  0  0  0  0
  3  4  1  0  0  0  0
  4 10  2  0  0  0  0
  4  5  1  0  0  0  0
  5  7  2  0  0  0  0
  6  5  1  0  0  0  0
  7  8  1  0  0  0  0
  9  8  2  0  0  0  0
 10  9  1  0  0  0  0
M  END
>  <CHROM.1>
-7.00747417,30.26771060,-7.20122565,1.92836145,1.36453461,-0.54621042

>  <Name>
lig.pdb

>  <RI>
2.34257e+07

>  <Rbt.Current_Directory>
/home/itssahil/PROJECTS/Mol_Feturizer/New_Systems/rnas/5uza

>  <Rbt.Executable>
rbdock ($Id: //depot/dev/client3/rdock/2013.1/src/exe/rbdock.cxx#4 $)

>  <Rbt.Library>
libRbt.so (2013.1, Build901 2013/11/27)

>  <Rbt.Parameter_File>
/export/apps/rDock/src/rDock_2013.1_src/data/scripts/dock_solv.prm

>  <Rbt.Receptor>
prm/blind_docking_40.prm

>  <SCORE>
-19.0246

>  <SCORE.INTER>
-19.3259

>  <SCORE.INTER.CONST>
1

>  <SCORE.INTER.POLAR>
-2.84202

>  <SCORE.INTER.ROT>
0

>  <SCORE.INTER.SOLV>
13.4434

>  <SCORE.INTER.VDW>
-11.4917

>  <SCORE.INTER.norm>
-1.93259

>  <SCORE.INTRA>
0

>  <SCORE.INTRA.DIHEDRAL>
0

>  <SCORE.INTRA.DIHEDRAL.0>
0

>  <SCORE.INTRA.POLAR>
0

>  <SCORE.INTRA.POLAR.0>
0

>  <SCORE.INTRA.REPUL>
0

>  <SCORE.INTRA.REPUL.0>
0

>  <SCORE.INTRA.SOLV>
0

>  <SCORE.INTRA.SOLV.lig_0>
-14.8845

>  <SCORE.INTRA.VDW>
0

>  <SCORE.INTRA.VDW.0>
0

>  <SCORE.INTRA.norm>
0

>  <SCORE.RESTR>
0.301346

>  <SCORE.RESTR.CAVITY>
0.301346

>  <SCORE.RESTR.norm>
0.0301346

>  <SCORE.SYSTEM>
0

>  <SCORE.SYSTEM.CONST>
0

>  <SCORE.SYSTEM.DIHEDRAL>
0

>  <SCORE.SYSTEM.SOLV>
0

>  <SCORE.SYSTEM.norm>
0

>  <SCORE.heavy>
10

>  <SCORE.norm>
-1.90246

>  <RMSD>
28.351

$$$$
lig.pdb
 OpenBabel11021811523D
libRbt.so/2013.1/901 2013/11/27
 10 11  0  0  0  0  0  0  0  0999 V2000
   -7.2774   32.4175   -7.0096 N   0  0  0  0  0  0  0  0  0  0  0  0
   -7.0301   32.4018   -8.3548 C   0  0  0  0  0  0  0  0  0  0  0  0
   -6.8094   31.2030   -8.8392 N   0  0  0  0  0  0  0  0  0  0  0  0
   -6.9179   30.3736   -7.7357 C   0  0  0  0  0  0  0  0  0  0  0  0
   -6.7952   28.9804   -7.5813 C   0  0  0  0  0  0  0  0  0  0  0  0
   -6.5164   28.1522   -8.5933 N   0  0  0  0  0  0  0  0  0  0  0  0
   -6.9658   28.4697   -6.3422 N   0  0  0  0  0  0  0  0  0  0  0  0
   -7.2412   29.3040   -5.3337 C   0  0  0  0  0  0  0  0  0  0  0  0
   -7.3820   30.6289   -5.3566 N   0  0  0  0  0  0  0  0  0  0  0  0
   -7.2066   31.1056   -6.5993 C   0  0  0  0  0  0  0  0  0  0  0  0
  1 10  1  0  0  0  0
  2  3  2  0  0  0  0
  2  1  1  0  0  0  0
  3  4  1  0  0  0  0
  4 10  2  0  0  0  0
  4  5  1  0  0  0  0
  5  7  2  0  0  0  0
  6  5  1  0  0  0  0
  7  8  1  0  0  0  0
  9  8  2  0  0  0  0
 10  9  1  0  0  0  0
M  END
>  <CHROM.1>
-7.00542239,30.26594588,-7.19980172,1.92246035,1.36037845,-0.54196288

>  <Name>
lig.pdb

>  <RI>
2.34257e+07

>  <Rbt.Current_Directory>
/home/itssahil/PROJECTS/Mol_Feturizer/New_Systems/rnas/5uza

>  <Rbt.Executable>
rbdock ($Id: //depot/dev/client3/rdock/2013.1/src/exe/rbdock.cxx#4 $)

>  <Rbt.Library>
libRbt.so (2013.1, Build901 2013/11/27)

>  <Rbt.Parameter_File>
/export/apps/rDock/src/rDock_2013.1_src/data/scripts/dock_solv.prm

>  <Rbt.Receptor>
prm/blind_docking_40.prm

>  <SCORE>
-19.0262

>  <SCORE.INTER>
-19.3281

>  <SCORE.INTER.CONST>
1

>  <SCORE.INTER.POLAR>
-2.83163

>  <SCORE.INTER.ROT>
0

>  <SCORE.INTER.SOLV>
13.4363

>  <SCORE.INTER.VDW>
-11.5254

>  <SCORE.INTER.norm>
-1.93281

>  <SCORE.INTRA>
0

>  <SCORE.INTRA.DIHEDRAL>
0

>  <SCORE.INTRA.DIHEDRAL.0>
0

>  <SCORE.INTRA.POLAR>
0

>  <SCORE.INTRA.POLAR.0>
0

>  <SCORE.INTRA.REPUL>
0

>  <SCORE.INTRA.REPUL.0>
0

>  <SCORE.INTRA.SOLV>
0

>  <SCORE.INTRA.SOLV.lig_0>
-14.8845

>  <SCORE.INTRA.VDW>
0

>  <SCORE.INTRA.VDW.0>
0

>  <SCORE.INTRA.norm>
0

>  <SCORE.RESTR>
0.301901

>  <SCORE.RESTR.CAVITY>
0.301901

>  <SCORE.RESTR.norm>
0.0301901

>  <SCORE.SYSTEM>
0

>  <SCORE.SYSTEM.CONST>
0

>  <SCORE.SYSTEM.DIHEDRAL>
0

>  <SCORE.SYSTEM.SOLV>
0

>  <SCORE.SYSTEM.norm>
0

>  <SCORE.heavy>
10

>  <SCORE.norm>
-1.90262

>  <RMSD>
28.352

$$$$
lig.pdb
 OpenBabel11021811523D
libRbt.so/2013.1/901 2013/11/27
 10 11  0  0  0  0  0  0  0  0999 V2000
   -7.2687   32.4204   -7.0073 N   0  0  0  0  0  0  0  0  0  0  0  0
   -7.0161   32.4052   -8.3515 C   0  0  0  0  0  0  0  0  0  0  0  0
   -6.7996   31.2060   -8.8366 N   0  0  0  0  0  0  0  0  0  0  0  0
   -6.9169   30.3756   -7.7347 C   0  0  0  0  0  0  0  0  0  0  0  0
   -6.8021   28.9817   -7.5817 C   0  0  0  0  0  0  0  0  0  0  0  0
   -6.5236   28.1533   -8.5937 N   0  0  0  0  0  0  0  0  0  0  0  0
   -6.9804   28.4702   -6.3440 N   0  0  0  0  0  0  0  0  0  0  0  0
   -7.2556   29.3047   -5.3355 C   0  0  0  0  0  0  0  0  0  0  0  0
   -7.3894   30.6302   -5.3571 N   0  0  0  0  0  0  0  0  0  0  0  0
   -7.2065   31.1076   -6.5985 C   0  0  0  0  0  0  0  0  0  0  0  0
  1 10  1  0  0  0  0
  2  3  2  0  0  0  0
  2  1  1  0  0  0  0
  3  4  1  0  0  0  0
  4 10  2  0  0  0  0
  4  5  1  0  0  0  0
  5  7  2  0  0  0  0
  6  5  1  0  0  0  0
  7  8  1  0  0  0  0
  9  8  2  0  0  0  0
 10  9  1  0  0  0  0
M  END
>  <CHROM.1>
-7.00720220,30.26775814,-7.19930208,1.89117099,1.35947415,-0.51004369

>  <Name>
lig.pdb

>  <RI>
2.34257e+07

>  <Rbt.Current_Directory>
/home/itssahil/PROJECTS/Mol_Feturizer/New_Systems/rnas/5uza

>  <Rbt.Executable>
rbdock ($Id: //depot/dev/client3/rdock/2013.1/src/exe/rbdock.cxx#4 $)

>  <Rbt.Library>
libRbt.so (2013.1, Build901 2013/11/27)

>  <Rbt.Parameter_File>
/export/apps/rDock/src/rDock_2013.1_src/data/scripts/dock_solv.prm

>  <Rbt.Receptor>
prm/blind_docking_40.prm

>  <SCORE>
-18.9942

>  <SCORE.INTER>
-19.2951

>  <SCORE.INTER.CONST>
1

>  <SCORE.INTER.POLAR>
-2.83395

>  <SCORE.INTER.ROT>
0

>  <SCORE.INTER.SOLV>
13.4173

>  <SCORE.INTER.VDW>
-11.4893

>  <SCORE.INTER.norm>
-1.92951

>  <SCORE.INTRA>
0

>  <SCORE.INTRA.DIHEDRAL>
0

>  <SCORE.INTRA.DIHEDRAL.0>
0

>  <SCORE.INTRA.POLAR>
0

>  <SCORE.INTRA.POLAR.0>
0

>  <SCORE.INTRA.REPUL>
0

>  <SCORE.INTRA.REPUL.0>
0

>  <SCORE.INTRA.SOLV>
0

>  <SCORE.INTRA.SOLV.lig_0>
-14.8845

>  <SCORE.INTRA.VDW>
0

>  <SCORE.INTRA.VDW.0>
0

>  <SCORE.INTRA.norm>
0

>  <SCORE.RESTR>
0.300905

>  <SCORE.RESTR.CAVITY>
0.300905

>  <SCORE.RESTR.norm>
0.0300905

>  <SCORE.SYSTEM>
0

>  <SCORE.SYSTEM.CONST>
0

>  <SCORE.SYSTEM.DIHEDRAL>
0

>  <SCORE.SYSTEM.SOLV>
0

>  <SCORE.SYSTEM.norm>
0

>  <SCORE.heavy>
10

>  <SCORE.norm>
-1.89942

>  <RMSD>
28.352

$$$$
lig.pdb
 OpenBabel11021811523D
libRbt.so/2013.1/901 2013/11/27
 10 11  0  0  0  0  0  0  0  0999 V2000
   -7.2754   32.4191   -7.0064 N   0  0  0  0  0  0  0  0  0  0  0  0
   -7.0328   32.4048   -8.3525 C   0  0  0  0  0  0  0  0  0  0  0  0
   -6.8151   31.2064   -8.8391 N   0  0  0  0  0  0  0  0  0  0  0  0
   -6.9206   30.3757   -7.7364 C   0  0  0  0  0  0  0  0  0  0  0  0
   -6.7989   28.9823   -7.5841 C   0  0  0  0  0  0  0  0  0  0  0  0
   -6.5245   28.1550   -8.5981 N   0  0  0  0  0  0  0  0  0  0  0  0
   -6.9657   28.4702   -6.3450 N   0  0  0  0  0  0  0  0  0  0  0  0
   -7.2368   29.3036   -5.3345 C   0  0  0  0  0  0  0  0  0  0  0  0
   -7.3762   30.6286   -5.3553 N   0  0  0  0  0  0  0  0  0  0  0  0
   -7.2046   31.1066   -6.5980 C   0  0  0  0  0  0  0  0  0  0  0  0
  1 10  1  0  0  0  0
  2  3  2  0  0  0  0
  2  1  1  0  0  0  0
  3  4  1  0  0  0  0
  4 10  2  0  0  0  0
  4  5  1  0  0  0  0
  5  7  2  0  0  0  0
  6  5  1  0  0  0  0
  7  8  1  0  0  0  0
  9  8  2  0  0  0  0
 10  9  1  0  0  0  0
M  END
>  <CHROM.1>
-7.00641560,30.26752450,-7.20026118,1.92672255,1.36390543,-0.54489277

>  <Name>
lig.pdb

>  <RI>
2.34257e+07

>  <Rbt.Current_Directory>
/home/itssahil/PROJECTS/Mol_Feturizer/New_Systems/rnas/5uza

>  <Rbt.Executable>
rbdock ($Id: //depot/dev/client3/rdock/2013.1/src/exe/rbdock.cxx#4 $)

>  <Rbt.Library>
libRbt.so (2013.1, Build901 2013/11/27)

>  <Rbt.Parameter_File>
/export/apps/rDock/src/rDock_2013.1_src/data/scripts/dock_solv.prm

>  <Rbt.Receptor>
prm/blind_docking_40.prm

>  <SCORE>
-19.0243

>  <SCORE.INTER>
-19.3255

>  <SCORE.INTER.CONST>
1

>  <SCORE.INTER.POLAR>
-2.84037

>  <SCORE.INTER.ROT>
0

>  <SCORE.INTER.SOLV>
13.4433

>  <SCORE.INTER.VDW>
-11.4968

>  <SCORE.INTER.norm>
-1.93255

>  <SCORE.INTRA>
0

>  <SCORE.INTRA.DIHEDRAL>
0

>  <SCORE.INTRA.DIHEDRAL.0>
0

>  <SCORE.INTRA.POLAR>
0

>  <SCORE.INTRA.POLAR.0>
0

>  <SCORE.INTRA.REPUL>
0

>  <SCORE.INTRA.REPUL.0>
0

>  <SCORE.INTRA.SOLV>
0

>  <SCORE.INTRA.SOLV.lig_0>
-14.8845

>  <SCORE.INTRA.VDW>
0

>  <SCORE.INTRA.VDW.0>
0

>  <SCORE.INTRA.norm>
0

>  <SCORE.RESTR>
0.301143

>  <SCORE.RESTR.CAVITY>
0.301143

>  <SCORE.RESTR.norm>
0.0301143

>  <SCORE.SYSTEM>
0

>  <SCORE.SYSTEM.CONST>
0

>  <SCORE.SYSTEM.DIHEDRAL>
0

>  <SCORE.SYSTEM.SOLV>
0

>  <SCORE.SYSTEM.norm>
0

>  <SCORE.heavy>
10

>  <SCORE.norm>
-1.90243

>  <RMSD>
28.352

$$$$
lig.pdb
 OpenBabel11021811523D
libRbt.so/2013.1/901 2013/11/27
 10 11  0  0  0  0  0  0  0  0999 V2000
   -7.2635   32.4219   -7.0113 N   0  0  0  0  0  0  0  0  0  0  0  0
   -7.0083   32.4054   -8.3550 C   0  0  0  0  0  0  0  0  0  0  0  0
   -6.7929   31.2054   -8.8389 N   0  0  0  0  0  0  0  0  0  0  0  0
   -6.9136   30.3760   -7.7367 C   0  0  0  0  0  0  0  0  0  0  0  0
   -6.8014   28.9820   -7.5825 C   0  0  0  0  0  0  0  0  0  0  0  0
   -6.5222   28.1525   -8.5934 N   0  0  0  0  0  0  0  0  0  0  0  0
   -6.9828   28.4716   -6.3448 N   0  0  0  0  0  0  0  0  0  0  0  0
   -7.2587   29.3072   -5.3374 C   0  0  0  0  0  0  0  0  0  0  0  0
   -7.3902   30.6330   -5.3602 N   0  0  0  0  0  0  0  0  0  0  0  0
   -7.2042   31.1093   -6.6015 C   0  0  0  0  0  0  0  0  0  0  0  0
  1 10  1  0  0  0  0
  2  3  2  0  0  0  0
  2  1  1  0  0  0  0
  3  4  1  0  0  0  0
  4 10  2  0  0  0  0
  4  5  1  0  0  0  0
  5  7  2  0  0  0  0
  6  5  1  0  0  0  0
  7  8  1  0  0  0  0
  9  8  2  0  0  0  0
 10  9  1  0  0  0  0
M  END
>  <CHROM.1>
-7.00509877,30.26866833,-7.20137263,1.88006514,1.35856596,-0.49985155

>  <Name>
lig.pdb

>  <RI>
2.34257e+07

>  <Rbt.Current_Directory>
/home/itssahil/PROJECTS/Mol_Feturizer/New_Systems/rnas/5uza

>  <Rbt.Executable>
rbdock ($Id: //depot/dev/client3/rdock/2013.1/src/exe/rbdock.cxx#4 $)

>  <Rbt.Library>
libRbt.so (2013.1, Build901 2013/11/27)

>  <Rbt.Parameter_File>
/export/apps/rDock/src/rDock_2013.1_src/data/scripts/dock_solv.prm

>  <Rbt.Receptor>
prm/blind_docking_40.prm

>  <SCORE>
-19.0054

>  <SCORE.INTER>
-19.3097

>  <SCORE.INTER.CONST>
1

>  <SCORE.INTER.POLAR>
-2.81935

>  <SCORE.INTER.ROT>
0

>  <SCORE.INTER.SOLV>
13.4142

>  <SCORE.INTER.VDW>
-11.5467

>  <SCORE.INTER.norm>
-1.93097

>  <SCORE.INTRA>
0

>  <SCORE.INTRA.DIHEDRAL>
0

>  <SCORE.INTRA.DIHEDRAL.0>
0

>  <SCORE.INTRA.POLAR>
0

>  <SCORE.INTRA.POLAR.0>
0

>  <SCORE.INTRA.REPUL>
0

>  <SCORE.INTRA.REPUL.0>
0

>  <SCORE.INTRA.SOLV>
0

>  <SCORE.INTRA.SOLV.lig_0>
-14.8845

>  <SCORE.INTRA.VDW>
0

>  <SCORE.INTRA.VDW.0>
0

>  <SCORE.INTRA.norm>
0

>  <SCORE.RESTR>
0.304325

>  <SCORE.RESTR.CAVITY>
0.304325

>  <SCORE.RESTR.norm>
0.0304325

>  <SCORE.SYSTEM>
0

>  <SCORE.SYSTEM.CONST>
0

>  <SCORE.SYSTEM.DIHEDRAL>
0

>  <SCORE.SYSTEM.SOLV>
0

>  <SCORE.SYSTEM.norm>
0

>  <SCORE.heavy>
10

>  <SCORE.norm>
-1.90054

>  <RMSD>
28.353

$$$$
lig.pdb
 OpenBabel11021811523D
libRbt.so/2013.1/901 2013/11/27
 10 11  0  0  0  0  0  0  0  0999 V2000
   -7.2757   32.4178   -7.0082 N   0  0  0  0  0  0  0  0  0  0  0  0
   -7.0295   32.4021   -8.3536 C   0  0  0  0  0  0  0  0  0  0  0  0
   -6.8099   31.2032   -8.8382 N   0  0  0  0  0  0  0  0  0  0  0  0
   -6.9179   30.3737   -7.7348 C   0  0  0  0  0  0  0  0  0  0  0  0
   -6.7959   28.9805   -7.5805 C   0  0  0  0  0  0  0  0  0  0  0  0
   -6.5184   28.1522   -8.5928 N   0  0  0  0  0  0  0  0  0  0  0  0
   -6.9658   28.4698   -6.3413 N   0  0  0  0  0  0  0  0  0  0  0  0
   -7.2400   29.3043   -5.3326 C   0  0  0  0  0  0  0  0  0  0  0  0
   -7.3801   30.6292   -5.3552 N   0  0  0  0  0  0  0  0  0  0  0  0
   -7.2054   31.1058   -6.5980 C   0  0  0  0  0  0  0  0  0  0  0  0
  1 10  1  0  0  0  0
  2  3  2  0  0  0  0
  2  1  1  0  0  0  0
  3  4  1  0  0  0  0
  4 10  2  0  0  0  0
  4  5  1  0  0  0  0
  5  7  2  0  0  0  0
  6  5  1  0  0  0  0
  7  8  1  0  0  0  0
  9  8  2  0  0  0  0
 10  9  1  0  0  0  0
M  END
>  <CHROM.1>
-7.00512716,30.26613041,-7.19878346,1.92203784,1.36133363,-0.54148985

>  <Name>
lig.pdb

>  <RI>
2.34257e+07

>  <Rbt.Current_Directory>
/home/itssahil/PROJECTS/Mol_Feturizer/New_Systems/rnas/5uza

>  <Rbt.Executable>
rbdock ($Id: //depot/dev/client3/rdock/2013.1/src/exe/rbdock.cxx#4 $)

>  <Rbt.Library>
libRbt.so (2013.1, Build901 2013/11/27)

>  <Rbt.Parameter_File>
/export/apps/rDock/src/rDock_2013.1_src/data/scripts/dock_solv.prm

>  <Rbt.Receptor>
prm/blind_docking_40.prm

>  <SCORE>
-19.0255

>  <SCORE.INTER>
-19.327

>  <SCORE.INTER.CONST>
1

>  <SCORE.INTER.POLAR>
-2.83323

>  <SCORE.INTER.ROT>
0

>  <SCORE.INTER.SOLV>
13.4381

>  <SCORE.INTER.VDW>
-11.5199

>  <SCORE.INTER.norm>
-1.9327

>  <SCORE.INTRA>
0

>  <SCORE.INTRA.DIHEDRAL>
0

>  <SCORE.INTRA.DIHEDRAL.0>
0

>  <SCORE.INTRA.POLAR>
0

>  <SCORE.INTRA.POLAR.0>
0

>  <SCORE.INTRA.REPUL>
0

>  <SCORE.INTRA.REPUL.0>
0

>  <SCORE.INTRA.SOLV>
0

>  <SCORE.INTRA.SOLV.lig_0>
-14.8845

>  <SCORE.INTRA.VDW>
0

>  <SCORE.INTRA.VDW.0>
0

>  <SCORE.INTRA.norm>
0

>  <SCORE.RESTR>
0.301503

>  <SCORE.RESTR.CAVITY>
0.301503

>  <SCORE.RESTR.norm>
0.0301503

>  <SCORE.SYSTEM>
0

>  <SCORE.SYSTEM.CONST>
0

>  <SCORE.SYSTEM.DIHEDRAL>
0

>  <SCORE.SYSTEM.SOLV>
0

>  <SCORE.SYSTEM.norm>
0

>  <SCORE.heavy>
10

>  <SCORE.norm>
-1.90255

>  <RMSD>
28.353

$$$$
lig.pdb
 OpenBabel11021811523D
libRbt.so/2013.1/901 2013/11/27
 10 11  0  0  0  0  0  0  0  0999 V2000
   -7.2662   32.4365   -7.0046 N   0  0  0  0  0  0  0  0  0  0  0  0
   -7.0168   32.4287   -8.3495 C   0  0  0  0  0  0  0  0  0  0  0  0
   -6.8037   31.2319   -8.8421 N   0  0  0  0  0  0  0  0  0  0  0  0
   -6.9198   30.3954   -7.7448 C   0  0  0  0  0  0  0  0  0  0  0  0
   -6.8071   29.0004   -7.6002 C   0  0  0  0  0  0  0  0  0  0  0  0
   -6.5324   28.1775   -8.6177 N   0  0  0  0  0  0  0  0  0  0  0  0
   -6.9833   28.4820   -6.3650 N   0  0  0  0  0  0  0  0  0  0  0  0
   -7.2546   29.3110   -5.3510 C   0  0  0  0  0  0  0  0  0  0  0  0
   -7.3861   30.6369   -5.3646 N   0  0  0  0  0  0  0  0  0  0  0  0
   -7.2053   31.1213   -6.6036 C   0  0  0  0  0  0  0  0  0  0  0  0
  1 10  1  0  0  0  0
  2  3  2  0  0  0  0
  2  1  1  0  0  0  0
  3  4  1  0  0  0  0
  4 10  2  0  0  0  0
  4  5  1  0  0  0  0
  5  7  2  0  0  0  0
  6  5  1  0  0  0  0
  7  8  1  0  0  0  0
  9  8  2  0  0  0  0
 10  9  1  0  0  0  0
M  END
>  <CHROM.1>
-7.00896337,30.28455403,-7.20980834,1.88937913,1.36243750,-0.50244784

>  <Name>
lig.pdb

>  <RI>
2.34257e+07

>  <Rbt.Current_Directory>
/home/itssahil/PROJECTS/Mol_Feturizer/New_Systems/rnas/5uza

>  <Rbt.Executable>
rbdock ($Id: //depot/dev/client3/rdock/2013.1/src/exe/rbdock.cxx#4 $)

>  <Rbt.Library>
libRbt.so (2013.1, Build901 2013/11/27)

>  <Rbt.Parameter_File>
/export/apps/rDock/src/rDock_2013.1_src/data/scripts/dock_solv.prm

>  <Rbt.Receptor>
prm/blind_docking_40.prm

>  <SCORE>
-18.9592

>  <SCORE.INTER>
-19.2585

>  <SCORE.INTER.CONST>
1

>  <SCORE.INTER.POLAR>
-2.85303

>  <SCORE.INTER.ROT>
0

>  <SCORE.INTER.SOLV>
13.4218

>  <SCORE.INTER.VDW>
-11.4028

>  <SCORE.INTER.norm>
-1.92585

>  <SCORE.INTRA>
0

>  <SCORE.INTRA.DIHEDRAL>
0

>  <SCORE.INTRA.DIHEDRAL.0>
0

>  <SCORE.INTRA.POLAR>
0

>  <SCORE.INTRA.POLAR.0>
0

>  <SCORE.INTRA.REPUL>
0

>  <SCORE.INTRA.REPUL.0>
0

>  <SCORE.INTRA.SOLV>
0

>  <SCORE.INTRA.SOLV.lig_0>
-14.8845

>  <SCORE.INTRA.VDW>
0

>  <SCORE.INTRA.VDW.0>
0

>  <SCORE.INTRA.norm>
0

>  <SCORE.RESTR>
0.29927

>  <SCORE.RESTR.CAVITY>
0.29927

>  <SCORE.RESTR.norm>
0.029927

>  <SCORE.SYSTEM>
0

>  <SCORE.SYSTEM.CONST>
0

>  <SCORE.SYSTEM.DIHEDRAL>
0

>  <SCORE.SYSTEM.SOLV>
0

>  <SCORE.SYSTEM.norm>
0

>  <SCORE.heavy>
10

>  <SCORE.norm>
-1.89592

>  <RMSD>
28.355

$$$$
lig.pdb
 OpenBabel11021811523D
libRbt.so/2013.1/901 2013/11/27
 10 11  0  0  0  0  0  0  0  0999 V2000
   -7.2751   32.4229   -7.0058 N   0  0  0  0  0  0  0  0  0  0  0  0
   -7.0310   32.4118   -8.3517 C   0  0  0  0  0  0  0  0  0  0  0  0
   -6.8116   31.2147   -8.8407 N   0  0  0  0  0  0  0  0  0  0  0  0
   -6.9175   30.3815   -7.7399 C   0  0  0  0  0  0  0  0  0  0  0  0
   -6.7946   28.9878   -7.5905 C   0  0  0  0  0  0  0  0  0  0  0  0
   -6.5183   28.1630   -8.6060 N   0  0  0  0  0  0  0  0  0  0  0  0
   -6.9623   28.4728   -6.3528 N   0  0  0  0  0  0  0  0  0  0  0  0
   -7.2353   29.3037   -5.3407 C   0  0  0  0  0  0  0  0  0  0  0  0
   -7.3760   30.6287   -5.3587 N   0  0  0  0  0  0  0  0  0  0  0  0
   -7.2035   31.1096   -6.6002 C   0  0  0  0  0  0  0  0  0  0  0  0
  1 10  1  0  0  0  0
  2  3  2  0  0  0  0
  2  1  1  0  0  0  0
  3  4  1  0  0  0  0
  4 10  2  0  0  0  0
  4  5  1  0  0  0  0
  5  7  2  0  0  0  0
  6  5  1  0  0  0  0
  7  8  1  0  0  0  0
  9  8  2  0  0  0  0
 10  9  1  0  0  0  0
M  END
>  <CHROM.1>
-7.00381694,30.27202251,-7.20407831,1.92792144,1.36244951,-0.54387214

>  <Name>
lig.pdb

>  <RI>
2.34257e+07

>  <Rbt.Current_Directory>
/home/itssahil/PROJECTS/Mol_Feturizer/New_Systems/rnas/5uza

>  <Rbt.Executable>
rbdock ($Id: //depot/dev/client3/rdock/2013.1/src/exe/rbdock.cxx#4 $)

>  <Rbt.Library>
libRbt.so (2013.1, Build901 2013/11/27)

>  <Rbt.Parameter_File>
/export/apps/rDock/src/rDock_2013.1_src/data/scripts/dock_solv.prm

>  <Rbt.Receptor>
prm/blind_docking_40.prm

>  <SCORE>
-18.9991

>  <SCORE.INTER>
-19.2992

>  <SCORE.INTER.CONST>
1

>  <SCORE.INTER.POLAR>
-2.84783

>  <SCORE.INTER.ROT>
0

>  <SCORE.INTER.SOLV>
13.4504

>  <SCORE.INTER.VDW>
-11.4568

>  <SCORE.INTER.norm>
-1.92992

>  <SCORE.INTRA>
0

>  <SCORE.INTRA.DIHEDRAL>
0

>  <SCORE.INTRA.DIHEDRAL.0>
0

>  <SCORE.INTRA.POLAR>
0

>  <SCORE.INTRA.POLAR.0>
0

>  <SCORE.INTRA.REPUL>
0

>  <SCORE.INTRA.REPUL.0>
0

>  <SCORE.INTRA.SOLV>
0

>  <SCORE.INTRA.SOLV.lig_0>
-14.8845

>  <SCORE.INTRA.VDW>
0

>  <SCORE.INTRA.VDW.0>
0

>  <SCORE.INTRA.norm>
0

>  <SCORE.RESTR>
0.300085

>  <SCORE.RESTR.CAVITY>
0.300085

>  <SCORE.RESTR.norm>
0.0300085

>  <SCORE.SYSTEM>
0

>  <SCORE.SYSTEM.CONST>
0

>  <SCORE.SYSTEM.DIHEDRAL>
0

>  <SCORE.SYSTEM.SOLV>
0

>  <SCORE.SYSTEM.norm>
0

>  <SCORE.heavy>
10

>  <SCORE.norm>
-1.89991

>  <RMSD>
28.355

$$$$
lig.pdb
 OpenBabel11021811523D
libRbt.so/2013.1/901 2013/11/27
 10 11  0  0  0  0  0  0  0  0999 V2000
   -0.8446   16.6075   -1.8476 N   0  0  0  0  0  0  0  0  0  0  0  0
   -0.9848   15.4142   -2.5014 C   0  0  0  0  0  0  0  0  0  0  0  0
    0.0907   15.0355   -3.1497 N   0  0  0  0  0  0  0  0  0  0  0  0
    1.0003   16.0507   -2.9062 C   0  0  0  0  0  0  0  0  0  0  0  0
    2.3335   16.2463   -3.3112 C   0  0  0  0  0  0  0  0  0  0  0  0
    2.9978   15.3843   -4.0881 N   0  0  0  0  0  0  0  0  0  0  0  0
    2.9585   17.3676   -2.8900 N   0  0  0  0  0  0  0  0  0  0  0  0
    2.2871   18.2273   -2.1158 C   0  0  0  0  0  0  0  0  0  0  0  0
    1.0339   18.1509   -1.6695 N   0  0  0  0  0  0  0  0  0  0  0  0
    0.4406   17.0279   -2.1046 C   0  0  0  0  0  0  0  0  0  0  0  0
  1 10  1  0  0  0  0
  2  3  2  0  0  0  0
  2  1  1  0  0  0  0
  3  4  1  0  0  0  0
  4 10  2  0  0  0  0
  4  5  1  0  0  0  0
  5  7  2  0  0  0  0
  6  5  1  0  0  0  0
  7  8  1  0  0  0  0
  9  8  2  0  0  0  0
 10  9  1  0  0  0  0
M  END
>  <CHROM.1>
1.16398364,16.53045745,-2.68364627,3.08117053,-0.32603606,-2.60502360

>  <Name>
lig.pdb

>  <RI>
2.21672e+07

>  <Rbt.Current_Directory>
/home/afrankz/demos/rdock_decoys_rna/rnas/5uza

>  <Rbt.Executable>
rbdock ($Id: //depot/dev/client3/rdock/2013.1/src/exe/rbdock.cxx#4 $)

>  <Rbt.Library>
libRbt.so (2013.1, Build901 2013/11/27)

>  <Rbt.Parameter_File>
/export/apps/rDock/src/rDock_2013.1_src/data/scripts/dock_solv.prm

>  <Rbt.Receptor>
prm/blind_docking_20.prm

>  <SCORE>
-11.4635

>  <SCORE.INTER>
-12.0673

>  <SCORE.INTER.CONST>
1

>  <SCORE.INTER.POLAR>
-2.33818

>  <SCORE.INTER.ROT>
0

>  <SCORE.INTER.SOLV>
7.48755

>  <SCORE.INTER.VDW>
-6.34675

>  <SCORE.INTER.norm>
-1.20673

>  <SCORE.INTRA>
0

>  <SCORE.INTRA.DIHEDRAL>
0

>  <SCORE.INTRA.DIHEDRAL.0>
0

>  <SCORE.INTRA.POLAR>
0

>  <SCORE.INTRA.POLAR.0>
0

>  <SCORE.INTRA.REPUL>
0

>  <SCORE.INTRA.REPUL.0>
0

>  <SCORE.INTRA.SOLV>
0

>  <SCORE.INTRA.SOLV.lig_0>
-14.8845

>  <SCORE.INTRA.VDW>
0

>  <SCORE.INTRA.VDW.0>
0

>  <SCORE.INTRA.norm>
0

>  <SCORE.RESTR>
0.603774

>  <SCORE.RESTR.CAVITY>
0.603774

>  <SCORE.RESTR.norm>
0.0603774

>  <SCORE.SYSTEM>
0

>  <SCORE.SYSTEM.CONST>
0

>  <SCORE.SYSTEM.DIHEDRAL>
0

>  <SCORE.SYSTEM.SOLV>
0

>  <SCORE.SYSTEM.norm>
0

>  <SCORE.heavy>
10

>  <SCORE.norm>
-1.14635

>  <RMSD>
34.473

$$$$
lig.pdb
 OpenBabel11021811523D
libRbt.so/2013.1/901 2013/11/27
 10 11  0  0  0  0  0  0  0  0999 V2000
   -0.8450   16.6066   -1.8520 N   0  0  0  0  0  0  0  0  0  0  0  0
   -0.9837   15.4148   -2.5089 C   0  0  0  0  0  0  0  0  0  0  0  0
    0.0936   15.0370   -3.1545 N   0  0  0  0  0  0  0  0  0  0  0  0
    1.0030   16.0511   -2.9059 C   0  0  0  0  0  0  0  0  0  0  0  0
    2.3376   16.2469   -3.3062 C   0  0  0  0  0  0  0  0  0  0  0  0
    3.0040   15.3863   -4.0827 N   0  0  0  0  0  0  0  0  0  0  0  0
    2.9618   17.3670   -2.8805 N   0  0  0  0  0  0  0  0  0  0  0  0
    2.2884   18.2253   -2.1066 C   0  0  0  0  0  0  0  0  0  0  0  0
    1.0337   18.1486   -1.6645 N   0  0  0  0  0  0  0  0  0  0  0  0
    0.4412   17.0269   -2.1040 C   0  0  0  0  0  0  0  0  0  0  0  0
  1 10  1  0  0  0  0
  2  3  2  0  0  0  0
  2  1  1  0  0  0  0
  3  4  1  0  0  0  0
  4 10  2  0  0  0  0
  4  5  1  0  0  0  0
  5  7  2  0  0  0  0
  6  5  1  0  0  0  0
  7  8  1  0  0  0  0
  9  8  2  0  0  0  0
 10  9  1  0  0  0  0
M  END
>  <CHROM.1>
1.16622601,16.53031348,-2.68175190,3.07989700,-0.32297985,-2.60325239

>  <Name>
lig.pdb

>  <RI>
2.21672e+07

>  <Rbt.Current_Directory>
/home/afrankz/demos/rdock_decoys_rna/rnas/5uza

>  <Rbt.Executable>
rbdock ($Id: //depot/dev/client3/rdock/2013.1/src/exe/rbdock.cxx#4 $)

>  <Rbt.Library>
libRbt.so (2013.1, Build901 2013/11/27)

>  <Rbt.Parameter_File>
/export/apps/rDock/src/rDock_2013.1_src/data/scripts/dock_solv.prm

>  <Rbt.Receptor>
prm/blind_docking_20.prm

>  <SCORE>
-11.4414

>  <SCORE.INTER>
-12.0452

>  <SCORE.INTER.CONST>
1

>  <SCORE.INTER.POLAR>
-2.33918

>  <SCORE.INTER.ROT>
0

>  <SCORE.INTER.SOLV>
7.4661

>  <SCORE.INTER.VDW>
-6.32159

>  <SCORE.INTER.norm>
-1.20452

>  <SCORE.INTRA>
0

>  <SCORE.INTRA.DIHEDRAL>
0

>  <SCORE.INTRA.DIHEDRAL.0>
0

>  <SCORE.INTRA.POLAR>
0

>  <SCORE.INTRA.POLAR.0>
0

>  <SCORE.INTRA.REPUL>
0

>  <SCORE.INTRA.REPUL.0>
0

>  <SCORE.INTRA.SOLV>
0

>  <SCORE.INTRA.SOLV.lig_0>
-14.8845

>  <SCORE.INTRA.VDW>
0

>  <SCORE.INTRA.VDW.0>
0

>  <SCORE.INTRA.norm>
0

>  <SCORE.RESTR>
0.603813

>  <SCORE.RESTR.CAVITY>
0.603813

>  <SCORE.RESTR.norm>
0.0603813

>  <SCORE.SYSTEM>
0

>  <SCORE.SYSTEM.CONST>
0

>  <SCORE.SYSTEM.DIHEDRAL>
0

>  <SCORE.SYSTEM.SOLV>
0

>  <SCORE.SYSTEM.norm>
0

>  <SCORE.heavy>
10

>  <SCORE.norm>
-1.14414

>  <RMSD>
34.476

$$$$
lig.pdb
 OpenBabel11021811523D
libRbt.so/2013.1/901 2013/11/27
 10 11  0  0  0  0  0  0  0  0999 V2000
    3.2063   18.0485   -3.1764 N   0  0  0  0  0  0  0  0  0  0  0  0
    3.4003   17.0644   -4.1064 C   0  0  0  0  0  0  0  0  0  0  0  0
    2.3982   16.2240   -4.2057 N   0  0  0  0  0  0  0  0  0  0  0  0
    1.4827   16.6871   -3.2758 C   0  0  0  0  0  0  0  0  0  0  0  0
    0.2062   16.2339   -2.8953 C   0  0  0  0  0  0  0  0  0  0  0  0
   -0.3805   15.1590   -3.4322 N   0  0  0  0  0  0  0  0  0  0  0  0
   -0.4447   16.9270   -1.9354 N   0  0  0  0  0  0  0  0  0  0  0  0
    0.1492   17.9994   -1.4002 C   0  0  0  0  0  0  0  0  0  0  0  0
    1.3435   18.5215   -1.6769 N   0  0  0  0  0  0  0  0  0  0  0  0
    1.9644   17.8117   -2.6323 C   0  0  0  0  0  0  0  0  0  0  0  0
  1 10  1  0  0  0  0
  2  3  2  0  0  0  0
  2  1  1  0  0  0  0
  3  4  1  0  0  0  0
  4 10  2  0  0  0  0
  4  5  1  0  0  0  0
  5  7  2  0  0  0  0
  6  5  1  0  0  0  0
  7  8  1  0  0  0  0
  9  8  2  0  0  0  0
 10  9  1  0  0  0  0
M  END
>  <CHROM.1>
1.30258451,17.03394804,-2.88373572,-0.01216109,0.42952855,0.69097801

>  <Name>
lig.pdb

>  <RI>
2.21672e+07

>  <Rbt.Current_Directory>
/home/afrankz/demos/rdock_decoys_rna/rnas/5uza

>  <Rbt.Executable>
rbdock ($Id: //depot/dev/client3/rdock/2013.1/src/exe/rbdock.cxx#4 $)

>  <Rbt.Library>
libRbt.so (2013.1, Build901 2013/11/27)

>  <Rbt.Parameter_File>
/export/apps/rDock/src/rDock_2013.1_src/data/scripts/dock_solv.prm

>  <Rbt.Receptor>
prm/blind_docking_20.prm

>  <SCORE>
-13.4014

>  <SCORE.INTER>
-13.4383

>  <SCORE.INTER.CONST>
1

>  <SCORE.INTER.POLAR>
-2.13643

>  <SCORE.INTER.ROT>
0

>  <SCORE.INTER.SOLV>
9.00856

>  <SCORE.INTER.VDW>
-8.44028

>  <SCORE.INTER.norm>
-1.34383

>  <SCORE.INTRA>
0

>  <SCORE.INTRA.DIHEDRAL>
0

>  <SCORE.INTRA.DIHEDRAL.0>
0

>  <SCORE.INTRA.POLAR>
0

>  <SCORE.INTRA.POLAR.0>
0

>  <SCORE.INTRA.REPUL>
0

>  <SCORE.INTRA.REPUL.0>
0

>  <SCORE.INTRA.SOLV>
0

>  <SCORE.INTRA.SOLV.lig_0>
-14.8845

>  <SCORE.INTRA.VDW>
0

>  <SCORE.INTRA.VDW.0>
0

>  <SCORE.INTRA.norm>
0

>  <SCORE.RESTR>
0.0369638

>  <SCORE.RESTR.CAVITY>
0.0369638

>  <SCORE.RESTR.norm>
0.00369638

>  <SCORE.SYSTEM>
0

>  <SCORE.SYSTEM.CONST>
0

>  <SCORE.SYSTEM.DIHEDRAL>
0

>  <SCORE.SYSTEM.SOLV>
0

>  <SCORE.SYSTEM.norm>
0

>  <SCORE.heavy>
10

>  <SCORE.norm>
-1.34014

>  <RMSD>
34.541

$$$$
lig.pdb
 OpenBabel11021811523D
libRbt.so/2013.1/901 2013/11/27
 10 11  0  0  0  0  0  0  0  0999 V2000
    3.2271   17.9862   -3.1729 N   0  0  0  0  0  0  0  0  0  0  0  0
    3.4074   16.9919   -4.0948 C   0  0  0  0  0  0  0  0  0  0  0  0
    2.3925   16.1663   -4.1892 N   0  0  0  0  0  0  0  0  0  0  0  0
    1.4829   16.6507   -3.2645 C   0  0  0  0  0  0  0  0  0  0  0  0
    0.1989   16.2203   -2.8826 C   0  0  0  0  0  0  0  0  0  0  0  0
   -0.4035   15.1504   -3.4121 N   0  0  0  0  0  0  0  0  0  0  0  0
   -0.4427   16.9309   -1.9293 N   0  0  0  0  0  0  0  0  0  0  0  0
    0.1668   17.9982   -1.4015 C   0  0  0  0  0  0  0  0  0  0  0  0
    1.3695   18.4996   -1.6803 N   0  0  0  0  0  0  0  0  0  0  0  0
    1.9809   17.7728   -2.6290 C   0  0  0  0  0  0  0  0  0  0  0  0
  1 10  1  0  0  0  0
  2  3  2  0  0  0  0
  2  1  1  0  0  0  0
  3  4  1  0  0  0  0
  4 10  2  0  0  0  0
  4  5  1  0  0  0  0
  5  7  2  0  0  0  0
  6  5  1  0  0  0  0
  7  8  1  0  0  0  0
  9  8  2  0  0  0  0
 10  9  1  0  0  0  0
M  END
>  <CHROM.1>
1.30748997,17.00341562,-2.87547235,-0.02408390,0.41844994,0.68802186

>  <Name>
lig.pdb

>  <RI>
2.21672e+07

>  <Rbt.Current_Directory>
/home/afrankz/demos/rdock_decoys_rna/rnas/5uza

>  <Rbt.Executable>
rbdock ($Id: //depot/dev/client3/rdock/2013.1/src/exe/rbdock.cxx#4 $)

>  <Rbt.Library>
libRbt.so (2013.1, Build901 2013/11/27)

>  <Rbt.Parameter_File>
/export/apps/rDock/src/rDock_2013.1_src/data/scripts/dock_solv.prm

>  <Rbt.Receptor>
prm/blind_docking_20.prm

>  <SCORE>
-13.4502

>  <SCORE.INTER>
-13.5017

>  <SCORE.INTER.CONST>
1

>  <SCORE.INTER.POLAR>
-2.14477

>  <SCORE.INTER.ROT>
0

>  <SCORE.INTER.SOLV>
8.94688

>  <SCORE.INTER.VDW>
-8.43417

>  <SCORE.INTER.norm>
-1.35017

>  <SCORE.INTRA>
0

>  <SCORE.INTRA.DIHEDRAL>
0

>  <SCORE.INTRA.DIHEDRAL.0>
0

>  <SCORE.INTRA.POLAR>
0

>  <SCORE.INTRA.POLAR.0>
0

>  <SCORE.INTRA.REPUL>
0

>  <SCORE.INTRA.REPUL.0>
0

>  <SCORE.INTRA.SOLV>
0

>  <SCORE.INTRA.SOLV.lig_0>
-14.8845

>  <SCORE.INTRA.VDW>
0

>  <SCORE.INTRA.VDW.0>
0

>  <SCORE.INTRA.norm>
0

>  <SCORE.RESTR>
0.0514078

>  <SCORE.RESTR.CAVITY>
0.0514078

>  <SCORE.RESTR.norm>
0.00514078

>  <SCORE.SYSTEM>
0

>  <SCORE.SYSTEM.CONST>
0

>  <SCORE.SYSTEM.DIHEDRAL>
0

>  <SCORE.SYSTEM.SOLV>
0

>  <SCORE.SYSTEM.norm>
0

>  <SCORE.heavy>
10

>  <SCORE.norm>
-1.34502

>  <RMSD>
34.550

$$$$
lig.pdb
 OpenBabel11021811523D
libRbt.so/2013.1/901 2013/11/27
 10 11  0  0  0  0  0  0  0  0999 V2000
    3.2314   17.9863   -3.1150 N   0  0  0  0  0  0  0  0  0  0  0  0
    3.4329   16.9892   -4.0294 C   0  0  0  0  0  0  0  0  0  0  0  0
    2.4227   16.1600   -4.1406 N   0  0  0  0  0  0  0  0  0  0  0  0
    1.4935   16.6449   -3.2358 C   0  0  0  0  0  0  0  0  0  0  0  0
    0.2036   16.2119   -2.8777 C   0  0  0  0  0  0  0  0  0  0  0  0
   -0.3849   15.1381   -3.4148 N   0  0  0  0  0  0  0  0  0  0  0  0
   -0.4589   16.9239   -1.9399 N   0  0  0  0  0  0  0  0  0  0  0  0
    0.1368   17.9951   -1.4043 C   0  0  0  0  0  0  0  0  0  0  0  0
    1.3431   18.4994   -1.6612 N   0  0  0  0  0  0  0  0  0  0  0  0
    1.9754   17.7710   -2.5950 C   0  0  0  0  0  0  0  0  0  0  0  0
  1 10  1  0  0  0  0
  2  3  2  0  0  0  0
  2  1  1  0  0  0  0
  3  4  1  0  0  0  0
  4 10  2  0  0  0  0
  4  5  1  0  0  0  0
  5  7  2  0  0  0  0
  6  5  1  0  0  0  0
  7  8  1  0  0  0  0
  9  8  2  0  0  0  0
 10  9  1  0  0  0  0
M  END
>  <CHROM.1>
1.30939999,16.99851187,-2.85166674,-0.00784410,0.40517556,0.67775772

>  <Name>
lig.pdb

>  <RI>
2.21672e+07

>  <Rbt.Current_Directory>
/home/afrankz/demos/rdock_decoys_rna/rnas/5uza

>  <Rbt.Executable>
rbdock ($Id: //depot/dev/client3/rdock/2013.1/src/exe/rbdock.cxx#4 $)

>  <Rbt.Library>
libRbt.so (2013.1, Build901 2013/11/27)

>  <Rbt.Parameter_File>
/export/apps/rDock/src/rDock_2013.1_src/data/scripts/dock_solv.prm

>  <Rbt.Receptor>
prm/blind_docking_20.prm

>  <SCORE>
-13.4719

>  <SCORE.INTER>
-13.5251

>  <SCORE.INTER.CONST>
1

>  <SCORE.INTER.POLAR>
-2.1608

>  <SCORE.INTER.ROT>
0

>  <SCORE.INTER.SOLV>
8.87194

>  <SCORE.INTER.VDW>
-8.37138

>  <SCORE.INTER.norm>
-1.35251

>  <SCORE.INTRA>
0

>  <SCORE.INTRA.DIHEDRAL>
0

>  <SCORE.INTRA.DIHEDRAL.0>
0

>  <SCORE.INTRA.POLAR>
0

>  <SCORE.INTRA.POLAR.0>
0

>  <SCORE.INTRA.REPUL>
0

>  <SCORE.INTRA.REPUL.0>
0

>  <SCORE.INTRA.SOLV>
0

>  <SCORE.INTRA.SOLV.lig_0>
-14.8845

>  <SCORE.INTRA.VDW>
0

>  <SCORE.INTRA.VDW.0>
0

>  <SCORE.INTRA.norm>
0

>  <SCORE.RESTR>
0.0531733

>  <SCORE.RESTR.CAVITY>
0.0531733

>  <SCORE.RESTR.norm>
0.00531733

>  <SCORE.SYSTEM>
0

>  <SCORE.SYSTEM.CONST>
0

>  <SCORE.SYSTEM.DIHEDRAL>
0

>  <SCORE.SYSTEM.SOLV>
0

>  <SCORE.SYSTEM.norm>
0

>  <SCORE.heavy>
10

>  <SCORE.norm>
-1.34719

>  <RMSD>
34.562

$$$$
lig.pdb
 OpenBabel11021811523D
libRbt.so/2013.1/901 2013/11/27
 10 11  0  0  0  0  0  0  0  0999 V2000
    3.2470   17.9765   -3.1440 N   0  0  0  0  0  0  0  0  0  0  0  0
    3.4333   16.9853   -4.0680 C   0  0  0  0  0  0  0  0  0  0  0  0
    2.4163   16.1642   -4.1769 N   0  0  0  0  0  0  0  0  0  0  0  0
    1.4985   16.6485   -3.2601 C   0  0  0  0  0  0  0  0  0  0  0  0
    0.2087   16.2217   -2.8941 C   0  0  0  0  0  0  0  0  0  0  0  0
   -0.3921   15.1564   -3.4345 N   0  0  0  0  0  0  0  0  0  0  0  0
   -0.4403   16.9309   -1.9448 N   0  0  0  0  0  0  0  0  0  0  0  0
    0.1676   17.9935   -1.4060 C   0  0  0  0  0  0  0  0  0  0  0  0
    1.3752   18.4912   -1.6695 N   0  0  0  0  0  0  0  0  0  0  0  0
    1.9940   17.7659   -2.6146 C   0  0  0  0  0  0  0  0  0  0  0  0
  1 10  1  0  0  0  0
  2  3  2  0  0  0  0
  2  1  1  0  0  0  0
  3  4  1  0  0  0  0
  4 10  2  0  0  0  0
  4  5  1  0  0  0  0
  5  7  2  0  0  0  0
  6  5  1  0  0  0  0
  7  8  1  0  0  0  0
  9  8  2  0  0  0  0
 10  9  1  0  0  0  0
M  END
>  <CHROM.1>
1.32031365,17.00023509,-2.87155977,-0.01990917,0.40750836,0.69051689

>  <Name>
lig.pdb

>  <RI>
2.21672e+07

>  <Rbt.Current_Directory>
/home/afrankz/demos/rdock_decoys_rna/rnas/5uza

>  <Rbt.Executable>
rbdock ($Id: //depot/dev/client3/rdock/2013.1/src/exe/rbdock.cxx#4 $)

>  <Rbt.Library>
libRbt.so (2013.1, Build901 2013/11/27)

>  <Rbt.Parameter_File>
/export/apps/rDock/src/rDock_2013.1_src/data/scripts/dock_solv.prm

>  <Rbt.Receptor>
prm/blind_docking_20.prm

>  <SCORE>
-13.3674

>  <SCORE.INTER>
-13.3932

>  <SCORE.INTER.CONST>
1

>  <SCORE.INTER.POLAR>
-2.14019

>  <SCORE.INTER.ROT>
0

>  <SCORE.INTER.SOLV>
8.90172

>  <SCORE.INTER.VDW>
-8.36206

>  <SCORE.INTER.norm>
-1.33932

>  <SCORE.INTRA>
0

>  <SCORE.INTRA.DIHEDRAL>
0

>  <SCORE.INTRA.DIHEDRAL.0>
0

>  <SCORE.INTRA.POLAR>
0

>  <SCORE.INTRA.POLAR.0>
0

>  <SCORE.INTRA.REPUL>
0

>  <SCORE.INTRA.REPUL.0>
0

>  <SCORE.INTRA.SOLV>
0

>  <SCORE.INTRA.SOLV.lig_0>
-14.8845

>  <SCORE.INTRA.VDW>
0

>  <SCORE.INTRA.VDW.0>
0

>  <SCORE.INTRA.norm>
0

>  <SCORE.RESTR>
0.0257763

>  <SCORE.RESTR.CAVITY>
0.0257763

>  <SCORE.RESTR.norm>
0.00257763

>  <SCORE.SYSTEM>
0

>  <SCORE.SYSTEM.CONST>
0

>  <SCORE.SYSTEM.DIHEDRAL>
0

>  <SCORE.SYSTEM.SOLV>
0

>  <SCORE.SYSTEM.norm>
0

>  <SCORE.heavy>
10

>  <SCORE.norm>
-1.33674

>  <RMSD>
34.564

$$$$
lig.pdb
 OpenBabel11021811523D
libRbt.so/2013.1/901 2013/11/27
 10 11  0  0  0  0  0  0  0  0999 V2000
    3.2283   18.0309   -3.1167 N   0  0  0  0  0  0  0  0  0  0  0  0
    3.4364   17.0402   -4.0365 C   0  0  0  0  0  0  0  0  0  0  0  0
    2.4331   16.2029   -4.1497 N   0  0  0  0  0  0  0  0  0  0  0  0
    1.5018   16.6753   -3.2405 C   0  0  0  0  0  0  0  0  0  0  0  0
    0.2164   16.2293   -2.8818 C   0  0  0  0  0  0  0  0  0  0  0  0
   -0.3640   15.1532   -3.4231 N   0  0  0  0  0  0  0  0  0  0  0  0
   -0.4501   16.9310   -1.9391 N   0  0  0  0  0  0  0  0  0  0  0  0
    0.1375   18.0046   -1.3993 C   0  0  0  0  0  0  0  0  0  0  0  0
    1.3388   18.5205   -1.6563 N   0  0  0  0  0  0  0  0  0  0  0  0
    1.9753   17.8022   -2.5951 C   0  0  0  0  0  0  0  0  0  0  0  0
  1 10  1  0  0  0  0
  2  3  2  0  0  0  0
  2  1  1  0  0  0  0
  3  4  1  0  0  0  0
  4 10  2  0  0  0  0
  4  5  1  0  0  0  0
  5  7  2  0  0  0  0
  6  5  1  0  0  0  0
  7  8  1  0  0  0  0
  9  8  2  0  0  0  0
 10  9  1  0  0  0  0
M  END
>  <CHROM.1>
1.31543011,17.02532252,-2.85422137,-0.00201121,0.41226835,0.68043971

>  <Name>
lig.pdb

>  <RI>
2.21672e+07

>  <Rbt.Current_Directory>
/home/afrankz/demos/rdock_decoys_rna/rnas/5uza

>  <Rbt.Executable>
rbdock ($Id: //depot/dev/client3/rdock/2013.1/src/exe/rbdock.cxx#4 $)

>  <Rbt.Library>
libRbt.so (2013.1, Build901 2013/11/27)

>  <Rbt.Parameter_File>
/export/apps/rDock/src/rDock_2013.1_src/data/scripts/dock_solv.prm

>  <Rbt.Receptor>
prm/blind_docking_20.prm

>  <SCORE>
-13.4426

>  <SCORE.INTER>
-13.4863

>  <SCORE.INTER.CONST>
1

>  <SCORE.INTER.POLAR>
-2.14585

>  <SCORE.INTER.ROT>
0

>  <SCORE.INTER.SOLV>
8.88352

>  <SCORE.INTER.VDW>
-8.39918

>  <SCORE.INTER.norm>
-1.34863

>  <SCORE.INTRA>
0

>  <SCORE.INTRA.DIHEDRAL>
0

>  <SCORE.INTRA.DIHEDRAL.0>
0

>  <SCORE.INTRA.POLAR>
0

>  <SCORE.INTRA.POLAR.0>
0

>  <SCORE.INTRA.REPUL>
0

>  <SCORE.INTRA.REPUL.0>
0

>  <SCORE.INTRA.SOLV>
0

>  <SCORE.INTRA.SOLV.lig_0>
-14.8845

>  <SCORE.INTRA.VDW>
0

>  <SCORE.INTRA.VDW.0>
0

>  <SCORE.INTRA.norm>
0

>  <SCORE.RESTR>
0.0436358

>  <SCORE.RESTR.CAVITY>
0.0436358

>  <SCORE.RESTR.norm>
0.00436358

>  <SCORE.SYSTEM>
0

>  <SCORE.SYSTEM.CONST>
0

>  <SCORE.SYSTEM.DIHEDRAL>
0

>  <SCORE.SYSTEM.SOLV>
0

>  <SCORE.SYSTEM.norm>
0

>  <SCORE.heavy>
10

>  <SCORE.norm>
-1.34426

>  <RMSD>
34.566

$$$$
lig.pdb
 OpenBabel11021811523D
libRbt.so/2013.1/901 2013/11/27
 10 11  0  0  0  0  0  0  0  0999 V2000
    3.2232   18.0298   -3.1170 N   0  0  0  0  0  0  0  0  0  0  0  0
    3.4336   17.0360   -4.0331 C   0  0  0  0  0  0  0  0  0  0  0  0
    2.4332   16.1948   -4.1417 N   0  0  0  0  0  0  0  0  0  0  0  0
    1.5013   16.6676   -3.2333 C   0  0  0  0  0  0  0  0  0  0  0  0
    0.2179   16.2186   -2.8712 C   0  0  0  0  0  0  0  0  0  0  0  0
   -0.3594   15.1383   -3.4074 N   0  0  0  0  0  0  0  0  0  0  0  0
   -0.4499   16.9218   -1.9305 N   0  0  0  0  0  0  0  0  0  0  0  0
    0.1346   17.9996   -1.3958 C   0  0  0  0  0  0  0  0  0  0  0  0
    1.3338   18.5186   -1.6563 N   0  0  0  0  0  0  0  0  0  0  0  0
    1.9717   17.7988   -2.5930 C   0  0  0  0  0  0  0  0  0  0  0  0
  1 10  1  0  0  0  0
  2  3  2  0  0  0  0
  2  1  1  0  0  0  0
  3  4  1  0  0  0  0
  4 10  2  0  0  0  0
  4  5  1  0  0  0  0
  5  7  2  0  0  0  0
  6  5  1  0  0  0  0
  7  8  1  0  0  0  0
  9  8  2  0  0  0  0
 10  9  1  0  0  0  0
M  END
>  <CHROM.1>
1.31419074,17.01857018,-2.84816508,0.00010911,0.41539664,0.67554891

>  <Name>
lig.pdb

>  <RI>
2.21672e+07

>  <Rbt.Current_Directory>
/home/afrankz/demos/rdock_decoys_rna/rnas/5uza

>  <Rbt.Executable>
rbdock ($Id: //depot/dev/client3/rdock/2013.1/src/exe/rbdock.cxx#4 $)

>  <Rbt.Library>
libRbt.so (2013.1, Build901 2013/11/27)

>  <Rbt.Parameter_File>
/export/apps/rDock/src/rDock_2013.1_src/data/scripts/dock_solv.prm

>  <Rbt.Receptor>
prm/blind_docking_20.prm

>  <SCORE>
-13.5543

>  <SCORE.INTER>
-13.629

>  <SCORE.INTER.CONST>
1

>  <SCORE.INTER.POLAR>
-2.15361

>  <SCORE.INTER.ROT>
0

>  <SCORE.INTER.SOLV>
8.86322

>  <SCORE.INTER.VDW>
-8.46171

>  <SCORE.INTER.norm>
-1.3629

>  <SCORE.INTRA>
0

>  <SCORE.INTRA.DIHEDRAL>
0

>  <SCORE.INTRA.DIHEDRAL.0>
0

>  <SCORE.INTRA.POLAR>
0

>  <SCORE.INTRA.POLAR.0>
0

>  <SCORE.INTRA.REPUL>
0

>  <SCORE.INTRA.REPUL.0>
0

>  <SCORE.INTRA.SOLV>
0

>  <SCORE.INTRA.SOLV.lig_0>
-14.8845

>  <SCORE.INTRA.VDW>
0

>  <SCORE.INTRA.VDW.0>
0

>  <SCORE.INTRA.norm>
0

>  <SCORE.RESTR>
0.0747423

>  <SCORE.RESTR.CAVITY>
0.0747423

>  <SCORE.RESTR.norm>
0.00747423

>  <SCORE.SYSTEM>
0

>  <SCORE.SYSTEM.CONST>
0

>  <SCORE.SYSTEM.DIHEDRAL>
0

>  <SCORE.SYSTEM.SOLV>
0

>  <SCORE.SYSTEM.norm>
0

>  <SCORE.heavy>
10

>  <SCORE.norm>
-1.35543

>  <RMSD>
34.566

$$$$
lig.pdb
 OpenBabel11021811523D
libRbt.so/2013.1/901 2013/11/27
 10 11  0  0  0  0  0  0  0  0999 V2000
    3.2344   17.9980   -3.0994 N   0  0  0  0  0  0  0  0  0  0  0  0
    3.4447   17.0019   -4.0129 C   0  0  0  0  0  0  0  0  0  0  0  0
    2.4384   16.1687   -4.1297 N   0  0  0  0  0  0  0  0  0  0  0  0
    1.5025   16.6497   -3.2297 C   0  0  0  0  0  0  0  0  0  0  0  0
    0.2125   16.2114   -2.8785 C   0  0  0  0  0  0  0  0  0  0  0  0
   -0.3688   15.1354   -3.4190 N   0  0  0  0  0  0  0  0  0  0  0  0
   -0.4578   16.9206   -1.9441 N   0  0  0  0  0  0  0  0  0  0  0  0
    0.1307   17.9940   -1.4051 C   0  0  0  0  0  0  0  0  0  0  0  0
    1.3364   18.5032   -1.6555 N   0  0  0  0  0  0  0  0  0  0  0  0
    1.9765   17.7775   -2.5861 C   0  0  0  0  0  0  0  0  0  0  0  0
  1 10  1  0  0  0  0
  2  3  2  0  0  0  0
  2  1  1  0  0  0  0
  3  4  1  0  0  0  0
  4 10  2  0  0  0  0
  4  5  1  0  0  0  0
  5  7  2  0  0  0  0
  6  5  1  0  0  0  0
  7  8  1  0  0  0  0
  9  8  2  0  0  0  0
 10  9  1  0  0  0  0
M  END
>  <CHROM.1>
1.31495708,17.00245155,-2.84645383,-0.00084230,0.40356410,0.67523494

>  <Name>
lig.pdb

>  <RI>
2.21672e+07

>  <Rbt.Current_Directory>
/home/afrankz/demos/rdock_decoys_rna/rnas/5uza

>  <Rbt.Executable>
rbdock ($Id: //depot/dev/client3/rdock/2013.1/src/exe/rbdock.cxx#4 $)

>  <Rbt.Library>
libRbt.so (2013.1, Build901 2013/11/27)

>  <Rbt.Parameter_File>
/export/apps/rDock/src/rDock_2013.1_src/data/scripts/dock_solv.prm

>  <Rbt.Receptor>
prm/blind_docking_20.prm

>  <SCORE>
-13.4736

>  <SCORE.INTER>
-13.5255

>  <SCORE.INTER.CONST>
1

>  <SCORE.INTER.POLAR>
-2.16151

>  <SCORE.INTER.ROT>
0

>  <SCORE.INTER.SOLV>
8.8494

>  <SCORE.INTER.VDW>
-8.3618

>  <SCORE.INTER.norm>
-1.35255

>  <SCORE.INTRA>
0

>  <SCORE.INTRA.DIHEDRAL>
0

>  <SCORE.INTRA.DIHEDRAL.0>
0

>  <SCORE.INTRA.POLAR>
0

>  <SCORE.INTRA.POLAR.0>
0

>  <SCORE.INTRA.REPUL>
0

>  <SCORE.INTRA.REPUL.0>
0

>  <SCORE.INTRA.SOLV>
0

>  <SCORE.INTRA.SOLV.lig_0>
-14.8845

>  <SCORE.INTRA.VDW>
0

>  <SCORE.INTRA.VDW.0>
0

>  <SCORE.INTRA.norm>
0

>  <SCORE.RESTR>
0.0519375

>  <SCORE.RESTR.CAVITY>
0.0519375

>  <SCORE.RESTR.norm>
0.00519375

>  <SCORE.SYSTEM>
0

>  <SCORE.SYSTEM.CONST>
0

>  <SCORE.SYSTEM.DIHEDRAL>
0

>  <SCORE.SYSTEM.SOLV>
0

>  <SCORE.SYSTEM.norm>
0

>  <SCORE.heavy>
10

>  <SCORE.norm>
-1.34736

>  <RMSD>
34.569

$$$$
lig.pdb
 OpenBabel11021811523D
libRbt.so/2013.1/901 2013/11/27
 10 11  0  0  0  0  0  0  0  0999 V2000
    3.2463   17.9855   -3.1189 N   0  0  0  0  0  0  0  0  0  0  0  0
    3.4415   16.9915   -4.0381 C   0  0  0  0  0  0  0  0  0  0  0  0
    2.4278   16.1668   -4.1503 N   0  0  0  0  0  0  0  0  0  0  0  0
    1.5028   16.6516   -3.2412 C   0  0  0  0  0  0  0  0  0  0  0  0
    0.2120   16.2221   -2.8817 C   0  0  0  0  0  0  0  0  0  0  0  0
   -0.3820   15.1529   -3.4219 N   0  0  0  0  0  0  0  0  0  0  0  0
   -0.4453   16.9328   -1.9393 N   0  0  0  0  0  0  0  0  0  0  0  0
    0.1559   17.9993   -1.4006 C   0  0  0  0  0  0  0  0  0  0  0  0
    1.3636   18.4999   -1.6583 N   0  0  0  0  0  0  0  0  0  0  0  0
    1.9907   17.7730   -2.5967 C   0  0  0  0  0  0  0  0  0  0  0  0
  1 10  1  0  0  0  0
  2  3  2  0  0  0  0
  2  1  1  0  0  0  0
  3  4  1  0  0  0  0
  4 10  2  0  0  0  0
  4  5  1  0  0  0  0
  5  7  2  0  0  0  0
  6  5  1  0  0  0  0
  7  8  1  0  0  0  0
  9  8  2  0  0  0  0
 10  9  1  0  0  0  0
M  END
>  <CHROM.1>
1.32097806,17.00425068,-2.85506693,-0.01287409,0.40459668,0.68399164

>  <Name>
lig.pdb

>  <RI>
2.21672e+07

>  <Rbt.Current_Directory>
/home/afrankz/demos/rdock_decoys_rna/rnas/5uza

>  <Rbt.Executable>
rbdock ($Id: //depot/dev/client3/rdock/2013.1/src/exe/rbdock.cxx#4 $)

>  <Rbt.Library>
libRbt.so (2013.1, Build901 2013/11/27)

>  <Rbt.Parameter_File>
/export/apps/rDock/src/rDock_2013.1_src/data/scripts/dock_solv.prm

>  <Rbt.Receptor>
prm/blind_docking_20.prm

>  <SCORE>
-13.459

>  <SCORE.INTER>
-13.5005

>  <SCORE.INTER.CONST>
1

>  <SCORE.INTER.POLAR>
-2.14492

>  <SCORE.INTER.ROT>
0

>  <SCORE.INTER.SOLV>
8.85092

>  <SCORE.INTER.VDW>
-8.40091

>  <SCORE.INTER.norm>
-1.35005

>  <SCORE.INTRA>
0

>  <SCORE.INTRA.DIHEDRAL>
0

>  <SCORE.INTRA.DIHEDRAL.0>
0

>  <SCORE.INTRA.POLAR>
0

>  <SCORE.INTRA.POLAR.0>
0

>  <SCORE.INTRA.REPUL>
0

>  <SCORE.INTRA.REPUL.0>
0

>  <SCORE.INTRA.SOLV>
0

>  <SCORE.INTRA.SOLV.lig_0>
-14.8845

>  <SCORE.INTRA.VDW>
0

>  <SCORE.INTRA.VDW.0>
0

>  <SCORE.INTRA.norm>
0

>  <SCORE.RESTR>
0.0415112

>  <SCORE.RESTR.CAVITY>
0.0415112

>  <SCORE.RESTR.norm>
0.00415112

>  <SCORE.SYSTEM>
0

>  <SCORE.SYSTEM.CONST>
0

>  <SCORE.SYSTEM.DIHEDRAL>
0

>  <SCORE.SYSTEM.SOLV>
0

>  <SCORE.SYSTEM.norm>
0

>  <SCORE.heavy>
10

>  <SCORE.norm>
-1.3459

>  <RMSD>
34.571

$$$$
lig.pdb
 OpenBabel11021811523D
libRbt.so/2013.1/901 2013/11/27
 10 11  0  0  0  0  0  0  0  0999 V2000
    3.2351   18.0356   -3.1126 N   0  0  0  0  0  0  0  0  0  0  0  0
    3.4451   17.0474   -4.0348 C   0  0  0  0  0  0  0  0  0  0  0  0
    2.4427   16.2097   -4.1516 N   0  0  0  0  0  0  0  0  0  0  0  0
    1.5097   16.6790   -3.2425 C   0  0  0  0  0  0  0  0  0  0  0  0
    0.2241   16.2311   -2.8868 C   0  0  0  0  0  0  0  0  0  0  0  0
   -0.3547   15.1560   -3.4317 N   0  0  0  0  0  0  0  0  0  0  0  0
   -0.4442   16.9298   -1.9431 N   0  0  0  0  0  0  0  0  0  0  0  0
    0.1418   18.0024   -1.3997 C   0  0  0  0  0  0  0  0  0  0  0  0
    1.3432   18.5199   -1.6536 N   0  0  0  0  0  0  0  0  0  0  0  0
    1.9815   17.8046   -2.5934 C   0  0  0  0  0  0  0  0  0  0  0  0
  1 10  1  0  0  0  0
  2  3  2  0  0  0  0
  2  1  1  0  0  0  0
  3  4  1  0  0  0  0
  4 10  2  0  0  0  0
  4  5  1  0  0  0  0
  5  7  2  0  0  0  0
  6  5  1  0  0  0  0
  7  8  1  0  0  0  0
  9  8  2  0  0  0  0
 10  9  1  0  0  0  0
M  END
>  <CHROM.1>
1.32255030,17.02789013,-2.85553176,-0.00042058,0.41164128,0.68244609

>  <Name>
lig.pdb

>  <RI>
2.21672e+07

>  <Rbt.Current_Directory>
/home/afrankz/demos/rdock_decoys_rna/rnas/5uza

>  <Rbt.Executable>
rbdock ($Id: //depot/dev/client3/rdock/2013.1/src/exe/rbdock.cxx#4 $)

>  <Rbt.Library>
libRbt.so (2013.1, Build901 2013/11/27)

>  <Rbt.Parameter_File>
/export/apps/rDock/src/rDock_2013.1_src/data/scripts/dock_solv.prm

>  <Rbt.Receptor>
prm/blind_docking_20.prm

>  <SCORE>
-13.4225

>  <SCORE.INTER>
-13.4582

>  <SCORE.INTER.CONST>
1

>  <SCORE.INTER.POLAR>
-2.14038

>  <SCORE.INTER.ROT>
0

>  <SCORE.INTER.SOLV>
8.87172

>  <SCORE.INTER.VDW>
-8.39479

>  <SCORE.INTER.norm>
-1.34582

>  <SCORE.INTRA>
0

>  <SCORE.INTRA.DIHEDRAL>
0

>  <SCORE.INTRA.DIHEDRAL.0>
0

>  <SCORE.INTRA.POLAR>
0

>  <SCORE.INTRA.POLAR.0>
0

>  <SCORE.INTRA.REPUL>
0

>  <SCORE.INTRA.REPUL.0>
0

>  <SCORE.INTRA.SOLV>
0

>  <SCORE.INTRA.SOLV.lig_0>
-14.8845

>  <SCORE.INTRA.VDW>
0

>  <SCORE.INTRA.VDW.0>
0

>  <SCORE.INTRA.norm>
0

>  <SCORE.RESTR>
0.03576

>  <SCORE.RESTR.CAVITY>
0.03576

>  <SCORE.RESTR.norm>
0.003576

>  <SCORE.SYSTEM>
0

>  <SCORE.SYSTEM.CONST>
0

>  <SCORE.SYSTEM.DIHEDRAL>
0

>  <SCORE.SYSTEM.SOLV>
0

>  <SCORE.SYSTEM.norm>
0

>  <SCORE.heavy>
10

>  <SCORE.norm>
-1.34225

>  <RMSD>
34.572

$$$$
lig.pdb
 OpenBabel11021811523D
libRbt.so/2013.1/901 2013/11/27
 10 11  0  0  0  0  0  0  0  0999 V2000
    3.2454   17.9880   -3.1130 N   0  0  0  0  0  0  0  0  0  0  0  0
    3.4456   16.9939   -4.0310 C   0  0  0  0  0  0  0  0  0  0  0  0
    2.4341   16.1669   -4.1458 N   0  0  0  0  0  0  0  0  0  0  0  0
    1.5053   16.6500   -3.2396 C   0  0  0  0  0  0  0  0  0  0  0  0
    0.2145   16.2178   -2.8836 C   0  0  0  0  0  0  0  0  0  0  0  0
   -0.3755   15.1470   -3.4250 N   0  0  0  0  0  0  0  0  0  0  0  0
   -0.4472   16.9275   -1.9435 N   0  0  0  0  0  0  0  0  0  0  0  0
    0.1500   17.9957   -1.4037 C   0  0  0  0  0  0  0  0  0  0  0  0
    1.3573   18.4989   -1.6582 N   0  0  0  0  0  0  0  0  0  0  0  0
    1.9888   17.7729   -2.5944 C   0  0  0  0  0  0  0  0  0  0  0  0
  1 10  1  0  0  0  0
  2  3  2  0  0  0  0
  2  1  1  0  0  0  0
  3  4  1  0  0  0  0
  4 10  2  0  0  0  0
  4  5  1  0  0  0  0
  5  7  2  0  0  0  0
  6  5  1  0  0  0  0
  7  8  1  0  0  0  0
  9  8  2  0  0  0  0
 10  9  1  0  0  0  0
M  END
>  <CHROM.1>
1.32160150,17.00247954,-2.85422583,-0.00894802,0.40377768,0.68188303

>  <Name>
lig.pdb

>  <RI>
2.21672e+07

>  <Rbt.Current_Directory>
/home/afrankz/demos/rdock_decoys_rna/rnas/5uza

>  <Rbt.Executable>
rbdock ($Id: //depot/dev/client3/rdock/2013.1/src/exe/rbdock.cxx#4 $)

>  <Rbt.Library>
libRbt.so (2013.1, Build901 2013/11/27)

>  <Rbt.Parameter_File>
/export/apps/rDock/src/rDock_2013.1_src/data/scripts/dock_solv.prm

>  <Rbt.Receptor>
prm/blind_docking_20.prm

>  <SCORE>
-13.4578

>  <SCORE.INTER>
-13.4984

>  <SCORE.INTER.CONST>
1

>  <SCORE.INTER.POLAR>
-2.14955

>  <SCORE.INTER.ROT>
0

>  <SCORE.INTER.SOLV>
8.84918

>  <SCORE.INTER.VDW>
-8.3835

>  <SCORE.INTER.norm>
-1.34984

>  <SCORE.INTRA>
0

>  <SCORE.INTRA.DIHEDRAL>
0

>  <SCORE.INTRA.DIHEDRAL.0>
0

>  <SCORE.INTRA.POLAR>
0

>  <SCORE.INTRA.POLAR.0>
0

>  <SCORE.INTRA.REPUL>
0

>  <SCORE.INTRA.REPUL.0>
0

>  <SCORE.INTRA.SOLV>
0

>  <SCORE.INTRA.SOLV.lig_0>
-14.8845

>  <SCORE.INTRA.VDW>
0

>  <SCORE.INTRA.VDW.0>
0

>  <SCORE.INTRA.norm>
0

>  <SCORE.RESTR>
0.0406657

>  <SCORE.RESTR.CAVITY>
0.0406657

>  <SCORE.RESTR.norm>
0.00406657

>  <SCORE.SYSTEM>
0

>  <SCORE.SYSTEM.CONST>
0

>  <SCORE.SYSTEM.DIHEDRAL>
0

>  <SCORE.SYSTEM.SOLV>
0

>  <SCORE.SYSTEM.norm>
0

>  <SCORE.heavy>
10

>  <SCORE.norm>
-1.34578

>  <RMSD>
34.572

$$$$
lig.pdb
 OpenBabel11021811523D
libRbt.so/2013.1/901 2013/11/27
 10 11  0  0  0  0  0  0  0  0999 V2000
    3.2395   17.9926   -3.1167 N   0  0  0  0  0  0  0  0  0  0  0  0
    3.4413   16.9934   -4.0288 C   0  0  0  0  0  0  0  0  0  0  0  0
    2.4326   16.1619   -4.1358 N   0  0  0  0  0  0  0  0  0  0  0  0
    1.5041   16.6474   -3.2305 C   0  0  0  0  0  0  0  0  0  0  0  0
    0.2158   16.2126   -2.8687 C   0  0  0  0  0  0  0  0  0  0  0  0
   -0.3715   15.1362   -3.4017 N   0  0  0  0  0  0  0  0  0  0  0  0
   -0.4463   16.9259   -1.9315 N   0  0  0  0  0  0  0  0  0  0  0  0
    0.1482   17.9998   -1.4000 C   0  0  0  0  0  0  0  0  0  0  0  0
    1.3530   18.5058   -1.6606 N   0  0  0  0  0  0  0  0  0  0  0  0
    1.9849   17.7761   -2.5937 C   0  0  0  0  0  0  0  0  0  0  0  0
  1 10  1  0  0  0  0
  2  3  2  0  0  0  0
  2  1  1  0  0  0  0
  3  4  1  0  0  0  0
  4 10  2  0  0  0  0
  4  5  1  0  0  0  0
  5  7  2  0  0  0  0
  6  5  1  0  0  0  0
  7  8  1  0  0  0  0
  9  8  2  0  0  0  0
 10  9  1  0  0  0  0
M  END
>  <CHROM.1>
1.32004753,17.00161934,-2.84696065,-0.00742814,0.40799350,0.67486502

>  <Name>
lig.pdb

>  <RI>
2.21672e+07

>  <Rbt.Current_Directory>
/home/afrankz/demos/rdock_decoys_rna/rnas/5uza

>  <Rbt.Executable>
rbdock ($Id: //depot/dev/client3/rdock/2013.1/src/exe/rbdock.cxx#4 $)

>  <Rbt.Library>
libRbt.so (2013.1, Build901 2013/11/27)

>  <Rbt.Parameter_File>
/export/apps/rDock/src/rDock_2013.1_src/data/scripts/dock_solv.prm

>  <Rbt.Receptor>
prm/blind_docking_20.prm

>  <SCORE>
-13.5453

>  <SCORE.INTER>
-13.6135

>  <SCORE.INTER.CONST>
1

>  <SCORE.INTER.POLAR>
-2.15732

>  <SCORE.INTER.ROT>
0

>  <SCORE.INTER.SOLV>
8.83057

>  <SCORE.INTER.VDW>
-8.42813

>  <SCORE.INTER.norm>
-1.36135

>  <SCORE.INTRA>
0

>  <SCORE.INTRA.DIHEDRAL>
0

>  <SCORE.INTRA.DIHEDRAL.0>
0

>  <SCORE.INTRA.POLAR>
0

>  <SCORE.INTRA.POLAR.0>
0

>  <SCORE.INTRA.REPUL>
0

>  <SCORE.INTRA.REPUL.0>
0

>  <SCORE.INTRA.SOLV>
0

>  <SCORE.INTRA.SOLV.lig_0>
-14.8845

>  <SCORE.INTRA.VDW>
0

>  <SCORE.INTRA.VDW.0>
0

>  <SCORE.INTRA.norm>
0

>  <SCORE.RESTR>
0.0681811

>  <SCORE.RESTR.CAVITY>
0.0681811

>  <SCORE.RESTR.norm>
0.00681811

>  <SCORE.SYSTEM>
0

>  <SCORE.SYSTEM.CONST>
0

>  <SCORE.SYSTEM.DIHEDRAL>
0

>  <SCORE.SYSTEM.SOLV>
0

>  <SCORE.SYSTEM.norm>
0

>  <SCORE.heavy>
10

>  <SCORE.norm>
-1.35453

>  <RMSD>
34.573

$$$$
lig.pdb
 OpenBabel11021811523D
libRbt.so/2013.1/901 2013/11/27
 10 11  0  0  0  0  0  0  0  0999 V2000
    3.2459   17.9889   -3.1109 N   0  0  0  0  0  0  0  0  0  0  0  0
    3.4465   16.9954   -4.0295 C   0  0  0  0  0  0  0  0  0  0  0  0
    2.4350   16.1685   -4.1453 N   0  0  0  0  0  0  0  0  0  0  0  0
    1.5058   16.6511   -3.2393 C   0  0  0  0  0  0  0  0  0  0  0  0
    0.2148   16.2187   -2.8842 C   0  0  0  0  0  0  0  0  0  0  0  0
   -0.3750   15.1483   -3.4266 N   0  0  0  0  0  0  0  0  0  0  0  0
   -0.4473   16.9278   -1.9439 N   0  0  0  0  0  0  0  0  0  0  0  0
    0.1497   17.9956   -1.4031 C   0  0  0  0  0  0  0  0  0  0  0  0
    1.3572   18.4989   -1.6567 N   0  0  0  0  0  0  0  0  0  0  0  0
    1.9890   17.7735   -2.5930 C   0  0  0  0  0  0  0  0  0  0  0  0
  1 10  1  0  0  0  0
  2  3  2  0  0  0  0
  2  1  1  0  0  0  0
  3  4  1  0  0  0  0
  4 10  2  0  0  0  0
  4  5  1  0  0  0  0
  5  7  2  0  0  0  0
  6  5  1  0  0  0  0
  7  8  1  0  0  0  0
  9  8  2  0  0  0  0
 10  9  1  0  0  0  0
M  END
>  <CHROM.1>
1.32194198,17.00330128,-2.85374018,-0.00867378,0.40336150,0.68245088

>  <Name>
lig.pdb

>  <RI>
2.21672e+07

>  <Rbt.Current_Directory>
/home/afrankz/demos/rdock_decoys_rna/rnas/5uza

>  <Rbt.Executable>
rbdock ($Id: //depot/dev/client3/rdock/2013.1/src/exe/rbdock.cxx#4 $)

>  <Rbt.Library>
libRbt.so (2013.1, Build901 2013/11/27)

>  <Rbt.Parameter_File>
/export/apps/rDock/src/rDock_2013.1_src/data/scripts/dock_solv.prm

>  <Rbt.Receptor>
prm/blind_docking_20.prm

>  <SCORE>
-13.4528

>  <SCORE.INTER>
-13.4928

>  <SCORE.INTER.CONST>
1

>  <SCORE.INTER.POLAR>
-2.14829

>  <SCORE.INTER.ROT>
0

>  <SCORE.INTER.SOLV>
8.84683

>  <SCORE.INTER.VDW>
-8.38318

>  <SCORE.INTER.norm>
-1.34928

>  <SCORE.INTRA>
0

>  <SCORE.INTRA.DIHEDRAL>
0

>  <SCORE.INTRA.DIHEDRAL.0>
0

>  <SCORE.INTRA.POLAR>
0

>  <SCORE.INTRA.POLAR.0>
0

>  <SCORE.INTRA.REPUL>
0

>  <SCORE.INTRA.REPUL.0>
0

>  <SCORE.INTRA.SOLV>
0

>  <SCORE.INTRA.SOLV.lig_0>
-14.8845

>  <SCORE.INTRA.VDW>
0

>  <SCORE.INTRA.VDW.0>
0

>  <SCORE.INTRA.norm>
0

>  <SCORE.RESTR>
0.0400612

>  <SCORE.RESTR.CAVITY>
0.0400612

>  <SCORE.RESTR.norm>
0.00400612

>  <SCORE.SYSTEM>
0

>  <SCORE.SYSTEM.CONST>
0

>  <SCORE.SYSTEM.DIHEDRAL>
0

>  <SCORE.SYSTEM.SOLV>
0

>  <SCORE.SYSTEM.norm>
0

>  <SCORE.heavy>
10

>  <SCORE.norm>
-1.34528

>  <RMSD>
34.573

$$$$
lig.pdb
 OpenBabel11021811523D
libRbt.so/2013.1/901 2013/11/27
 10 11  0  0  0  0  0  0  0  0999 V2000
    3.2439   17.9929   -3.1076 N   0  0  0  0  0  0  0  0  0  0  0  0
    3.4465   16.9986   -4.0249 C   0  0  0  0  0  0  0  0  0  0  0  0
    2.4360   16.1704   -4.1406 N   0  0  0  0  0  0  0  0  0  0  0  0
    1.5055   16.6529   -3.2359 C   0  0  0  0  0  0  0  0  0  0  0  0
    0.2147   16.2194   -2.8815 C   0  0  0  0  0  0  0  0  0  0  0  0
   -0.3734   15.1477   -3.4232 N   0  0  0  0  0  0  0  0  0  0  0  0
   -0.4491   16.9288   -1.9426 N   0  0  0  0  0  0  0  0  0  0  0  0
    0.1462   17.9979   -1.4024 C   0  0  0  0  0  0  0  0  0  0  0  0
    1.3533   18.5023   -1.6555 N   0  0  0  0  0  0  0  0  0  0  0  0
    1.9868   17.7766   -2.5905 C   0  0  0  0  0  0  0  0  0  0  0  0
  1 10  1  0  0  0  0
  2  3  2  0  0  0  0
  2  1  1  0  0  0  0
  3  4  1  0  0  0  0
  4 10  2  0  0  0  0
  4  5  1  0  0  0  0
  5  7  2  0  0  0  0
  6  5  1  0  0  0  0
  7  8  1  0  0  0  0
  9  8  2  0  0  0  0
 10  9  1  0  0  0  0
M  END
>  <CHROM.1>
1.32084472,17.00532451,-2.85094793,-0.00709366,0.40343776,0.68072469

>  <Name>
lig.pdb

>  <RI>
2.21672e+07

>  <Rbt.Current_Directory>
/home/afrankz/demos/rdock_decoys_rna/rnas/5uza

>  <Rbt.Executable>
rbdock ($Id: //depot/dev/client3/rdock/2013.1/src/exe/rbdock.cxx#4 $)

>  <Rbt.Library>
libRbt.so (2013.1, Build901 2013/11/27)

>  <Rbt.Parameter_File>
/export/apps/rDock/src/rDock_2013.1_src/data/scripts/dock_solv.prm

>  <Rbt.Receptor>
prm/blind_docking_20.prm

>  <SCORE>
-13.4589

>  <SCORE.INTER>
-13.5013

>  <SCORE.INTER.CONST>
1

>  <SCORE.INTER.POLAR>
-2.14994

>  <SCORE.INTER.ROT>
0

>  <SCORE.INTER.SOLV>
8.8431

>  <SCORE.INTER.VDW>
-8.38207

>  <SCORE.INTER.norm>
-1.35013

>  <SCORE.INTRA>
0

>  <SCORE.INTRA.DIHEDRAL>
0

>  <SCORE.INTRA.DIHEDRAL.0>
0

>  <SCORE.INTRA.POLAR>
0

>  <SCORE.INTRA.POLAR.0>
0

>  <SCORE.INTRA.REPUL>
0

>  <SCORE.INTRA.REPUL.0>
0

>  <SCORE.INTRA.SOLV>
0

>  <SCORE.INTRA.SOLV.lig_0>
-14.8845

>  <SCORE.INTRA.VDW>
0

>  <SCORE.INTRA.VDW.0>
0

>  <SCORE.INTRA.norm>
0

>  <SCORE.RESTR>
0.0423476

>  <SCORE.RESTR.CAVITY>
0.0423476

>  <SCORE.RESTR.norm>
0.00423476

>  <SCORE.SYSTEM>
0

>  <SCORE.SYSTEM.CONST>
0

>  <SCORE.SYSTEM.DIHEDRAL>
0

>  <SCORE.SYSTEM.SOLV>
0

>  <SCORE.SYSTEM.norm>
0

>  <SCORE.heavy>
10

>  <SCORE.norm>
-1.34589

>  <RMSD>
34.573

$$$$
lig.pdb
 OpenBabel11021811523D
libRbt.so/2013.1/901 2013/11/27
 10 11  0  0  0  0  0  0  0  0999 V2000
    3.2408   17.9913   -3.1184 N   0  0  0  0  0  0  0  0  0  0  0  0
    3.4415   16.9925   -4.0311 C   0  0  0  0  0  0  0  0  0  0  0  0
    2.4322   16.1617   -4.1383 N   0  0  0  0  0  0  0  0  0  0  0  0
    1.5044   16.6473   -3.2323 C   0  0  0  0  0  0  0  0  0  0  0  0
    0.2160   16.2132   -2.8703 C   0  0  0  0  0  0  0  0  0  0  0  0
   -0.3723   15.1374   -3.4038 N   0  0  0  0  0  0  0  0  0  0  0  0
   -0.4453   16.9264   -1.9325 N   0  0  0  0  0  0  0  0  0  0  0  0
    0.1501   17.9995   -1.4005 C   0  0  0  0  0  0  0  0  0  0  0  0
    1.3552   18.5049   -1.6613 N   0  0  0  0  0  0  0  0  0  0  0  0
    1.9863   17.7753   -2.5950 C   0  0  0  0  0  0  0  0  0  0  0  0
  1 10  1  0  0  0  0
  2  3  2  0  0  0  0
  2  1  1  0  0  0  0
  3  4  1  0  0  0  0
  4 10  2  0  0  0  0
  4  5  1  0  0  0  0
  5  7  2  0  0  0  0
  6  5  1  0  0  0  0
  7  8  1  0  0  0  0
  9  8  2  0  0  0  0
 10  9  1  0  0  0  0
M  END
>  <CHROM.1>
1.32073165,17.00142503,-2.84850600,-0.00825506,0.40785187,0.67578516

>  <Name>
lig.pdb

>  <RI>
2.21672e+07

>  <Rbt.Current_Directory>
/home/afrankz/demos/rdock_decoys_rna/rnas/5uza

>  <Rbt.Executable>
rbdock ($Id: //depot/dev/client3/rdock/2013.1/src/exe/rbdock.cxx#4 $)

>  <Rbt.Library>
libRbt.so (2013.1, Build901 2013/11/27)

>  <Rbt.Parameter_File>
/export/apps/rDock/src/rDock_2013.1_src/data/scripts/dock_solv.prm

>  <Rbt.Receptor>
prm/blind_docking_20.prm

>  <SCORE>
-13.5316

>  <SCORE.INTER>
-13.5967

>  <SCORE.INTER.CONST>
1

>  <SCORE.INTER.POLAR>
-2.15559

>  <SCORE.INTER.ROT>
0

>  <SCORE.INTER.SOLV>
8.83315

>  <SCORE.INTER.VDW>
-8.42353

>  <SCORE.INTER.norm>
-1.35967

>  <SCORE.INTRA>
0

>  <SCORE.INTRA.DIHEDRAL>
0

>  <SCORE.INTRA.DIHEDRAL.0>
0

>  <SCORE.INTRA.POLAR>
0

>  <SCORE.INTRA.POLAR.0>
0

>  <SCORE.INTRA.REPUL>
0

>  <SCORE.INTRA.REPUL.0>
0

>  <SCORE.INTRA.SOLV>
0

>  <SCORE.INTRA.SOLV.lig_0>
-14.8845

>  <SCORE.INTRA.VDW>
0

>  <SCORE.INTRA.VDW.0>
0

>  <SCORE.INTRA.norm>
0

>  <SCORE.RESTR>
0.0650587

>  <SCORE.RESTR.CAVITY>
0.0650587

>  <SCORE.RESTR.norm>
0.00650587

>  <SCORE.SYSTEM>
0

>  <SCORE.SYSTEM.CONST>
0

>  <SCORE.SYSTEM.DIHEDRAL>
0

>  <SCORE.SYSTEM.SOLV>
0

>  <SCORE.SYSTEM.norm>
0

>  <SCORE.heavy>
10

>  <SCORE.norm>
-1.35316

>  <RMSD>
34.573

$$$$
lig.pdb
 OpenBabel11021811523D
libRbt.so/2013.1/901 2013/11/27
 10 11  0  0  0  0  0  0  0  0999 V2000
    3.2502   17.9843   -3.1188 N   0  0  0  0  0  0  0  0  0  0  0  0
    3.4472   16.9915   -4.0388 C   0  0  0  0  0  0  0  0  0  0  0  0
    2.4340   16.1665   -4.1534 N   0  0  0  0  0  0  0  0  0  0  0  0
    1.5074   16.6498   -3.2450 C   0  0  0  0  0  0  0  0  0  0  0  0
    0.2163   16.2193   -2.8878 C   0  0  0  0  0  0  0  0  0  0  0  0
   -0.3764   15.1505   -3.4301 N   0  0  0  0  0  0  0  0  0  0  0  0
   -0.4426   16.9286   -1.9455 N   0  0  0  0  0  0  0  0  0  0  0  0
    0.1574   17.9948   -1.4047 C   0  0  0  0  0  0  0  0  0  0  0  0
    1.3652   18.4962   -1.6602 N   0  0  0  0  0  0  0  0  0  0  0  0
    1.9939   17.7706   -2.5986 C   0  0  0  0  0  0  0  0  0  0  0  0
  1 10  1  0  0  0  0
  2  3  2  0  0  0  0
  2  1  1  0  0  0  0
  3  4  1  0  0  0  0
  4 10  2  0  0  0  0
  4  5  1  0  0  0  0
  5  7  2  0  0  0  0
  6  5  1  0  0  0  0
  7  8  1  0  0  0  0
  9  8  2  0  0  0  0
 10  9  1  0  0  0  0
M  END
>  <CHROM.1>
1.32494208,17.00190706,-2.85873736,-0.01154712,0.40379466,0.68461242

>  <Name>
lig.pdb

>  <RI>
2.21672e+07

>  <Rbt.Current_Directory>
/home/afrankz/demos/rdock_decoys_rna/rnas/5uza

>  <Rbt.Executable>
rbdock ($Id: //depot/dev/client3/rdock/2013.1/src/exe/rbdock.cxx#4 $)

>  <Rbt.Library>
libRbt.so (2013.1, Build901 2013/11/27)

>  <Rbt.Parameter_File>
/export/apps/rDock/src/rDock_2013.1_src/data/scripts/dock_solv.prm

>  <Rbt.Receptor>
prm/blind_docking_20.prm

>  <SCORE>
-13.4344

>  <SCORE.INTER>
-13.468

>  <SCORE.INTER.CONST>
1

>  <SCORE.INTER.POLAR>
-2.14531

>  <SCORE.INTER.ROT>
0

>  <SCORE.INTER.SOLV>
8.8541

>  <SCORE.INTER.VDW>
-8.37899

>  <SCORE.INTER.norm>
-1.3468

>  <SCORE.INTRA>
0

>  <SCORE.INTRA.DIHEDRAL>
0

>  <SCORE.INTRA.DIHEDRAL.0>
0

>  <SCORE.INTRA.POLAR>
0

>  <SCORE.INTRA.POLAR.0>
0

>  <SCORE.INTRA.REPUL>
0

>  <SCORE.INTRA.REPUL.0>
0

>  <SCORE.INTRA.SOLV>
0

>  <SCORE.INTRA.SOLV.lig_0>
-14.8845

>  <SCORE.INTRA.VDW>
0

>  <SCORE.INTRA.VDW.0>
0

>  <SCORE.INTRA.norm>
0

>  <SCORE.RESTR>
0.0335339

>  <SCORE.RESTR.CAVITY>
0.0335339

>  <SCORE.RESTR.norm>
0.00335339

>  <SCORE.SYSTEM>
0

>  <SCORE.SYSTEM.CONST>
0

>  <SCORE.SYSTEM.DIHEDRAL>
0

>  <SCORE.SYSTEM.SOLV>
0

>  <SCORE.SYSTEM.norm>
0

>  <SCORE.heavy>
10

>  <SCORE.norm>
-1.34344

>  <RMSD>
34.574

$$$$
lig.pdb
 OpenBabel11021811523D
libRbt.so/2013.1/901 2013/11/27
 10 11  0  0  0  0  0  0  0  0999 V2000
    3.2501   17.9895   -3.1142 N   0  0  0  0  0  0  0  0  0  0  0  0
    3.4477   16.9965   -4.0339 C   0  0  0  0  0  0  0  0  0  0  0  0
    2.4349   16.1710   -4.1485 N   0  0  0  0  0  0  0  0  0  0  0  0
    1.5080   16.6542   -3.2404 C   0  0  0  0  0  0  0  0  0  0  0  0
    0.2170   16.2232   -2.8834 C   0  0  0  0  0  0  0  0  0  0  0  0
   -0.3752   15.1540   -3.4255 N   0  0  0  0  0  0  0  0  0  0  0  0
   -0.4424   16.9325   -1.9413 N   0  0  0  0  0  0  0  0  0  0  0  0
    0.1570   17.9991   -1.4008 C   0  0  0  0  0  0  0  0  0  0  0  0
    1.3647   18.5010   -1.6561 N   0  0  0  0  0  0  0  0  0  0  0  0
    1.9939   17.7754   -2.5942 C   0  0  0  0  0  0  0  0  0  0  0  0
  1 10  1  0  0  0  0
  2  3  2  0  0  0  0
  2  1  1  0  0  0  0
  3  4  1  0  0  0  0
  4 10  2  0  0  0  0
  4  5  1  0  0  0  0
  5  7  2  0  0  0  0
  6  5  1  0  0  0  0
  7  8  1  0  0  0  0
  9  8  2  0  0  0  0
 10  9  1  0  0  0  0
M  END
>  <CHROM.1>
1.32528126,17.00633204,-2.85428913,-0.01105682,0.40391828,0.68415029

>  <Name>
lig.pdb

>  <RI>
2.21672e+07

>  <Rbt.Current_Directory>
/home/afrankz/demos/rdock_decoys_rna/rnas/5uza

>  <Rbt.Executable>
rbdock ($Id: //depot/dev/client3/rdock/2013.1/src/exe/rbdock.cxx#4 $)

>  <Rbt.Library>
libRbt.so (2013.1, Build901 2013/11/27)

>  <Rbt.Parameter_File>
/export/apps/rDock/src/rDock_2013.1_src/data/scripts/dock_solv.prm

>  <Rbt.Receptor>
prm/blind_docking_20.prm

>  <SCORE>
-13.4569

>  <SCORE.INTER>
-13.495

>  <SCORE.INTER.CONST>
1

>  <SCORE.INTER.POLAR>
-2.14273

>  <SCORE.INTER.ROT>
0

>  <SCORE.INTER.SOLV>
8.83987

>  <SCORE.INTER.VDW>
-8.40087

>  <SCORE.INTER.norm>
-1.3495

>  <SCORE.INTRA>
0

>  <SCORE.INTRA.DIHEDRAL>
0

>  <SCORE.INTRA.DIHEDRAL.0>
0

>  <SCORE.INTRA.POLAR>
0

>  <SCORE.INTRA.POLAR.0>
0

>  <SCORE.INTRA.REPUL>
0

>  <SCORE.INTRA.REPUL.0>
0

>  <SCORE.INTRA.SOLV>
0

>  <SCORE.INTRA.SOLV.lig_0>
-14.8845

>  <SCORE.INTRA.VDW>
0

>  <SCORE.INTRA.VDW.0>
0

>  <SCORE.INTRA.norm>
0

>  <SCORE.RESTR>
0.0381432

>  <SCORE.RESTR.CAVITY>
0.0381432

>  <SCORE.RESTR.norm>
0.00381432

>  <SCORE.SYSTEM>
0

>  <SCORE.SYSTEM.CONST>
0

>  <SCORE.SYSTEM.DIHEDRAL>
0

>  <SCORE.SYSTEM.SOLV>
0

>  <SCORE.SYSTEM.norm>
0

>  <SCORE.heavy>
10

>  <SCORE.norm>
-1.34569

>  <RMSD>
34.576

$$$$
lig.pdb
 OpenBabel11021811523D
libRbt.so/2013.1/901 2013/11/27
 10 11  0  0  0  0  0  0  0  0999 V2000
    3.2492   17.9893   -3.1103 N   0  0  0  0  0  0  0  0  0  0  0  0
    3.4473   16.9955   -4.0291 C   0  0  0  0  0  0  0  0  0  0  0  0
    2.4344   16.1701   -4.1437 N   0  0  0  0  0  0  0  0  0  0  0  0
    1.5069   16.6541   -3.2365 C   0  0  0  0  0  0  0  0  0  0  0  0
    0.2157   16.2236   -2.8800 C   0  0  0  0  0  0  0  0  0  0  0  0
   -0.3763   15.1541   -3.4216 N   0  0  0  0  0  0  0  0  0  0  0  0
   -0.4442   16.9337   -1.9389 N   0  0  0  0  0  0  0  0  0  0  0  0
    0.1550   18.0007   -1.3988 C   0  0  0  0  0  0  0  0  0  0  0  0
    1.3629   18.5021   -1.6538 N   0  0  0  0  0  0  0  0  0  0  0  0
    1.9926   17.7757   -2.5909 C   0  0  0  0  0  0  0  0  0  0  0  0
  1 10  1  0  0  0  0
  2  3  2  0  0  0  0
  2  1  1  0  0  0  0
  3  4  1  0  0  0  0
  4 10  2  0  0  0  0
  4  5  1  0  0  0  0
  5  7  2  0  0  0  0
  6  5  1  0  0  0  0
  7  8  1  0  0  0  0
  9  8  2  0  0  0  0
 10  9  1  0  0  0  0
M  END
>  <CHROM.1>
1.32405399,17.00657642,-2.85078750,-0.01073097,0.40333287,0.68324652

>  <Name>
lig.pdb

>  <RI>
2.21672e+07

>  <Rbt.Current_Directory>
/home/afrankz/demos/rdock_decoys_rna/rnas/5uza

>  <Rbt.Executable>
rbdock ($Id: //depot/dev/client3/rdock/2013.1/src/exe/rbdock.cxx#4 $)

>  <Rbt.Library>
libRbt.so (2013.1, Build901 2013/11/27)

>  <Rbt.Parameter_File>
/export/apps/rDock/src/rDock_2013.1_src/data/scripts/dock_solv.prm

>  <Rbt.Receptor>
prm/blind_docking_20.prm

>  <SCORE>
-13.4742

>  <SCORE.INTER>
-13.518

>  <SCORE.INTER.CONST>
1

>  <SCORE.INTER.POLAR>
-2.14337

>  <SCORE.INTER.ROT>
0

>  <SCORE.INTER.SOLV>
8.83112

>  <SCORE.INTER.VDW>
-8.41116

>  <SCORE.INTER.norm>
-1.3518

>  <SCORE.INTRA>
0

>  <SCORE.INTRA.DIHEDRAL>
0

>  <SCORE.INTRA.DIHEDRAL.0>
0

>  <SCORE.INTRA.POLAR>
0

>  <SCORE.INTRA.POLAR.0>
0

>  <SCORE.INTRA.REPUL>
0

>  <SCORE.INTRA.REPUL.0>
0

>  <SCORE.INTRA.SOLV>
0

>  <SCORE.INTRA.SOLV.lig_0>
-14.8845

>  <SCORE.INTRA.VDW>
0

>  <SCORE.INTRA.VDW.0>
0

>  <SCORE.INTRA.norm>
0

>  <SCORE.RESTR>
0.0438262

>  <SCORE.RESTR.CAVITY>
0.0438262

>  <SCORE.RESTR.norm>
0.00438262

>  <SCORE.SYSTEM>
0

>  <SCORE.SYSTEM.CONST>
0

>  <SCORE.SYSTEM.DIHEDRAL>
0

>  <SCORE.SYSTEM.SOLV>
0

>  <SCORE.SYSTEM.norm>
0

>  <SCORE.heavy>
10

>  <SCORE.norm>
-1.34742

>  <RMSD>
34.576

$$$$
lig.pdb
 OpenBabel11021811523D
libRbt.so/2013.1/901 2013/11/27
 10 11  0  0  0  0  0  0  0  0999 V2000
    3.2430   17.9944   -3.1121 N   0  0  0  0  0  0  0  0  0  0  0  0
    3.4459   16.9964   -4.0253 C   0  0  0  0  0  0  0  0  0  0  0  0
    2.4372   16.1653   -4.1350 N   0  0  0  0  0  0  0  0  0  0  0  0
    1.5075   16.6498   -3.2305 C   0  0  0  0  0  0  0  0  0  0  0  0
    0.2185   16.2148   -2.8712 C   0  0  0  0  0  0  0  0  0  0  0  0
   -0.3683   15.1393   -3.4067 N   0  0  0  0  0  0  0  0  0  0  0  0
   -0.4449   16.9270   -1.9341 N   0  0  0  0  0  0  0  0  0  0  0  0
    0.1491   17.9999   -1.4002 C   0  0  0  0  0  0  0  0  0  0  0  0
    1.3544   18.5060   -1.6582 N   0  0  0  0  0  0  0  0  0  0  0  0
    1.9876   17.7775   -2.5913 C   0  0  0  0  0  0  0  0  0  0  0  0
  1 10  1  0  0  0  0
  2  3  2  0  0  0  0
  2  1  1  0  0  0  0
  3  4  1  0  0  0  0
  4 10  2  0  0  0  0
  4  5  1  0  0  0  0
  5  7  2  0  0  0  0
  6  5  1  0  0  0  0
  7  8  1  0  0  0  0
  9  8  2  0  0  0  0
 10  9  1  0  0  0  0
M  END
>  <CHROM.1>
1.32286587,17.00350853,-2.84670449,-0.00659836,0.40660670,0.67594249

>  <Name>
lig.pdb

>  <RI>
2.21672e+07

>  <Rbt.Current_Directory>
/home/afrankz/demos/rdock_decoys_rna/rnas/5uza

>  <Rbt.Executable>
rbdock ($Id: //depot/dev/client3/rdock/2013.1/src/exe/rbdock.cxx#4 $)

>  <Rbt.Library>
libRbt.so (2013.1, Build901 2013/11/27)

>  <Rbt.Parameter_File>
/export/apps/rDock/src/rDock_2013.1_src/data/scripts/dock_solv.prm

>  <Rbt.Receptor>
prm/blind_docking_20.prm

>  <SCORE>
-13.5258

>  <SCORE.INTER>
-13.5878

>  <SCORE.INTER.CONST>
1

>  <SCORE.INTER.POLAR>
-2.15465

>  <SCORE.INTER.ROT>
0

>  <SCORE.INTER.SOLV>
8.82436

>  <SCORE.INTER.VDW>
-8.41781

>  <SCORE.INTER.norm>
-1.35878

>  <SCORE.INTRA>
0

>  <SCORE.INTRA.DIHEDRAL>
0

>  <SCORE.INTRA.DIHEDRAL.0>
0

>  <SCORE.INTRA.POLAR>
0

>  <SCORE.INTRA.POLAR.0>
0

>  <SCORE.INTRA.REPUL>
0

>  <SCORE.INTRA.REPUL.0>
0

>  <SCORE.INTRA.SOLV>
0

>  <SCORE.INTRA.SOLV.lig_0>
-14.8845

>  <SCORE.INTRA.VDW>
0

>  <SCORE.INTRA.VDW.0>
0

>  <SCORE.INTRA.norm>
0

>  <SCORE.RESTR>
0.0620083

>  <SCORE.RESTR.CAVITY>
0.0620083

>  <SCORE.RESTR.norm>
0.00620083

>  <SCORE.SYSTEM>
0

>  <SCORE.SYSTEM.CONST>
0

>  <SCORE.SYSTEM.DIHEDRAL>
0

>  <SCORE.SYSTEM.SOLV>
0

>  <SCORE.SYSTEM.norm>
0

>  <SCORE.heavy>
10

>  <SCORE.norm>
-1.35258

>  <RMSD>
34.576

$$$$
lig.pdb
 OpenBabel11021811523D
libRbt.so/2013.1/901 2013/11/27
 10 11  0  0  0  0  0  0  0  0999 V2000
    3.2427   17.9967   -3.1102 N   0  0  0  0  0  0  0  0  0  0  0  0
    3.4466   16.9986   -4.0230 C   0  0  0  0  0  0  0  0  0  0  0  0
    2.4385   16.1667   -4.1329 N   0  0  0  0  0  0  0  0  0  0  0  0
    1.5081   16.6508   -3.2288 C   0  0  0  0  0  0  0  0  0  0  0  0
    0.2193   16.2151   -2.8699 C   0  0  0  0  0  0  0  0  0  0  0  0
   -0.3665   15.1390   -3.4053 N   0  0  0  0  0  0  0  0  0  0  0  0
   -0.4449   16.9270   -1.9332 N   0  0  0  0  0  0  0  0  0  0  0  0
    0.1481   18.0006   -1.3994 C   0  0  0  0  0  0  0  0  0  0  0  0
    1.3531   18.5074   -1.6571 N   0  0  0  0  0  0  0  0  0  0  0  0
    1.9872   17.7790   -2.5898 C   0  0  0  0  0  0  0  0  0  0  0  0
  1 10  1  0  0  0  0
  2  3  2  0  0  0  0
  2  1  1  0  0  0  0
  3  4  1  0  0  0  0
  4 10  2  0  0  0  0
  4  5  1  0  0  0  0
  5  7  2  0  0  0  0
  6  5  1  0  0  0  0
  7  8  1  0  0  0  0
  9  8  2  0  0  0  0
 10  9  1  0  0  0  0
M  END
>  <CHROM.1>
1.32311997,17.00453660,-2.84520278,-0.00574953,0.40676331,0.67532393

>  <Name>
lig.pdb

>  <RI>
2.21672e+07

>  <Rbt.Current_Directory>
/home/afrankz/demos/rdock_decoys_rna/rnas/5uza

>  <Rbt.Executable>
rbdock ($Id: //depot/dev/client3/rdock/2013.1/src/exe/rbdock.cxx#4 $)

>  <Rbt.Library>
libRbt.so (2013.1, Build901 2013/11/27)

>  <Rbt.Parameter_File>
/export/apps/rDock/src/rDock_2013.1_src/data/scripts/dock_solv.prm

>  <Rbt.Receptor>
prm/blind_docking_20.prm

>  <SCORE>
-13.5336

>  <SCORE.INTER>
-13.5983

>  <SCORE.INTER.CONST>
1

>  <SCORE.INTER.POLAR>
-2.15452

>  <SCORE.INTER.ROT>
0

>  <SCORE.INTER.SOLV>
8.8199

>  <SCORE.INTER.VDW>
-8.42381

>  <SCORE.INTER.norm>
-1.35983

>  <SCORE.INTRA>
0

>  <SCORE.INTRA.DIHEDRAL>
0

>  <SCORE.INTRA.DIHEDRAL.0>
0

>  <SCORE.INTRA.POLAR>
0

>  <SCORE.INTRA.POLAR.0>
0

>  <SCORE.INTRA.REPUL>
0

>  <SCORE.INTRA.REPUL.0>
0

>  <SCORE.INTRA.SOLV>
0

>  <SCORE.INTRA.SOLV.lig_0>
-14.8845

>  <SCORE.INTRA.VDW>
0

>  <SCORE.INTRA.VDW.0>
0

>  <SCORE.INTRA.norm>
0

>  <SCORE.RESTR>
0.0647023

>  <SCORE.RESTR.CAVITY>
0.0647023

>  <SCORE.RESTR.norm>
0.00647023

>  <SCORE.SYSTEM>
0

>  <SCORE.SYSTEM.CONST>
0

>  <SCORE.SYSTEM.DIHEDRAL>
0

>  <SCORE.SYSTEM.SOLV>
0

>  <SCORE.SYSTEM.norm>
0

>  <SCORE.heavy>
10

>  <SCORE.norm>
-1.35336

>  <RMSD>
34.577

$$$$
lig.pdb
 OpenBabel11021811523D
libRbt.so/2013.1/901 2013/11/27
 10 11  0  0  0  0  0  0  0  0999 V2000
    3.2494   17.9930   -3.1078 N   0  0  0  0  0  0  0  0  0  0  0  0
    3.4527   16.9999   -4.0262 C   0  0  0  0  0  0  0  0  0  0  0  0
    2.4425   16.1716   -4.1436 N   0  0  0  0  0  0  0  0  0  0  0  0
    1.5113   16.6528   -3.2389 C   0  0  0  0  0  0  0  0  0  0  0  0
    0.2204   16.2186   -2.8859 C   0  0  0  0  0  0  0  0  0  0  0  0
   -0.3672   15.1474   -3.4293 N   0  0  0  0  0  0  0  0  0  0  0  0
   -0.4441   16.9267   -1.9465 N   0  0  0  0  0  0  0  0  0  0  0  0
    0.1506   17.9952   -1.4046 C   0  0  0  0  0  0  0  0  0  0  0  0
    1.3578   18.5002   -1.6563 N   0  0  0  0  0  0  0  0  0  0  0  0
    1.9920   17.7757   -2.5918 C   0  0  0  0  0  0  0  0  0  0  0  0
  1 10  1  0  0  0  0
  2  3  2  0  0  0  0
  2  1  1  0  0  0  0
  3  4  1  0  0  0  0
  4 10  2  0  0  0  0
  4  5  1  0  0  0  0
  5  7  2  0  0  0  0
  6  5  1  0  0  0  0
  7  8  1  0  0  0  0
  9  8  2  0  0  0  0
 10  9  1  0  0  0  0
M  END
>  <CHROM.1>
1.32638618,17.00471064,-2.85362720,-0.00649121,0.40306518,0.68172663

>  <Name>
lig.pdb

>  <RI>
2.21672e+07

>  <Rbt.Current_Directory>
/home/afrankz/demos/rdock_decoys_rna/rnas/5uza

>  <Rbt.Executable>
rbdock ($Id: //depot/dev/client3/rdock/2013.1/src/exe/rbdock.cxx#4 $)

>  <Rbt.Library>
libRbt.so (2013.1, Build901 2013/11/27)

>  <Rbt.Parameter_File>
/export/apps/rDock/src/rDock_2013.1_src/data/scripts/dock_solv.prm

>  <Rbt.Receptor>
prm/blind_docking_20.prm

>  <SCORE>
-13.4471

>  <SCORE.INTER>
-13.4834

>  <SCORE.INTER.CONST>
1

>  <SCORE.INTER.POLAR>
-2.14785

>  <SCORE.INTER.ROT>
0

>  <SCORE.INTER.SOLV>
8.83919

>  <SCORE.INTER.VDW>
-8.37586

>  <SCORE.INTER.norm>
-1.34834

>  <SCORE.INTRA>
0

>  <SCORE.INTRA.DIHEDRAL>
0

>  <SCORE.INTRA.DIHEDRAL.0>
0

>  <SCORE.INTRA.POLAR>
0

>  <SCORE.INTRA.POLAR.0>
0

>  <SCORE.INTRA.REPUL>
0

>  <SCORE.INTRA.REPUL.0>
0

>  <SCORE.INTRA.SOLV>
0

>  <SCORE.INTRA.SOLV.lig_0>
-14.8845

>  <SCORE.INTRA.VDW>
0

>  <SCORE.INTRA.VDW.0>
0

>  <SCORE.INTRA.norm>
0

>  <SCORE.RESTR>
0.0363636

>  <SCORE.RESTR.CAVITY>
0.0363636

>  <SCORE.RESTR.norm>
0.00363636

>  <SCORE.SYSTEM>
0

>  <SCORE.SYSTEM.CONST>
0

>  <SCORE.SYSTEM.DIHEDRAL>
0

>  <SCORE.SYSTEM.SOLV>
0

>  <SCORE.SYSTEM.norm>
0

>  <SCORE.heavy>
10

>  <SCORE.norm>
-1.34471

>  <RMSD>
34.577

$$$$
lig.pdb
 OpenBabel11021811523D
libRbt.so/2013.1/901 2013/11/27
 10 11  0  0  0  0  0  0  0  0999 V2000
    3.2491   17.9944   -3.1035 N   0  0  0  0  0  0  0  0  0  0  0  0
    3.4520   17.0007   -4.0213 C   0  0  0  0  0  0  0  0  0  0  0  0
    2.4414   16.1728   -4.1382 N   0  0  0  0  0  0  0  0  0  0  0  0
    1.5104   16.6551   -3.2338 C   0  0  0  0  0  0  0  0  0  0  0  0
    0.2192   16.2217   -2.8805 C   0  0  0  0  0  0  0  0  0  0  0  0
   -0.3689   15.1505   -3.4233 N   0  0  0  0  0  0  0  0  0  0  0  0
   -0.4450   16.9307   -1.9416 N   0  0  0  0  0  0  0  0  0  0  0  0
    0.1503   17.9993   -1.4004 C   0  0  0  0  0  0  0  0  0  0  0  0
    1.3577   18.5035   -1.6524 N   0  0  0  0  0  0  0  0  0  0  0  0
    1.9916   17.7782   -2.5874 C   0  0  0  0  0  0  0  0  0  0  0  0
  1 10  1  0  0  0  0
  2  3  2  0  0  0  0
  2  1  1  0  0  0  0
  3  4  1  0  0  0  0
  4 10  2  0  0  0  0
  4  5  1  0  0  0  0
  5  7  2  0  0  0  0
  6  5  1  0  0  0  0
  7  8  1  0  0  0  0
  9  8  2  0  0  0  0
 10  9  1  0  0  0  0
M  END
>  <CHROM.1>
1.32559210,17.00728796,-2.84876845,-0.00689582,0.40272867,0.68125062

>  <Name>
lig.pdb

>  <RI>
2.21672e+07

>  <Rbt.Current_Directory>
/home/afrankz/demos/rdock_decoys_rna/rnas/5uza

>  <Rbt.Executable>
rbdock ($Id: //depot/dev/client3/rdock/2013.1/src/exe/rbdock.cxx#4 $)

>  <Rbt.Library>
libRbt.so (2013.1, Build901 2013/11/27)

>  <Rbt.Parameter_File>
/export/apps/rDock/src/rDock_2013.1_src/data/scripts/dock_solv.prm

>  <Rbt.Receptor>
prm/blind_docking_20.prm

>  <SCORE>
-13.4743

>  <SCORE.INTER>
-13.5168

>  <SCORE.INTER.CONST>
1

>  <SCORE.INTER.POLAR>
-2.14606

>  <SCORE.INTER.ROT>
0

>  <SCORE.INTER.SOLV>
8.8248

>  <SCORE.INTER.VDW>
-8.39929

>  <SCORE.INTER.norm>
-1.35168

>  <SCORE.INTRA>
0

>  <SCORE.INTRA.DIHEDRAL>
0

>  <SCORE.INTRA.DIHEDRAL.0>
0

>  <SCORE.INTRA.POLAR>
0

>  <SCORE.INTRA.POLAR.0>
0

>  <SCORE.INTRA.REPUL>
0

>  <SCORE.INTRA.REPUL.0>
0

>  <SCORE.INTRA.SOLV>
0

>  <SCORE.INTRA.SOLV.lig_0>
-14.8845

>  <SCORE.INTRA.VDW>
0

>  <SCORE.INTRA.VDW.0>
0

>  <SCORE.INTRA.norm>
0

>  <SCORE.RESTR>
0.04257

>  <SCORE.RESTR.CAVITY>
0.04257

>  <SCORE.RESTR.norm>
0.004257

>  <SCORE.SYSTEM>
0

>  <SCORE.SYSTEM.CONST>
0

>  <SCORE.SYSTEM.DIHEDRAL>
0

>  <SCORE.SYSTEM.SOLV>
0

>  <SCORE.SYSTEM.norm>
0

>  <SCORE.heavy>
10

>  <SCORE.norm>
-1.34743

>  <RMSD>
34.578

$$$$
lig.pdb
 OpenBabel11021811523D
libRbt.so/2013.1/901 2013/11/27
 10 11  0  0  0  0  0  0  0  0999 V2000
    3.2518   17.9928   -3.1094 N   0  0  0  0  0  0  0  0  0  0  0  0
    3.4543   17.0009   -4.0293 C   0  0  0  0  0  0  0  0  0  0  0  0
    2.4437   16.1732   -4.1474 N   0  0  0  0  0  0  0  0  0  0  0  0
    1.5130   16.6537   -3.2417 C   0  0  0  0  0  0  0  0  0  0  0  0
    0.2220   16.2196   -2.8887 C   0  0  0  0  0  0  0  0  0  0  0  0
   -0.3662   15.1495   -3.4333 N   0  0  0  0  0  0  0  0  0  0  0  0
   -0.4417   16.9267   -1.9481 N   0  0  0  0  0  0  0  0  0  0  0  0
    0.1538   17.9943   -1.4050 C   0  0  0  0  0  0  0  0  0  0  0  0
    1.3610   18.4990   -1.6565 N   0  0  0  0  0  0  0  0  0  0  0  0
    1.9946   17.7755   -2.5932 C   0  0  0  0  0  0  0  0  0  0  0  0
  1 10  1  0  0  0  0
  2  3  2  0  0  0  0
  2  1  1  0  0  0  0
  3  4  1  0  0  0  0
  4 10  2  0  0  0  0
  4  5  1  0  0  0  0
  5  7  2  0  0  0  0
  6  5  1  0  0  0  0
  7  8  1  0  0  0  0
  9  8  2  0  0  0  0
 10  9  1  0  0  0  0
M  END
>  <CHROM.1>
1.32844332,17.00513925,-2.85582311,-0.00717408,0.40306153,0.68335220

>  <Name>
lig.pdb

>  <RI>
2.21672e+07

>  <Rbt.Current_Directory>
/home/afrankz/demos/rdock_decoys_rna/rnas/5uza

>  <Rbt.Executable>
rbdock ($Id: //depot/dev/client3/rdock/2013.1/src/exe/rbdock.cxx#4 $)

>  <Rbt.Library>
libRbt.so (2013.1, Build901 2013/11/27)

>  <Rbt.Parameter_File>
/export/apps/rDock/src/rDock_2013.1_src/data/scripts/dock_solv.prm

>  <Rbt.Receptor>
prm/blind_docking_20.prm

>  <SCORE>
-13.4328

>  <SCORE.INTER>
-13.4649

>  <SCORE.INTER.CONST>
1

>  <SCORE.INTER.POLAR>
-2.14512

>  <SCORE.INTER.ROT>
0

>  <SCORE.INTER.SOLV>
8.84057

>  <SCORE.INTER.VDW>
-8.37307

>  <SCORE.INTER.norm>
-1.34649

>  <SCORE.INTRA>
0

>  <SCORE.INTRA.DIHEDRAL>
0

>  <SCORE.INTRA.DIHEDRAL.0>
0

>  <SCORE.INTRA.POLAR>
0

>  <SCORE.INTRA.POLAR.0>
0

>  <SCORE.INTRA.REPUL>
0

>  <SCORE.INTRA.REPUL.0>
0

>  <SCORE.INTRA.SOLV>
0

>  <SCORE.INTRA.SOLV.lig_0>
-14.8845

>  <SCORE.INTRA.VDW>
0

>  <SCORE.INTRA.VDW.0>
0

>  <SCORE.INTRA.norm>
0

>  <SCORE.RESTR>
0.0321121

>  <SCORE.RESTR.CAVITY>
0.0321121

>  <SCORE.RESTR.norm>
0.00321121

>  <SCORE.SYSTEM>
0

>  <SCORE.SYSTEM.CONST>
0

>  <SCORE.SYSTEM.DIHEDRAL>
0

>  <SCORE.SYSTEM.SOLV>
0

>  <SCORE.SYSTEM.norm>
0

>  <SCORE.heavy>
10

>  <SCORE.norm>
-1.34328

>  <RMSD>
34.578

$$$$
lig.pdb
 OpenBabel11021811523D
libRbt.so/2013.1/901 2013/11/27
 10 11  0  0  0  0  0  0  0  0999 V2000
    3.2473   17.9972   -3.1007 N   0  0  0  0  0  0  0  0  0  0  0  0
    3.4520   17.0028   -4.0174 C   0  0  0  0  0  0  0  0  0  0  0  0
    2.4424   16.1737   -4.1343 N   0  0  0  0  0  0  0  0  0  0  0  0
    1.5101   16.6559   -3.2311 C   0  0  0  0  0  0  0  0  0  0  0  0
    0.2191   16.2215   -2.8784 C   0  0  0  0  0  0  0  0  0  0  0  0
   -0.3674   15.1491   -3.4205 N   0  0  0  0  0  0  0  0  0  0  0  0
   -0.4465   16.9307   -1.9407 N   0  0  0  0  0  0  0  0  0  0  0  0
    0.1472   18.0004   -1.4000 C   0  0  0  0  0  0  0  0  0  0  0  0
    1.3542   18.5057   -1.6516 N   0  0  0  0  0  0  0  0  0  0  0  0
    1.9897   17.7801   -2.5854 C   0  0  0  0  0  0  0  0  0  0  0  0
  1 10  1  0  0  0  0
  2  3  2  0  0  0  0
  2  1  1  0  0  0  0
  3  4  1  0  0  0  0
  4 10  2  0  0  0  0
  4  5  1  0  0  0  0
  5  7  2  0  0  0  0
  6  5  1  0  0  0  0
  7  8  1  0  0  0  0
  9  8  2  0  0  0  0
 10  9  1  0  0  0  0
M  END
>  <CHROM.1>
1.32467730,17.00826573,-2.84650662,-0.00546035,0.40279005,0.67972010

>  <Name>
lig.pdb

>  <RI>
2.21672e+07

>  <Rbt.Current_Directory>
/home/afrankz/demos/rdock_decoys_rna/rnas/5uza

>  <Rbt.Executable>
rbdock ($Id: //depot/dev/client3/rdock/2013.1/src/exe/rbdock.cxx#4 $)

>  <Rbt.Library>
libRbt.so (2013.1, Build901 2013/11/27)

>  <Rbt.Parameter_File>
/export/apps/rDock/src/rDock_2013.1_src/data/scripts/dock_solv.prm

>  <Rbt.Receptor>
prm/blind_docking_20.prm

>  <SCORE>
-13.4818

>  <SCORE.INTER>
-13.5272

>  <SCORE.INTER.CONST>
1

>  <SCORE.INTER.POLAR>
-2.14789

>  <SCORE.INTER.ROT>
0

>  <SCORE.INTER.SOLV>
8.82167

>  <SCORE.INTER.VDW>
-8.39905

>  <SCORE.INTER.norm>
-1.35272

>  <SCORE.INTRA>
0

>  <SCORE.INTRA.DIHEDRAL>
0

>  <SCORE.INTRA.DIHEDRAL.0>
0

>  <SCORE.INTRA.POLAR>
0

>  <SCORE.INTRA.POLAR.0>
0

>  <SCORE.INTRA.REPUL>
0

>  <SCORE.INTRA.REPUL.0>
0

>  <SCORE.INTRA.SOLV>
0

>  <SCORE.INTRA.SOLV.lig_0>
-14.8845

>  <SCORE.INTRA.VDW>
0

>  <SCORE.INTRA.VDW.0>
0

>  <SCORE.INTRA.norm>
0

>  <SCORE.RESTR>
0.0454281

>  <SCORE.RESTR.CAVITY>
0.0454281

>  <SCORE.RESTR.norm>
0.00454281

>  <SCORE.SYSTEM>
0

>  <SCORE.SYSTEM.CONST>
0

>  <SCORE.SYSTEM.DIHEDRAL>
0

>  <SCORE.SYSTEM.SOLV>
0

>  <SCORE.SYSTEM.norm>
0

>  <SCORE.heavy>
10

>  <SCORE.norm>
-1.34818

>  <RMSD>
34.578

$$$$
lig.pdb
 OpenBabel11021811523D
libRbt.so/2013.1/901 2013/11/27
 10 11  0  0  0  0  0  0  0  0999 V2000
    3.2472   17.9933   -3.1112 N   0  0  0  0  0  0  0  0  0  0  0  0
    3.4488   16.9971   -4.0266 C   0  0  0  0  0  0  0  0  0  0  0  0
    2.4388   16.1678   -4.1386 N   0  0  0  0  0  0  0  0  0  0  0  0
    1.5095   16.6517   -3.2332 C   0  0  0  0  0  0  0  0  0  0  0  0
    0.2197   16.2179   -2.8755 C   0  0  0  0  0  0  0  0  0  0  0  0
   -0.3685   15.1445   -3.4136 N   0  0  0  0  0  0  0  0  0  0  0  0
   -0.4428   16.9289   -1.9369 N   0  0  0  0  0  0  0  0  0  0  0  0
    0.1526   17.9997   -1.4003 C   0  0  0  0  0  0  0  0  0  0  0  0
    1.3588   18.5045   -1.6567 N   0  0  0  0  0  0  0  0  0  0  0  0
    1.9912   17.7772   -2.5913 C   0  0  0  0  0  0  0  0  0  0  0  0
  1 10  1  0  0  0  0
  2  3  2  0  0  0  0
  2  1  1  0  0  0  0
  3  4  1  0  0  0  0
  4 10  2  0  0  0  0
  4  5  1  0  0  0  0
  5  7  2  0  0  0  0
  6  5  1  0  0  0  0
  7  8  1  0  0  0  0
  9  8  2  0  0  0  0
 10  9  1  0  0  0  0
M  END
>  <CHROM.1>
1.32536475,17.00482052,-2.84871829,-0.00768884,0.40536200,0.67868746

>  <Name>
lig.pdb

>  <RI>
2.21672e+07

>  <Rbt.Current_Directory>
/home/afrankz/demos/rdock_decoys_rna/rnas/5uza

>  <Rbt.Executable>
rbdock ($Id: //depot/dev/client3/rdock/2013.1/src/exe/rbdock.cxx#4 $)

>  <Rbt.Library>
libRbt.so (2013.1, Build901 2013/11/27)

>  <Rbt.Parameter_File>
/export/apps/rDock/src/rDock_2013.1_src/data/scripts/dock_solv.prm

>  <Rbt.Receptor>
prm/blind_docking_20.prm

>  <SCORE>
-13.4937

>  <SCORE.INTER>
-13.5471

>  <SCORE.INTER.CONST>
1

>  <SCORE.INTER.POLAR>
-2.14997

>  <SCORE.INTER.ROT>
0

>  <SCORE.INTER.SOLV>
8.82398

>  <SCORE.INTER.VDW>
-8.4062

>  <SCORE.INTER.norm>
-1.35471

>  <SCORE.INTRA>
0

>  <SCORE.INTRA.DIHEDRAL>
0

>  <SCORE.INTRA.DIHEDRAL.0>
0

>  <SCORE.INTRA.POLAR>
0

>  <SCORE.INTRA.POLAR.0>
0

>  <SCORE.INTRA.REPUL>
0

>  <SCORE.INTRA.REPUL.0>
0

>  <SCORE.INTRA.SOLV>
0

>  <SCORE.INTRA.SOLV.lig_0>
-14.8845

>  <SCORE.INTRA.VDW>
0

>  <SCORE.INTRA.VDW.0>
0

>  <SCORE.INTRA.norm>
0

>  <SCORE.RESTR>
0.0534221

>  <SCORE.RESTR.CAVITY>
0.0534221

>  <SCORE.RESTR.norm>
0.00534221

>  <SCORE.SYSTEM>
0

>  <SCORE.SYSTEM.CONST>
0

>  <SCORE.SYSTEM.DIHEDRAL>
0

>  <SCORE.SYSTEM.SOLV>
0

>  <SCORE.SYSTEM.norm>
0

>  <SCORE.heavy>
10

>  <SCORE.norm>
-1.34937

>  <RMSD>
34.578

$$$$
lig.pdb
 OpenBabel11021811523D
libRbt.so/2013.1/901 2013/11/27
 10 11  0  0  0  0  0  0  0  0999 V2000
    3.2528   17.9907   -3.1103 N   0  0  0  0  0  0  0  0  0  0  0  0
    3.4525   16.9981   -4.0299 C   0  0  0  0  0  0  0  0  0  0  0  0
    2.4404   16.1720   -4.1464 N   0  0  0  0  0  0  0  0  0  0  0  0
    1.5117   16.6543   -3.2397 C   0  0  0  0  0  0  0  0  0  0  0  0
    0.2205   16.2224   -2.8848 C   0  0  0  0  0  0  0  0  0  0  0  0
   -0.3702   15.1530   -3.4282 N   0  0  0  0  0  0  0  0  0  0  0  0
   -0.4410   16.9311   -1.9437 N   0  0  0  0  0  0  0  0  0  0  0  0
    0.1569   17.9979   -1.4019 C   0  0  0  0  0  0  0  0  0  0  0  0
    1.3646   18.5006   -1.6552 N   0  0  0  0  0  0  0  0  0  0  0  0
    1.9958   17.7756   -2.5924 C   0  0  0  0  0  0  0  0  0  0  0  0
  1 10  1  0  0  0  0
  2  3  2  0  0  0  0
  2  1  1  0  0  0  0
  3  4  1  0  0  0  0
  4 10  2  0  0  0  0
  4  5  1  0  0  0  0
  5  7  2  0  0  0  0
  6  5  1  0  0  0  0
  7  8  1  0  0  0  0
  9  8  2  0  0  0  0
 10  9  1  0  0  0  0
M  END
>  <CHROM.1>
1.32816152,17.00622885,-2.85375273,-0.00938701,0.40305491,0.68375487

>  <Name>
lig.pdb

>  <RI>
2.21672e+07

>  <Rbt.Current_Directory>
/home/afrankz/demos/rdock_decoys_rna/rnas/5uza

>  <Rbt.Executable>
rbdock ($Id: //depot/dev/client3/rdock/2013.1/src/exe/rbdock.cxx#4 $)

>  <Rbt.Library>
libRbt.so (2013.1, Build901 2013/11/27)

>  <Rbt.Parameter_File>
/export/apps/rDock/src/rDock_2013.1_src/data/scripts/dock_solv.prm

>  <Rbt.Receptor>
prm/blind_docking_20.prm

>  <SCORE>
-13.451

>  <SCORE.INTER>
-13.4868

>  <SCORE.INTER.CONST>
1

>  <SCORE.INTER.POLAR>
-2.14225

>  <SCORE.INTER.ROT>
0

>  <SCORE.INTER.SOLV>
8.83239

>  <SCORE.INTER.VDW>
-8.39448

>  <SCORE.INTER.norm>
-1.34868

>  <SCORE.INTRA>
0

>  <SCORE.INTRA.DIHEDRAL>
0

>  <SCORE.INTRA.DIHEDRAL.0>
0

>  <SCORE.INTRA.POLAR>
0

>  <SCORE.INTRA.POLAR.0>
0

>  <SCORE.INTRA.REPUL>
0

>  <SCORE.INTRA.REPUL.0>
0

>  <SCORE.INTRA.SOLV>
0

>  <SCORE.INTRA.SOLV.lig_0>
-14.8845

>  <SCORE.INTRA.VDW>
0

>  <SCORE.INTRA.VDW.0>
0

>  <SCORE.INTRA.norm>
0

>  <SCORE.RESTR>
0.0358298

>  <SCORE.RESTR.CAVITY>
0.0358298

>  <SCORE.RESTR.norm>
0.00358298

>  <SCORE.SYSTEM>
0

>  <SCORE.SYSTEM.CONST>
0

>  <SCORE.SYSTEM.DIHEDRAL>
0

>  <SCORE.SYSTEM.SOLV>
0

>  <SCORE.SYSTEM.norm>
0

>  <SCORE.heavy>
10

>  <SCORE.norm>
-1.3451

>  <RMSD>
34.579

$$$$
lig.pdb
 OpenBabel11021811523D
libRbt.so/2013.1/901 2013/11/27
 10 11  0  0  0  0  0  0  0  0999 V2000
    3.2533   17.9948   -3.1065 N   0  0  0  0  0  0  0  0  0  0  0  0
    3.4556   17.0025   -4.0260 C   0  0  0  0  0  0  0  0  0  0  0  0
    2.4447   16.1751   -4.1439 N   0  0  0  0  0  0  0  0  0  0  0  0
    1.5141   16.6561   -3.2383 C   0  0  0  0  0  0  0  0  0  0  0  0
    0.2230   16.2225   -2.8852 C   0  0  0  0  0  0  0  0  0  0  0  0
   -0.3655   15.1524   -3.4295 N   0  0  0  0  0  0  0  0  0  0  0  0
   -0.4406   16.9302   -1.9449 N   0  0  0  0  0  0  0  0  0  0  0  0
    0.1552   17.9978   -1.4022 C   0  0  0  0  0  0  0  0  0  0  0  0
    1.3626   18.5021   -1.6538 N   0  0  0  0  0  0  0  0  0  0  0  0
    1.9960   17.7781   -2.5903 C   0  0  0  0  0  0  0  0  0  0  0  0
  1 10  1  0  0  0  0
  2  3  2  0  0  0  0
  2  1  1  0  0  0  0
  3  4  1  0  0  0  0
  4 10  2  0  0  0  0
  4  5  1  0  0  0  0
  5  7  2  0  0  0  0
  6  5  1  0  0  0  0
  7  8  1  0  0  0  0
  9  8  2  0  0  0  0
 10  9  1  0  0  0  0
M  END
>  <CHROM.1>
1.32962917,17.00779159,-2.85261983,-0.00737709,0.40285961,0.68306494

>  <Name>
lig.pdb

>  <RI>
2.21672e+07

>  <Rbt.Current_Directory>
/home/afrankz/demos/rdock_decoys_rna/rnas/5uza

>  <Rbt.Executable>
rbdock ($Id: //depot/dev/client3/rdock/2013.1/src/exe/rbdock.cxx#4 $)

>  <Rbt.Library>
libRbt.so (2013.1, Build901 2013/11/27)

>  <Rbt.Parameter_File>
/export/apps/rDock/src/rDock_2013.1_src/data/scripts/dock_solv.prm

>  <Rbt.Receptor>
prm/blind_docking_20.prm

>  <SCORE>
-13.4498

>  <SCORE.INTER>
-13.4849

>  <SCORE.INTER.CONST>
1

>  <SCORE.INTER.POLAR>
-2.14283

>  <SCORE.INTER.ROT>
0

>  <SCORE.INTER.SOLV>
8.82763

>  <SCORE.INTER.VDW>
-8.38975

>  <SCORE.INTER.norm>
-1.34849

>  <SCORE.INTRA>
0

>  <SCORE.INTRA.DIHEDRAL>
0

>  <SCORE.INTRA.DIHEDRAL.0>
0

>  <SCORE.INTRA.POLAR>
0

>  <SCORE.INTRA.POLAR.0>
0

>  <SCORE.INTRA.REPUL>
0

>  <SCORE.INTRA.REPUL.0>
0

>  <SCORE.INTRA.SOLV>
0

>  <SCORE.INTRA.SOLV.lig_0>
-14.8845

>  <SCORE.INTRA.VDW>
0

>  <SCORE.INTRA.VDW.0>
0

>  <SCORE.INTRA.norm>
0

>  <SCORE.RESTR>
0.0351052

>  <SCORE.RESTR.CAVITY>
0.0351052

>  <SCORE.RESTR.norm>
0.00351052

>  <SCORE.SYSTEM>
0

>  <SCORE.SYSTEM.CONST>
0

>  <SCORE.SYSTEM.DIHEDRAL>
0

>  <SCORE.SYSTEM.SOLV>
0

>  <SCORE.SYSTEM.norm>
0

>  <SCORE.heavy>
10

>  <SCORE.norm>
-1.34498

>  <RMSD>
34.580

$$$$
lig.pdb
 OpenBabel11021811523D
libRbt.so/2013.1/901 2013/11/27
 10 11  0  0  0  0  0  0  0  0999 V2000
    3.2542   17.9936   -3.1074 N   0  0  0  0  0  0  0  0  0  0  0  0
    3.4557   17.0014   -4.0272 C   0  0  0  0  0  0  0  0  0  0  0  0
    2.4444   16.1746   -4.1451 N   0  0  0  0  0  0  0  0  0  0  0  0
    1.5144   16.6558   -3.2391 C   0  0  0  0  0  0  0  0  0  0  0  0
    0.2231   16.2227   -2.8858 C   0  0  0  0  0  0  0  0  0  0  0  0
   -0.3661   15.1530   -3.4302 N   0  0  0  0  0  0  0  0  0  0  0  0
   -0.4399   16.9305   -1.9451 N   0  0  0  0  0  0  0  0  0  0  0  0
    0.1565   17.9976   -1.4022 C   0  0  0  0  0  0  0  0  0  0  0  0
    1.3641   18.5013   -1.6540 N   0  0  0  0  0  0  0  0  0  0  0  0
    1.9969   17.7773   -2.5909 C   0  0  0  0  0  0  0  0  0  0  0  0
  1 10  1  0  0  0  0
  2  3  2  0  0  0  0
  2  1  1  0  0  0  0
  3  4  1  0  0  0  0
  4 10  2  0  0  0  0
  4  5  1  0  0  0  0
  5  7  2  0  0  0  0
  6  5  1  0  0  0  0
  7  8  1  0  0  0  0
  9  8  2  0  0  0  0
 10  9  1  0  0  0  0
M  END
>  <CHROM.1>
1.33011503,17.00742438,-2.85326526,-0.00799013,0.40276120,0.68360499

>  <Name>
lig.pdb

>  <RI>
2.21672e+07

>  <Rbt.Current_Directory>
/home/afrankz/demos/rdock_decoys_rna/rnas/5uza

>  <Rbt.Executable>
rbdock ($Id: //depot/dev/client3/rdock/2013.1/src/exe/rbdock.cxx#4 $)

>  <Rbt.Library>
libRbt.so (2013.1, Build901 2013/11/27)

>  <Rbt.Parameter_File>
/export/apps/rDock/src/rDock_2013.1_src/data/scripts/dock_solv.prm

>  <Rbt.Receptor>
prm/blind_docking_20.prm

>  <SCORE>
-13.4452

>  <SCORE.INTER>
-13.4793

>  <SCORE.INTER.CONST>
1

>  <SCORE.INTER.POLAR>
-2.14151

>  <SCORE.INTER.ROT>
0

>  <SCORE.INTER.SOLV>
8.82776

>  <SCORE.INTER.VDW>
-8.39045

>  <SCORE.INTER.norm>
-1.34793

>  <SCORE.INTRA>
0

>  <SCORE.INTRA.DIHEDRAL>
0

>  <SCORE.INTRA.DIHEDRAL.0>
0

>  <SCORE.INTRA.POLAR>
0

>  <SCORE.INTRA.POLAR.0>
0

>  <SCORE.INTRA.REPUL>
0

>  <SCORE.INTRA.REPUL.0>
0

>  <SCORE.INTRA.SOLV>
0

>  <SCORE.INTRA.SOLV.lig_0>
-14.8845

>  <SCORE.INTRA.VDW>
0

>  <SCORE.INTRA.VDW.0>
0

>  <SCORE.INTRA.norm>
0

>  <SCORE.RESTR>
0.034146

>  <SCORE.RESTR.CAVITY>
0.034146

>  <SCORE.RESTR.norm>
0.0034146

>  <SCORE.SYSTEM>
0

>  <SCORE.SYSTEM.CONST>
0

>  <SCORE.SYSTEM.DIHEDRAL>
0

>  <SCORE.SYSTEM.SOLV>
0

>  <SCORE.SYSTEM.norm>
0

>  <SCORE.heavy>
10

>  <SCORE.norm>
-1.34452

>  <RMSD>
34.581

$$$$
lig.pdb
 OpenBabel11021811523D
libRbt.so/2013.1/901 2013/11/27
 10 11  0  0  0  0  0  0  0  0999 V2000
    3.2538   17.9970   -3.1032 N   0  0  0  0  0  0  0  0  0  0  0  0
    3.4575   17.0050   -4.0226 C   0  0  0  0  0  0  0  0  0  0  0  0
    2.4473   16.1770   -4.1416 N   0  0  0  0  0  0  0  0  0  0  0  0
    1.5156   16.6573   -3.2369 C   0  0  0  0  0  0  0  0  0  0  0  0
    0.2244   16.2228   -2.8851 C   0  0  0  0  0  0  0  0  0  0  0  0
   -0.3630   15.1524   -3.4301 N   0  0  0  0  0  0  0  0  0  0  0  0
   -0.4405   16.9299   -1.9453 N   0  0  0  0  0  0  0  0  0  0  0  0
    0.1540   17.9977   -1.4018 C   0  0  0  0  0  0  0  0  0  0  0  0
    1.3614   18.5028   -1.6522 N   0  0  0  0  0  0  0  0  0  0  0  0
    1.9961   17.7794   -2.5882 C   0  0  0  0  0  0  0  0  0  0  0  0
  1 10  1  0  0  0  0
  2  3  2  0  0  0  0
  2  1  1  0  0  0  0
  3  4  1  0  0  0  0
  4 10  2  0  0  0  0
  4  5  1  0  0  0  0
  5  7  2  0  0  0  0
  6  5  1  0  0  0  0
  7  8  1  0  0  0  0
  9  8  2  0  0  0  0
 10  9  1  0  0  0  0
M  END
>  <CHROM.1>
1.33048456,17.00872431,-2.85128607,-0.00619988,0.40252437,0.68280138

>  <Name>
lig.pdb

>  <RI>
2.21672e+07

>  <Rbt.Current_Directory>
/home/afrankz/demos/rdock_decoys_rna/rnas/5uza

>  <Rbt.Executable>
rbdock ($Id: //depot/dev/client3/rdock/2013.1/src/exe/rbdock.cxx#4 $)

>  <Rbt.Library>
libRbt.so (2013.1, Build901 2013/11/27)

>  <Rbt.Parameter_File>
/export/apps/rDock/src/rDock_2013.1_src/data/scripts/dock_solv.prm

>  <Rbt.Receptor>
prm/blind_docking_20.prm

>  <SCORE>
-13.4512

>  <SCORE.INTER>
-13.4868

>  <SCORE.INTER.CONST>
1

>  <SCORE.INTER.POLAR>
-2.1426

>  <SCORE.INTER.ROT>
0

>  <SCORE.INTER.SOLV>
8.8225

>  <SCORE.INTER.VDW>
-8.39002

>  <SCORE.INTER.norm>
-1.34868

>  <SCORE.INTRA>
0

>  <SCORE.INTRA.DIHEDRAL>
0

>  <SCORE.INTRA.DIHEDRAL.0>
0

>  <SCORE.INTRA.POLAR>
0

>  <SCORE.INTRA.POLAR.0>
0

>  <SCORE.INTRA.REPUL>
0

>  <SCORE.INTRA.REPUL.0>
0

>  <SCORE.INTRA.SOLV>
0

>  <SCORE.INTRA.SOLV.lig_0>
-14.8845

>  <SCORE.INTRA.VDW>
0

>  <SCORE.INTRA.VDW.0>
0

>  <SCORE.INTRA.norm>
0

>  <SCORE.RESTR>
0.0355312

>  <SCORE.RESTR.CAVITY>
0.0355312

>  <SCORE.RESTR.norm>
0.00355312

>  <SCORE.SYSTEM>
0

>  <SCORE.SYSTEM.CONST>
0

>  <SCORE.SYSTEM.DIHEDRAL>
0

>  <SCORE.SYSTEM.SOLV>
0

>  <SCORE.SYSTEM.norm>
0

>  <SCORE.heavy>
10

>  <SCORE.norm>
-1.34512

>  <RMSD>
34.582

$$$$
lig.pdb
 OpenBabel11021811523D
libRbt.so/2013.1/901 2013/11/27
 10 11  0  0  0  0  0  0  0  0999 V2000
    3.2547   17.9970   -3.1031 N   0  0  0  0  0  0  0  0  0  0  0  0
    3.4581   17.0047   -4.0223 C   0  0  0  0  0  0  0  0  0  0  0  0
    2.4477   16.1768   -4.1409 N   0  0  0  0  0  0  0  0  0  0  0  0
    1.5162   16.6576   -3.2362 C   0  0  0  0  0  0  0  0  0  0  0  0
    0.2249   16.2236   -2.8842 C   0  0  0  0  0  0  0  0  0  0  0  0
   -0.3628   15.1531   -3.4288 N   0  0  0  0  0  0  0  0  0  0  0  0
   -0.4398   16.9312   -1.9445 N   0  0  0  0  0  0  0  0  0  0  0  0
    0.1551   17.9990   -1.4015 C   0  0  0  0  0  0  0  0  0  0  0  0
    1.3625   18.5038   -1.6522 N   0  0  0  0  0  0  0  0  0  0  0  0
    1.9970   17.7799   -2.5880 C   0  0  0  0  0  0  0  0  0  0  0  0
  1 10  1  0  0  0  0
  2  3  2  0  0  0  0
  2  1  1  0  0  0  0
  3  4  1  0  0  0  0
  4 10  2  0  0  0  0
  4  5  1  0  0  0  0
  5  7  2  0  0  0  0
  6  5  1  0  0  0  0
  7  8  1  0  0  0  0
  9  8  2  0  0  0  0
 10  9  1  0  0  0  0
M  END
>  <CHROM.1>
1.33116877,17.00928752,-2.85072754,-0.00645223,0.40244672,0.68253840

>  <Name>
lig.pdb

>  <RI>
2.21672e+07

>  <Rbt.Current_Directory>
/home/afrankz/demos/rdock_decoys_rna/rnas/5uza

>  <Rbt.Executable>
rbdock ($Id: //depot/dev/client3/rdock/2013.1/src/exe/rbdock.cxx#4 $)

>  <Rbt.Library>
libRbt.so (2013.1, Build901 2013/11/27)

>  <Rbt.Parameter_File>
/export/apps/rDock/src/rDock_2013.1_src/data/scripts/dock_solv.prm

>  <Rbt.Receptor>
prm/blind_docking_20.prm

>  <SCORE>
-13.4505

>  <SCORE.INTER>
-13.4862

>  <SCORE.INTER.CONST>
1

>  <SCORE.INTER.POLAR>
-2.14167

>  <SCORE.INTER.ROT>
0

>  <SCORE.INTER.SOLV>
8.81931

>  <SCORE.INTER.VDW>
-8.39167

>  <SCORE.INTER.norm>
-1.34862

>  <SCORE.INTRA>
0

>  <SCORE.INTRA.DIHEDRAL>
0

>  <SCORE.INTRA.DIHEDRAL.0>
0

>  <SCORE.INTRA.POLAR>
0

>  <SCORE.INTRA.POLAR.0>
0

>  <SCORE.INTRA.REPUL>
0

>  <SCORE.INTRA.REPUL.0>
0

>  <SCORE.INTRA.SOLV>
0

>  <SCORE.INTRA.SOLV.lig_0>
-14.8845

>  <SCORE.INTRA.VDW>
0

>  <SCORE.INTRA.VDW.0>
0

>  <SCORE.INTRA.norm>
0

>  <SCORE.RESTR>
0.0356573

>  <SCORE.RESTR.CAVITY>
0.0356573

>  <SCORE.RESTR.norm>
0.00356573

>  <SCORE.SYSTEM>
0

>  <SCORE.SYSTEM.CONST>
0

>  <SCORE.SYSTEM.DIHEDRAL>
0

>  <SCORE.SYSTEM.SOLV>
0

>  <SCORE.SYSTEM.norm>
0

>  <SCORE.heavy>
10

>  <SCORE.norm>
-1.34505

>  <RMSD>
34.582

$$$$
lig.pdb
 OpenBabel11021811523D
libRbt.so/2013.1/901 2013/11/27
 10 11  0  0  0  0  0  0  0  0999 V2000
    3.2553   17.9989   -3.0972 N   0  0  0  0  0  0  0  0  0  0  0  0
    3.4621   17.0070   -4.0161 C   0  0  0  0  0  0  0  0  0  0  0  0
    2.4529   16.1780   -4.1372 N   0  0  0  0  0  0  0  0  0  0  0  0
    1.5187   16.6575   -3.2346 C   0  0  0  0  0  0  0  0  0  0  0  0
    0.2271   16.2219   -2.8857 C   0  0  0  0  0  0  0  0  0  0  0  0
   -0.3580   15.1508   -3.4319 N   0  0  0  0  0  0  0  0  0  0  0  0
   -0.4406   16.9284   -1.9474 N   0  0  0  0  0  0  0  0  0  0  0  0
    0.1518   17.9969   -1.4027 C   0  0  0  0  0  0  0  0  0  0  0  0
    1.3592   18.5031   -1.6505 N   0  0  0  0  0  0  0  0  0  0  0  0
    1.9967   17.7801   -2.5850 C   0  0  0  0  0  0  0  0  0  0  0  0
  1 10  1  0  0  0  0
  2  3  2  0  0  0  0
  2  1  1  0  0  0  0
  3  4  1  0  0  0  0
  4 10  2  0  0  0  0
  4  5  1  0  0  0  0
  5  7  2  0  0  0  0
  6  5  1  0  0  0  0
  7  8  1  0  0  0  0
  9  8  2  0  0  0  0
 10  9  1  0  0  0  0
M  END
>  <CHROM.1>
1.33239752,17.00884511,-2.84948614,-0.00387337,0.40137147,0.68178509

>  <Name>
lig.pdb

>  <RI>
2.21672e+07

>  <Rbt.Current_Directory>
/home/afrankz/demos/rdock_decoys_rna/rnas/5uza

>  <Rbt.Executable>
rbdock ($Id: //depot/dev/client3/rdock/2013.1/src/exe/rbdock.cxx#4 $)

>  <Rbt.Library>
libRbt.so (2013.1, Build901 2013/11/27)

>  <Rbt.Parameter_File>
/export/apps/rDock/src/rDock_2013.1_src/data/scripts/dock_solv.prm

>  <Rbt.Receptor>
prm/blind_docking_20.prm

>  <SCORE>
-13.4422

>  <SCORE.INTER>
-13.4763

>  <SCORE.INTER.CONST>
1

>  <SCORE.INTER.POLAR>
-2.14346

>  <SCORE.INTER.ROT>
0

>  <SCORE.INTER.SOLV>
8.81484

>  <SCORE.INTER.VDW>
-8.37758

>  <SCORE.INTER.norm>
-1.34763

>  <SCORE.INTRA>
0

>  <SCORE.INTRA.DIHEDRAL>
0

>  <SCORE.INTRA.DIHEDRAL.0>
0

>  <SCORE.INTRA.POLAR>
0

>  <SCORE.INTRA.POLAR.0>
0

>  <SCORE.INTRA.REPUL>
0

>  <SCORE.INTRA.REPUL.0>
0

>  <SCORE.INTRA.SOLV>
0

>  <SCORE.INTRA.SOLV.lig_0>
-14.8845

>  <SCORE.INTRA.VDW>
0

>  <SCORE.INTRA.VDW.0>
0

>  <SCORE.INTRA.norm>
0

>  <SCORE.RESTR>
0.0340769

>  <SCORE.RESTR.CAVITY>
0.0340769

>  <SCORE.RESTR.norm>
0.00340769

>  <SCORE.SYSTEM>
0

>  <SCORE.SYSTEM.CONST>
0

>  <SCORE.SYSTEM.DIHEDRAL>
0

>  <SCORE.SYSTEM.SOLV>
0

>  <SCORE.SYSTEM.norm>
0

>  <SCORE.heavy>
10

>  <SCORE.norm>
-1.34422

>  <RMSD>
34.584

$$$$
lig.pdb
 OpenBabel11021811523D
libRbt.so/2013.1/901 2013/11/27
 10 11  0  0  0  0  0  0  0  0999 V2000
    3.2546   17.9837   -3.0704 N   0  0  0  0  0  0  0  0  0  0  0  0
    3.4651   16.9855   -3.9817 C   0  0  0  0  0  0  0  0  0  0  0  0
    2.4547   16.1583   -4.1044 N   0  0  0  0  0  0  0  0  0  0  0  0
    1.5156   16.6457   -3.2112 C   0  0  0  0  0  0  0  0  0  0  0  0
    0.2207   16.2153   -2.8682 C   0  0  0  0  0  0  0  0  0  0  0  0
   -0.3634   15.1423   -3.4117 N   0  0  0  0  0  0  0  0  0  0  0  0
   -0.4516   16.9294   -1.9389 N   0  0  0  0  0  0  0  0  0  0  0  0
    0.1397   17.9998   -1.3969 C   0  0  0  0  0  0  0  0  0  0  0  0
    1.3500   18.5015   -1.6397 N   0  0  0  0  0  0  0  0  0  0  0  0
    1.9920   17.7712   -2.5653 C   0  0  0  0  0  0  0  0  0  0  0  0
  1 10  1  0  0  0  0
  2  3  2  0  0  0  0
  2  1  1  0  0  0  0
  3  4  1  0  0  0  0
  4 10  2  0  0  0  0
  4  5  1  0  0  0  0
  5  7  2  0  0  0  0
  6  5  1  0  0  0  0
  7  8  1  0  0  0  0
  9  8  2  0  0  0  0
 10  9  1  0  0  0  0
M  END
>  <CHROM.1>
1.32762498,16.99984512,-2.82948245,-0.00136192,0.39460078,0.67455622

>  <Name>
lig.pdb

>  <RI>
2.21672e+07

>  <Rbt.Current_Directory>
/home/afrankz/demos/rdock_decoys_rna/rnas/5uza

>  <Rbt.Executable>
rbdock ($Id: //depot/dev/client3/rdock/2013.1/src/exe/rbdock.cxx#4 $)

>  <Rbt.Library>
libRbt.so (2013.1, Build901 2013/11/27)

>  <Rbt.Parameter_File>
/export/apps/rDock/src/rDock_2013.1_src/data/scripts/dock_solv.prm

>  <Rbt.Receptor>
prm/blind_docking_20.prm

>  <SCORE>
-13.5001

>  <SCORE.INTER>
-13.5618

>  <SCORE.INTER.CONST>
1

>  <SCORE.INTER.POLAR>
-2.15258

>  <SCORE.INTER.ROT>
0

>  <SCORE.INTER.SOLV>
8.75657

>  <SCORE.INTER.VDW>
-8.38478

>  <SCORE.INTER.norm>
-1.35618

>  <SCORE.INTRA>
0

>  <SCORE.INTRA.DIHEDRAL>
0

>  <SCORE.INTRA.DIHEDRAL.0>
0

>  <SCORE.INTRA.POLAR>
0

>  <SCORE.INTRA.POLAR.0>
0

>  <SCORE.INTRA.REPUL>
0

>  <SCORE.INTRA.REPUL.0>
0

>  <SCORE.INTRA.SOLV>
0

>  <SCORE.INTRA.SOLV.lig_0>
-14.8845

>  <SCORE.INTRA.VDW>
0

>  <SCORE.INTRA.VDW.0>
0

>  <SCORE.INTRA.norm>
0

>  <SCORE.RESTR>
0.0617412

>  <SCORE.RESTR.CAVITY>
0.0617412

>  <SCORE.RESTR.norm>
0.00617412

>  <SCORE.SYSTEM>
0

>  <SCORE.SYSTEM.CONST>
0

>  <SCORE.SYSTEM.DIHEDRAL>
0

>  <SCORE.SYSTEM.SOLV>
0

>  <SCORE.SYSTEM.norm>
0

>  <SCORE.heavy>
10

>  <SCORE.norm>
-1.35001

>  <RMSD>
34.588

$$$$
lig.pdb
 OpenBabel11021811523D
libRbt.so/2013.1/901 2013/11/27
 10 11  0  0  0  0  0  0  0  0999 V2000
    1.3899   16.3927   -2.5307 N   0  0  0  0  0  0  0  0  0  0  0  0
    1.1380   17.6922   -2.1862 C   0  0  0  0  0  0  0  0  0  0  0  0
    1.9542   18.5556   -2.7419 N   0  0  0  0  0  0  0  0  0  0  0  0
    2.8020   17.7690   -3.5033 C   0  0  0  0  0  0  0  0  0  0  0  0
    3.8894   18.0818   -4.3396 C   0  0  0  0  0  0  0  0  0  0  0  0
    4.3222   19.3303   -4.5436 N   0  0  0  0  0  0  0  0  0  0  0  0
    4.5201   17.0587   -4.9568 N   0  0  0  0  0  0  0  0  0  0  0  0
    4.0841   15.8119   -4.7459 C   0  0  0  0  0  0  0  0  0  0  0  0
    3.0734   15.3949   -3.9842 N   0  0  0  0  0  0  0  0  0  0  0  0
    2.4681   16.4328   -3.3853 C   0  0  0  0  0  0  0  0  0  0  0  0
  1 10  1  0  0  0  0
  2  3  2  0  0  0  0
  2  1  1  0  0  0  0
  3  4  1  0  0  0  0
  4 10  2  0  0  0  0
  4  5  1  0  0  0  0
  5  7  2  0  0  0  0
  6  5  1  0  0  0  0
  7  8  1  0  0  0  0
  9  8  2  0  0  0  0
 10  9  1  0  0  0  0
M  END
>  <CHROM.1>
2.98788050,17.28875709,-3.70660681,-3.07367473,0.67063300,0.11054380

>  <Name>
lig.pdb

>  <RI>
2.21672e+07

>  <Rbt.Current_Directory>
/home/afrankz/demos/rdock_decoys_rna/rnas/5uza

>  <Rbt.Executable>
rbdock ($Id: //depot/dev/client3/rdock/2013.1/src/exe/rbdock.cxx#4 $)

>  <Rbt.Library>
libRbt.so (2013.1, Build901 2013/11/27)

>  <Rbt.Parameter_File>
/export/apps/rDock/src/rDock_2013.1_src/data/scripts/dock_solv.prm

>  <Rbt.Receptor>
prm/blind_docking_20.prm

>  <SCORE>
-14.3393

>  <SCORE.INTER>
-15.0546

>  <SCORE.INTER.CONST>
1

>  <SCORE.INTER.POLAR>
-2.09634

>  <SCORE.INTER.ROT>
0

>  <SCORE.INTER.SOLV>
6.82767

>  <SCORE.INTER.VDW>
-8.9245

>  <SCORE.INTER.norm>
-1.50546

>  <SCORE.INTRA>
0

>  <SCORE.INTRA.DIHEDRAL>
0

>  <SCORE.INTRA.DIHEDRAL.0>
0

>  <SCORE.INTRA.POLAR>
0

>  <SCORE.INTRA.POLAR.0>
0

>  <SCORE.INTRA.REPUL>
0

>  <SCORE.INTRA.REPUL.0>
0

>  <SCORE.INTRA.SOLV>
0

>  <SCORE.INTRA.SOLV.lig_0>
-14.8845

>  <SCORE.INTRA.VDW>
0

>  <SCORE.INTRA.VDW.0>
0

>  <SCORE.INTRA.norm>
0

>  <SCORE.RESTR>
0.715263

>  <SCORE.RESTR.CAVITY>
0.715263

>  <SCORE.RESTR.norm>
0.0715263

>  <SCORE.SYSTEM>
0

>  <SCORE.SYSTEM.CONST>
0

>  <SCORE.SYSTEM.DIHEDRAL>
0

>  <SCORE.SYSTEM.SOLV>
0

>  <SCORE.SYSTEM.norm>
0

>  <SCORE.heavy>
10

>  <SCORE.norm>
-1.43393

>  <RMSD>
35.844

$$$$
lig.pdb
 OpenBabel11021811523D
libRbt.so/2013.1/901 2013/11/27
 10 11  0  0  0  0  0  0  0  0999 V2000
    2.0048   18.5318   -2.9245 N   0  0  0  0  0  0  0  0  0  0  0  0
    1.0988   17.5085   -2.8708 C   0  0  0  0  0  0  0  0  0  0  0  0
    1.5191   16.3986   -3.4293 N   0  0  0  0  0  0  0  0  0  0  0  0
    2.7887   16.7147   -3.8825 C   0  0  0  0  0  0  0  0  0  0  0  0
    3.7668   15.9652   -4.5617 C   0  0  0  0  0  0  0  0  0  0  0  0
    3.5949   14.6882   -4.9191 N   0  0  0  0  0  0  0  0  0  0  0  0
    4.9303   16.5814   -4.8649 N   0  0  0  0  0  0  0  0  0  0  0  0
    5.0945   17.8598   -4.5073 C   0  0  0  0  0  0  0  0  0  0  0  0
    4.2494   18.6659   -3.8658 N   0  0  0  0  0  0  0  0  0  0  0  0
    3.1046   18.0259   -3.5793 C   0  0  0  0  0  0  0  0  0  0  0  0
  1 10  1  0  0  0  0
  2  3  2  0  0  0  0
  2  1  1  0  0  0  0
  3  4  1  0  0  0  0
  4 10  2  0  0  0  0
  4  5  1  0  0  0  0
  5  7  2  0  0  0  0
  6  5  1  0  0  0  0
  7  8  1  0  0  0  0
  9  8  2  0  0  0  0
 10  9  1  0  0  0  0
M  END
>  <CHROM.1>
3.22161459,17.05155676,-3.95765344,-2.51024799,-0.39432714,-2.81661497

>  <Name>
lig.pdb

>  <RI>
2.21672e+07

>  <Rbt.Current_Directory>
/home/afrankz/demos/rdock_decoys_rna/rnas/5uza

>  <Rbt.Executable>
rbdock ($Id: //depot/dev/client3/rdock/2013.1/src/exe/rbdock.cxx#4 $)

>  <Rbt.Library>
libRbt.so (2013.1, Build901 2013/11/27)

>  <Rbt.Parameter_File>
/export/apps/rDock/src/rDock_2013.1_src/data/scripts/dock_solv.prm

>  <Rbt.Receptor>
prm/blind_docking_20.prm

>  <SCORE>
-9.37674

>  <SCORE.INTER>
-9.42048

>  <SCORE.INTER.CONST>
1

>  <SCORE.INTER.POLAR>
-1.38244

>  <SCORE.INTER.ROT>
0

>  <SCORE.INTER.SOLV>
8.13978

>  <SCORE.INTER.VDW>
-7.98543

>  <SCORE.INTER.norm>
-0.942048

>  <SCORE.INTRA>
0

>  <SCORE.INTRA.DIHEDRAL>
0

>  <SCORE.INTRA.DIHEDRAL.0>
0

>  <SCORE.INTRA.POLAR>
0

>  <SCORE.INTRA.POLAR.0>
0

>  <SCORE.INTRA.REPUL>
0

>  <SCORE.INTRA.REPUL.0>
0

>  <SCORE.INTRA.SOLV>
0

>  <SCORE.INTRA.SOLV.lig_0>
-14.8845

>  <SCORE.INTRA.VDW>
0

>  <SCORE.INTRA.VDW.0>
0

>  <SCORE.INTRA.norm>
0

>  <SCORE.RESTR>
0.0437448

>  <SCORE.RESTR.CAVITY>
0.0437448

>  <SCORE.RESTR.norm>
0.00437448

>  <SCORE.SYSTEM>
0

>  <SCORE.SYSTEM.CONST>
0

>  <SCORE.SYSTEM.DIHEDRAL>
0

>  <SCORE.SYSTEM.SOLV>
0

>  <SCORE.SYSTEM.norm>
0

>  <SCORE.heavy>
10

>  <SCORE.norm>
-0.937674

>  <RMSD>
35.932

$$$$
lig.pdb
 OpenBabel11021811523D
libRbt.so/2013.1/901 2013/11/27
 10 11  0  0  0  0  0  0  0  0999 V2000
    2.9082   17.3983   -1.0099 N   0  0  0  0  0  0  0  0  0  0  0  0
    1.8906   18.2735   -1.2735 C   0  0  0  0  0  0  0  0  0  0  0  0
    1.5581   18.3334   -2.5409 N   0  0  0  0  0  0  0  0  0  0  0  0
    2.4175   17.4365   -3.1528 C   0  0  0  0  0  0  0  0  0  0  0  0
    2.5724   17.0354   -4.4925 C   0  0  0  0  0  0  0  0  0  0  0  0
    1.8315   17.5214   -5.4938 N   0  0  0  0  0  0  0  0  0  0  0  0
    3.5243   16.1163   -4.7655 N   0  0  0  0  0  0  0  0  0  0  0  0
    4.2642   15.6366   -3.7597 C   0  0  0  0  0  0  0  0  0  0  0  0
    4.2099   15.9360   -2.4624 N   0  0  0  0  0  0  0  0  0  0  0  0
    3.2565   16.8505   -2.2236 C   0  0  0  0  0  0  0  0  0  0  0  0
  1 10  1  0  0  0  0
  2  3  2  0  0  0  0
  2  1  1  0  0  0  0
  3  4  1  0  0  0  0
  4 10  2  0  0  0  0
  4  5  1  0  0  0  0
  5  7  2  0  0  0  0
  6  5  1  0  0  0  0
  7  8  1  0  0  0  0
  9  8  2  0  0  0  0
 10  9  1  0  0  0  0
M  END
>  <CHROM.1>
2.82528153,17.06220805,-3.15917523,-1.80878051,0.72961272,-1.76006844

>  <Name>
lig.pdb

>  <RI>
2.21672e+07

>  <Rbt.Current_Directory>
/home/afrankz/demos/rdock_decoys_rna/rnas/5uza

>  <Rbt.Executable>
rbdock ($Id: //depot/dev/client3/rdock/2013.1/src/exe/rbdock.cxx#4 $)

>  <Rbt.Library>
libRbt.so (2013.1, Build901 2013/11/27)

>  <Rbt.Parameter_File>
/export/apps/rDock/src/rDock_2013.1_src/data/scripts/dock_solv.prm

>  <Rbt.Receptor>
prm/blind_docking_20.prm

>  <SCORE>
-12.7584

>  <SCORE.INTER>
-12.7584

>  <SCORE.INTER.CONST>
1

>  <SCORE.INTER.POLAR>
-1.62744

>  <SCORE.INTER.ROT>
0

>  <SCORE.INTER.SOLV>
7.07186

>  <SCORE.INTER.VDW>
-9.03809

>  <SCORE.INTER.norm>
-1.27584

>  <SCORE.INTRA>
0

>  <SCORE.INTRA.DIHEDRAL>
0

>  <SCORE.INTRA.DIHEDRAL.0>
0

>  <SCORE.INTRA.POLAR>
0

>  <SCORE.INTRA.POLAR.0>
0

>  <SCORE.INTRA.REPUL>
0

>  <SCORE.INTRA.REPUL.0>
0

>  <SCORE.INTRA.SOLV>
0

>  <SCORE.INTRA.SOLV.lig_0>
-14.8845

>  <SCORE.INTRA.VDW>
0

>  <SCORE.INTRA.VDW.0>
0

>  <SCORE.INTRA.norm>
0

>  <SCORE.RESTR>
0

>  <SCORE.RESTR.CAVITY>
0

>  <SCORE.RESTR.norm>
0

>  <SCORE.SYSTEM>
0

>  <SCORE.SYSTEM.CONST>
0

>  <SCORE.SYSTEM.DIHEDRAL>
0

>  <SCORE.SYSTEM.SOLV>
0

>  <SCORE.SYSTEM.norm>
0

>  <SCORE.heavy>
10

>  <SCORE.norm>
-1.27584

>  <RMSD>
35.941

$$$$
lig.pdb
 OpenBabel11021811523D
libRbt.so/2013.1/901 2013/11/27
 10 11  0  0  0  0  0  0  0  0999 V2000
    2.6352   17.6231   -0.8447 N   0  0  0  0  0  0  0  0  0  0  0  0
    1.3587   17.9926   -1.1688 C   0  0  0  0  0  0  0  0  0  0  0  0
    1.1607   18.1408   -2.4569 N   0  0  0  0  0  0  0  0  0  0  0  0
    2.3926   17.8498   -3.0182 C   0  0  0  0  0  0  0  0  0  0  0  0
    2.8447   17.8223   -4.3503 C   0  0  0  0  0  0  0  0  0  0  0  0
    2.0637   18.1133   -5.3959 N   0  0  0  0  0  0  0  0  0  0  0  0
    4.1356   17.4878   -4.5674 N   0  0  0  0  0  0  0  0  0  0  0  0
    4.9123   17.2010   -3.5169 C   0  0  0  0  0  0  0  0  0  0  0  0
    4.6002   17.1917   -2.2215 N   0  0  0  0  0  0  0  0  0  0  0  0
    3.3134   17.5280   -2.0387 C   0  0  0  0  0  0  0  0  0  0  0  0
  1 10  1  0  0  0  0
  2  3  2  0  0  0  0
  2  1  1  0  0  0  0
  3  4  1  0  0  0  0
  4 10  2  0  0  0  0
  4  5  1  0  0  0  0
  5  7  2  0  0  0  0
  6  5  1  0  0  0  0
  7  8  1  0  0  0  0
  9  8  2  0  0  0  0
 10  9  1  0  0  0  0
M  END
>  <CHROM.1>
2.92599365,17.70245827,-3.00076631,-1.99873832,0.26427398,-1.49757352

>  <Name>
lig.pdb

>  <RI>
2.21672e+07

>  <Rbt.Current_Directory>
/home/afrankz/demos/rdock_decoys_rna/rnas/5uza

>  <Rbt.Executable>
rbdock ($Id: //depot/dev/client3/rdock/2013.1/src/exe/rbdock.cxx#4 $)

>  <Rbt.Library>
libRbt.so (2013.1, Build901 2013/11/27)

>  <Rbt.Parameter_File>
/export/apps/rDock/src/rDock_2013.1_src/data/scripts/dock_solv.prm

>  <Rbt.Receptor>
prm/blind_docking_20.prm

>  <SCORE>
-15.0526

>  <SCORE.INTER>
-15.0976

>  <SCORE.INTER.CONST>
1

>  <SCORE.INTER.POLAR>
-1.78918

>  <SCORE.INTER.ROT>
0

>  <SCORE.INTER.SOLV>
6.41176

>  <SCORE.INTER.VDW>
-9.83843

>  <SCORE.INTER.norm>
-1.50976

>  <SCORE.INTRA>
0

>  <SCORE.INTRA.DIHEDRAL>
0

>  <SCORE.INTRA.DIHEDRAL.0>
0

>  <SCORE.INTRA.POLAR>
0

>  <SCORE.INTRA.POLAR.0>
0

>  <SCORE.INTRA.REPUL>
0

>  <SCORE.INTRA.REPUL.0>
0

>  <SCORE.INTRA.SOLV>
0

>  <SCORE.INTRA.SOLV.lig_0>
-14.8845

>  <SCORE.INTRA.VDW>
0

>  <SCORE.INTRA.VDW.0>
0

>  <SCORE.INTRA.norm>
0

>  <SCORE.RESTR>
0.0450761

>  <SCORE.RESTR.CAVITY>
0.0450761

>  <SCORE.RESTR.norm>
0.00450761

>  <SCORE.SYSTEM>
0

>  <SCORE.SYSTEM.CONST>
0

>  <SCORE.SYSTEM.DIHEDRAL>
0

>  <SCORE.SYSTEM.SOLV>
0

>  <SCORE.SYSTEM.norm>
0

>  <SCORE.heavy>
10

>  <SCORE.norm>
-1.50526

>  <RMSD>
36.097

$$$$
lig.pdb
 OpenBabel11021811523D
libRbt.so/2013.1/901 2013/11/27
 10 11  0  0  0  0  0  0  0  0999 V2000
    2.6334   17.6232   -0.8349 N   0  0  0  0  0  0  0  0  0  0  0  0
    1.3578   17.9969   -1.1578 C   0  0  0  0  0  0  0  0  0  0  0  0
    1.1601   18.1495   -2.4454 N   0  0  0  0  0  0  0  0  0  0  0  0
    2.3913   17.8570   -3.0077 C   0  0  0  0  0  0  0  0  0  0  0  0
    2.8432   17.8323   -4.3399 C   0  0  0  0  0  0  0  0  0  0  0  0
    2.0629   18.1284   -5.3845 N   0  0  0  0  0  0  0  0  0  0  0  0
    4.1332   17.4953   -4.5581 N   0  0  0  0  0  0  0  0  0  0  0  0
    4.9092   17.2033   -3.5084 C   0  0  0  0  0  0  0  0  0  0  0  0
    4.5972   17.1910   -2.2131 N   0  0  0  0  0  0  0  0  0  0  0  0
    3.3112   17.5299   -2.0292 C   0  0  0  0  0  0  0  0  0  0  0  0
  1 10  1  0  0  0  0
  2  3  2  0  0  0  0
  2  1  1  0  0  0  0
  3  4  1  0  0  0  0
  4 10  2  0  0  0  0
  4  5  1  0  0  0  0
  5  7  2  0  0  0  0
  6  5  1  0  0  0  0
  7  8  1  0  0  0  0
  9  8  2  0  0  0  0
 10  9  1  0  0  0  0
M  END
>  <CHROM.1>
2.92423697,17.70826951,-2.99069982,-1.99887409,0.26680722,-1.49454269

>  <Name>
lig.pdb

>  <RI>
2.21672e+07

>  <Rbt.Current_Directory>
/home/afrankz/demos/rdock_decoys_rna/rnas/5uza

>  <Rbt.Executable>
rbdock ($Id: //depot/dev/client3/rdock/2013.1/src/exe/rbdock.cxx#4 $)

>  <Rbt.Library>
libRbt.so (2013.1, Build901 2013/11/27)

>  <Rbt.Parameter_File>
/export/apps/rDock/src/rDock_2013.1_src/data/scripts/dock_solv.prm

>  <Rbt.Receptor>
prm/blind_docking_20.prm

>  <SCORE>
-15.1006

>  <SCORE.INTER>
-15.1549

>  <SCORE.INTER.CONST>
1

>  <SCORE.INTER.POLAR>
-1.79808

>  <SCORE.INTER.ROT>
0

>  <SCORE.INTER.SOLV>
6.37928

>  <SCORE.INTER.VDW>
-9.83612

>  <SCORE.INTER.norm>
-1.51549

>  <SCORE.INTRA>
0

>  <SCORE.INTRA.DIHEDRAL>
0

>  <SCORE.INTRA.DIHEDRAL.0>
0

>  <SCORE.INTRA.POLAR>
0

>  <SCORE.INTRA.POLAR.0>
0

>  <SCORE.INTRA.REPUL>
0

>  <SCORE.INTRA.REPUL.0>
0

>  <SCORE.INTRA.SOLV>
0

>  <SCORE.INTRA.SOLV.lig_0>
-14.8845

>  <SCORE.INTRA.VDW>
0

>  <SCORE.INTRA.VDW.0>
0

>  <SCORE.INTRA.norm>
0

>  <SCORE.RESTR>
0.0543021

>  <SCORE.RESTR.CAVITY>
0.0543021

>  <SCORE.RESTR.norm>
0.00543021

>  <SCORE.SYSTEM>
0

>  <SCORE.SYSTEM.CONST>
0

>  <SCORE.SYSTEM.DIHEDRAL>
0

>  <SCORE.SYSTEM.SOLV>
0

>  <SCORE.SYSTEM.norm>
0

>  <SCORE.heavy>
10

>  <SCORE.norm>
-1.51006

>  <RMSD>
36.099

$$$$
lig.pdb
 OpenBabel11021811523D
libRbt.so/2013.1/901 2013/11/27
 10 11  0  0  0  0  0  0  0  0999 V2000
    2.6328   17.6200   -0.8338 N   0  0  0  0  0  0  0  0  0  0  0  0
    1.3583   17.9970   -1.1573 C   0  0  0  0  0  0  0  0  0  0  0  0
    1.1620   18.1517   -2.4449 N   0  0  0  0  0  0  0  0  0  0  0  0
    2.3930   17.8572   -3.0065 C   0  0  0  0  0  0  0  0  0  0  0  0
    2.8459   17.8332   -4.3384 C   0  0  0  0  0  0  0  0  0  0  0  0
    2.0671   18.1325   -5.3833 N   0  0  0  0  0  0  0  0  0  0  0  0
    4.1354   17.4935   -4.5559 N   0  0  0  0  0  0  0  0  0  0  0  0
    4.9099   17.1985   -3.5060 C   0  0  0  0  0  0  0  0  0  0  0  0
    4.5967   17.1852   -2.2110 N   0  0  0  0  0  0  0  0  0  0  0  0
    3.3114   17.5268   -2.0277 C   0  0  0  0  0  0  0  0  0  0  0  0
  1 10  1  0  0  0  0
  2  3  2  0  0  0  0
  2  1  1  0  0  0  0
  3  4  1  0  0  0  0
  4 10  2  0  0  0  0
  4  5  1  0  0  0  0
  5  7  2  0  0  0  0
  6  5  1  0  0  0  0
  7  8  1  0  0  0  0
  9  8  2  0  0  0  0
 10  9  1  0  0  0  0
M  END
>  <CHROM.1>
2.92558289,17.70724306,-2.98927965,-1.99989846,0.26899692,-1.49297841

>  <Name>
lig.pdb

>  <RI>
2.21672e+07

>  <Rbt.Current_Directory>
/home/afrankz/demos/rdock_decoys_rna/rnas/5uza

>  <Rbt.Executable>
rbdock ($Id: //depot/dev/client3/rdock/2013.1/src/exe/rbdock.cxx#4 $)

>  <Rbt.Library>
libRbt.so (2013.1, Build901 2013/11/27)

>  <Rbt.Parameter_File>
/export/apps/rDock/src/rDock_2013.1_src/data/scripts/dock_solv.prm

>  <Rbt.Receptor>
prm/blind_docking_20.prm

>  <SCORE>
-15.1078

>  <SCORE.INTER>
-15.1633

>  <SCORE.INTER.CONST>
1

>  <SCORE.INTER.POLAR>
-1.80167

>  <SCORE.INTER.ROT>
0

>  <SCORE.INTER.SOLV>
6.36418

>  <SCORE.INTER.VDW>
-9.82472

>  <SCORE.INTER.norm>
-1.51633

>  <SCORE.INTRA>
0

>  <SCORE.INTRA.DIHEDRAL>
0

>  <SCORE.INTRA.DIHEDRAL.0>
0

>  <SCORE.INTRA.POLAR>
0

>  <SCORE.INTRA.POLAR.0>
0

>  <SCORE.INTRA.REPUL>
0

>  <SCORE.INTRA.REPUL.0>
0

>  <SCORE.INTRA.SOLV>
0

>  <SCORE.INTRA.SOLV.lig_0>
-14.8845

>  <SCORE.INTRA.VDW>
0

>  <SCORE.INTRA.VDW.0>
0

>  <SCORE.INTRA.norm>
0

>  <SCORE.RESTR>
0.0555698

>  <SCORE.RESTR.CAVITY>
0.0555698

>  <SCORE.RESTR.norm>
0.00555698

>  <SCORE.SYSTEM>
0

>  <SCORE.SYSTEM.CONST>
0

>  <SCORE.SYSTEM.DIHEDRAL>
0

>  <SCORE.SYSTEM.SOLV>
0

>  <SCORE.SYSTEM.norm>
0

>  <SCORE.heavy>
10

>  <SCORE.norm>
-1.51078

>  <RMSD>
36.101

$$$$
lig.pdb
 OpenBabel11021811523D
libRbt.so/2013.1/901 2013/11/27
 10 11  0  0  0  0  0  0  0  0999 V2000
    2.6331   17.6314   -0.8302 N   0  0  0  0  0  0  0  0  0  0  0  0
    1.3563   17.9990   -1.1552 C   0  0  0  0  0  0  0  0  0  0  0  0
    1.1588   18.1463   -2.4434 N   0  0  0  0  0  0  0  0  0  0  0  0
    2.3915   17.8568   -3.0039 C   0  0  0  0  0  0  0  0  0  0  0  0
    2.8443   17.8293   -4.3357 C   0  0  0  0  0  0  0  0  0  0  0  0
    2.0635   18.1187   -5.3819 N   0  0  0  0  0  0  0  0  0  0  0  0
    4.1358   17.4965   -4.5519 N   0  0  0  0  0  0  0  0  0  0  0  0
    4.9123   17.2113   -3.5008 C   0  0  0  0  0  0  0  0  0  0  0  0
    4.5995   17.2022   -2.2056 N   0  0  0  0  0  0  0  0  0  0  0  0
    3.3121   17.5367   -2.0237 C   0  0  0  0  0  0  0  0  0  0  0  0
  1 10  1  0  0  0  0
  2  3  2  0  0  0  0
  2  1  1  0  0  0  0
  3  4  1  0  0  0  0
  4 10  2  0  0  0  0
  4  5  1  0  0  0  0
  5  7  2  0  0  0  0
  6  5  1  0  0  0  0
  7  8  1  0  0  0  0
  9  8  2  0  0  0  0
 10  9  1  0  0  0  0
M  END
>  <CHROM.1>
2.92499776,17.71018636,-2.98606080,-1.99922393,0.26284819,-1.49792046

>  <Name>
lig.pdb

>  <RI>
2.21672e+07

>  <Rbt.Current_Directory>
/home/afrankz/demos/rdock_decoys_rna/rnas/5uza

>  <Rbt.Executable>
rbdock ($Id: //depot/dev/client3/rdock/2013.1/src/exe/rbdock.cxx#4 $)

>  <Rbt.Library>
libRbt.so (2013.1, Build901 2013/11/27)

>  <Rbt.Parameter_File>
/export/apps/rDock/src/rDock_2013.1_src/data/scripts/dock_solv.prm

>  <Rbt.Receptor>
prm/blind_docking_20.prm

>  <SCORE>
-15.1113

>  <SCORE.INTER>
-15.1693

>  <SCORE.INTER.CONST>
1

>  <SCORE.INTER.POLAR>
-1.7968

>  <SCORE.INTER.ROT>
0

>  <SCORE.INTER.SOLV>
6.38428

>  <SCORE.INTER.VDW>
-9.85161

>  <SCORE.INTER.norm>
-1.51693

>  <SCORE.INTRA>
0

>  <SCORE.INTRA.DIHEDRAL>
0

>  <SCORE.INTRA.DIHEDRAL.0>
0

>  <SCORE.INTRA.POLAR>
0

>  <SCORE.INTRA.POLAR.0>
0

>  <SCORE.INTRA.REPUL>
0

>  <SCORE.INTRA.REPUL.0>
0

>  <SCORE.INTRA.SOLV>
0

>  <SCORE.INTRA.SOLV.lig_0>
-14.8845

>  <SCORE.INTRA.VDW>
0

>  <SCORE.INTRA.VDW.0>
0

>  <SCORE.INTRA.norm>
0

>  <SCORE.RESTR>
0.0579461

>  <SCORE.RESTR.CAVITY>
0.0579461

>  <SCORE.RESTR.norm>
0.00579461

>  <SCORE.SYSTEM>
0

>  <SCORE.SYSTEM.CONST>
0

>  <SCORE.SYSTEM.DIHEDRAL>
0

>  <SCORE.SYSTEM.SOLV>
0

>  <SCORE.SYSTEM.norm>
0

>  <SCORE.heavy>
10

>  <SCORE.norm>
-1.51113

>  <RMSD>
36.101

$$$$
lig.pdb
 OpenBabel11021811523D
libRbt.so/2013.1/901 2013/11/27
 10 11  0  0  0  0  0  0  0  0999 V2000
    2.6370   17.6181   -0.8281 N   0  0  0  0  0  0  0  0  0  0  0  0
    1.3623   17.9962   -1.1492 C   0  0  0  0  0  0  0  0  0  0  0  0
    1.1644   18.1535   -2.4362 N   0  0  0  0  0  0  0  0  0  0  0  0
    2.3945   17.8596   -3.0000 C   0  0  0  0  0  0  0  0  0  0  0  0
    2.8458   17.8379   -4.3325 C   0  0  0  0  0  0  0  0  0  0  0  0
    2.0657   18.1395   -5.3758 N   0  0  0  0  0  0  0  0  0  0  0  0
    4.1348   17.4981   -4.5523 N   0  0  0  0  0  0  0  0  0  0  0  0
    4.9105   17.2008   -3.5040 C   0  0  0  0  0  0  0  0  0  0  0  0
    4.5990   17.1850   -2.2086 N   0  0  0  0  0  0  0  0  0  0  0  0
    3.3141   17.5269   -2.0230 C   0  0  0  0  0  0  0  0  0  0  0  0
  1 10  1  0  0  0  0
  2  3  2  0  0  0  0
  2  1  1  0  0  0  0
  3  4  1  0  0  0  0
  4 10  2  0  0  0  0
  4  5  1  0  0  0  0
  5  7  2  0  0  0  0
  6  5  1  0  0  0  0
  7  8  1  0  0  0  0
  9  8  2  0  0  0  0
 10  9  1  0  0  0  0
M  END
>  <CHROM.1>
2.92708380,17.70931852,-2.98373537,-1.99860961,0.26951163,-1.49139619

>  <Name>
lig.pdb

>  <RI>
2.21672e+07

>  <Rbt.Current_Directory>
/home/afrankz/demos/rdock_decoys_rna/rnas/5uza

>  <Rbt.Executable>
rbdock ($Id: //depot/dev/client3/rdock/2013.1/src/exe/rbdock.cxx#4 $)

>  <Rbt.Library>
libRbt.so (2013.1, Build901 2013/11/27)

>  <Rbt.Parameter_File>
/export/apps/rDock/src/rDock_2013.1_src/data/scripts/dock_solv.prm

>  <Rbt.Receptor>
prm/blind_docking_20.prm

>  <SCORE>
-15.1296

>  <SCORE.INTER>
-15.1904

>  <SCORE.INTER.CONST>
1

>  <SCORE.INTER.POLAR>
-1.80544

>  <SCORE.INTER.ROT>
0

>  <SCORE.INTER.SOLV>
6.34384

>  <SCORE.INTER.VDW>
-9.8234

>  <SCORE.INTER.norm>
-1.51904

>  <SCORE.INTRA>
0

>  <SCORE.INTRA.DIHEDRAL>
0

>  <SCORE.INTRA.DIHEDRAL.0>
0

>  <SCORE.INTRA.POLAR>
0

>  <SCORE.INTRA.POLAR.0>
0

>  <SCORE.INTRA.REPUL>
0

>  <SCORE.INTRA.REPUL.0>
0

>  <SCORE.INTRA.SOLV>
0

>  <SCORE.INTRA.SOLV.lig_0>
-14.8845

>  <SCORE.INTRA.VDW>
0

>  <SCORE.INTRA.VDW.0>
0

>  <SCORE.INTRA.norm>
0

>  <SCORE.RESTR>
0.0607844

>  <SCORE.RESTR.CAVITY>
0.0607844

>  <SCORE.RESTR.norm>
0.00607844

>  <SCORE.SYSTEM>
0

>  <SCORE.SYSTEM.CONST>
0

>  <SCORE.SYSTEM.DIHEDRAL>
0

>  <SCORE.SYSTEM.SOLV>
0

>  <SCORE.SYSTEM.norm>
0

>  <SCORE.heavy>
10

>  <SCORE.norm>
-1.51296

>  <RMSD>
36.105

$$$$
lig.pdb
 OpenBabel11021811523D
libRbt.so/2013.1/901 2013/11/27
 10 11  0  0  0  0  0  0  0  0999 V2000
    2.6375   17.6213   -0.8282 N   0  0  0  0  0  0  0  0  0  0  0  0
    1.3621   17.9974   -1.1488 C   0  0  0  0  0  0  0  0  0  0  0  0
    1.1639   18.1561   -2.4356 N   0  0  0  0  0  0  0  0  0  0  0  0
    2.3946   17.8654   -2.9997 C   0  0  0  0  0  0  0  0  0  0  0  0
    2.8460   17.8466   -4.3323 C   0  0  0  0  0  0  0  0  0  0  0  0
    2.0654   18.1480   -5.3752 N   0  0  0  0  0  0  0  0  0  0  0  0
    4.1357   17.5096   -4.5525 N   0  0  0  0  0  0  0  0  0  0  0  0
    4.9119   17.2123   -3.5046 C   0  0  0  0  0  0  0  0  0  0  0  0
    4.6004   17.1942   -2.2091 N   0  0  0  0  0  0  0  0  0  0  0  0
    3.3148   17.5331   -2.0231 C   0  0  0  0  0  0  0  0  0  0  0  0
  1 10  1  0  0  0  0
  2  3  2  0  0  0  0
  2  1  1  0  0  0  0
  3  4  1  0  0  0  0
  4 10  2  0  0  0  0
  4  5  1  0  0  0  0
  5  7  2  0  0  0  0
  6  5  1  0  0  0  0
  7  8  1  0  0  0  0
  9  8  2  0  0  0  0
 10  9  1  0  0  0  0
M  END
>  <CHROM.1>
2.92750511,17.71619828,-2.98367638,-1.99850160,0.26752323,-1.49000695

>  <Name>
lig.pdb

>  <RI>
2.21672e+07

>  <Rbt.Current_Directory>
/home/afrankz/demos/rdock_decoys_rna/rnas/5uza

>  <Rbt.Executable>
rbdock ($Id: //depot/dev/client3/rdock/2013.1/src/exe/rbdock.cxx#4 $)

>  <Rbt.Library>
libRbt.so (2013.1, Build901 2013/11/27)

>  <Rbt.Parameter_File>
/export/apps/rDock/src/rDock_2013.1_src/data/scripts/dock_solv.prm

>  <Rbt.Receptor>
prm/blind_docking_20.prm

>  <SCORE>
-15.124

>  <SCORE.INTER>
-15.1843

>  <SCORE.INTER.CONST>
1

>  <SCORE.INTER.POLAR>
-1.80893

>  <SCORE.INTER.ROT>
0

>  <SCORE.INTER.SOLV>
6.35877

>  <SCORE.INTER.VDW>
-9.81274

>  <SCORE.INTER.norm>
-1.51843

>  <SCORE.INTRA>
0

>  <SCORE.INTRA.DIHEDRAL>
0

>  <SCORE.INTRA.DIHEDRAL.0>
0

>  <SCORE.INTRA.POLAR>
0

>  <SCORE.INTRA.POLAR.0>
0

>  <SCORE.INTRA.REPUL>
0

>  <SCORE.INTRA.REPUL.0>
0

>  <SCORE.INTRA.SOLV>
0

>  <SCORE.INTRA.SOLV.lig_0>
-14.8845

>  <SCORE.INTRA.VDW>
0

>  <SCORE.INTRA.VDW.0>
0

>  <SCORE.INTRA.norm>
0

>  <SCORE.RESTR>
0.0603548

>  <SCORE.RESTR.CAVITY>
0.0603548

>  <SCORE.RESTR.norm>
0.00603548

>  <SCORE.SYSTEM>
0

>  <SCORE.SYSTEM.CONST>
0

>  <SCORE.SYSTEM.DIHEDRAL>
0

>  <SCORE.SYSTEM.SOLV>
0

>  <SCORE.SYSTEM.norm>
0

>  <SCORE.heavy>
10

>  <SCORE.norm>
-1.5124

>  <RMSD>
36.105

$$$$
lig.pdb
 OpenBabel11021811523D
libRbt.so/2013.1/901 2013/11/27
 10 11  0  0  0  0  0  0  0  0999 V2000
    2.6313   17.6262   -0.8267 N   0  0  0  0  0  0  0  0  0  0  0  0
    1.3568   18.0005   -1.1529 C   0  0  0  0  0  0  0  0  0  0  0  0
    1.1627   18.1536   -2.4411 N   0  0  0  0  0  0  0  0  0  0  0  0
    2.3953   17.8610   -3.0000 C   0  0  0  0  0  0  0  0  0  0  0  0
    2.8509   17.8366   -4.3310 C   0  0  0  0  0  0  0  0  0  0  0  0
    2.0736   18.1334   -5.3777 N   0  0  0  0  0  0  0  0  0  0  0  0
    4.1414   17.4992   -4.5457 N   0  0  0  0  0  0  0  0  0  0  0  0
    4.9144   17.2066   -3.4941 C   0  0  0  0  0  0  0  0  0  0  0  0
    4.5987   17.1938   -2.1996 N   0  0  0  0  0  0  0  0  0  0  0  0
    3.3124   17.5332   -2.0191 C   0  0  0  0  0  0  0  0  0  0  0  0
  1 10  1  0  0  0  0
  2  3  2  0  0  0  0
  2  1  1  0  0  0  0
  3  4  1  0  0  0  0
  4 10  2  0  0  0  0
  4  5  1  0  0  0  0
  5  7  2  0  0  0  0
  6  5  1  0  0  0  0
  7  8  1  0  0  0  0
  9  8  2  0  0  0  0
 10  9  1  0  0  0  0
M  END
>  <CHROM.1>
2.92815203,17.71201715,-2.98161904,-2.00175635,0.26695562,-1.49339833

>  <Name>
lig.pdb

>  <RI>
2.21672e+07

>  <Rbt.Current_Directory>
/home/afrankz/demos/rdock_decoys_rna/rnas/5uza

>  <Rbt.Executable>
rbdock ($Id: //depot/dev/client3/rdock/2013.1/src/exe/rbdock.cxx#4 $)

>  <Rbt.Library>
libRbt.so (2013.1, Build901 2013/11/27)

>  <Rbt.Parameter_File>
/export/apps/rDock/src/rDock_2013.1_src/data/scripts/dock_solv.prm

>  <Rbt.Receptor>
prm/blind_docking_20.prm

>  <SCORE>
-15.132

>  <SCORE.INTER>
-15.1938

>  <SCORE.INTER.CONST>
1

>  <SCORE.INTER.POLAR>
-1.80802

>  <SCORE.INTER.ROT>
0

>  <SCORE.INTER.SOLV>
6.35445

>  <SCORE.INTER.VDW>
-9.82062

>  <SCORE.INTER.norm>
-1.51938

>  <SCORE.INTRA>
0

>  <SCORE.INTRA.DIHEDRAL>
0

>  <SCORE.INTRA.DIHEDRAL.0>
0

>  <SCORE.INTRA.POLAR>
0

>  <SCORE.INTRA.POLAR.0>
0

>  <SCORE.INTRA.REPUL>
0

>  <SCORE.INTRA.REPUL.0>
0

>  <SCORE.INTRA.SOLV>
0

>  <SCORE.INTRA.SOLV.lig_0>
-14.8845

>  <SCORE.INTRA.VDW>
0

>  <SCORE.INTRA.VDW.0>
0

>  <SCORE.INTRA.norm>
0

>  <SCORE.RESTR>
0.0618377

>  <SCORE.RESTR.CAVITY>
0.0618377

>  <SCORE.RESTR.norm>
0.00618377

>  <SCORE.SYSTEM>
0

>  <SCORE.SYSTEM.CONST>
0

>  <SCORE.SYSTEM.DIHEDRAL>
0

>  <SCORE.SYSTEM.SOLV>
0

>  <SCORE.SYSTEM.norm>
0

>  <SCORE.heavy>
10

>  <SCORE.norm>
-1.5132

>  <RMSD>
36.106

$$$$
lig.pdb
 OpenBabel11021811523D
libRbt.so/2013.1/901 2013/11/27
 10 11  0  0  0  0  0  0  0  0999 V2000
    2.6346   17.6244   -0.8263 N   0  0  0  0  0  0  0  0  0  0  0  0
    1.3594   17.9979   -1.1508 C   0  0  0  0  0  0  0  0  0  0  0  0
    1.1633   18.1503   -2.4387 N   0  0  0  0  0  0  0  0  0  0  0  0
    2.3951   17.8580   -2.9993 C   0  0  0  0  0  0  0  0  0  0  0  0
    2.8487   17.8333   -4.3310 C   0  0  0  0  0  0  0  0  0  0  0  0
    2.0696   18.1292   -5.3766 N   0  0  0  0  0  0  0  0  0  0  0  0
    4.1390   17.4963   -4.5476 N   0  0  0  0  0  0  0  0  0  0  0  0
    4.9138   17.2046   -3.4970 C   0  0  0  0  0  0  0  0  0  0  0  0
    4.6001   17.1923   -2.2020 N   0  0  0  0  0  0  0  0  0  0  0  0
    3.3139   17.5311   -2.0197 C   0  0  0  0  0  0  0  0  0  0  0  0
  1 10  1  0  0  0  0
  2  3  2  0  0  0  0
  2  1  1  0  0  0  0
  3  4  1  0  0  0  0
  4 10  2  0  0  0  0
  4  5  1  0  0  0  0
  5  7  2  0  0  0  0
  6  5  1  0  0  0  0
  7  8  1  0  0  0  0
  9  8  2  0  0  0  0
 10  9  1  0  0  0  0
M  END
>  <CHROM.1>
2.92810201,17.70931098,-2.98171749,-2.00013665,0.26658631,-1.49429382

>  <Name>
lig.pdb

>  <RI>
2.21672e+07

>  <Rbt.Current_Directory>
/home/afrankz/demos/rdock_decoys_rna/rnas/5uza

>  <Rbt.Executable>
rbdock ($Id: //depot/dev/client3/rdock/2013.1/src/exe/rbdock.cxx#4 $)

>  <Rbt.Library>
libRbt.so (2013.1, Build901 2013/11/27)

>  <Rbt.Parameter_File>
/export/apps/rDock/src/rDock_2013.1_src/data/scripts/dock_solv.prm

>  <Rbt.Receptor>
prm/blind_docking_20.prm

>  <SCORE>
-15.1343

>  <SCORE.INTER>
-15.1965

>  <SCORE.INTER.CONST>
1

>  <SCORE.INTER.POLAR>
-1.80453

>  <SCORE.INTER.ROT>
0

>  <SCORE.INTER.SOLV>
6.35064

>  <SCORE.INTER.VDW>
-9.83278

>  <SCORE.INTER.norm>
-1.51965

>  <SCORE.INTRA>
0

>  <SCORE.INTRA.DIHEDRAL>
0

>  <SCORE.INTRA.DIHEDRAL.0>
0

>  <SCORE.INTRA.POLAR>
0

>  <SCORE.INTRA.POLAR.0>
0

>  <SCORE.INTRA.REPUL>
0

>  <SCORE.INTRA.REPUL.0>
0

>  <SCORE.INTRA.SOLV>
0

>  <SCORE.INTRA.SOLV.lig_0>
-14.8845

>  <SCORE.INTRA.VDW>
0

>  <SCORE.INTRA.VDW.0>
0

>  <SCORE.INTRA.norm>
0

>  <SCORE.RESTR>
0.0621647

>  <SCORE.RESTR.CAVITY>
0.0621647

>  <SCORE.RESTR.norm>
0.00621647

>  <SCORE.SYSTEM>
0

>  <SCORE.SYSTEM.CONST>
0

>  <SCORE.SYSTEM.DIHEDRAL>
0

>  <SCORE.SYSTEM.SOLV>
0

>  <SCORE.SYSTEM.norm>
0

>  <SCORE.heavy>
10

>  <SCORE.norm>
-1.51343

>  <RMSD>
36.106

$$$$
lig.pdb
 OpenBabel11021811523D
libRbt.so/2013.1/901 2013/11/27
 10 11  0  0  0  0  0  0  0  0999 V2000
    2.8100   17.7365   -0.7932 N   0  0  0  0  0  0  0  0  0  0  0  0
    1.5193   18.0939   -1.0713 C   0  0  0  0  0  0  0  0  0  0  0  0
    1.2660   18.2104   -2.3530 N   0  0  0  0  0  0  0  0  0  0  0  0
    2.4741   17.9099   -2.9592 C   0  0  0  0  0  0  0  0  0  0  0  0
    2.8691   17.8517   -4.3083 C   0  0  0  0  0  0  0  0  0  0  0  0
    2.0431   18.1148   -5.3263 N   0  0  0  0  0  0  0  0  0  0  0  0
    4.1510   17.5162   -4.5722 N   0  0  0  0  0  0  0  0  0  0  0  0
    4.9729   17.2573   -3.5492 C   0  0  0  0  0  0  0  0  0  0  0  0
    4.7163   17.2783   -2.2419 N   0  0  0  0  0  0  0  0  0  0  0  0
    3.4370   17.6147   -2.0124 C   0  0  0  0  0  0  0  0  0  0  0  0
  1 10  1  0  0  0  0
  2  3  2  0  0  0  0
  2  1  1  0  0  0  0
  3  4  1  0  0  0  0
  4 10  2  0  0  0  0
  4  5  1  0  0  0  0
  5  7  2  0  0  0  0
  6  5  1  0  0  0  0
  7  8  1  0  0  0  0
  9  8  2  0  0  0  0
 10  9  1  0  0  0  0
M  END
>  <CHROM.1>
3.00828533,17.76470107,-2.96099019,-1.95441618,0.26292588,-1.53319022

>  <Name>
lig.pdb

>  <RI>
2.21672e+07

>  <Rbt.Current_Directory>
/home/afrankz/demos/rdock_decoys_rna/rnas/5uza

>  <Rbt.Executable>
rbdock ($Id: //depot/dev/client3/rdock/2013.1/src/exe/rbdock.cxx#4 $)

>  <Rbt.Library>
libRbt.so (2013.1, Build901 2013/11/27)

>  <Rbt.Parameter_File>
/export/apps/rDock/src/rDock_2013.1_src/data/scripts/dock_solv.prm

>  <Rbt.Receptor>
prm/blind_docking_20.prm

>  <SCORE>
-15.0236

>  <SCORE.INTER>
-15.0697

>  <SCORE.INTER.CONST>
1

>  <SCORE.INTER.POLAR>
-1.75034

>  <SCORE.INTER.ROT>
0

>  <SCORE.INTER.SOLV>
6.44333

>  <SCORE.INTER.VDW>
-9.9598

>  <SCORE.INTER.norm>
-1.50697

>  <SCORE.INTRA>
0

>  <SCORE.INTRA.DIHEDRAL>
0

>  <SCORE.INTRA.DIHEDRAL.0>
0

>  <SCORE.INTRA.POLAR>
0

>  <SCORE.INTRA.POLAR.0>
0

>  <SCORE.INTRA.REPUL>
0

>  <SCORE.INTRA.REPUL.0>
0

>  <SCORE.INTRA.SOLV>
0

>  <SCORE.INTRA.SOLV.lig_0>
-14.8845

>  <SCORE.INTRA.VDW>
0

>  <SCORE.INTRA.VDW.0>
0

>  <SCORE.INTRA.norm>
0

>  <SCORE.RESTR>
0.0461452

>  <SCORE.RESTR.CAVITY>
0.0461452

>  <SCORE.RESTR.norm>
0.00461452

>  <SCORE.SYSTEM>
0

>  <SCORE.SYSTEM.CONST>
0

>  <SCORE.SYSTEM.DIHEDRAL>
0

>  <SCORE.SYSTEM.SOLV>
0

>  <SCORE.SYSTEM.norm>
0

>  <SCORE.heavy>
10

>  <SCORE.norm>
-1.50236

>  <RMSD>
36.191

$$$$
lig.pdb
 OpenBabel11021811523D
libRbt.so/2013.1/901 2013/11/27
 10 11  0  0  0  0  0  0  0  0999 V2000
    2.8582   17.7353   -0.8112 N   0  0  0  0  0  0  0  0  0  0  0  0
    1.5658   18.0976   -1.0748 C   0  0  0  0  0  0  0  0  0  0  0  0
    1.2987   18.2151   -2.3536 N   0  0  0  0  0  0  0  0  0  0  0  0
    2.4988   17.9101   -2.9732 C   0  0  0  0  0  0  0  0  0  0  0  0
    2.8786   17.8504   -4.3267 C   0  0  0  0  0  0  0  0  0  0  0  0
    2.0422   18.1167   -5.3354 N   0  0  0  0  0  0  0  0  0  0  0  0
    4.1561   17.5102   -4.6049 N   0  0  0  0  0  0  0  0  0  0  0  0
    4.9885   17.2482   -3.5911 C   0  0  0  0  0  0  0  0  0  0  0  0
    4.7465   17.2701   -2.2809 N   0  0  0  0  0  0  0  0  0  0  0  0
    3.4712   17.6113   -2.0372 C   0  0  0  0  0  0  0  0  0  0  0  0
  1 10  1  0  0  0  0
  2  3  2  0  0  0  0
  2  1  1  0  0  0  0
  3  4  1  0  0  0  0
  4 10  2  0  0  0  0
  4  5  1  0  0  0  0
  5  7  2  0  0  0  0
  6  5  1  0  0  0  0
  7  8  1  0  0  0  0
  9  8  2  0  0  0  0
 10  9  1  0  0  0  0
M  END
>  <CHROM.1>
3.03241936,17.76288940,-2.98098079,-1.94301594,0.26705813,-1.53618033

>  <Name>
lig.pdb

>  <RI>
2.21672e+07

>  <Rbt.Current_Directory>
/home/afrankz/demos/rdock_decoys_rna/rnas/5uza

>  <Rbt.Executable>
rbdock ($Id: //depot/dev/client3/rdock/2013.1/src/exe/rbdock.cxx#4 $)

>  <Rbt.Library>
libRbt.so (2013.1, Build901 2013/11/27)

>  <Rbt.Parameter_File>
/export/apps/rDock/src/rDock_2013.1_src/data/scripts/dock_solv.prm

>  <Rbt.Receptor>
prm/blind_docking_20.prm

>  <SCORE>
-14.9473

>  <SCORE.INTER>
-14.9725

>  <SCORE.INTER.CONST>
1

>  <SCORE.INTER.POLAR>
-1.73348

>  <SCORE.INTER.ROT>
0

>  <SCORE.INTER.SOLV>
6.481

>  <SCORE.INTER.VDW>
-9.96374

>  <SCORE.INTER.norm>
-1.49725

>  <SCORE.INTRA>
0

>  <SCORE.INTRA.DIHEDRAL>
0

>  <SCORE.INTRA.DIHEDRAL.0>
0

>  <SCORE.INTRA.POLAR>
0

>  <SCORE.INTRA.POLAR.0>
0

>  <SCORE.INTRA.REPUL>
0

>  <SCORE.INTRA.REPUL.0>
0

>  <SCORE.INTRA.SOLV>
0

>  <SCORE.INTRA.SOLV.lig_0>
-14.8845

>  <SCORE.INTRA.VDW>
0

>  <SCORE.INTRA.VDW.0>
0

>  <SCORE.INTRA.norm>
0

>  <SCORE.RESTR>
0.0251732

>  <SCORE.RESTR.CAVITY>
0.0251732

>  <SCORE.RESTR.norm>
0.00251732

>  <SCORE.SYSTEM>
0

>  <SCORE.SYSTEM.CONST>
0

>  <SCORE.SYSTEM.DIHEDRAL>
0

>  <SCORE.SYSTEM.SOLV>
0

>  <SCORE.SYSTEM.norm>
0

>  <SCORE.heavy>
10

>  <SCORE.norm>
-1.49473

>  <RMSD>
36.207

$$$$
lig.pdb
 OpenBabel11021811523D
libRbt.so/2013.1/901 2013/11/27
 10 11  0  0  0  0  0  0  0  0999 V2000
    2.8662   17.7365   -0.7931 N   0  0  0  0  0  0  0  0  0  0  0  0
    1.5720   18.0957   -1.0518 C   0  0  0  0  0  0  0  0  0  0  0  0
    1.2992   18.2108   -2.3296 N   0  0  0  0  0  0  0  0  0  0  0  0
    2.4974   17.9075   -2.9538 C   0  0  0  0  0  0  0  0  0  0  0  0
    2.8716   17.8468   -4.3088 C   0  0  0  0  0  0  0  0  0  0  0  0
    2.0305   18.1099   -5.3144 N   0  0  0  0  0  0  0  0  0  0  0  0
    4.1488   17.5089   -4.5918 N   0  0  0  0  0  0  0  0  0  0  0  0
    4.9859   17.2501   -3.5812 C   0  0  0  0  0  0  0  0  0  0  0  0
    4.7494   17.2733   -2.2701 N   0  0  0  0  0  0  0  0  0  0  0  0
    3.4743   17.6121   -2.0215 C   0  0  0  0  0  0  0  0  0  0  0  0
  1 10  1  0  0  0  0
  2  3  2  0  0  0  0
  2  1  1  0  0  0  0
  3  4  1  0  0  0  0
  4 10  2  0  0  0  0
  4  5  1  0  0  0  0
  5  7  2  0  0  0  0
  6  5  1  0  0  0  0
  7  8  1  0  0  0  0
  9  8  2  0  0  0  0
 10  9  1  0  0  0  0
M  END
>  <CHROM.1>
3.03131336,17.76147293,-2.96363423,-1.93861438,0.26507408,-1.53870730

>  <Name>
lig.pdb

>  <RI>
2.21672e+07

>  <Rbt.Current_Directory>
/home/afrankz/demos/rdock_decoys_rna/rnas/5uza

>  <Rbt.Executable>
rbdock ($Id: //depot/dev/client3/rdock/2013.1/src/exe/rbdock.cxx#4 $)

>  <Rbt.Library>
libRbt.so (2013.1, Build901 2013/11/27)

>  <Rbt.Parameter_File>
/export/apps/rDock/src/rDock_2013.1_src/data/scripts/dock_solv.prm

>  <Rbt.Receptor>
prm/blind_docking_20.prm

>  <SCORE>
-14.9853

>  <SCORE.INTER>
-15.0205

>  <SCORE.INTER.CONST>
1

>  <SCORE.INTER.POLAR>
-1.73245

>  <SCORE.INTER.ROT>
0

>  <SCORE.INTER.SOLV>
6.4243

>  <SCORE.INTER.VDW>
-9.98027

>  <SCORE.INTER.norm>
-1.50205

>  <SCORE.INTRA>
0

>  <SCORE.INTRA.DIHEDRAL>
0

>  <SCORE.INTRA.DIHEDRAL.0>
0

>  <SCORE.INTRA.POLAR>
0

>  <SCORE.INTRA.POLAR.0>
0

>  <SCORE.INTRA.REPUL>
0

>  <SCORE.INTRA.REPUL.0>
0

>  <SCORE.INTRA.SOLV>
0

>  <SCORE.INTRA.SOLV.lig_0>
-14.8845

>  <SCORE.INTRA.VDW>
0

>  <SCORE.INTRA.VDW.0>
0

>  <SCORE.INTRA.norm>
0

>  <SCORE.RESTR>
0.0352408

>  <SCORE.RESTR.CAVITY>
0.0352408

>  <SCORE.RESTR.norm>
0.00352408

>  <SCORE.SYSTEM>
0

>  <SCORE.SYSTEM.CONST>
0

>  <SCORE.SYSTEM.DIHEDRAL>
0

>  <SCORE.SYSTEM.SOLV>
0

>  <SCORE.SYSTEM.norm>
0

>  <SCORE.heavy>
10

>  <SCORE.norm>
-1.49853

>  <RMSD>
36.213

$$$$
lig.pdb
 OpenBabel11021811523D
libRbt.so/2013.1/901 2013/11/27
 10 11  0  0  0  0  0  0  0  0999 V2000
    2.8692   17.7722   -0.7858 N   0  0  0  0  0  0  0  0  0  0  0  0
    1.5737   18.1220   -1.0511 C   0  0  0  0  0  0  0  0  0  0  0  0
    1.3033   18.2229   -2.3306 N   0  0  0  0  0  0  0  0  0  0  0  0
    2.5045   17.9196   -2.9490 C   0  0  0  0  0  0  0  0  0  0  0  0
    2.8821   17.8473   -4.3025 C   0  0  0  0  0  0  0  0  0  0  0  0
    2.0419   18.0959   -5.3125 N   0  0  0  0  0  0  0  0  0  0  0  0
    4.1616   17.5133   -4.5793 N   0  0  0  0  0  0  0  0  0  0  0  0
    4.9978   17.2690   -3.5642 C   0  0  0  0  0  0  0  0  0  0  0  0
    4.7581   17.3041   -2.2539 N   0  0  0  0  0  0  0  0  0  0  0  0
    3.4808   17.6387   -2.0116 C   0  0  0  0  0  0  0  0  0  0  0  0
  1 10  1  0  0  0  0
  2  3  2  0  0  0  0
  2  1  1  0  0  0  0
  3  4  1  0  0  0  0
  4 10  2  0  0  0  0
  4  5  1  0  0  0  0
  5  7  2  0  0  0  0
  6  5  1  0  0  0  0
  7  8  1  0  0  0  0
  9  8  2  0  0  0  0
 10  9  1  0  0  0  0
M  END
>  <CHROM.1>
3.03913966,17.77627595,-2.95616958,-1.94080664,0.25977910,-1.54814934

>  <Name>
lig.pdb

>  <RI>
2.21672e+07

>  <Rbt.Current_Directory>
/home/afrankz/demos/rdock_decoys_rna/rnas/5uza

>  <Rbt.Executable>
rbdock ($Id: //depot/dev/client3/rdock/2013.1/src/exe/rbdock.cxx#4 $)

>  <Rbt.Library>
libRbt.so (2013.1, Build901 2013/11/27)

>  <Rbt.Parameter_File>
/export/apps/rDock/src/rDock_2013.1_src/data/scripts/dock_solv.prm

>  <Rbt.Receptor>
prm/blind_docking_20.prm

>  <SCORE>
-14.9683

>  <SCORE.INTER>
-14.9964

>  <SCORE.INTER.CONST>
1

>  <SCORE.INTER.POLAR>
-1.73071

>  <SCORE.INTER.ROT>
0

>  <SCORE.INTER.SOLV>
6.46865

>  <SCORE.INTER.VDW>
-9.98475

>  <SCORE.INTER.norm>
-1.49964

>  <SCORE.INTRA>
0

>  <SCORE.INTRA.DIHEDRAL>
0

>  <SCORE.INTRA.DIHEDRAL.0>
0

>  <SCORE.INTRA.POLAR>
0

>  <SCORE.INTRA.POLAR.0>
0

>  <SCORE.INTRA.REPUL>
0

>  <SCORE.INTRA.REPUL.0>
0

>  <SCORE.INTRA.SOLV>
0

>  <SCORE.INTRA.SOLV.lig_0>
-14.8845

>  <SCORE.INTRA.VDW>
0

>  <SCORE.INTRA.VDW.0>
0

>  <SCORE.INTRA.norm>
0

>  <SCORE.RESTR>
0.0280841

>  <SCORE.RESTR.CAVITY>
0.0280841

>  <SCORE.RESTR.norm>
0.00280841

>  <SCORE.SYSTEM>
0

>  <SCORE.SYSTEM.CONST>
0

>  <SCORE.SYSTEM.DIHEDRAL>
0

>  <SCORE.SYSTEM.SOLV>
0

>  <SCORE.SYSTEM.norm>
0

>  <SCORE.heavy>
10

>  <SCORE.norm>
-1.49683

>  <RMSD>
36.222

$$$$
lig.pdb
 OpenBabel11021811523D
libRbt.so/2013.1/901 2013/11/27
 10 11  0  0  0  0  0  0  0  0999 V2000
    2.8864   17.7675   -0.7744 N   0  0  0  0  0  0  0  0  0  0  0  0
    1.5913   18.1171   -1.0419 C   0  0  0  0  0  0  0  0  0  0  0  0
    1.3214   18.2113   -2.3220 N   0  0  0  0  0  0  0  0  0  0  0  0
    2.5224   17.9037   -2.9385 C   0  0  0  0  0  0  0  0  0  0  0  0
    2.9004   17.8238   -4.2915 C   0  0  0  0  0  0  0  0  0  0  0  0
    2.0607   18.0677   -5.3030 N   0  0  0  0  0  0  0  0  0  0  0  0
    4.1797   17.4871   -4.5661 N   0  0  0  0  0  0  0  0  0  0  0  0
    5.0153   17.2476   -3.5495 C   0  0  0  0  0  0  0  0  0  0  0  0
    4.7754   17.2899   -2.2395 N   0  0  0  0  0  0  0  0  0  0  0  0
    3.4982   17.6269   -1.9993 C   0  0  0  0  0  0  0  0  0  0  0  0
  1 10  1  0  0  0  0
  2  3  2  0  0  0  0
  2  1  1  0  0  0  0
  3  4  1  0  0  0  0
  4 10  2  0  0  0  0
  4  5  1  0  0  0  0
  5  7  2  0  0  0  0
  6  5  1  0  0  0  0
  7  8  1  0  0  0  0
  9  8  2  0  0  0  0
 10  9  1  0  0  0  0
M  END
>  <CHROM.1>
3.05698224,17.75982554,-2.94471932,-1.94109516,0.26065754,-1.55344325

>  <Name>
lig.pdb

>  <RI>
2.21672e+07

>  <Rbt.Current_Directory>
/home/afrankz/demos/rdock_decoys_rna/rnas/5uza

>  <Rbt.Executable>
rbdock ($Id: //depot/dev/client3/rdock/2013.1/src/exe/rbdock.cxx#4 $)

>  <Rbt.Library>
libRbt.so (2013.1, Build901 2013/11/27)

>  <Rbt.Parameter_File>
/export/apps/rDock/src/rDock_2013.1_src/data/scripts/dock_solv.prm

>  <Rbt.Receptor>
prm/blind_docking_20.prm

>  <SCORE>
-14.9457

>  <SCORE.INTER>
-14.978

>  <SCORE.INTER.CONST>
1

>  <SCORE.INTER.POLAR>
-1.72858

>  <SCORE.INTER.ROT>
0

>  <SCORE.INTER.SOLV>
6.3889

>  <SCORE.INTER.VDW>
-9.95304

>  <SCORE.INTER.norm>
-1.4978

>  <SCORE.INTRA>
0

>  <SCORE.INTRA.DIHEDRAL>
0

>  <SCORE.INTRA.DIHEDRAL.0>
0

>  <SCORE.INTRA.POLAR>
0

>  <SCORE.INTRA.POLAR.0>
0

>  <SCORE.INTRA.REPUL>
0

>  <SCORE.INTRA.REPUL.0>
0

>  <SCORE.INTRA.SOLV>
0

>  <SCORE.INTRA.SOLV.lig_0>
-14.8845

>  <SCORE.INTRA.VDW>
0

>  <SCORE.INTRA.VDW.0>
0

>  <SCORE.INTRA.norm>
0

>  <SCORE.RESTR>
0.0322776

>  <SCORE.RESTR.CAVITY>
0.0322776

>  <SCORE.RESTR.norm>
0.00322776

>  <SCORE.SYSTEM>
0

>  <SCORE.SYSTEM.CONST>
0

>  <SCORE.SYSTEM.DIHEDRAL>
0

>  <SCORE.SYSTEM.SOLV>
0

>  <SCORE.SYSTEM.norm>
0

>  <SCORE.heavy>
10

>  <SCORE.norm>
-1.49457

>  <RMSD>
36.243

$$$$
lig.pdb
 OpenBabel11021811523D
libRbt.so/2013.1/901 2013/11/27
 10 11  0  0  0  0  0  0  0  0999 V2000
    2.9664   17.7952   -0.7446 N   0  0  0  0  0  0  0  0  0  0  0  0
    1.6816   18.1981   -0.9854 C   0  0  0  0  0  0  0  0  0  0  0  0
    1.3850   18.2900   -2.2597 N   0  0  0  0  0  0  0  0  0  0  0  0
    2.5562   17.9235   -2.9009 C   0  0  0  0  0  0  0  0  0  0  0  0
    2.8973   17.8123   -4.2614 C   0  0  0  0  0  0  0  0  0  0  0  0
    2.0447   18.0817   -5.2555 N   0  0  0  0  0  0  0  0  0  0  0  0
    4.1537   17.4171   -4.5624 N   0  0  0  0  0  0  0  0  0  0  0  0
    5.0026   17.1523   -3.5632 C   0  0  0  0  0  0  0  0  0  0  0  0
    4.7966   17.2194   -2.2484 N   0  0  0  0  0  0  0  0  0  0  0  0
    3.5416   17.6146   -1.9820 C   0  0  0  0  0  0  0  0  0  0  0  0
  1 10  1  0  0  0  0
  2  3  2  0  0  0  0
  2  1  1  0  0  0  0
  3  4  1  0  0  0  0
  4 10  2  0  0  0  0
  4  5  1  0  0  0  0
  5  7  2  0  0  0  0
  6  5  1  0  0  0  0
  7  8  1  0  0  0  0
  9  8  2  0  0  0  0
 10  9  1  0  0  0  0
M  END
>  <CHROM.1>
3.08368992,17.75631828,-2.91811283,-1.91641363,0.30448046,-1.57176698

>  <Name>
lig.pdb

>  <RI>
2.21672e+07

>  <Rbt.Current_Directory>
/home/afrankz/demos/rdock_decoys_rna/rnas/5uza

>  <Rbt.Executable>
rbdock ($Id: //depot/dev/client3/rdock/2013.1/src/exe/rbdock.cxx#4 $)

>  <Rbt.Library>
libRbt.so (2013.1, Build901 2013/11/27)

>  <Rbt.Parameter_File>
/export/apps/rDock/src/rDock_2013.1_src/data/scripts/dock_solv.prm

>  <Rbt.Receptor>
prm/blind_docking_20.prm

>  <SCORE>
-14.8421

>  <SCORE.INTER>
-14.8568

>  <SCORE.INTER.CONST>
1

>  <SCORE.INTER.POLAR>
-1.69989

>  <SCORE.INTER.ROT>
0

>  <SCORE.INTER.SOLV>
6.22302

>  <SCORE.INTER.VDW>
-9.91258

>  <SCORE.INTER.norm>
-1.48568

>  <SCORE.INTRA>
0

>  <SCORE.INTRA.DIHEDRAL>
0

>  <SCORE.INTRA.DIHEDRAL.0>
0

>  <SCORE.INTRA.POLAR>
0

>  <SCORE.INTRA.POLAR.0>
0

>  <SCORE.INTRA.REPUL>
0

>  <SCORE.INTRA.REPUL.0>
0

>  <SCORE.INTRA.SOLV>
0

>  <SCORE.INTRA.SOLV.lig_0>
-14.8845

>  <SCORE.INTRA.VDW>
0

>  <SCORE.INTRA.VDW.0>
0

>  <SCORE.INTRA.norm>
0

>  <SCORE.RESTR>
0.0147346

>  <SCORE.RESTR.CAVITY>
0.0147346

>  <SCORE.RESTR.norm>
0.00147346

>  <SCORE.SYSTEM>
0

>  <SCORE.SYSTEM.CONST>
0

>  <SCORE.SYSTEM.DIHEDRAL>
0

>  <SCORE.SYSTEM.SOLV>
0

>  <SCORE.SYSTEM.norm>
0

>  <SCORE.heavy>
10

>  <SCORE.norm>
-1.48421

>  <RMSD>
36.279

$$$$
