@<TRIPOS>MOLECULE
5uza_rdock.pdb
 2199 2368 0 0 0
SMALL
GASTEIGER

@<TRIPOS>ATOM
      1  OP.3     -47.0370    8.4520  -12.1510 O.3    13  G13        -0.1145
      2    P.3    -47.9910    7.3380  -12.3520 Pac    13  G13         0.5320
      3  OP1      -49.2910    7.9190  -12.7670 O.3    13  G13        -0.1145
      4  OP2      -47.3420    6.3420  -13.2400 O.2    13  G13        -0.2224
      5  O5'      -48.2170    6.6290  -10.9440 O.3    13  G13        -0.2809
      6  C5'      -48.5900    7.3780   -9.7960 C.3    13  G13         0.0880
      7  C4'      -48.6220    6.5090   -8.5640 C.3    13  G13         0.1141
      8  O4'      -49.4520    5.3440   -8.8160 O.3    13  G13        -0.3456
      9  C3'      -47.2810    5.9300   -8.1310 C.3    13  G13         0.1241
     10  O3'      -46.5170    6.8320   -7.3500 O.3    13  G13        -0.3187
     11  C2'      -47.6860    4.6670   -7.3860 C.3    13  G13         0.1292
     12  O2'      -48.1190    4.9670   -6.0670 O.3    13  G13        -0.3846
     13  C1'      -48.8850    4.2030   -8.2090 C.3    13  G13         0.1667
     14   N9      -48.4960    3.2610   -9.2760 N.ar   13  G13        -0.2854
     15   C8      -48.5610    3.4960  -10.6280 C.ar   13  G13         0.1005
     16   N7      -48.1550    2.4880  -11.3480 N.ar   13  G13        -0.2286
     17   C5      -47.7990    1.5250  -10.4140 C.ar   13  G13         0.1721
     18   C6      -47.2870    0.2150  -10.6020 C.ar   13  G13         0.2803
     19   O6      -47.0380   -0.3700  -11.6630 O.2    13  G13        -0.2654
     20   N.1     -47.0620   -0.4250   -9.3880 N.ar   13  G13        -0.2934
     21   C.2     -47.3000    0.1230   -8.1510 C.ar   13  G13         0.1950
     22   N.2     -47.0170   -0.6590   -7.0990 N.pl3  13  G13        -0.3289
     23   N.3     -47.7780    1.3430   -7.9620 N.ar   13  G13        -0.1963
     24   C4      -48.0050    1.9840   -9.1290 C.ar   13  G13         0.1712
     25  H5'      -49.4700    7.7600   -9.9380 H      13  G13         0.0592
     26 H5''      -47.9510    8.0950   -9.6620 H      13  G13         0.0592
     27  H4'      -49.0010    7.0150   -7.8280 H      13  G13         0.0647
     28  H3'      -46.7730    5.6840   -8.9200 H      13  G13         0.0655
     29  H2'      -46.9750    4.0080   -7.3900 H      13  G13         0.0666
     30 HO2'      -47.6650    5.6080   -5.7680 H      13  G13         0.2101
     31  H1'      -49.5380    3.7850   -7.6270 H      13  G13         0.0866
     32   H8      -48.8640    4.2950  -10.9940 H      13  G13         0.1030
     33   H1      -46.7500   -1.2260   -9.4140 H      13  G13         0.1716
     34  H21      -46.7060   -1.4510   -7.2230 H      13  G13         0.1451
     35  H22      -47.1460   -0.3680   -6.3000 H      13  G13         0.1451
     36    P.3    -44.9140    6.8360   -7.4540 P.3    14  G14         0.2131
     37  OP1      -44.4040    7.9510   -6.6160 O.3    14  G14        -0.4373
     38  OP2      -44.5410    6.7650   -8.8900 O.2    14  G14        -0.5172
     39  O5'      -44.4770    5.4680   -6.7640 O.3    14  G14        -0.3248
     40  C5'      -44.6600    5.2620   -5.3710 C.3    14  G14         0.0837
     41  C4'      -44.1450    3.9110   -4.9430 C.3    14  G14         0.1139
     42  O4'      -44.9640    2.8650   -5.5310 O.3    14  G14        -0.3456
     43  C3'      -42.7330    3.5680   -5.3930 C.3    14  G14         0.1241
     44  O3'      -41.7280    4.1410   -4.5770 O.3    14  G14        -0.3187
     45  C2'      -42.7450    2.0470   -5.3800 C.3    14  G14         0.1292
     46  O2'      -42.6190    1.5430   -4.0580 O.3    14  G14        -0.3846
     47  C1'      -44.1570    1.7600   -5.8840 C.3    14  G14         0.1667
     48   N9      -44.1920    1.6080   -7.3510 N.ar   14  G14        -0.2854
     49   C8      -44.5880    2.5540   -8.2650 C.ar   14  G14         0.1005
     50   N7      -44.5110    2.1410   -9.4990 N.ar   14  G14        -0.2286
     51   C5      -44.0320    0.8430   -9.3960 C.ar   14  G14         0.1721
     52   C6      -43.7450   -0.1110  -10.4060 C.ar   14  G14         0.2803
     53   O6      -43.8590    0.0050  -11.6320 O.2    14  G14        -0.2654
     54   N.1     -43.2760   -1.3030   -9.8640 N.ar   14  G14        -0.2934
     55   C.2     -43.1070   -1.5480   -8.5240 C.ar   14  G14         0.1950
     56   N.2     -42.6440   -2.7650   -8.2000 N.pl3  14  G14        -0.3289
     57   N.3     -43.3720   -0.6680   -7.5720 N.ar   14  G14        -0.1963
     58   C4      -43.8270    0.4980   -8.0770 C.ar   14  G14         0.1712
     59  H5'      -45.6060    5.3210   -5.1620 H      14  G14         0.0591
     60 H5''      -44.1840    5.9520   -4.8830 H      14  G14         0.0591
     61  H4'      -44.1940    3.8450   -3.9770 H      14  G14         0.0647
     62  H3'      -42.6100    3.8740   -6.3050 H      14  G14         0.0655
     63  H2'      -42.0720    1.6780   -5.9740 H      14  G14         0.0666
     64 HO2'      -42.1530    0.8440   -4.0750 H      14  G14         0.2101
     65  H1'      -44.4990    0.9560   -5.4630 H      14  G14         0.0866
     66   H8      -44.8840    3.4030   -8.0270 H      14  G14         0.1030
     67   H1      -43.0780   -1.9370  -10.4110 H      14  G14         0.1716
     68  H21      -42.4720   -3.3380   -8.8180 H      14  G14         0.1451
     69  H22      -42.5200   -2.9720   -7.3750 H      14  G14         0.1451
     70    P.3    -40.3200    4.5620   -5.2250 P.3    15  G15         0.2131
     71  OP1      -39.4690    5.1340   -4.1510 O.3    15  G15        -0.4373
     72  OP2      -40.5920    5.3580   -6.4490 O.2    15  G15        -0.5172
     73  O5'      -39.6810    3.1760   -5.6780 O.3    15  G15        -0.3248
     74  C5'      -39.4420    2.1440   -4.7330 C.3    15  G15         0.0837
     75  C4'      -38.9110    0.8970   -5.3940 C.3    15  G15         0.1139
     76  O4'      -39.9490    0.2740   -6.1960 O.3    15  G15        -0.3456
     77  C3'      -37.7640    1.0940   -6.3700 C.3    15  G15         0.1241
     78  O3'      -36.5110    1.2560   -5.7290 O.3    15  G15        -0.3187
     79  C2'      -37.8560   -0.1530   -7.2410 C.3    15  G15         0.1292
     80  O2'      -37.2710   -1.2770   -6.5990 O.3    15  G15        -0.3846
     81  C1'      -39.3700   -0.3580   -7.3200 C.3    15  G15         0.1667
     82   N9      -39.9420    0.2250   -8.5480 N.ar   15  G15        -0.2854
     83   C8      -40.5740    1.4380   -8.6820 C.ar   15  G15         0.1005
     84   N7      -40.9680    1.6760   -9.9030 N.ar   15  G15        -0.2286
     85   C5      -40.5700    0.5550  -10.6200 C.ar   15  G15         0.1721
     86   C6      -40.7240    0.2380  -11.9940 C.ar   15  G15         0.2803
     87   O6      -41.2590    0.9080  -12.8850 O.2    15  G15        -0.2654
     88   N.1     -40.1750   -1.0030  -12.3000 N.ar   15  G15        -0.2934
     89   C.2     -39.5580   -1.8340  -11.3990 C.ar   15  G15         0.1950
     90   N.2     -39.0900   -2.9930  -11.8860 N.pl3  15  G15        -0.3289
     91   N.3     -39.4090   -1.5510  -10.1150 N.ar   15  G15        -0.1963
     92   C4      -39.9350   -0.3490   -9.7970 C.ar   15  G15         0.1712
     93  H5'      -40.2730    1.9330   -4.2790 H      15  G15         0.0591
     94 H5''      -38.7950    2.4560   -4.0810 H      15  G15         0.0591
     95  H4'      -38.6320    0.2730   -4.7050 H      15  G15         0.0647
     96  H3'      -37.9440    1.8760   -6.9160 H      15  G15         0.0655
     97  H2'      -37.4730   -0.0020   -8.1190 H      15  G15         0.0666
     98 HO2'      -36.8010   -1.0110   -5.9560 H      15  G15         0.2101
     99  H1'      -39.5680   -1.3070   -7.2920 H      15  G15         0.0866
    100   H8      -40.7080    2.0270   -7.9750 H      15  G15         0.1030
    101   H1      -40.2260   -1.2700  -13.1160 H      15  G15         0.1716
    102  H21      -39.1860   -3.1780  -12.7200 H      15  G15         0.1451
    103  H22      -38.6950   -3.5500  -11.3640 H      15  G15         0.1451
    104    P.3    -35.2430    1.7800   -6.5650 P.3    16  A16         0.2131
    105  OP1      -34.0220    1.5600   -5.7470 O.3    16  A16        -0.4373
    106  OP2      -35.5560    3.1410   -7.0700 O.2    16  A16        -0.5172
    107  O5'      -35.1840    0.7880   -7.8080 O.3    16  A16        -0.3248
    108  C5'      -34.0840    0.7930   -8.7020 C.3    16  A16         0.0837
    109  C4'      -34.0580   -0.4660   -9.5300 C.3    16  A16         0.1139
    110  O4'      -35.4190   -0.8860   -9.8180 O.3    16  A16        -0.3456
    111  C3'      -33.4050   -0.3460  -10.8990 C.3    16  A16         0.1241
    112  O3'      -31.9930   -0.4490  -10.8470 O.3    16  A16        -0.3187
    113  C2'      -34.0760   -1.4610  -11.6870 C.3    16  A16         0.1292
    114  O2'      -33.5050   -2.7250  -11.3810 O.3    16  A16        -0.3846
    115  C1'      -35.4960   -1.4110  -11.1260 C.3    16  A16         0.1667
    116   N9      -36.3760   -0.5340  -11.9200 N.ar   16  A16        -0.2855
    117   C8      -36.9680    0.6360  -11.5120 C.ar   16  A16         0.1004
    118   N7      -37.7020    1.2070  -12.4350 N.ar   16  A16        -0.2306
    119   C5      -37.5870    0.3550  -13.5240 C.ar   16  A16         0.1473
    120   C6      -38.1310    0.3990  -14.8190 C.ar   16  A16         0.1472
    121   N6      -38.9320    1.3760  -15.2510 N.pl3  16  A16        -0.3413
    122   N.1     -37.8190   -0.6070  -15.6650 N.ar   16  A16        -0.2188
    123   C.2     -37.0150   -1.5870  -15.2300 C.ar   16  A16         0.1205
    124   N.3     -36.4430   -1.7380  -14.0380 N.ar   16  A16        -0.2159
    125   C4      -36.7740   -0.7230  -13.2210 C.ar   16  A16         0.1674
    126  H5'      -33.2600    0.8570   -8.1940 H      16  A16         0.0591
    127 H5''      -34.1550    1.5600   -9.2910 H      16  A16         0.0591
    128  H4'      -33.6120   -1.1650   -9.0280 H      16  A16         0.0647
    129  H3'      -33.6450    0.5080  -11.2910 H      16  A16         0.0655
    130  H2'      -34.0650   -1.2810  -12.6400 H      16  A16         0.0666
    131 HO2'      -32.7240   -2.7530  -11.6900 H      16  A16         0.2101
    132  H1'      -35.8680   -2.3060  -11.0970 H      16  A16         0.0866
    133   H8      -36.8570    0.9910  -10.6600 H      16  A16         0.1030
    134  H61      -39.2380    1.3570  -16.0550 H      16  A16         0.1438
    135  H62      -39.1410    2.0240  -14.7270 H      16  A16         0.1438
    136   H2      -36.8310   -2.2560  -15.8490 H      16  A16         0.1048
    137    P.3    -31.0770    0.6300  -11.6060 P.3    17  A17         0.2131
    138  OP1      -29.6830    0.4680  -11.1200 O.3    17  A17        -0.4373
    139  OP2      -31.7390    1.9560  -11.5050 O.2    17  A17        -0.5172
    140  O5'      -31.1240    0.1680  -13.1290 O.3    17  A17        -0.3248
    141  C5'      -30.6330   -1.1070  -13.5120 C.3    17  A17         0.0837
    142  C4'      -31.0560   -1.4700  -14.9130 C.3    17  A17         0.1139
    143  O4'      -32.4980   -1.6310  -14.9710 O.3    17  A17        -0.3456
    144  C3'      -30.7630   -0.4390  -15.9900 C.3    17  A17         0.1241
    145  O3'      -29.4140   -0.4500  -16.4240 O.3    17  A17        -0.3187
    146  C2'      -31.7640   -0.8110  -17.0750 C.3    17  A17         0.1292
    147  O2'      -31.3240   -1.9380  -17.8190 O.3    17  A17        -0.3846
    148  C1'      -32.9750   -1.2150  -16.2360 C.3    17  A17         0.1667
    149   N9      -33.9100   -0.0900  -16.0470 N.ar   17  A17        -0.2855
    150   C8      -34.1340    0.6490  -14.9110 C.ar   17  A17         0.1004
    151   N7      -35.0300    1.5940  -15.0660 N.ar   17  A17        -0.2306
    152   C5      -35.4200    1.4700  -16.3930 C.ar   17  A17         0.1473
    153   C6      -36.3460    2.1770  -17.1810 C.ar   17  A17         0.1472
    154   N6      -37.0800    3.1960  -16.7290 N.pl3  17  A17        -0.3413
    155   N.1     -36.4960    1.7980  -18.4690 N.ar   17  A17        -0.2188
    156   C.2     -35.7610    0.7760  -18.9260 C.ar   17  A17         0.1205
    157   N.3     -34.8610    0.0350  -18.2840 N.ar   17  A17        -0.2159
    158   C4      -34.7370    0.4370  -17.0080 C.ar   17  A17         0.1674
    159  H5'      -30.9730   -1.7750  -12.8960 H      17  A17         0.0591
    160 H5''      -29.6640   -1.1000  -13.4660 H      17  A17         0.0591
    161  H4'      -30.6360   -2.3090  -15.1590 H      17  A17         0.0647
    162  H3'      -30.9780    0.4430  -15.6500 H      17  A17         0.0655
    163  H2'      -31.9650   -0.0560  -17.6490 H      17  A17         0.0666
    164 HO2'      -30.6580   -1.7180  -18.2810 H      17  A17         0.2101
    165  H1'      -33.4370   -1.9520  -16.6660 H      17  A17         0.0866
    166   H8      -33.6920    0.4940  -14.1080 H      17  A17         0.1030
    167  H61      -37.6320    3.5950  -17.2550 H      17  A17         0.1438
    168  H62      -37.0010    3.4550  -15.9130 H      17  A17         0.1438
    169   H2      -35.8990    0.5520  -19.8180 H      17  A17         0.1048
    170    P.3    -28.6900    0.9270  -16.8310 P.3    18  G18         0.2131
    171  OP1      -27.2340    0.6600  -16.9470 O.2    18  G18        -0.5172
    172  OP2      -29.1670    1.9970  -15.9180 O.3    18  G18        -0.4373
    173  O5'      -29.2490    1.2350  -18.2900 O.3    18  G18        -0.3248
    174  C5'      -29.0070    0.3340  -19.3590 C.3    18  G18         0.0837
    175  C4'      -29.9020    0.6140  -20.5400 C.3    18  G18         0.1139
    176  O4'      -31.2960    0.4960  -20.1500 O.3    18  G18        -0.3456
    177  C3'      -29.8100    2.0080  -21.1350 C.3    18  G18         0.1241
    178  O3'      -28.6850    2.1790  -21.9780 O.3    18  G18        -0.3187
    179  C2'      -31.1450    2.1440  -21.8550 C.3    18  G18         0.1292
    180  O2'      -31.1340    1.4560  -23.0980 O.3    18  G18        -0.3846
    181  C1'      -32.0790    1.4100  -20.8930 C.3    18  G18         0.1667
    182   N9      -32.7480    2.3380  -19.9610 N.ar   18  G18        -0.2854
    183   C8      -32.4590    2.5510  -18.6340 C.ar   18  G18         0.1005
    184   N7      -33.2330    3.4440  -18.0780 N.ar   18  G18        -0.2286
    185   C5      -34.0820    3.8470  -19.1000 C.ar   18  G18         0.1721
    186   C6      -35.1380    4.7960  -19.1010 C.ar   18  G18         0.2803
    187   O6      -35.5480    5.4950  -18.1660 O.2    18  G18        -0.2654
    188   N.1     -35.7380    4.8920  -20.3520 N.ar   18  G18        -0.2934
    189   C.2     -35.3720    4.1700  -21.4620 C.ar   18  G18         0.1950
    190   N.2     -36.0730    4.4040  -22.5810 N.pl3  18  G18        -0.3289
    191   N.3     -34.3900    3.2830  -21.4750 N.ar   18  G18        -0.1963
    192   C4      -33.7940    3.1740  -20.2680 C.ar   18  G18         0.1712
    193  H5'      -29.1650   -0.5720  -19.0510 H      18  G18         0.0591
    194 H5''      -28.0820    0.4170  -19.6380 H      18  G18         0.0591
    195  H4'      -29.7160   -0.0370  -21.2350 H      18  G18         0.0647
    196  H3'      -29.7690    2.6580  -20.4170 H      18  G18         0.0655
    197  H2'      -31.4010    3.0730  -21.9590 H      18  G18         0.0666
    198 HO2'      -31.9080    1.4660  -23.4220 H      18  G18         0.2101
    199  H1'      -32.7480    0.9240  -21.4000 H      18  G18         0.0866
    200   H8      -31.7830    2.1040  -18.1780 H      18  G18         0.1030
    201   H1      -36.3890    5.4480  -20.4380 H      18  G18         0.1716
    202  H21      -36.7110    4.9800  -22.5760 H      18  G18         0.1451
    203  H22      -35.8840    3.9780  -23.3040 H      18  G18         0.1451
    204    P.3    -28.0190    3.6310  -22.1440 P.3    19  A19         0.2131
    205  OP1      -26.7480    3.4620  -22.8930 O.2    19  A19        -0.5172
    206  OP2      -28.0130    4.2970  -20.8160 O.3    19  A19        -0.4373
    207  O5'      -29.0390    4.4090  -23.0850 O.3    19  A19        -0.3248
    208  C5'      -29.3940    3.8830  -24.3540 C.3    19  A19         0.0837
    209  C4'      -30.5650    4.6180  -24.9520 C.3    19  A19         0.1139
    210  O4'      -31.7510    4.4150  -24.1400 O.3    19  A19        -0.3456
    211  C3'      -30.4330    6.1280  -25.0310 C.3    19  A19         0.1241
    212  O3'      -29.6350    6.5580  -26.1200 O.3    19  A19        -0.3187
    213  C2'      -31.8850    6.5780  -25.1110 C.3    19  A19         0.1292
    214  O2'      -32.4020    6.4090  -26.4230 O.3    19  A19        -0.3846
    215  C1'      -32.5630    5.5720  -24.1810 C.3    19  A19         0.1667
    216   N9      -32.7170    6.0980  -22.8100 N.ar   19  A19        -0.2855
    217   C8      -31.9800    5.7910  -21.6940 C.ar   19  A19         0.1004
    218   N7      -32.3650    6.4280  -20.6130 N.ar   19  A19        -0.2306
    219   C5      -33.4280    7.2080  -21.0480 C.ar   19  A19         0.1473
    220   C6      -34.2720    8.1170  -20.3840 C.ar   19  A19         0.1472
    221   N6      -34.1760    8.4080  -19.0860 N.pl3  19  A19        -0.3413
    222   N.1     -35.2330    8.7270  -21.1110 N.ar   19  A19        -0.2188
    223   C.2     -35.3320    8.4380  -22.4140 C.ar   19  A19         0.1205
    224   N.3     -34.6000    7.6040  -23.1490 N.ar   19  A19        -0.2159
    225   C4      -33.6540    7.0150  -22.3980 C.ar   19  A19         0.1674
    226  H5'      -29.6250    2.9460  -24.2540 H      19  A19         0.0591
    227 H5''      -28.6330    3.9590  -24.9510 H      19  A19         0.0591
    228  H4'      -30.7310    4.2700  -25.8430 H      19  A19         0.0647
    229  H3'      -30.0440    6.4560  -24.2050 H      19  A19         0.0655
    230  H2'      -31.9950    7.4880  -24.7930 H      19  A19         0.0666
    231 HO2'      -32.0320    6.9610  -26.9360 H      19  A19         0.2101
    232  H1'      -33.4350    5.3410  -24.5370 H      19  A19         0.0866
    233   H8      -31.2730    5.1860  -21.7020 H      19  A19         0.1030
    234  H61      -34.7190    8.9730  -18.7300 H      19  A19         0.1438
    235  H62      -33.5710    8.0310  -18.6040 H      19  A19         0.1438
    236   H2      -36.0090    8.8830  -22.8710 H      19  A19         0.1048
    237    P.3    -28.5300    7.7040  -25.9040 P.3    20  U20         0.2131
    238  OP1      -27.6520    7.7270  -27.1010 O.2    20  U20        -0.5172
    239  OP2      -27.9290    7.5250  -24.5560 O.3    20  U20        -0.4373
    240  O5'      -29.3810    9.0480  -25.8990 O.3    20  U20        -0.3248
    241  C5'      -30.2430    9.3530  -26.9830 C.3    20  U20         0.0837
    242  C4'      -31.2220   10.4450  -26.6350 C.3    20  U20         0.1139
    243  O4'      -32.1830    9.9710  -25.6550 O.3    20  U20        -0.3456
    244  C3'      -30.6410   11.6890  -25.9890 C.3    20  U20         0.1241
    245  O3'      -29.9870   12.5470  -26.9060 O.3    20  U20        -0.3187
    246  C2'      -31.8660   12.3020  -25.3240 C.3    20  U20         0.1293
    247  O2'      -32.6910   12.9640  -26.2720 O.3    20  U20        -0.3846
    248  C1'      -32.5940   11.0490  -24.8350 C.3    20  U20         0.1680
    249   N.1     -32.2710   10.7410  -23.4230 N.ar   20  U20        -0.2715
    250   C.2     -33.0170   11.3830  -22.4540 C.ar   20  U20         0.3314
    251   O.2     -33.9140   12.1660  -22.7210 O.2    20  U20        -0.2464
    252   N.3     -32.6790   11.0730  -21.1610 N.ar   20  U20        -0.2749
    253   C4      -31.6880   10.2060  -20.7490 C.ar   20  U20         0.2539
    254   O4      -31.5040   10.0320  -19.5430 O.2    20  U20        -0.2677
    255   C5      -30.9550    9.5820  -21.8110 C.ar   20  U20         0.0192
    256   C6      -31.2660    9.8680  -23.0810 C.ar   20  U20         0.0171
    257  H5'      -30.7350    8.5540  -27.2290 H      20  U20         0.0591
    258 H5''      -29.7080    9.6390  -27.7400 H      20  U20         0.0591
    259  H4'      -31.6980   10.7050  -27.4390 H      20  U20         0.0647
    260  H3'      -30.0100   11.4220  -25.3030 H      20  U20         0.0655
    261  H2'      -31.6210   12.8830  -24.5870 H      20  U20         0.0666
    262 HO2'      -32.2950   13.6530  -26.5440 H      20  U20         0.2101
    263  H1'      -33.5520   11.1760  -24.9260 H      20  U20         0.0867
    264   H3      -33.1330   11.4600  -20.5410 H      20  U20         0.1734
    265   H5      -30.2690    8.9830  -21.6190 H      20  U20         0.0686
    266   H6      -30.7830    9.4570  -23.7610 H      20  U20         0.0813
    267    P.3    -28.6070   13.2580  -26.4860 P.3    21  A21         0.2131
    268  OP1      -28.0940   14.0050  -27.6630 O.2    21  A21        -0.5172
    269  OP2      -27.7430   12.2460  -25.8240 O.3    21  A21        -0.4373
    270  O5'      -29.0560   14.3210  -25.3880 O.3    21  A21        -0.3248
    271  C5'      -30.0510   15.2820  -25.7000 C.3    21  A21         0.0837
    272  C4'      -30.4440   16.1170  -24.5080 C.3    21  A21         0.1139
    273  O4'      -31.2940   15.3670  -23.6040 O.3    21  A21        -0.3456
    274  C3'      -29.3220   16.6040  -23.6120 C.3    21  A21         0.1241
    275  O3'      -28.5940   17.6810  -24.1770 O.3    21  A21        -0.3187
    276  C2'      -30.0700   16.9670  -22.3340 C.3    21  A21         0.1292
    277  O2'      -30.6830   18.2420  -22.4440 O.3    21  A21        -0.3846
    278  C1'      -31.1650   15.8920  -22.2970 C.3    21  A21         0.1667
    279   N9      -30.8500   14.8110  -21.3430 N.ar   21  A21        -0.2855
    280   C8      -30.0360   13.7170  -21.5030 C.ar   21  A21         0.1004
    281   N7      -29.9610   12.9550  -20.4360 N.ar   21  A21        -0.2306
    282   C5      -30.7710   13.5930  -19.5080 C.ar   21  A21         0.1473
    283   C6      -31.1150   13.2940  -18.1760 C.ar   21  A21         0.1472
    284   N6      -30.6640   12.2270  -17.5140 N.pl3  21  A21        -0.3413
    285   N.1     -31.9490   14.1400  -17.5340 N.ar   21  A21        -0.2188
    286   C.2     -32.4040   15.2130  -18.1930 C.ar   21  A21         0.1205
    287   N.3     -32.1520   15.6030  -19.4400 N.ar   21  A21        -0.2159
    288   C4      -31.3200   14.7400  -20.0520 C.ar   21  A21         0.1674
    289  H5'      -30.8370   14.8210  -26.0330 H      21  A21         0.0591
    290 H5''      -29.7140   15.8680  -26.3950 H      21  A21         0.0591
    291  H4'      -30.9390   16.8880  -24.8250 H      21  A21         0.0647
    292  H3'      -28.7160   15.8680  -23.4310 H      21  A21         0.0655
    293  H2'      -29.4930   16.9110  -21.5560 H      21  A21         0.0666
    294 HO2'      -30.0850   18.8320  -22.4640 H      21  A21         0.2101
    295  H1'      -32.0030   16.3060  -22.0390 H      21  A21         0.0866
    296   H8      -29.5850   13.5300  -22.2940 H      21  A21         0.1030
    297  H61      -30.9060   12.0920  -16.6990 H      21  A21         0.1438
    298  H62      -30.1310   11.6740  -17.9010 H      21  A21         0.1438
    299   H2      -32.9720   15.7670  -17.7090 H      21  A21         0.1048
    300    P.3    -27.0110   17.5440  -24.4140 P.3    22  U22         0.2131
    301  OP1      -26.4630   18.8900  -24.7160 O.3    22  U22        -0.4373
    302  OP2      -26.7850   16.4280  -25.3680 O.2    22  U22        -0.5172
    303  O5'      -26.4670   17.0890  -22.9910 O.3    22  U22        -0.3248
    304  C5'      -25.0840   16.8520  -22.7610 C.3    22  U22         0.0837
    305  C4'      -24.8480   16.4440  -21.3300 C.3    22  U22         0.1139
    306  O4'      -25.0360   17.6060  -20.4770 O.3    22  U22        -0.3456
    307  C3'      -25.8110   15.3800  -20.8120 C.3    22  U22         0.1241
    308  O3'      -25.1590   14.5560  -19.8480 O.3    22  U22        -0.3187
    309  C2'      -26.9010   16.2120  -20.1460 C.3    22  U22         0.1293
    310  O2'      -27.6430   15.5320  -19.1550 O.3    22  U22        -0.3846
    311  C1'      -26.0930   17.3700  -19.5640 C.3    22  U22         0.1680
    312   N.1     -26.8640   18.6140  -19.4240 N.ar   22  U22        -0.2715
    313   C.2     -27.2070   19.0410  -18.1560 C.ar   22  U22         0.3314
    314   O.2     -26.8950   18.4370  -17.1430 O.2    22  U22        -0.2464
    315   N.3     -27.9300   20.2080  -18.1180 N.ar   22  U22        -0.2749
    316   C4      -28.3360   20.9720  -19.1940 C.ar   22  U22         0.2539
    317   O4      -28.9840   22.0010  -19.0000 O.2    22  U22        -0.2677
    318   C5      -27.9450   20.4630  -20.4720 C.ar   22  U22         0.0192
    319   C6      -27.2410   19.3300  -20.5370 C.ar   22  U22         0.0171
    320  H5'      -24.5840   17.6620  -22.9480 H      22  U22         0.0591
    321 H5''      -24.7780   16.1440  -23.3490 H      22  U22         0.0591
    322  H4'      -23.9370   16.1230  -21.2350 H      22  U22         0.0647
    323  H3'      -26.1720   14.8510  -21.5410 H      22  U22         0.0655
    324  H2'      -27.5050   16.5510  -20.8240 H      22  U22         0.0666
    325 HO2'      -27.5020   15.8960  -18.4110 H      22  U22         0.2101
    326  H1'      -25.7280   17.1130  -18.7030 H      22  U22         0.0867
    327   H3      -28.1540   20.4950  -17.3390 H      22  U22         0.1734
    328   H5      -28.1780   20.9170  -21.2500 H      22  U22         0.0686
    329   H6      -26.9930   19.0090  -21.3740 H      22  U22         0.0813
    330    P.3    -24.4110   13.2110  -20.3090 P.3    23  A23         0.2131
    331  OP1      -24.5880   13.0500  -21.7740 O.2    23  A23        -0.5172
    332  OP2      -24.8270   12.1200  -19.3930 O.3    23  A23        -0.4373
    333  O5'      -22.8770   13.5200  -20.0240 O.3    23  A23        -0.3248
    334  C5'      -22.4700   14.0460  -18.7720 C.3    23  A23         0.0837
    335  C4'      -21.1910   14.8330  -18.8850 C.3    23  A23         0.1139
    336  O4'      -21.2480   15.7030  -20.0410 O.3    23  A23        -0.3456
    337  C3'      -20.8980   15.7690  -17.7260 C.3    23  A23         0.1241
    338  O3'      -20.2990   15.0980  -16.6310 O.3    23  A23        -0.3187
    339  C2'      -19.9960   16.8300  -18.3520 C.3    23  A23         0.1292
    340  O2'      -18.6360   16.4220  -18.3370 O.3    23  A23        -0.3846
    341  C1'      -20.4960   16.8710  -19.8010 C.3    23  A23         0.1667
    342   N9      -21.3230   18.0570  -20.1060 N.ar   23  A23        -0.2855
    343   C8      -21.2970   18.7480  -21.2920 C.ar   23  A23         0.1004
    344   N7      -22.1160   19.7670  -21.3390 N.ar   23  A23        -0.2306
    345   C5      -22.7300   19.7490  -20.0990 C.ar   23  A23         0.1473
    346   C6      -23.7070   20.5850  -19.5350 C.ar   23  A23         0.1472
    347   N6      -24.2420   21.6240  -20.1800 N.pl3  23  A23        -0.3413
    348   N.1     -24.1160   20.3110  -18.2760 N.ar   23  A23        -0.2188
    349   C.2     -23.5720   19.2640  -17.6440 C.ar   23  A23         0.1205
    350   N.3     -22.6460   18.4070  -18.0710 N.ar   23  A23        -0.2159
    351   C4      -22.2580   18.7030  -19.3240 C.ar   23  A23         0.1674
    352  H5'      -22.3370   13.3140  -18.1500 H      23  A23         0.0591
    353 H5''      -23.1690   14.6270  -18.4320 H      23  A23         0.0591
    354  H4'      -20.4490   14.2170  -18.9890 H      23  A23         0.0647
    355  H3'      -21.7250   16.1850  -17.4340 H      23  A23         0.0655
    356  H2'      -20.1120   17.6900  -17.9170 H      23  A23         0.0666
    357 HO2'      -18.3660   16.4010  -17.5420 H      23  A23         0.2101
    358  H1'      -19.7270   16.8710  -20.3930 H      23  A23         0.0866
    359   H8      -20.7430   18.5130  -22.0010 H      23  A23         0.1030
    360  H61      -24.8390   22.1080  -19.7940 H      23  A23         0.1438
    361  H62      -23.9910   21.8090  -20.9810 H      23  A23         0.1438
    362   H2      -23.8840   19.1150  -16.7810 H      23  A23         0.1048
    363    P.3    -21.1760   14.6800  -15.3510 P.3    24  A24         0.2131
    364  OP1      -20.4040   13.6730  -14.5820 O.3    24  A24        -0.4373
    365  OP2      -22.5530   14.3550  -15.7990 O.2    24  A24        -0.5172
    366  O5'      -21.2380   16.0140  -14.4840 O.3    24  A24        -0.3248
    367  C5'      -21.9550   17.1500  -14.9420 C.3    24  A24         0.0837
    368  C4'      -22.7380   17.7880  -13.8250 C.3    24  A24         0.1139
    369  O4'      -23.7700   16.8750  -13.3810 O.3    24  A24        -0.3456
    370  C3'      -21.9450   18.1140  -12.5690 C.3    24  A24         0.1241
    371  O3'      -21.3150   19.3800  -12.6600 O.3    24  A24        -0.3187
    372  C2'      -22.9920   18.0500  -11.4640 C.3    24  A24         0.1292
    373  O2'      -23.6710   19.2880  -11.3270 O.3    24  A24        -0.3846
    374  C1'      -23.9690   17.0000  -11.9940 C.3    24  A24         0.1667
    375   N9      -23.7820   15.6780  -11.3720 N.ar   24  A24        -0.2855
    376   C8      -23.2500   14.5520  -11.9460 C.ar   24  A24         0.1004
    377   N7      -23.2260   13.5150  -11.1460 N.ar   24  A24        -0.2306
    378   C5      -23.7830   13.9910   -9.9690 C.ar   24  A24         0.1473
    379   C6      -24.0380   13.3780   -8.7330 C.ar   24  A24         0.1472
    380   N6      -23.7530   12.1020   -8.4690 N.pl3  24  A24        -0.3413
    381   N.1     -24.6040   14.1280   -7.7660 N.ar   24  A24        -0.2188
    382   C.2     -24.8890   15.4100   -8.0330 C.ar   24  A24         0.1205
    383   N.3     -24.6970   16.1000   -9.1530 N.ar   24  A24        -0.2159
    384   C4      -24.1340   15.3210  -10.0930 C.ar   24  A24         0.1674
    385  H5'      -22.5670   16.8780  -15.6440 H      24  A24         0.0591
    386 H5''      -21.3280   17.7980  -15.3010 H      24  A24         0.0591
    387  H4'      -23.1550   18.5990  -14.1550 H      24  A24         0.0647
    388  H3'      -21.2750   17.4270  -12.4210 H      24  A24         0.0655
    389  H2'      -22.5980   17.7690  -10.6230 H      24  A24         0.0666
    390 HO2'      -23.1330   19.8640  -11.0360 H      24  A24         0.2101
    391  H1'      -24.8760   17.3000  -11.8300 H      24  A24         0.0866
    392   H8      -22.9340   14.5270  -12.8200 H      24  A24         0.1030
    393  H61      -23.9310   11.7730   -7.6940 H      24  A24         0.1438
    394  H62      -23.3920   11.6080   -9.0730 H      24  A24         0.1438
    395   H2      -25.2780   15.8850   -7.3340 H      24  A24         0.1048
    396    P.3    -19.8370   19.6300  -12.0790 P.3    25  U25         0.2131
    397  OP1      -19.2910   18.3690  -11.5140 O.2    25  U25        -0.5172
    398  OP2      -19.8970   20.8560  -11.2470 O.3    25  U25        -0.4373
    399  O5'      -18.9850   19.9900  -13.3750 O.3    25  U25        -0.3248
    400  C5'      -18.6790   18.9960  -14.3390 C.3    25  U25         0.0837
    401  C4'      -18.7440   19.5400  -15.7440 C.3    25  U25         0.1139
    402  O4'      -20.1300   19.6600  -16.1660 O.3    25  U25        -0.3456
    403  C3'      -18.1760   20.9340  -15.9550 C.3    25  U25         0.1241
    404  O3'      -16.7620   20.9560  -16.0520 O.3    25  U25        -0.3187
    405  C2'      -18.8890   21.3840  -17.2230 C.3    25  U25         0.1293
    406  O2'      -18.3070   20.7980  -18.3790 O.3    25  U25        -0.3846
    407  C1'      -20.2760   20.7800  -17.0160 C.3    25  U25         0.1680
    408   N.1     -21.2120   21.7390  -16.3850 N.ar   25  U25        -0.2715
    409   C.2     -21.7080   22.7530  -17.1790 C.ar   25  U25         0.3314
    410   O.2     -21.4050   22.8780  -18.3530 O.2    25  U25        -0.2464
    411   N.3     -22.5690   23.6120  -16.5430 N.ar   25  U25        -0.2749
    412   C4      -22.9740   23.5590  -15.2240 C.ar   25  U25         0.2539
    413   O4      -23.7580   24.4120  -14.8020 O.2    25  U25        -0.2677
    414   C5      -22.4180   22.4790  -14.4640 C.ar   25  U25         0.0192
    415   C6      -21.5760   21.6300  -15.0630 C.ar   25  U25         0.0171
    416  H5'      -19.3130   18.2660  -14.2530 H      25  U25         0.0591
    417 H5''      -17.7850   18.6580  -14.1730 H      25  U25         0.0591
    418  H4'      -18.2890   18.9230  -16.3390 H      25  U25         0.0647
    419  H3'      -18.4510   21.5020  -15.2190 H      25  U25         0.0655
    420  H2'      -18.9270   22.3520  -17.2890 H      25  U25         0.0666
    421 HO2'      -17.5430   21.1270  -18.4970 H      25  U25         0.2101
    422  H1'      -20.6350   20.4920  -17.8700 H      25  U25         0.0867
    423   H3      -22.8910   24.2530  -17.0170 H      25  U25         0.1734
    424   H5      -22.6390   22.3710  -13.5670 H      25  U25         0.0686
    425   H6      -21.2200   20.9320  -14.5620 H      25  U25         0.0813
    426    P.3    -15.9350   22.2430  -15.5500 P.3    26  C26         0.2131
    427  OP1      -14.4920   21.9060  -15.6230 O.2    26  C26        -0.5172
    428  OP2      -16.5180   22.7270  -14.2750 O.3    26  C26        -0.4373
    429  O5'      -16.2330   23.3480  -16.6570 O.3    26  C26        -0.3248
    430  C5'      -15.7520   23.1940  -17.9830 C.3    26  C26         0.0837
    431  C4'      -16.3470   24.2220  -18.9110 C.3    26  C26         0.1139
    432  O4'      -17.7950   24.1150  -18.9080 O.3    26  C26        -0.3456
    433  C3'      -16.0890   25.6740  -18.5480 C.3    26  C26         0.1241
    434  O3'      -14.7970   26.1230  -18.9150 O.3    26  C26        -0.3187
    435  C2'      -17.2230   26.3920  -19.2650 C.3    26  C26         0.1293
    436  O2'      -16.9510   26.5250  -20.6540 O.3    26  C26        -0.3846
    437  C1'      -18.3690   25.3970  -19.0740 C.3    26  C26         0.1680
    438   N.1     -19.1790   25.7170  -17.8760 N.ar   26  C26        -0.2700
    439   C.2     -20.1290   26.7360  -17.9760 C.ar   26  C26         0.3522
    440   O.2     -20.2630   27.3220  -19.0620 O.2    26  C26        -0.2444
    441   N.3     -20.8800   27.0510  -16.8970 N.ar   26  C26        -0.1783
    442   C4      -20.7040   26.3940  -15.7500 C.ar   26  C26         0.1230
    443   N.4     -21.4660   26.7440  -14.7110 N.pl3  26  C26        -0.3430
    444   C5      -19.7380   25.3530  -15.6170 C.ar   26  C26        -0.0056
    445   C6      -19.0030   25.0510  -16.6960 C.ar   26  C26         0.0152
    446  H5'      -15.9820   22.3080  -18.3020 H      26  C26         0.0591
    447 H5''      -14.7860   23.2900  -17.9820 H      26  C26         0.0591
    448  H4'      -16.0210   24.0600  -19.8100 H      26  C26         0.0647
    449  H3'      -16.2010   25.7850  -17.5910 H      26  C26         0.0655
    450  H2'      -17.4220   27.2470  -18.8530 H      26  C26         0.0666
    451 HO2'      -17.4750   26.0300  -21.0840 H      26  C26         0.2101
    452  H1'      -18.9370   25.3990  -19.8610 H      26  C26         0.0867
    453  H41      -21.3770   26.3400  -13.9570 H      26  C26         0.1437
    454  H42      -22.0460   27.3740  -14.7960 H      26  C26         0.1437
    455   H5      -19.6230   24.9010  -14.8120 H      26  C26         0.0666
    456   H6      -18.3650   24.3770  -16.6410 H      26  C26         0.0812
    457    P.3    -14.0140   27.1710  -17.9820 P.3    27  C27         0.2131
    458  OP1      -12.5930   27.1790  -18.4080 O.2    27  C27        -0.5172
    459  OP2      -14.3610   26.8960  -16.5650 O.3    27  C27        -0.4373
    460  O5'      -14.6590   28.5760  -18.3620 O.3    27  C27        -0.3248
    461  C5'      -14.7270   28.9930  -19.7160 C.3    27  C27         0.0838
    462  C4'      -15.6710   30.1540  -19.9010 C.3    27  C27         0.1165
    463  O4'      -17.0290   29.7550  -19.5800 O.3    27  C27        -0.3455
    464  C3'      -15.4320   31.3710  -19.0230 C.3    27  C27         0.1518
    465  O3'      -14.3720   32.1910  -19.4840 O.3    27  C27        -0.2255
    466  C2'      -16.7920   32.0580  -19.0470 C.3    27  C27         0.1319
    467  O2'      -16.9750   32.7870  -20.2520 O.3    27  C27        -0.3845
    468  C1'      -17.7390   30.8580  -19.0560 C.3    27  C27         0.1681
    469   N.1     -18.2330   30.5190  -17.7010 N.ar   27  C27        -0.2700
    470   C.2     -19.1640   31.3740  -17.1000 C.ar   27  C27         0.3522
    471   O.2     -19.5360   32.3880  -17.7120 O.2    27  C27        -0.2444
    472   N.3     -19.6310   31.0810  -15.8660 N.ar   27  C27        -0.1783
    473   C4      -19.2070   29.9830  -15.2380 C.ar   27  C27         0.1230
    474   N.4     -19.6980   29.7340  -14.0240 N.pl3  27  C27        -0.3430
    475   C5      -18.2630   29.0930  -15.8260 C.ar   27  C27        -0.0056
    476   C6      -17.8080   29.3960  -17.0490 C.ar   27  C27         0.0152
    477  H5'      -15.0300   28.2490  -20.2600 H      27  C27         0.0591
    478 H5''      -13.8410   29.2570  -20.0090 H      27  C27         0.0591
    479  H4'      -15.6410   30.4310  -20.8300 H      27  C27         0.0648
    480  H3'      -15.2390   31.0790  -18.1190 H      27  C27         0.0683
    481  H2'      -16.9260   32.6140  -18.2630 H      27  C27         0.0667
    482 HO2'      -16.4570   33.4480  -20.2530 H      27  C27         0.2101
    483  H1'      -18.4950   31.0530  -19.6310 H      27  C27         0.0867
    484  H41      -19.4440   29.0340  -13.5940 H      27  C27         0.1437
    485  H42      -20.2670   30.2720  -13.6710 H      27  C27         0.1437
    486   H5      -17.9750   28.3300  -15.3790 H      27  C27         0.0666
    487   H6      -17.1910   28.8340  -17.4600 H      27  C27         0.0812
    488    P.3    -13.7680   38.4290  -16.2120 Pac    29  A29         0.3935
    489  OP1      -12.8840   39.3350  -16.9910 O.3    29  A29        -0.1425
    490  OP2      -13.1920   37.2350  -15.5440 O.3    29  A29        -0.1425
    491  O5'      -14.5180   39.3040  -15.1130 O.3    29  A29        -0.3060
    492  C5'      -15.3100   40.4200  -15.4920 C.3    29  A29         0.0853
    493  C4'      -16.2450   40.8330  -14.3850 C.3    29  A29         0.1140
    494  O4'      -17.2110   39.7800  -14.1410 O.3    29  A29        -0.3456
    495  C3'      -15.5970   41.0710  -13.0300 C.3    29  A29         0.1241
    496  O3'      -15.0300   42.3670  -12.9280 O.3    29  A29        -0.3187
    497  C2'      -16.7450   40.8260  -12.0580 C.3    29  A29         0.1292
    498  O2'      -17.5730   41.9730  -11.9410 O.3    29  A29        -0.3846
    499  C1'      -17.5260   39.7190  -12.7670 C.3    29  A29         0.1667
    500   N9      -17.1910   38.3700  -12.2690 N.ar   29  A29        -0.2855
    501   C8      -16.3290   37.4670  -12.8400 C.ar   29  A29         0.1004
    502   N7      -16.2320   36.3370  -12.1850 N.ar   29  A29        -0.2306
    503   C5      -17.0930   36.5020  -11.1100 C.ar   29  A29         0.1473
    504   C6      -17.4390   35.6570  -10.0420 C.ar   29  A29         0.1472
    505   N6      -16.9390   34.4300   -9.8790 N.pl3  29  A29        -0.3413
    506   N.1     -18.3270   36.1200   -9.1370 N.ar   29  A29        -0.2188
    507   C.2     -18.8270   37.3500   -9.3030 C.ar   29  A29         0.1205
    508   N.3     -18.5800   38.2380  -10.2640 N.ar   29  A29        -0.2159
    509   C4      -17.6930   37.7480  -11.1490 C.ar   29  A29         0.1674
    510  H5'      -15.8300   40.1880  -16.2770 H      29  A29         0.0591
    511 H5''      -14.7260   41.1640  -15.7080 H      29  A29         0.0591
    512  H4'      -16.7160   41.6370  -14.6540 H      29  A29         0.0647
    513  H3'      -14.9060   40.4060  -12.8850 H      29  A29         0.0655
    514  H2'      -16.4190   40.5300  -11.1930 H      29  A29         0.0666
    515 HO2'      -17.1440   42.5810  -11.5510 H      29  A29         0.2101
    516  H1'      -18.4770   39.8740  -12.6510 H      29  A29         0.0866
    517   H8      -15.8540   37.6430  -13.6200 H      29  A29         0.1030
    518  H61      -17.1830   33.9520   -9.2080 H      29  A29         0.1438
    519  H62      -16.3720   34.1180  -10.4460 H      29  A29         0.1438
    520   H2      -19.4350   37.6240   -8.6540 H      29  A29         0.1048
    521    P.3    -13.6280   42.5980  -12.1760 P.3    30  A30         0.2131
    522  OP1      -12.9930   43.7900  -12.7920 O.2    30  A30        -0.5172
    523  OP2      -12.8820   41.3140  -12.1340 O.3    30  A30        -0.4373
    524  O5'      -14.0580   43.0080  -10.6970 O.3    30  A30        -0.3248
    525  C5'      -13.6300   42.2620   -9.5680 C.3    30  A30         0.0838
    526  C4'      -14.7740   42.0100   -8.6190 C.3    30  A30         0.1165
    527  O4'      -15.5780   40.9060   -9.1120 O.3    30  A30        -0.3455
    528  C3'      -14.3900   41.5880   -7.2110 C.3    30  A30         0.1518
    529  O3'      -14.0450   42.6860   -6.3850 O.3    30  A30        -0.2255
    530  C2'      -15.6260   40.8330   -6.7420 C.3    30  A30         0.1318
    531  O2'      -16.6500   41.7270   -6.3290 O.3    30  A30        -0.3845
    532  C1'      -16.0670   40.1430   -8.0310 C.3    30  A30         0.1668
    533   N9      -15.5260   38.7760   -8.1420 N.ar   30  A30        -0.2855
    534   C8      -14.6090   38.2990   -9.0460 C.ar   30  A30         0.1004
    535   N7      -14.3250   37.0280   -8.8890 N.ar   30  A30        -0.2306
    536   C5      -15.1080   36.6440   -7.8090 C.ar   30  A30         0.1473
    537   C6      -15.2690   35.4180   -7.1410 C.ar   30  A30         0.1472
    538   N6      -14.6240   34.2990   -7.4720 N.pl3  30  A30        -0.3413
    539   N.1     -16.1290   35.3780   -6.1020 N.ar   30  A30        -0.2188
    540   C.2     -16.7810   36.4960   -5.7640 C.ar   30  A30         0.1205
    541   N.3     -16.7140   37.7060   -6.3140 N.ar   30  A30        -0.2159
    542   C4      -15.8520   37.7110   -7.3430 C.ar   30  A30         0.1674
    543  H5'      -12.9360   42.7570   -9.1040 H      30  A30         0.0591
    544 H5''      -13.2700   41.4120   -9.8650 H      30  A30         0.0591
    545  H4'      -15.3260   42.8060   -8.5710 H      30  A30         0.0648
    546  H3'      -13.6400   40.9750   -7.2550 H      30  A30         0.0683
    547  H2'      -15.4100   40.1890   -6.0490 H      30  A30         0.0667
    548 HO2'      -16.4100   42.1080   -5.6200 H      30  A30         0.2101
    549  H1'      -17.0350   40.1120   -8.0680 H      30  A30         0.0866
    550   H8      -14.2250   38.8280   -9.7080 H      30  A30         0.1030
    551  H61      -14.7610   33.5760   -7.0260 H      30  A30         0.1438
    552  H62      -14.0710   34.3000   -8.1300 H      30  A30         0.1438
    553   H2      -17.3620   36.4170   -5.0420 H      30  A30         0.1048
    554    P.3    -11.2910   40.4680   -0.5660 Pac    32  G32         0.3935
    555  OP1      -11.2030   41.3980    0.5890 O.3    32  G32        -0.1425
    556  OP2      -10.5030   40.7410   -1.7950 O.3    32  G32        -0.1425
    557  O5'      -10.9060   39.0080   -0.0650 O.3    32  G32        -0.3060
    558  C5'      -11.6800   38.3570    0.9300 C.3    32  G32         0.0853
    559  C4'      -11.2730   36.9160    1.0880 C.3    32  G32         0.1140
    560  O4'      -11.6700   36.1570   -0.0820 O.3    32  G32        -0.3456
    561  C3'       -9.7820   36.6580    1.2050 C.3    32  G32         0.1241
    562  O3'       -9.2820   36.9020    2.5070 O.3    32  G32        -0.3187
    563  C2'       -9.6600   35.2050    0.7590 C.3    32  G32         0.1292
    564  O2'      -10.0010   34.3120    1.8090 O.3    32  G32        -0.3846
    565  C1'      -10.7360   35.1250   -0.3250 C.3    32  G32         0.1667
    566   N9      -10.1810   35.2890   -1.6820 N.ar   32  G32        -0.2854
    567   C8      -10.0930   36.4460   -2.4180 C.ar   32  G32         0.1005
    568   N7       -9.5480   36.2660   -3.5910 N.ar   32  G32        -0.2286
    569   C5       -9.2590   34.9100   -3.6330 C.ar   32  G32         0.1721
    570   C6       -8.6600   34.1260   -4.6530 C.ar   32  G32         0.2803
    571   O6       -8.2490   34.4840   -5.7630 O.2    32  G32        -0.2654
    572   N.1      -8.5560   32.7900   -4.2780 N.ar   32  G32        -0.2934
    573   C.2      -8.9740   32.2740   -3.0770 C.ar   32  G32         0.1950
    574   N.2      -8.7870   30.9590   -2.8980 N.pl3  32  G32        -0.3289
    575   N.3      -9.5330   32.9940   -2.1180 N.ar   32  G32        -0.1963
    576   C4       -9.6430   34.2940   -2.4610 C.ar   32  G32         0.1712
    577  H5'      -12.6160   38.3970    0.6790 H      32  G32         0.0591
    578 H5''      -11.5600   38.8160    1.7760 H      32  G32         0.0591
    579  H4'      -11.7180   36.5480    1.8680 H      32  G32         0.0647
    580  H3'       -9.3120   37.2240    0.5730 H      32  G32         0.0655
    581  H2'       -8.7800   35.0170    0.3990 H      32  G32         0.0666
    582 HO2'       -9.8380   34.6810    2.5450 H      32  G32         0.2101
    583  H1'      -11.1860   34.2670   -0.2660 H      32  G32         0.0866
    584   H8      -10.3910   37.2720   -2.1120 H      32  G32         0.1030
    585   H1       -8.2020   32.2460   -4.8420 H      32  G32         0.1716
    586  H21       -8.4240   30.4880   -3.5200 H      32  G32         0.1451
    587  H22       -9.0310   30.5860   -2.1630 H      32  G32         0.1451
    588    P.3     -7.7010   36.8640    2.7840 P.3    33  A33         0.2131
    589  OP1       -7.4620   37.3910    4.1520 O.3    33  A33        -0.4373
    590  OP2       -7.0090   37.4860    1.6270 O.2    33  A33        -0.5172
    591  O5'       -7.3660   35.3080    2.7890 O.3    33  A33        -0.3248
    592  C5'       -6.0310   34.8430    2.6770 C.3    33  A33         0.0837
    593  C4'       -5.9860   33.3380    2.6560 C.3    33  A33         0.1139
    594  O4'       -6.8200   32.8360    1.5810 O.3    33  A33        -0.3456
    595  C3'       -4.6270   32.7140    2.3950 C.3    33  A33         0.1241
    596  O3'       -3.8190   32.6660    3.5590 O.3    33  A33        -0.3187
    597  C2'       -4.9920   31.3400    1.8440 C.3    33  A33         0.1292
    598  O2'       -5.3170   30.4370    2.8920 O.3    33  A33        -0.3846
    599  C1'       -6.2600   31.6550    1.0480 C.3    33  A33         0.1667
    600   N9       -5.9880   31.8640   -0.3870 N.ar   33  A33        -0.2855
    601   C8       -6.0900   33.0320   -1.1040 C.ar   33  A33         0.1004
    602   N7       -5.7860   32.9030   -2.3730 N.ar   33  A33        -0.2306
    603   C5       -5.4670   31.5590   -2.5010 C.ar   33  A33         0.1473
    604   C6       -5.0620   30.7830   -3.6010 C.ar   33  A33         0.1472
    605   N6       -4.9000   31.2710   -4.8320 N.pl3  33  A33        -0.3413
    606   N.1      -4.8210   29.4710   -3.3900 N.ar   33  A33        -0.2188
    607   C.2      -4.9810   28.9810   -2.1550 C.ar   33  A33         0.1205
    608   N.3      -5.3580   29.6060   -1.0440 N.ar   33  A33        -0.2159
    609   C4       -5.5890   30.9070   -1.2870 C.ar   33  A33         0.1674
    610  H5'       -5.5170   35.1670    3.4330 H      33  A33         0.0591
    611 H5''       -5.6420   35.1850    1.8570 H      33  A33         0.0591
    612  H4'       -6.3280   33.0020    3.5000 H      33  A33         0.0647
    613  H3'       -4.1680   33.2220    1.7070 H      33  A33         0.0655
    614  H2'       -4.2920   30.9890    1.2710 H      33  A33         0.0666
    615 HO2'       -6.1380   30.2620    2.8570 H      33  A33         0.2101
    616  H1'       -6.8920   30.9260    1.1510 H      33  A33         0.0866
    617   H8       -6.3480   33.8400   -0.7230 H      33  A33         0.1030
    618  H61       -4.6470   30.7530   -5.4710 H      33  A33         0.1438
    619  H62       -5.0480   32.1040   -4.9880 H      33  A33         0.1438
    620   H2       -4.8050   28.0720   -2.0610 H      33  A33         0.1048
    621    P.3     -2.2340   32.9090    3.4630 P.3    34  U34         0.2131
    622  OP1       -1.7160   33.0420    4.8500 O.3    34  U34        -0.4373
    623  OP2       -1.9770   33.9850    2.4720 O.2    34  U34        -0.5172
    624  O5'       -1.6790   31.5440    2.8620 O.3    34  U34        -0.3248
    625  C5'       -2.0760   30.2970    3.4200 C.3    34  U34         0.0837
    626  C4'       -1.7560   29.1460    2.5010 C.3    34  U34         0.1139
    627  O4'       -2.3510   29.3940    1.1960 O.3    34  U34        -0.3456
    628  C3'       -0.2670   28.9060    2.2570 C.3    34  U34         0.1241
    629  O3'        0.0040   27.5090    2.2060 O.3    34  U34        -0.3187
    630  C2'       -0.0270   29.5370    0.8890 C.3    34  U34         0.1293
    631  O2'        1.0460   28.9740    0.1640 O.3    34  U34        -0.3846
    632  C1'       -1.3620   29.2950    0.1910 C.3    34  U34         0.1680
    633   N.1      -1.6600   30.2800   -0.8590 N.ar   34  U34        -0.2715
    634   C.2      -1.6360   29.8630   -2.1770 C.ar   34  U34         0.3314
    635   O.2      -1.3930   28.7180   -2.5160 O.2    34  U34        -0.2464
    636   N.3      -1.9120   30.8450   -3.0950 N.ar   34  U34        -0.2749
    637   C4       -2.1990   32.1700   -2.8400 C.ar   34  U34         0.2539
    638   O4       -2.4280   32.9290   -3.7830 O.2    34  U34        -0.2677
    639   C5       -2.2010   32.5270   -1.4540 C.ar   34  U34         0.0192
    640   C6       -1.9340   31.5890   -0.5380 C.ar   34  U34         0.0171
    641  H5'       -3.0320   30.3150    3.5840 H      34  U34         0.0591
    642 H5''       -1.6130   30.1670    4.2620 H      34  U34         0.0591
    643  H4'       -2.1450   28.3370    2.8700 H      34  U34         0.0647
    644  H3'        0.2700   29.3410    2.9380 H      34  U34         0.0655
    645  H2'        0.1150   30.4900    0.9920 H      34  U34         0.0666
    646 HO2'        1.7620   29.1260    0.5760 H      34  U34         0.2101
    647  H1'       -1.3730   28.4020   -0.1880 H      34  U34         0.0867
    648   H3       -1.9070   30.6070   -3.9210 H      34  U34         0.1734
    649   H5       -2.3850   33.4000   -1.1940 H      34  U34         0.0686
    650   H6       -1.9370   31.8340    0.3590 H      34  U34         0.0813
    651    P.3      0.8830   26.8260    3.3640 P.3    35  A35         0.2131
    652  OP1        0.2630   27.1520    4.6760 O.3    35  A35        -0.4373
    653  OP2        2.3090   27.1670    3.1230 O.2    35  A35        -0.5172
    654  O5'        0.7080   25.2670    3.0980 O.3    35  A35        -0.3248
    655  C5'       -0.5340   24.6150    3.3320 C.3    35  A35         0.0837
    656  C4'       -0.4260   23.1400    3.0470 C.3    35  A35         0.1139
    657  O4'       -0.2410   22.9540    1.6170 O.3    35  A35        -0.3456
    658  C3'        0.7590   22.4550    3.7180 C.3    35  A35         0.1241
    659  O3'        0.4290   21.1020    4.0270 O.3    35  A35        -0.3187
    660  C2'        1.8340   22.5090    2.6380 C.3    35  A35         0.1292
    661  O2'        2.8380   21.5230    2.7540 O.3    35  A35        -0.3846
    662  C1'        1.0060   22.3320    1.3660 C.3    35  A35         0.1667
    663   N9        1.5940   22.9600    0.1790 N.ar   35  A35        -0.2855
    664   C8        1.4280   24.2560   -0.2480 C.ar   35  A35         0.1004
    665   N7        2.0700   24.5380   -1.3550 N.ar   35  A35        -0.2306
    666   C5        2.6990   23.3460   -1.6850 C.ar   35  A35         0.1473
    667   C6        3.5370   22.9840   -2.7550 C.ar   35  A35         0.1472
    668   N6        3.9000   23.8220   -3.7280 N.pl3  35  A35        -0.3413
    669   N.1       3.9960   21.7140   -2.7920 N.ar   35  A35        -0.2188
    670   C.2       3.6310   20.8740   -1.8150 C.ar   35  A35         0.1205
    671   N.3       2.8510   21.0970   -0.7590 N.ar   35  A35        -0.2159
    672   C4        2.4080   22.3650   -0.7540 C.ar   35  A35         0.1674
    673  H5'       -1.2110   25.0020    2.7560 H      35  A35         0.0591
    674 H5''       -0.7910   24.7430    4.2580 H      35  A35         0.0591
    675  H4'       -1.2460   22.7010    3.3220 H      35  A35         0.0647
    676  H3'        1.0370   22.9390    4.5110 H      35  A35         0.0655
    677  H2'        2.2440   23.3880    2.6350 H      35  A35         0.0666
    678 HO2'        3.2690   21.6540    3.4630 H      35  A35         0.2101
    679  H1'        0.8680   21.3870    1.1990 H      35  A35         0.0866
    680   H8        0.9100   24.8780    0.2100 H      35  A35         0.1030
    681  H61        4.4150   23.5500   -4.3610 H      35  A35         0.1438
    682  H62        3.6180   24.6350   -3.7230 H      35  A35         0.1438
    683   H2        3.9710   20.0120   -1.8830 H      35  A35         0.1048
    684    P.3     -0.0430   20.7080    5.5120 P.3    36  U36         0.2131
    685  OP1        1.0270   21.1250    6.4550 O.3    36  U36        -0.4373
    686  OP2       -0.4820   19.2900    5.4880 O.2    36  U36        -0.5172
    687  O5'       -1.3130   21.6350    5.7800 O.3    36  U36        -0.3248
    688  C5'       -2.6330   21.0990    5.7540 C.3    36  U36         0.0837
    689  C4'       -3.5220   21.7320    6.7980 C.3    36  U36         0.1139
    690  O4'       -2.9230   21.5510    8.1120 O.3    36  U36        -0.3456
    691  C3'       -3.7560   23.2340    6.6410 C.3    36  U36         0.1241
    692  O3'       -5.0800   23.5620    7.0600 O.3    36  U36        -0.3187
    693  C2'       -2.7490   23.8360    7.6150 C.3    36  U36         0.1293
    694  O2'       -3.0760   25.1310    8.0730 O.3    36  U36        -0.3846
    695  C1'       -2.7750   22.8090    8.7430 C.3    36  U36         0.1680
    696   N.1      -1.5570   22.7800    9.5690 N.ar   36  U36        -0.2715
    697   C.2      -1.6880   23.0350   10.9220 C.ar   36  U36         0.3314
    698   O.2      -2.7580   23.2770   11.4550 O.2    36  U36        -0.2464
    699   N.3      -0.5160   22.9930   11.6360 N.ar   36  U36        -0.2749
    700   C4        0.7470   22.7310   11.1470 C.ar   36  U36         0.2539
    701   O4        1.7070   22.7300   11.9200 O.2    36  U36        -0.2677
    702   C5        0.8030   22.4780    9.7390 C.ar   36  U36         0.0192
    703   C6       -0.3240   22.5110    9.0190 C.ar   36  U36         0.0171
    704  H5'       -2.5880   20.1440    5.9150 H      36  U36         0.0591
    705 H5''       -3.0180   21.2530    4.8770 H      36  U36         0.0591
    706  H4'       -4.3820   21.2820    6.7850 H      36  U36         0.0647
    707  H3'       -3.5860   23.5260    5.7320 H      36  U36         0.0655
    708  H2'       -1.8700   23.8470    7.2070 H      36  U36         0.0666
    709 HO2'       -3.2270   25.0990    8.8990 H      36  U36         0.2101
    710  H1'       -3.5430   22.9740    9.3110 H      36  U36         0.0867
    711   H3       -0.5750   23.1490   12.4800 H      36  U36         0.1734
    712   H5        1.6170   22.2920    9.3280 H      36  U36         0.0686
    713   H6       -0.2730   22.3450    8.1060 H      36  U36         0.0813
    714    P.3     -6.2750   23.6260    5.9890 P.3    37  G37         0.2131
    715  OP1       -7.4670   24.2000    6.6640 O.3    37  G37        -0.4373
    716  OP2       -6.3710   22.3000    5.3250 O.2    37  G37        -0.5172
    717  O5'       -5.7590   24.6700    4.9020 O.3    37  G37        -0.3248
    718  C5'       -5.7610   26.0650    5.1660 C.3    37  G37         0.0837
    719  C4'       -5.5540   26.8550    3.8990 C.3    37  G37         0.1139
    720  O4'       -4.2300   26.5810    3.3710 O.3    37  G37        -0.3456
    721  C3'       -6.4950   26.5140    2.7530 C.3    37  G37         0.1241
    722  O3'       -7.7390   27.1840    2.8490 O.3    37  G37        -0.3187
    723  C2'       -5.6850   26.9000    1.5230 C.3    37  G37         0.1292
    724  O2'       -5.7470   28.3000    1.2860 O.3    37  G37        -0.3846
    725  C1'       -4.2690   26.5320    1.9610 C.3    37  G37         0.1667
    726   N9       -3.8780   25.1740    1.5410 N.ar   37  G37        -0.2854
    727   C8       -4.1290   24.0070    2.2230 C.ar   37  G37         0.1005
    728   N7       -3.6560   22.9500    1.6240 N.ar   37  G37        -0.2286
    729   C5       -3.0530   23.4480    0.4790 C.ar   37  G37         0.1721
    730   C6       -2.3670   22.7700   -0.5600 C.ar   37  G37         0.2803
    731   O6       -2.1570   21.5570   -0.6800 O.2    37  G37        -0.2654
    732   N.1      -1.9130   23.6520   -1.5330 N.ar   37  G37        -0.2934
    733   C.2      -2.0900   25.0130   -1.5090 C.ar   37  G37         0.1950
    734   N.2      -1.5720   25.6890   -2.5450 N.pl3  37  G37        -0.3289
    735   N.3      -2.7260   25.6600   -0.5440 N.ar   37  G37        -0.1963
    736   C4       -3.1790   24.8200    0.4110 C.ar   37  G37         0.1712
    737  H5'       -5.0480   26.2720    5.7900 H      37  G37         0.0591
    738 H5''       -6.6120   26.3130    5.5600 H      37  G37         0.0591
    739  H4'       -5.6270   27.8010    4.1000 H      37  G37         0.0647
    740  H3'       -6.6490   25.5570    2.7440 H      37  G37         0.0655
    741  H2'       -5.9580   26.3910    0.7440 H      37  G37         0.0666
    742 HO2'       -5.2490   28.4890    0.6360 H      37  G37         0.2101
    743  H1'       -3.6410   27.1760    1.5980 H      37  G37         0.0866
    744   H8       -4.5900   23.9750    3.0300 H      37  G37         0.1030
    745   H1       -1.4870   23.3190   -2.2020 H      37  G37         0.1716
    746  H21       -1.1600   25.2670   -3.1700 H      37  G37         0.1451
    747  H22       -1.6520   26.5450   -2.5830 H      37  G37         0.1451
    748    P.3     -9.0750   26.4840    2.3000 P.3    38  G38         0.2131
    749  OP1      -10.2120   27.3880    2.6090 O.2    38  G38        -0.5172
    750  OP2       -9.0970   25.0760    2.7760 O.3    38  G38        -0.4373
    751  O5'       -8.8720   26.4530    0.7210 O.3    38  G38        -0.3248
    752  C5'       -8.8510   27.6560   -0.0310 C.3    38  G38         0.0837
    753  C4'       -8.5040   27.4000   -1.4750 C.3    38  G38         0.1139
    754  O4'       -7.1600   26.8650   -1.5680 O.3    38  G38        -0.3456
    755  C3'       -9.3640   26.3740   -2.1960 C.3    38  G38         0.1241
    756  O3'      -10.5900   26.9180   -2.6590 O.3    38  G38        -0.3187
    757  C2'       -8.4490   25.8990   -3.3190 C.3    38  G38         0.1292
    758  O2'       -8.4780   26.7930   -4.4220 O.3    38  G38        -0.3846
    759  C1'       -7.0720   25.9680   -2.6540 C.3    38  G38         0.1667
    760   N9       -6.6290   24.6530   -2.1560 N.ar   38  G38        -0.2854
    761   C8       -7.0610   23.9850   -1.0350 C.ar   38  G38         0.1005
    762   N7       -6.4800   22.8260   -0.8740 N.ar   38  G38        -0.2286
    763   C5       -5.6160   22.7220   -1.9570 C.ar   38  G38         0.1721
    764   C6       -4.7220   21.6850   -2.3280 C.ar   38  G38         0.2803
    765   O6       -4.4980   20.6160   -1.7510 O.2    38  G38        -0.2654
    766   N.1      -4.0360   21.9940   -3.4980 N.ar   38  G38        -0.2934
    767   C.2      -4.1940   23.1470   -4.2250 C.ar   38  G38         0.1950
    768   N.2      -3.4450   23.2600   -5.3310 N.pl3  38  G38        -0.3289
    769   N.3      -5.0270   24.1200   -3.8940 N.ar   38  G38        -0.1963
    770   C4       -5.7000   23.8410   -2.7590 C.ar   38  G38         0.1712
    771  H5'       -8.1930   28.2570    0.3510 H      38  G38         0.0591
    772 H5''       -9.7260   28.0740    0.0150 H      38  G38         0.0591
    773  H4'       -8.5420   28.2390   -1.9610 H      38  G38         0.0647
    774  H3'       -9.5480   25.6330   -1.5980 H      38  G38         0.0655
    775  H2'       -8.6640   24.9930   -3.5900 H      38  G38         0.0666
    776 HO2'       -7.9970   27.4590   -4.2470 H      38  G38         0.2101
    777  H1'       -6.4240   26.3030   -3.2930 H      38  G38         0.0866
    778   H8       -7.7000   24.3230   -0.4510 H      38  G38         0.1030
    779   H1       -3.4710   21.4160   -3.7900 H      38  G38         0.1716
    780  H21       -2.9030   22.6300   -5.5490 H      38  G38         0.1451
    781  H22       -3.5070   23.9630   -5.8220 H      38  G38         0.1451
    782    P.3    -11.9620   26.0830   -2.5530 P.3    39  U39         0.2131
    783  OP1      -11.6700   24.7560   -1.9550 O.3    39  U39        -0.4373
    784  OP2      -12.6410   26.1600   -3.8690 O.2    39  U39        -0.5172
    785  O5'      -12.8360   26.9150   -1.5120 O.3    39  U39        -0.3248
    786  C5'      -12.5260   26.9020   -0.1270 C.3    39  U39         0.0837
    787  C4'      -12.7430   28.2520    0.5090 C.3    39  U39         0.1139
    788  O4'      -11.8250   29.2230   -0.0560 O.3    39  U39        -0.3456
    789  C3'      -14.1120   28.8830    0.3070 C.3    39  U39         0.1241
    790  O3'      -15.0980   28.3560    1.1780 O.3    39  U39        -0.3187
    791  C2'      -13.8290   30.3660    0.5280 C.3    39  U39         0.1293
    792  O2'      -13.7750   30.6830    1.9110 O.3    39  U39        -0.3846
    793  C1'      -12.4200   30.5040   -0.0540 C.3    39  U39         0.1680
    794   N.1     -12.4090   31.0510   -1.4310 N.ar   39  U39        -0.2715
    795   C.2     -12.8080   32.3630   -1.5970 C.ar   39  U39         0.3314
    796   O.2     -13.1830   33.0640   -0.6710 O.2    39  U39        -0.2464
    797   N.3     -12.7640   32.8200   -2.8900 N.ar   39  U39        -0.2749
    798   C4      -12.3590   32.1180   -4.0050 C.ar   39  U39         0.2539
    799   O4      -12.3760   32.6730   -5.1030 O.2    39  U39        -0.2677
    800   C5      -11.9520   30.7700   -3.7530 C.ar   39  U39         0.0192
    801   C6      -11.9870   30.2990   -2.5020 C.ar   39  U39         0.0171
    802  H5'      -11.5980   26.6450   -0.0140 H      39  U39         0.0591
    803 H5''      -13.0910   26.2490    0.3170 H      39  U39         0.0591
    804  H4'      -12.5720   28.1790    1.4610 H      39  U39         0.0647
    805  H3'      -14.3930   28.7460   -0.6120 H      39  U39         0.0655
    806  H2'      -14.4650   30.9250    0.0550 H      39  U39         0.0666
    807 HO2'      -14.5450   30.6090    2.2390 H      39  U39         0.2101
    808  H1'      -11.9010   31.0900    0.5190 H      39  U39         0.0867
    809   H3      -13.0140   33.6330   -3.0180 H      39  U39         0.1734
    810   H5      -11.6660   30.2270   -4.4520 H      39  U39         0.0686
    811   H6      -11.7190   29.4220   -2.3500 H      39  U39         0.0813
    812    P.3    -16.6330   28.2540    0.7080 P.3    40  U40         0.2131
    813  OP1      -17.4290   27.7850    1.8720 O.3    40  U40        -0.4373
    814  OP2      -16.6930   27.5030   -0.5720 O.2    40  U40        -0.5172
    815  O5'      -17.0530   29.7640    0.4320 O.3    40  U40        -0.3248
    816  C5'      -17.1890   30.6830    1.5060 C.3    40  U40         0.0837
    817  C4'      -17.7180   32.0120    1.0360 C.3    40  U40         0.1139
    818  O4'      -16.7040   32.7080    0.2640 O.3    40  U40        -0.3456
    819  C3'      -18.9140   31.9480    0.1040 C.3    40  U40         0.1241
    820  O3'      -20.1310   31.7500    0.8000 O.3    40  U40        -0.3187
    821  C2'      -18.8270   33.2760   -0.6380 C.3    40  U40         0.1293
    822  O2'      -19.3400   34.3410    0.1500 O.3    40  U40        -0.3846
    823  C1'      -17.3130   33.4470   -0.7750 C.3    40  U40         0.1680
    824   N.1     -16.8000   32.9400   -2.0680 N.ar   40  U40        -0.2715
    825   C.2     -16.7720   33.8070   -3.1410 C.ar   40  U40         0.3314
    826   O.2     -17.1560   34.9620   -3.0640 O.2    40  U40        -0.2464
    827   N.3     -16.2770   33.2660   -4.3050 N.ar   40  U40        -0.2749
    828   C4      -15.8190   31.9760   -4.4940 C.ar   40  U40         0.2539
    829   O4      -15.4020   31.6350   -5.6010 O.2    40  U40        -0.2677
    830   C5      -15.8800   31.1410   -3.3340 C.ar   40  U40         0.0192
    831   C6      -16.3570   31.6440   -2.1910 C.ar   40  U40         0.0171
    832  H5'      -16.3220   30.8170    1.9200 H      40  U40         0.0591
    833 H5''      -17.7990   30.3140    2.1630 H      40  U40         0.0591
    834  H4'      -17.9490   32.5500    1.8090 H      40  U40         0.0647
    835  H3'      -18.7870   31.2230   -0.5270 H      40  U40         0.0655
    836  H2'      -19.2590   33.2290   -1.5050 H      40  U40         0.0666
    837 HO2'      -20.1710   34.2490    0.2260 H      40  U40         0.2101
    838  H1'      -17.0840   34.3850   -0.6810 H      40  U40         0.0867
    839   H3      -16.2500   33.7870   -4.9890 H      40  U40         0.1734
    840   H5      -15.5910   30.2580   -3.3750 H      40  U40         0.0686
    841   H6      -16.3900   31.0920   -1.4440 H      40  U40         0.0813
    842    P.3    -21.4640   31.3640   -0.0040 P.3    41  U41         0.2131
    843  OP1      -22.5290   31.0600    0.9870 O.3    41  U41        -0.4373
    844  OP2      -21.1200   30.3530   -1.0380 O.2    41  U41        -0.5172
    845  O5'      -21.8530   32.7280   -0.7210 O.3    41  U41        -0.3248
    846  C5'      -22.5470   32.7380   -1.9540 C.3    41  U41         0.0837
    847  C4'      -22.5510   34.1180   -2.5530 C.3    41  U41         0.1139
    848  O4'      -21.1870   34.5470   -2.8140 O.3    41  U41        -0.3456
    849  C3'      -23.2460   34.2520   -3.8960 C.3    41  U41         0.1241
    850  O3'      -24.6540   34.3510   -3.7750 O.3    41  U41        -0.3187
    851  C2'      -22.5800   35.4850   -4.4870 C.3    41  U41         0.1293
    852  O2'      -23.1060   36.6780   -3.9210 O.3    41  U41        -0.3846
    853  C1'      -21.1410   35.3000   -4.0070 C.3    41  U41         0.1680
    854   N.1     -20.3230   34.5560   -4.9920 N.ar   41  U41        -0.2715
    855   C.2     -19.8820   35.2330   -6.1100 C.ar   41  U41         0.3314
    856   O.2     -20.1380   36.4080   -6.3130 O.2    41  U41        -0.2464
    857   N.3     -19.1320   34.4810   -6.9800 N.ar   41  U41        -0.2749
    858   C4      -18.7880   33.1510   -6.8460 C.ar   41  U41         0.2539
    859   O4      -18.1040   32.6140   -7.7190 O.2    41  U41        -0.2677
    860   C5      -19.2820   32.5180   -5.6610 C.ar   41  U41         0.0192
    861   C6      -20.0160   33.2290   -4.7990 C.ar   41  U41         0.0171
    862  H5'      -23.4620   32.4500   -1.8070 H      41  U41         0.0591
    863 H5''      -22.1140   32.1250   -2.5680 H      41  U41         0.0591
    864  H4'      -22.9600   34.7330   -1.9240 H      41  U41         0.0647
    865  H3'      -23.0290   33.4810   -4.4430 H      41  U41         0.0655
    866  H2'      -22.6340   35.4910   -5.4560 H      41  U41         0.0666
    867 HO2'      -22.5180   37.0350   -3.4400 H      41  U41         0.2101
    868  H1'      -20.7380   36.1650   -3.8330 H      41  U41         0.0867
    869   H3      -18.8460   34.8820   -7.6840 H      41  U41         0.1734
    870   H5      -19.0960   31.6220   -5.4940 H      41  U41         0.0686
    871   H6      -20.3320   32.8070   -4.0320 H      41  U41         0.0813
    872    P.3    -25.6070   33.7500   -4.9190 P.3    42  G42         0.2131
    873  OP1      -26.9810   33.6510   -4.3620 O.3    42  G42        -0.4373
    874  OP2      -24.9620   32.5400   -5.4910 O.2    42  G42        -0.5172
    875  O5'      -25.6060   34.8840   -6.0360 O.3    42  G42        -0.3248
    876  C5'      -25.8640   36.2340   -5.6850 C.3    42  G42         0.0837
    877  C4'      -25.5270   37.1780   -6.8080 C.3    42  G42         0.1139
    878  O4'      -24.0870   37.3220   -6.9350 O.3    42  G42        -0.3456
    879  C3'      -25.9610   36.7530   -8.1990 C.3    42  G42         0.1241
    880  O3'      -27.3430   36.9280   -8.4470 O.3    42  G42        -0.3187
    881  C2'      -25.0590   37.6000   -9.0810 C.3    42  G42         0.1292
    882  O2'      -25.5100   38.9450   -9.1370 O.3    42  G42        -0.3846
    883  C1'      -23.7520   37.5480   -8.2910 C.3    42  G42         0.1667
    884   N9      -22.8900   36.4520   -8.7690 N.ar   42  G42        -0.2854
    885   C8      -22.6860   35.2130   -8.2110 C.ar   42  G42         0.1005
    886   N7      -21.8660   34.4700   -8.9060 N.ar   42  G42        -0.2286
    887   C5      -21.5180   35.2640   -9.9910 C.ar   42  G42         0.1721
    888   C6      -20.6580   35.0070  -11.0920 C.ar   42  G42         0.2803
    889   O6      -20.0070   33.9850  -11.3400 O.2    42  G42        -0.2654
    890   N.1     -20.5940   36.0930  -11.9590 N.ar   42  G42        -0.2934
    891   C.2     -21.2690   37.2770  -11.7920 C.ar   42  G42         0.1950
    892   N.2     -21.0830   38.2120  -12.7350 N.pl3  42  G42        -0.3289
    893   N.3     -22.0720   37.5290  -10.7720 N.ar   42  G42        -0.1963
    894   C4      -22.1460   36.4860   -9.9210 C.ar   42  G42         0.1712
    895  H5'      -25.3310   36.4650   -4.9080 H      42  G42         0.0591
    896 H5''      -26.8030   36.3290   -5.4630 H      42  G42         0.0591
    897  H4'      -25.9120   38.0470   -6.6120 H      42  G42         0.0647
    898  H3'      -25.7360   35.8180   -8.3260 H      42  G42         0.0655
    899  H2'      -24.9580   37.2140   -9.9650 H      42  G42         0.0666
    900 HO2'      -25.0420   39.3680   -9.6910 H      42  G42         0.2101
    901  H1'      -23.2840   38.3940   -8.3760 H      42  G42         0.0866
    902   H8      -23.0840   34.9350   -7.4180 H      42  G42         0.1030
    903   H1      -20.0930   36.0170  -12.6530 H      42  G42         0.1716
    904  H21      -20.5620   38.0530  -13.4010 H      42  G42         0.1451
    905  H22      -21.4840   38.9700  -12.6750 H      42  G42         0.1451
    906    P.3    -28.1150   35.8690   -9.3760 P.3    43  G43         0.2131
    907  OP1      -29.5550   36.2300   -9.3860 O.2    43  G43        -0.5172
    908  OP2      -27.7060   34.5050   -8.9550 O.3    43  G43        -0.4373
    909  O5'      -27.5230   36.1440  -10.8280 O.3    43  G43        -0.3248
    910  C5'      -27.5560   37.4520  -11.3770 C.3    43  G43         0.0837
    911  C4'      -26.7730   37.5450  -12.6620 C.3    43  G43         0.1139
    912  O4'      -25.3500   37.4110  -12.3980 O.3    43  G43        -0.3456
    913  C3'      -27.0440   36.4690  -13.6990 C.3    43  G43         0.1241
    914  O3'      -28.2500   36.6530  -14.4170 O.3    43  G43        -0.3187
    915  C2'      -25.7940   36.5410  -14.5600 C.3    43  G43         0.1292
    916  O2'      -25.8320   37.6670  -15.4240 O.3    43  G43        -0.3846
    917  C1'      -24.7230   36.7700  -13.4950 C.3    43  G43         0.1667
    918   N9      -24.1540   35.4900  -13.0400 N.ar   43  G43        -0.2854
    919   C8      -24.4410   34.8080  -11.8840 C.ar   43  G43         0.1005
    920   N7      -23.7830   33.6860  -11.7800 N.ar   43  G43        -0.2286
    921   C5      -23.0280   33.6180  -12.9420 C.ar   43  G43         0.1721
    922   C6      -22.1150   32.6290  -13.3930 C.ar   43  G43         0.2803
    923   O6      -21.7820   31.5780  -12.8360 O.2    43  G43        -0.2654
    924   N.1     -21.5660   32.9610  -14.6290 N.ar   43  G43        -0.2934
    925   C.2     -21.8600   34.0980  -15.3410 C.ar   43  G43         0.1950
    926   N.2     -21.2290   34.2370  -16.5140 N.pl3  43  G43        -0.3289
    927   N.3     -22.7080   35.0280  -14.9340 N.ar   43  G43        -0.1963
    928   C4      -23.2490   34.7240  -13.7330 C.ar   43  G43         0.1712
    929  H5'      -27.1800   38.0730  -10.7340 H      43  G43         0.0591
    930 H5''      -28.4780   37.6980  -11.5510 H      43  G43         0.0591
    931  H4'      -26.9360   38.4130  -13.0630 H      43  G43         0.0647
    932  H3'      -27.0720   35.6060  -13.2560 H      43  G43         0.0655
    933  H2'      -25.6450   35.7150  -15.0460 H      43  G43         0.0666
    934 HO2'      -25.1070   37.7110  -15.8480 H      43  G43         0.2101
    935  H1'      -24.0210   37.3370  -13.8500 H      43  G43         0.0866
    936   H8      -25.0360   35.1170  -11.2390 H      43  G43         0.1030
    937   H1      -21.0020   32.4110  -14.9730 H      43  G43         0.1716
    938  H21      -20.6770   33.6340  -16.7800 H      43  G43         0.1451
    939  H22      -21.3750   34.9310  -17.0010 H      43  G43         0.1451
    940    P.3    -28.9910   35.3780  -15.0560 P.3    44  G44         0.2131
    941  OP1      -30.2800   35.8370  -15.6360 O.2    44  G44        -0.5172
    942  OP2      -28.9890   34.2880  -14.0470 O.3    44  G44        -0.4373
    943  O5'      -28.0330   34.9470  -16.2530 O.3    44  G44        -0.3248
    944  C5'      -27.7370   35.8590  -17.2980 C.3    44  G44         0.0837
    945  C4'      -26.6150   35.3680  -18.1780 C.3    44  G44         0.1139
    946  O4'      -25.4180   35.1390  -17.3860 O.3    44  G44        -0.3456
    947  C3'      -26.8390   34.0400  -18.8820 C.3    44  G44         0.1241
    948  O3'      -27.6700   34.1410  -20.0260 O.3    44  G44        -0.3187
    949  C2'      -25.4170   33.5980  -19.1920 C.3    44  G44         0.1292
    950  O2'      -24.8940   34.2950  -20.3130 O.3    44  G44        -0.3846
    951  C1'      -24.6810   34.0650  -17.9360 C.3    44  G44         0.1667
    952   N9      -24.5790   32.9880  -16.9330 N.ar   44  G44        -0.2854
    953   C8      -25.2220   32.8970  -15.7240 C.ar   44  G44         0.1005
    954   N7      -24.9220   31.8100  -15.0650 N.ar   44  G44        -0.2286
    955   C5      -24.0290   31.1420  -15.8930 C.ar   44  G44         0.1721
    956   C6      -23.3550   29.9040  -15.7210 C.ar   44  G44         0.2803
    957   O6      -23.4130   29.1180  -14.7660 O.2    44  G44        -0.2654
    958   N.1     -22.5420   29.6080  -16.8110 N.ar   44  G44        -0.2934
    959   C.2     -22.3920   30.3960  -17.9250 C.ar   44  G44         0.1950
    960   N.2     -21.5610   29.9380  -18.8740 N.pl3  44  G44        -0.3289
    961   N.3     -23.0140   31.5500  -18.0980 N.ar   44  G44        -0.1963
    962   C4      -23.8080   31.8570  -17.0500 C.ar   44  G44         0.1712
    963  H5'      -27.4820   36.7110  -16.9100 H      44  G44         0.0591
    964 H5''      -28.5310   35.9850  -17.8410 H      44  G44         0.0591
    965  H4'      -26.4220   36.0450  -18.8450 H      44  G44         0.0647
    966  H3'      -27.2370   33.4140  -18.2570 H      44  G44         0.0655
    967  H2'      -25.3570   32.6360  -19.3030 H      44  G44         0.0666
    968 HO2'      -24.0790   34.1100  -20.3950 H      44  G44         0.2101
    969  H1'      -23.7920   34.3710  -18.1760 H      44  G44         0.0866
    970   H8      -25.8090   33.5440  -15.4050 H      44  G44         0.1030
    971   H1      -22.0970   28.8720  -16.7850 H      44  G44         0.1716
    972  H21      -21.1550   29.1880  -18.7640 H      44  G44         0.1451
    973  H22      -21.4350   30.3940  -19.5920 H      44  G44         0.1451
    974    P.3    -28.5780   32.8920  -20.4730 P.3    45  A45         0.2131
    975  OP1      -29.5010   33.3550  -21.5420 O.2    45  A45        -0.5172
    976  OP2      -29.1280   32.2510  -19.2520 O.3    45  A45        -0.4373
    977  O5'      -27.5390   31.8780  -21.1300 O.3    45  A45        -0.3248
    978  C5'      -26.7430   32.2720  -22.2360 C.3    45  A45         0.0837
    979  C4'      -25.6460   31.2760  -22.5140 C.3    45  A45         0.1139
    980  O4'      -24.7840   31.1550  -21.3520 O.3    45  A45        -0.3456
    981  C3'      -26.0920   29.8490  -22.7910 C.3    45  A45         0.1241
    982  O3'      -26.5350   29.6560  -24.1240 O.3    45  A45        -0.3187
    983  C2'      -24.8510   29.0420  -22.4350 C.3    45  A45         0.1292
    984  O2'      -23.8950   29.0840  -23.4840 O.3    45  A45        -0.3846
    985  C1'      -24.3060   29.8300  -21.2430 C.3    45  A45         0.1667
    986   N9      -24.7460   29.2700  -19.9510 N.ar   45  A45        -0.2855
    987   C8      -25.6550   29.7980  -19.0680 C.ar   45  A45         0.1004
    988   N7      -25.8360   29.0690  -17.9960 N.ar   45  A45        -0.2306
    989   C5      -24.9880   27.9870  -18.1820 C.ar   45  A45         0.1473
    990   C6      -24.7120   26.8520  -17.4000 C.ar   45  A45         0.1472
    991   N6      -25.2850   26.6060  -16.2210 N.pl3  45  A45        -0.3413
    992   N.1     -23.8140   25.9650  -17.8750 N.ar   45  A45        -0.2188
    993   C.2     -23.2350   26.2090  -19.0570 C.ar   45  A45         0.1205
    994   N.3     -23.4100   27.2360  -19.8830 N.ar   45  A45        -0.2159
    995   C4      -24.3090   28.0990  -19.3810 C.ar   45  A45         0.1674
    996  H5'      -26.3450   33.1360  -22.0480 H      45  A45         0.0591
    997 H5''      -27.3070   32.3480  -23.0210 H      45  A45         0.0591
    998  H4'      -25.1180   31.5910  -23.2640 H      45  A45         0.0647
    999  H3'      -26.8090   29.6160  -22.1800 H      45  A45         0.0655
   1000  H2'      -25.0750   28.1320  -22.1870 H      45  A45         0.0666
   1001 HO2'      -24.1900   28.6520  -24.1410 H      45  A45         0.2101
   1002  H1'      -23.3370   29.8350  -21.2780 H      45  A45         0.0866
   1003   H8      -26.1030   30.6000  -19.2190 H      45  A45         0.1030
   1004  H61      -25.0790   25.8960  -15.7820 H      45  A45         0.1438
   1005  H62      -25.8610   27.1580  -15.8990 H      45  A45         0.1438
   1006   H2      -22.6230   25.5690  -19.3410 H      45  A45         0.1048
   1007    P.3    -27.8380   28.7630  -24.4250 P.3    46  G46         0.2131
   1008  OP1      -28.0870   28.7860  -25.8890 O.2    46  G46        -0.5172
   1009  OP2      -28.9110   29.1800  -23.4860 O.3    46  G46        -0.4373
   1010  O5'      -27.3910   27.2860  -24.0340 O.3    46  G46        -0.3248
   1011  C5'      -26.2740   26.6770  -24.6610 C.3    46  G46         0.0837
   1012  C4'      -25.8360   25.4350  -23.9290 C.3    46  G46         0.1139
   1013  O4'      -25.3850   25.7770  -22.5930 O.3    46  G46        -0.3456
   1014  C3'      -26.9140   24.3900  -23.6980 C.3    46  G46         0.1241
   1015  O3'      -27.1450   23.5850  -24.8380 O.3    46  G46        -0.3187
   1016  C2'      -26.3760   23.6190  -22.5010 C.3    46  G46         0.1292
   1017  O2'      -25.3890   22.6780  -22.9000 O.3    46  G46        -0.3846
   1018  C1'      -25.7060   24.7330  -21.6960 C.3    46  G46         0.1667
   1019   N9      -26.5890   25.2710  -20.6430 N.ar   46  G46        -0.2854
   1020   C8      -27.4320   26.3500  -20.7420 C.ar   46  G46         0.1005
   1021   N7      -28.0890   26.5910  -19.6400 N.ar   46  G46        -0.2286
   1022   C5      -27.6550   25.6110  -18.7590 C.ar   46  G46         0.1721
   1023   C6      -28.0150   25.3640  -17.4100 C.ar   46  G46         0.2803
   1024   O6      -28.8180   25.9830  -16.7020 O.2    46  G46        -0.2654
   1025   N.1     -27.3350   24.2690  -16.8910 N.ar   46  G46        -0.2934
   1026   C.2     -26.4230   23.5080  -17.5790 C.ar   46  G46         0.1950
   1027   N.2     -25.8720   22.4910  -16.9010 N.pl3  46  G46        -0.3289
   1028   N.3     -26.0770   23.7270  -18.8360 N.ar   46  G46        -0.1963
   1029   C4      -26.7280   24.7870  -19.3620 C.ar   46  G46         0.1712
   1030  H5'      -25.5380   27.3090  -24.6800 H      46  G46         0.0591
   1031 H5''      -26.5110   26.4410  -25.5720 H      46  G46         0.0591
   1032  H4'      -25.1020   25.0270  -24.4140 H      46  G46         0.0647
   1033  H3'      -27.7400   24.8330  -23.4470 H      46  G46         0.0655
   1034  H2'      -27.0910   23.1980  -21.9980 H      46  G46         0.0666
   1035 HO2'      -25.7330   22.1330  -23.4390 H      46  G46         0.2101
   1036  H1'      -24.8920   24.3950  -21.2920 H      46  G46         0.0866
   1037   H8      -27.5250   26.8580  -21.5150 H      46  G46         0.1030
   1038   H1      -27.4980   24.0520  -16.0740 H      46  G46         0.1716
   1039  H21      -26.0960   22.3470  -16.0830 H      46  G46         0.1451
   1040  H22      -25.2940   21.9820  -17.2840 H      46  G46         0.1451
   1041    P.3    -28.4710   23.7930  -25.7200 P.3    47  U47         0.2131
   1042  OP1      -28.1290   23.4660  -27.1270 O.2    47  U47        -0.5172
   1043  OP2      -29.0610   25.1140  -25.3860 O.3    47  U47        -0.4373
   1044  O5'      -29.4620   22.6690  -25.1870 O.3    47  U47        -0.3248
   1045  C5'      -29.0670   21.3020  -25.1790 C.3    47  U47         0.0837
   1046  C4'      -30.1490   20.4140  -24.6210 C.3    47  U47         0.1139
   1047  O4'      -30.2540   20.6310  -23.1870 O.3    47  U47        -0.3456
   1048  C3'      -31.5460   20.6510  -25.1930 C.3    47  U47         0.1241
   1049  O3'      -32.2380   19.4090  -25.3130 O.3    47  U47        -0.3187
   1050  C2'      -32.2080   21.5210  -24.1290 C.3    47  U47         0.1293
   1051  O2'      -33.6180   21.4480  -24.1050 O.3    47  U47        -0.3846
   1052  C1'      -31.5860   20.9650  -22.8500 C.3    47  U47         0.1680
   1053   N.1     -31.5620   21.9070  -21.7180 N.ar   47  U47        -0.2715
   1054   C.2     -31.9790   21.4420  -20.4830 C.ar   47  U47         0.3314
   1055   O.2     -32.3550   20.2990  -20.2870 O.2    47  U47        -0.2464
   1056   N.3     -31.9370   22.3670  -19.4710 N.ar   47  U47        -0.2749
   1057   C4      -31.5320   23.6810  -19.5600 C.ar   47  U47         0.2539
   1058   O4      -31.5530   24.3870  -18.5510 O.2    47  U47        -0.2677
   1059   C5      -31.1170   24.0930  -20.8660 C.ar   47  U47         0.0192
   1060   C6      -31.1460   23.2110  -21.8700 C.ar   47  U47         0.0171
   1061  H5'      -28.2690   21.2060  -24.6370 H      47  U47         0.0591
   1062 H5''      -28.8680   21.0250  -26.0870 H      47  U47         0.0591
   1063  H4'      -29.9030   19.4890  -24.7780 H      47  U47         0.0647
   1064  H3'      -31.5010   21.1130  -26.0450 H      47  U47         0.0655
   1065  H2'      -31.9330   22.4440  -24.2480 H      47  U47         0.0666
   1066 HO2'      -33.9210   21.7630  -24.8230 H      47  U47         0.2101
   1067  H1'      -32.0600   20.1610  -22.5880 H      47  U47         0.0867
   1068   H3      -32.1900   22.0960  -18.6940 H      47  U47         0.1734
   1069   H5      -30.8280   24.9650  -21.0140 H      47  U47         0.0686
   1070   H6      -30.8750   23.4930  -22.7140 H      47  U47         0.0813
   1071    P.3    -32.3440   18.6830  -26.7430 P.3    48  U48         0.2131
   1072  OP1      -32.9580   17.3460  -26.5420 O.3    48  U48        -0.4373
   1073  OP2      -31.0200   18.7930  -27.4080 O.2    48  U48        -0.5172
   1074  O5'      -33.3690   19.5870  -27.5590 O.3    48  U48        -0.3248
   1075  C5'      -34.7140   19.7490  -27.1200 C.3    48  U48         0.0837
   1076  C4'      -35.2990   21.0560  -27.5950 C.3    48  U48         0.1139
   1077  O4'      -35.4390   21.0240  -29.0440 O.3    48  U48        -0.3456
   1078  C3'      -36.6860   21.3840  -27.0450 C.3    48  U48         0.1241
   1079  O3'      -36.8140   22.7970  -26.8830 O.3    48  U48        -0.3187
   1080  C2'      -37.6070   20.9120  -28.1630 C.3    48  U48         0.1293
   1081  O2'      -38.8800   21.5200  -28.1770 O.3    48  U48        -0.3846
   1082  C1'      -36.7870   21.2780  -29.3950 C.3    48  U48         0.1680
   1083   N.1     -37.1180   20.5070  -30.6030 N.ar   48  U48        -0.2715
   1084   C.2     -38.0170   21.0720  -31.4870 C.ar   48  U48         0.3314
   1085   O.2     -38.5400   22.1580  -31.2980 O.2    48  U48        -0.2464
   1086   N.3     -38.2890   20.3150  -32.5980 N.ar   48  U48        -0.2749
   1087   C4      -37.7610   19.0790  -32.9110 C.ar   48  U48         0.2539
   1088   O4      -38.1080   18.5250  -33.9540 O.2    48  U48        -0.2677
   1089   C5      -36.8340   18.5610  -31.9500 C.ar   48  U48         0.0192
   1090   C6      -36.5520   19.2800  -30.8570 C.ar   48  U48         0.0171
   1091  H5'      -34.7360   19.7260  -26.1510 H      48  U48         0.0591
   1092 H5''      -35.2500   19.0180  -27.4660 H      48  U48         0.0591
   1093  H4'      -34.6920   21.7740  -27.3570 H      48  U48         0.0647
   1094  H3'      -36.8600   20.9110  -26.2170 H      48  U48         0.0655
   1095  H2'      -37.7070   19.9480  -28.1150 H      48  U48         0.0666
   1096 HO2'      -38.9550   21.9820  -28.8750 H      48  U48         0.2101
   1097  H1'      -36.8950   22.2240  -29.5800 H      48  U48         0.0867
   1098   H3      -38.8490   20.6460  -33.1610 H      48  U48         0.1734
   1099   H5      -36.4320   17.7340  -32.0850 H      48  U48         0.0686
   1100   H6      -35.9480   18.9320  -30.2400 H      48  U48         0.0813
   1101    P.3    -36.1780   23.5280  -25.6010 P.3    49  U49         0.2131
   1102  OP1      -36.9140   24.8010  -25.3940 O.3    49  U49        -0.4373
   1103  OP2      -34.7010   23.5570  -25.7580 O.2    49  U49        -0.5172
   1104  O5'      -36.5320   22.5530  -24.3940 O.3    49  U49        -0.3248
   1105  C5'      -37.8780   22.3980  -23.9580 C.3    49  U49         0.0837
   1106  C4'      -37.9510   22.0780  -22.4860 C.3    49  U49         0.1139
   1107  O4'      -37.8370   20.6400  -22.3010 O.3    49  U49        -0.3456
   1108  C3'      -36.8530   22.7090  -21.6310 C.3    49  U49         0.1241
   1109  O3'      -37.3780   23.0870  -20.3610 O.3    49  U49        -0.3187
   1110  C2'      -35.8560   21.5670  -21.4580 C.3    49  U49         0.1293
   1111  O2'      -35.0440   21.6650  -20.3080 O.3    49  U49        -0.3846
   1112  C1'      -36.7870   20.3590  -21.3980 C.3    49  U49         0.1680
   1113   N.1     -36.1640   19.0810  -21.7840 N.ar   49  U49        -0.2715
   1114   C.2     -36.4590   17.9700  -21.0140 C.ar   49  U49         0.3314
   1115   O.2     -37.2080   18.0020  -20.0530 O.2    49  U49        -0.2464
   1116   N.3     -35.8520   16.8080  -21.4130 N.ar   49  U49        -0.2749
   1117   C4      -34.9910   16.6410  -22.4760 C.ar   49  U49         0.2539
   1118   O4      -34.5230   15.5240  -22.7040 O.2    49  U49        -0.2677
   1119   C5      -34.7280   17.8320  -23.2240 C.ar   49  U49         0.0192
   1120   C6      -35.3100   18.9780  -22.8580 C.ar   49  U49         0.0171
   1121  H5'      -38.2930   21.6790  -24.4590 H      49  U49         0.0591
   1122 H5''      -38.3620   23.2210  -24.1270 H      49  U49         0.0591
   1123  H4'      -38.8130   22.3680  -22.1480 H      49  U49         0.0647
   1124  H3'      -36.4460   23.4640  -22.0830 H      49  U49         0.0655
   1125  H2'      -35.2950   21.5050  -22.2470 H      49  U49         0.0666
   1126 HO2'      -34.5480   22.3390  -20.3790 H      49  U49         0.2101
   1127  H1'      -37.1500   20.2800  -20.5020 H      49  U49         0.0867
   1128   H3      -36.0250   16.1060  -20.9470 H      49  U49         0.1734
   1129   H5      -34.1580   17.8080  -23.9580 H      49  U49         0.0686
   1130   H6      -35.1280   19.7440  -23.3530 H      49  U49         0.0813
   1131    P.3    -36.8850   24.4430  -19.6570 P.3    50  C50         0.2131
   1132  OP1      -37.4380   25.5890  -20.4250 O.2    50  C50        -0.5172
   1133  OP2      -35.4180   24.3450  -19.4330 O.3    50  C50        -0.4373
   1134  O5'      -37.5990   24.4120  -18.2350 O.3    50  C50        -0.3248
   1135  C5'      -38.9900   24.6650  -18.1160 C.3    50  C50         0.0837
   1136  C4'      -39.5820   23.9380  -16.9370 C.3    50  C50         0.1139
   1137  O4'      -39.6980   22.5210  -17.2360 O.3    50  C50        -0.3456
   1138  C3'      -38.7670   23.9780  -15.6540 C.3    50  C50         0.1241
   1139  O3'      -38.9240   25.1850  -14.9290 O.3    50  C50        -0.3187
   1140  C2'      -39.2650   22.7470  -14.9110 C.3    50  C50         0.1293
   1141  O2'      -40.5130   22.9970  -14.2810 O.3    50  C50        -0.3846
   1142  C1'      -39.4820   21.7640  -16.0640 C.3    50  C50         0.1680
   1143   N.1     -38.3120   20.8810  -16.2740 N.ar   50  C50        -0.2700
   1144   C.2     -38.0110   19.9260  -15.3010 C.ar   50  C50         0.3522
   1145   O.2     -38.7290   19.8570  -14.2940 O.2    50  C50        -0.2444
   1146   N.3     -36.9460   19.1100  -15.4780 N.ar   50  C50        -0.1783
   1147   C4      -36.1980   19.2190  -16.5770 C.ar   50  C50         0.1230
   1148   N.4     -35.1570   18.3930  -16.7100 N.pl3  50  C50        -0.3430
   1149   C5      -36.4840   20.1820  -17.5870 C.ar   50  C50        -0.0056
   1150   C6      -37.5400   20.9850  -17.3980 C.ar   50  C50         0.0152
   1151  H5'      -39.4360   24.3730  -18.9260 H      50  C50         0.0591
   1152 H5''      -39.1300   25.6190  -18.0040 H      50  C50         0.0591
   1153  H4'      -40.4660   24.2960  -16.7590 H      50  C50         0.0647
   1154  H3'      -37.8290   23.8580  -15.8710 H      50  C50         0.0655
   1155  H2'      -38.6040   22.4170  -14.2830 H      50  C50         0.0666
   1156 HO2'      -40.3960   23.5370  -13.6480 H      50  C50         0.2101
   1157  H1'      -40.2650   21.2220  -15.8810 H      50  C50         0.0867
   1158  H41      -34.6570   18.4400  -17.4080 H      50  C50         0.1437
   1159  H42      -34.9870   17.8130  -16.0980 H      50  C50         0.1437
   1160   H5      -35.9560   20.2520  -18.3500 H      50  C50         0.0666
   1161   H6      -37.7510   21.6230  -18.0410 H      50  C50         0.0812
   1162    P.3    -37.6330   25.9700  -14.3770 P.3    51  U51         0.2131
   1163  OP1      -38.1110   27.1100  -13.5540 O.3    51  U51        -0.4373
   1164  OP2      -36.7200   26.2210  -15.5200 O.2    51  U51        -0.5172
   1165  O5'      -36.9340   24.9260  -13.3960 O.3    51  U51        -0.3248
   1166  C5'      -37.5580   24.5500  -12.1780 C.3    51  U51         0.0837
   1167  C4'      -36.9600   23.2890  -11.6040 C.3    51  U51         0.1139
   1168  O4'      -37.0080   22.2240  -12.5890 O.3    51  U51        -0.3456
   1169  C3'      -35.4930   23.3530  -11.2100 C.3    51  U51         0.1241
   1170  O3'      -35.2750   23.9800   -9.9580 O.3    51  U51        -0.3187
   1171  C2'      -35.0860   21.8860  -11.2370 C.3    51  U51         0.1293
   1172  O2'      -35.5190   21.2090  -10.0660 O.3    51  U51        -0.3846
   1173  C1'      -35.8920   21.3720  -12.4300 C.3    51  U51         0.1680
   1174   N.1     -35.0980   21.3820  -13.6790 N.ar   51  U51        -0.2715
   1175   C.2     -34.2110   20.3430  -13.8670 C.ar   51  U51         0.3314
   1176   O.2     -34.0740   19.4390  -13.0590 O.2    51  U51        -0.2464
   1177   N.3     -33.4950   20.4000  -15.0360 N.ar   51  U51        -0.2749
   1178   C4      -33.5730   21.3720  -16.0120 C.ar   51  U51         0.2539
   1179   O4      -32.8590   21.2820  -17.0120 O.2    51  U51        -0.2677
   1180   C5      -34.5130   22.4190  -15.7420 C.ar   51  U51         0.0192
   1181   C6      -35.2230   22.3850  -14.6090 C.ar   51  U51         0.0171
   1182  H5'      -38.5030   24.4050  -12.3400 H      51  U51         0.0591
   1183 H5''      -37.4540   25.2690  -11.5360 H      51  U51         0.0591
   1184  H4'      -37.4790   23.0220  -10.8290 H      51  U51         0.0647
   1185  H3'      -35.0000   23.8320  -11.8950 H      51  U51         0.0655
   1186  H2'      -34.1320   21.7820  -11.3810 H      51  U51         0.0666
   1187 HO2'      -35.0770   21.4900   -9.4090 H      51  U51         0.2101
   1188  H1'      -36.1980   20.4690  -12.2490 H      51  U51         0.0867
   1189   H3      -32.9370   19.7610  -15.1760 H      51  U51         0.1734
   1190   H5      -34.6290   23.1140  -16.3480 H      51  U51         0.0686
   1191   H6      -35.8300   23.0700  -14.4440 H      51  U51         0.0813
   1192    P.3    -33.9110   24.7840   -9.6820 P.3    52  A52         0.2131
   1193  OP1      -33.9920   25.3750   -8.3220 O.3    52  A52        -0.4373
   1194  OP2      -33.6450   25.6660  -10.8450 O.2    52  A52        -0.5172
   1195  O5'      -32.7880   23.6530   -9.6620 O.3    52  A52        -0.3248
   1196  C5'      -32.6870   22.7330   -8.5820 C.3    52  A52         0.0837
   1197  C4'      -31.7370   21.6100   -8.9130 C.3    52  A52         0.1139
   1198  O4'      -32.1240   21.0160  -10.1810 O.3    52  A52        -0.3456
   1199  C3'      -30.2810   22.0160   -9.1110 C.3    52  A52         0.1241
   1200  O3'      -29.5640   22.0890   -7.8880 O.3    52  A52        -0.3187
   1201  C2'      -29.7530   20.9470  -10.0600 C.3    52  A52         0.1292
   1202  O2'      -29.3970   19.7640   -9.3610 O.3    52  A52        -0.3846
   1203  C1'      -30.9800   20.6630  -10.9250 C.3    52  A52         0.1667
   1204   N9      -30.9770   21.4470  -12.1740 N.ar   52  A52        -0.2855
   1205   C8      -31.6680   22.6040  -12.4400 C.ar   52  A52         0.1004
   1206   N7      -31.4680   23.0760  -13.6440 N.ar   52  A52        -0.2306
   1207   C5      -30.5850   22.1690  -14.2100 C.ar   52  A52         0.1473
   1208   C6      -29.9810   22.1040  -15.4760 C.ar   52  A52         0.1472
   1209   N6      -30.1840   23.0070  -16.4380 N.pl3  52  A52        -0.3413
   1210   N.1     -29.1490   21.0700  -15.7230 N.ar   52  A52        -0.2188
   1211   C.2     -28.9450   20.1670  -14.7570 C.ar   52  A52         0.1205
   1212   N.3     -29.4530   20.1210  -13.5280 N.ar   52  A52        -0.2159
   1213   C4      -30.2740   21.1620  -13.3160 C.ar   52  A52         0.1674
   1214  H5'      -33.5650   22.3630   -8.3970 H      52  A52         0.0591
   1215 H5''      -32.3660   23.2000   -7.7950 H      52  A52         0.0591
   1216  H4'      -31.7870   20.9360   -8.2180 H      52  A52         0.0647
   1217  H3'      -30.2480   22.8790   -9.5520 H      52  A52         0.0655
   1218  H2'      -29.0150   21.2810  -10.5940 H      52  A52         0.0666
   1219 HO2'      -28.7220   19.9200   -8.8860 H      52  A52         0.2101
   1220  H1'      -31.0130   19.7170  -11.1380 H      52  A52         0.0866
   1221   H8      -32.2280   23.0130  -11.8200 H      52  A52         0.1030
   1222  H61      -29.7880   22.9230  -17.1970 H      52  A52         0.1438
   1223  H62      -30.7110   23.6720  -16.2990 H      52  A52         0.1438
   1224   H2      -28.3640   19.4740  -14.9740 H      52  A52         0.1048
   1225    P.3    -28.8220   23.4450   -7.4450 P.3    53  C53         0.2134
   1226  OP1      -28.5580   23.3490   -5.9860 O.3    53  C53        -0.4373
   1227  OP2      -29.5850   24.5980   -7.9800 O.2    53  C53        -0.5172
   1228  O5'      -27.4180   23.3950   -8.1990 O.3    53  C53        -0.3187
   1229  C5'      -26.4530   22.3960   -7.8930 C.3    53  C53         0.1235
   1230  C4'      -25.6450   22.0200   -9.1110 C.3    53  C53         0.1193
   1231  O4'      -26.5450   21.7290  -10.2080 O.3    53  C53        -0.3452
   1232  C3'      -24.7160   23.0950   -9.6610 C.3    53  C53         0.1245
   1233  O3'      -23.4610   23.1200   -9.0050 O.3    53  C53        -0.3187
   1234  C2'      -24.5920   22.7250  -11.1330 C.3    53  C53         0.1293
   1235  O2'      -23.5910   21.7370  -11.3320 O.3    53  C53        -0.3846
   1236  C1'      -25.9660   22.1220  -11.4310 C.3    53  C53         0.1680
   1237   N.1     -26.8660   23.0860  -12.1010 N.ar   53  C53        -0.2700
   1238   C.2     -26.8830   23.0940  -13.4960 C.ar   53  C53         0.3522
   1239   O.2     -26.1530   22.2990  -14.1060 O.2    53  C53        -0.2444
   1240   N.3     -27.6940   23.9610  -14.1420 N.ar   53  C53        -0.1783
   1241   C4      -28.4600   24.7960  -13.4410 C.ar   53  C53         0.1230
   1242   N.4     -29.2440   25.6310  -14.1220 N.pl3  53  C53        -0.3430
   1243   C5      -28.4620   24.8120  -12.0140 C.ar   53  C53        -0.0056
   1244   C6      -27.6540   23.9460  -11.3880 C.ar   53  C53         0.0152
   1245 H5''      -25.8540   22.7350   -7.2090 H      53  C53         0.0654
   1246  H4'      -25.1240   21.2260   -8.9110 H      53  C53         0.0651
   1247  H3'      -25.1410   23.9630   -9.5800 H      53  C53         0.0655
   1248  H2'      -24.4280   23.5090  -11.6800 H      53  C53         0.0666
   1249 HO2'      -23.9570   21.0210  -11.5730 H      53  C53         0.2101
   1250  H1'      -25.8560   21.3420  -11.9970 H      53  C53         0.0867
   1251  H41      -29.7510   26.1840  -13.7020 H      53  C53         0.1437
   1252  H42      -29.2420   25.6180  -14.9820 H      53  C53         0.1437
   1253   H5      -29.0030   25.3990  -11.5380 H      53  C53         0.0666
   1254   H6      -27.6310   23.9290  -10.4590 H      53  C53         0.0812
   1255    P.3    -23.1210   24.2270   -7.8930 P.3    54  C54         0.2131
   1256  OP1      -24.3530   24.9930   -7.5710 O.3    54  C54        -0.4373
   1257  OP2      -21.9120   24.9640   -8.3380 O.2    54  C54        -0.5172
   1258  O5'      -22.7160   23.3490   -6.6240 O.3    54  C54        -0.3248
   1259  C5'      -23.5680   23.2840   -5.4940 C.3    54  C54         0.0837
   1260  C4'      -23.7050   21.8830   -4.9460 C.3    54  C54         0.1139
   1261  O4'      -24.0240   20.9320   -5.9950 O.3    54  C54        -0.3456
   1262  C3'      -22.4850   21.2670   -4.2860 C.3    54  C54         0.1241
   1263  O3'      -22.1910   21.8040   -3.0090 O.3    54  C54        -0.3187
   1264  C2'      -22.8670   19.7940   -4.2560 C.3    54  C54         0.1293
   1265  O2'      -23.7920   19.5290   -3.2110 O.3    54  C54        -0.3846
   1266  C1'      -23.5850   19.6430   -5.6010 C.3    54  C54         0.1680
   1267   N.1     -22.6910   19.0600   -6.6290 N.ar   54  C54        -0.2700
   1268   C.2     -22.4560   17.6850   -6.5370 C.ar   54  C54         0.3522
   1269   O.2     -23.0110   17.0480   -5.6290 O.2    54  C54        -0.2444
   1270   N.3     -21.6430   17.0790   -7.4300 N.ar   54  C54        -0.1783
   1271   C4      -21.0630   17.7970   -8.3880 C.ar   54  C54         0.1230
   1272   N.4     -20.2690   17.1530   -9.2480 N.pl3  54  C54        -0.3430
   1273   C5      -21.2770   19.2050   -8.5060 C.ar   54  C54        -0.0056
   1274   C6      -22.0860   19.7930   -7.6120 C.ar   54  C54         0.0152
   1275  H5'      -24.4470   23.6080   -5.7460 H      54  C54         0.0591
   1276 H5''      -23.2100   23.8580   -4.8000 H      54  C54         0.0591
   1277  H4'      -24.4310   21.8810   -4.3020 H      54  C54         0.0647
   1278  H3'      -21.7170   21.3850   -4.8660 H      54  C54         0.0655
   1279  H2'      -22.0860   19.2220   -4.2010 H      54  C54         0.0666
   1280 HO2'      -24.5400   19.3450   -3.5470 H      54  C54         0.2101
   1281  H1'      -24.3560   19.0660   -5.4870 H      54  C54         0.0867
   1282  H41      -19.8780   17.5870   -9.8790 H      54  C54         0.1437
   1283  H42      -20.1490   16.3060   -9.1690 H      54  C54         0.1437
   1284   H5      -20.8680   19.6970   -9.1800 H      54  C54         0.0666
   1285   H6      -22.2430   20.7080   -7.6650 H      54  C54         0.0812
   1286    P.3    -20.6880   21.7410   -2.4370 P.3    55  A55         0.2134
   1287  OP1      -20.6280   22.5930   -1.2220 O.3    55  A55        -0.4373
   1288  OP2      -19.7450   21.9920   -3.5570 O.2    55  A55        -0.5172
   1289  O5'      -20.5160   20.2280   -1.9780 O.3    55  A55        -0.3187
   1290  C5'      -21.3680   19.6770   -0.9860 C.3    55  A55         0.1235
   1291  C4'      -21.1920   18.1850   -0.8660 C.3    55  A55         0.1193
   1292  O4'      -21.5510   17.5420   -2.1160 O.3    55  A55        -0.3452
   1293  C3'      -19.7780   17.6970   -0.5920 C.3    55  A55         0.1245
   1294  O3'      -19.4180   17.8000    0.7750 O.3    55  A55        -0.3187
   1295  C2'      -19.8170   16.2640   -1.1090 C.3    55  A55         0.1292
   1296  O2'      -20.4100   15.3920   -0.1580 O.3    55  A55        -0.3846
   1297  C1'      -20.7500   16.3950   -2.3150 C.3    55  A55         0.1667
   1298   N9      -20.0130   16.5450   -3.5840 N.ar   55  A55        -0.2855
   1299   C8      -19.8110   17.6930   -4.3110 C.ar   55  A55         0.1004
   1300   N7      -19.1200   17.5140   -5.4110 N.ar   55  A55        -0.2306
   1301   C5      -18.8490   16.1550   -5.4100 C.ar   55  A55         0.1473
   1302   C6      -18.1490   15.3330   -6.3080 C.ar   55  A55         0.1472
   1303   N6      -17.5700   15.7810   -7.4220 N.pl3  55  A55        -0.3413
   1304   N.1     -18.0590   14.0180   -6.0180 N.ar   55  A55        -0.2188
   1305   C.2     -18.6370   13.5680   -4.8970 C.ar   55  A55         0.1205
   1306   N.3     -19.3240   14.2400   -3.9740 N.ar   55  A55        -0.2159
   1307   C4      -19.3930   15.5440   -4.2930 C.ar   55  A55         0.1674
   1308 H5''      -21.1650   20.0880   -0.1320 H      55  A55         0.0654
   1309  H4'      -21.7770   17.8560   -0.1660 H      55  A55         0.0651
   1310  H3'      -19.1540   18.2120   -1.1270 H      55  A55         0.0655
   1311  H2'      -18.9360   15.9580   -1.3750 H      55  A55         0.0666
   1312 HO2'      -21.1510   15.1280   -0.4530 H      55  A55         0.2101
   1313  H1'      -21.3200   15.6120   -2.3660 H      55  A55         0.0866
   1314   H8      -20.1360   18.5240   -4.0470 H      55  A55         0.1030
   1315  H61      -17.1510   15.2360   -7.9390 H      55  A55         0.1438
   1316  H62      -17.6160   16.6160   -7.6240 H      55  A55         0.1438
   1317   H2      -18.5490   12.6550   -4.7410 H      55  A55         0.1048
   1318    P.3    -17.8870   18.0430    1.2040 P.3    56  A56         0.2131
   1319  OP1      -17.8750   18.3740    2.6520 O.3    56  A56        -0.4373
   1320  OP2      -17.2620   18.9840    0.2440 O.2    56  A56        -0.5172
   1321  O5'      -17.2100   16.6120    1.0290 O.3    56  A56        -0.3248
   1322  C5'      -17.6340   15.5090    1.8170 C.3    56  A56         0.0837
   1323  C4'      -17.1180   14.2030    1.2680 C.3    56  A56         0.1139
   1324  O4'      -17.6390   13.9930   -0.0720 O.3    56  A56        -0.3456
   1325  C3'      -15.6110   14.0970    1.0930 C.3    56  A56         0.1241
   1326  O3'      -14.9190   13.8080    2.2960 O.3    56  A56        -0.3187
   1327  C2'      -15.4850   13.0120    0.0350 C.3    56  A56         0.1292
   1328  O2'      -15.6850   11.7220    0.5950 O.3    56  A56        -0.3846
   1329  C1'      -16.6680   13.3440   -0.8680 C.3    56  A56         0.1667
   1330   N9      -16.2720   14.2500   -1.9640 N.ar   56  A56        -0.2855
   1331   C8      -16.3290   15.6210   -1.9880 C.ar   56  A56         0.1004
   1332   N7      -15.8950   16.1490   -3.1070 N.ar   56  A56        -0.2306
   1333   C5      -15.5200   15.0510   -3.8670 C.ar   56  A56         0.1473
   1334   C6      -14.9790   14.9360   -5.1590 C.ar   56  A56         0.1472
   1335   N6      -14.7100   15.9790   -5.9440 N.pl3  56  A56        -0.3413
   1336   N.1     -14.7190   13.6950   -5.6220 N.ar   56  A56        -0.2188
   1337   C.2     -14.9890   12.6480   -4.8320 C.ar   56  A56         0.1205
   1338   N.3     -15.4970   12.6280   -3.6030 N.ar   56  A56        -0.2159
   1339   C4      -15.7420   13.8760   -3.1730 C.ar   56  A56         0.1674
   1340  H5'      -18.6040   15.4850    1.8310 H      56  A56         0.0591
   1341 H5''      -17.3070   15.6230    2.7230 H      56  A56         0.0591
   1342  H4'      -17.4200   13.4800    1.8400 H      56  A56         0.0647
   1343  H3'      -15.2760   14.9320    0.7300 H      56  A56         0.0655
   1344  H2'      -14.6430   13.0730   -0.4420 H      56  A56         0.0666
   1345 HO2'      -15.0340   11.5360    1.0940 H      56  A56         0.2101
   1346  H1'      -17.0390   12.5270   -1.2360 H      56  A56         0.0866
   1347   H8      -16.6520   16.1280   -1.2790 H      56  A56         0.1030
   1348  H61      -14.3780   15.8530   -6.7270 H      56  A56         0.1438
   1349  H62      -14.8690   16.7780   -5.6680 H      56  A56         0.1438
   1350   H2      -14.7930   11.8150   -5.1960 H      56  A56         0.1048
   1351    P.3    -13.4280   14.3700    2.5190 P.3    57  G57         0.2131
   1352  OP1      -13.0060   14.0320    3.9030 O.3    57  G57        -0.4373
   1353  OP2      -13.3970   15.7850    2.0680 O.2    57  G57        -0.5172
   1354  O5'      -12.5350   13.5090    1.5160 O.3    57  G57        -0.3248
   1355  C5'      -12.3310   12.1210    1.7340 C.3    57  G57         0.0837
   1356  C4'      -11.7980   11.4290    0.5020 C.3    57  G57         0.1139
   1357  O4'      -12.6720   11.6850   -0.6300 O.3    57  G57        -0.3456
   1358  C3'      -10.4310   11.8820    0.0110 C.3    57  G57         0.1241
   1359  O3'       -9.3510   11.3360    0.7480 O.3    57  G57        -0.3187
   1360  C2'      -10.4570   11.4530   -1.4490 C.3    57  G57         0.1292
   1361  O2'      -10.2260   10.0580   -1.5830 O.3    57  G57        -0.3846
   1362  C1'      -11.9080   11.7530   -1.8190 C.3    57  G57         0.1667
   1363   N9      -12.0410   13.1000   -2.4030 N.ar   57  G57        -0.2854
   1364   C8      -12.5100   14.2460   -1.8090 C.ar   57  G57         0.1005
   1365   N7      -12.4820   15.2830   -2.6030 N.ar   57  G57        -0.2286
   1366   C5      -11.9540   14.7930   -3.7910 C.ar   57  G57         0.1721
   1367   C6      -11.6830   15.4440   -5.0220 C.ar   57  G57         0.2803
   1368   O6      -11.8590   16.6300   -5.3260 O.2    57  G57        -0.2654
   1369   N.1     -11.1490   14.5630   -5.9580 N.ar   57  G57        -0.2934
   1370   C.2     -10.9080   13.2290   -5.7390 C.ar   57  G57         0.1950
   1371   N.2     -10.3900   12.5400   -6.7630 N.pl3  57  G57        -0.3289
   1372   N.3     -11.1560   12.6110   -4.5990 N.ar   57  G57        -0.1963
   1373   C4      -11.6740   13.4480   -3.6790 C.ar   57  G57         0.1712
   1374  H5'      -13.1750   11.7130    1.9840 H      57  G57         0.0591
   1375 H5''      -11.6970   12.0060    2.4590 H      57  G57         0.0591
   1376  H4'      -11.7700   10.4740    0.6670 H      57  G57         0.0647
   1377  H3'      -10.3860   12.8490    0.0540 H      57  G57         0.0655
   1378  H2'       -9.8380   11.9740   -1.9850 H      57  G57         0.0666
   1379 HO2'      -10.1030    9.7270   -0.8210 H      57  G57         0.2101
   1380  H1'      -12.2280   11.0900   -2.4510 H      57  G57         0.0866
   1381   H8      -12.8220   14.2790   -0.9330 H      57  G57         0.1030
   1382   H1      -10.9560   14.8780   -6.7340 H      57  G57         0.1716
   1383  H21      -10.2260   12.9360   -7.5090 H      57  G57         0.1451
   1384  H22      -10.2220   11.7010   -6.6760 H      57  G57         0.1451
   1385    P.3     -8.0110   12.1990    0.9580 P.3    58  A58         0.2131
   1386  OP1       -7.1630   11.4840    1.9440 O.3    58  A58        -0.4373
   1387  OP2       -8.3990   13.6100    1.2110 O.2    58  A58        -0.5172
   1388  O5'       -7.2850   12.1460   -0.4600 O.3    58  A58        -0.3248
   1389  C5'       -6.7540   10.9270   -0.9570 C.3    58  A58         0.0837
   1390  C4'       -6.5600   10.9630   -2.4540 C.3    58  A58         0.1139
   1391  O4'       -7.7500   11.4950   -3.0970 O.3    58  A58        -0.3456
   1392  C3'       -5.4420   11.8550   -2.9730 C.3    58  A58         0.1241
   1393  O3'       -4.1540   11.2770   -2.8540 O.3    58  A58        -0.3187
   1394  C2'       -5.8700   12.0980   -4.4120 C.3    58  A58         0.1292
   1395  O2'       -5.5830   10.9730   -5.2290 O.3    58  A58        -0.3846
   1396  C1'       -7.3840   12.2190   -4.2550 C.3    58  A58         0.1667
   1397   N9       -7.8000   13.6240   -4.0950 N.ar   58  A58        -0.2855
   1398   C8       -8.2240   14.2630   -2.9570 C.ar   58  A58         0.1004
   1399   N7       -8.5160   15.5280   -3.1430 N.ar   58  A58        -0.2306
   1400   C5       -8.2640   15.7360   -4.4910 C.ar   58  A58         0.1473
   1401   C6       -8.3770   16.8710   -5.3140 C.ar   58  A58         0.1472
   1402   N6       -8.7910   18.0620   -4.8780 N.pl3  58  A58        -0.3413
   1403   N.1      -8.0450   16.7400   -6.6170 N.ar   58  A58        -0.2188
   1404   C.2      -7.6290   15.5450   -7.0550 C.ar   58  A58         0.1205
   1405   N.3      -7.4820   14.4080   -6.3800 N.ar   58  A58        -0.2159
   1406   C4       -7.8200   14.5730   -5.0900 C.ar   58  A58         0.1674
   1407  H5'       -7.3630   10.2050   -0.7360 H      58  A58         0.0591
   1408 H5''       -5.8990   10.7600   -0.5320 H      58  A58         0.0591
   1409  H4'       -6.4100   10.0590   -2.7710 H      58  A58         0.0647
   1410  H3'       -5.4580   12.6970   -2.4910 H      58  A58         0.0655
   1411  H2'       -5.4820   12.9130   -4.7680 H      58  A58         0.0666
   1412 HO2'       -4.7510   10.9040   -5.3170 H      58  A58         0.2101
   1413  H1'       -7.8230   11.8350   -5.0300 H      58  A58         0.0866
   1414   H8       -8.3000   13.8390   -2.1330 H      58  A58         0.1030
   1415  H61       -8.8410   18.7250   -5.4230 H      58  A58         0.1438
   1416  H62       -9.0070   18.1670   -4.0520 H      58  A58         0.1438
   1417   H2       -7.4120   15.5050   -7.9590 H      58  A58         0.1048
   1418    P.3     -2.8680   12.2150   -2.6250 P.3    59  G59         0.2131
   1419  OP1       -1.7110   11.3360   -2.3180 O.2    59  G59        -0.5172
   1420  OP2       -3.2490   13.2930   -1.6770 O.3    59  G59        -0.4373
   1421  O5'       -2.6130   12.8850   -4.0480 O.3    59  G59        -0.3248
   1422  C5'       -2.2600   12.0930   -5.1740 C.3    59  G59         0.0837
   1423  C4'       -2.5000   12.8300   -6.4670 C.3    59  G59         0.1139
   1424  O4'       -3.8300   13.4070   -6.4620 O.3    59  G59        -0.3456
   1425  C3'       -1.5800   14.0100   -6.7390 C.3    59  G59         0.1241
   1426  O3'       -0.3400   13.6100   -7.2960 O.3    59  G59        -0.3187
   1427  C2'       -2.4100   14.8830   -7.6730 C.3    59  G59         0.1292
   1428  O2'       -2.3160   14.4360   -9.0180 O.3    59  G59        -0.3846
   1429  C1'       -3.8300   14.6330   -7.1620 C.3    59  G59         0.1667
   1430   N9       -4.3110   15.6960   -6.2570 N.ar   59  G59        -0.2854
   1431   C8       -4.5720   15.5770   -4.9140 C.ar   59  G59         0.1005
   1432   N7       -5.0020   16.6830   -4.3730 N.ar   59  G59        -0.2286
   1433   C5       -5.0330   17.5890   -5.4230 C.ar   59  G59         0.1721
   1434   C6       -5.4160   18.9550   -5.4440 C.ar   59  G59         0.2803
   1435   O6       -5.8150   19.6570   -4.5090 O.2    59  G59        -0.2654
   1436   N.1      -5.2950   19.5020   -6.7170 N.ar   59  G59        -0.2934
   1437   C.2      -4.8640   18.8210   -7.8280 C.ar   59  G59         0.1950
   1438   N.2      -4.8160   19.5240   -8.9680 N.pl3  59  G59        -0.3289
   1439   N.3      -4.5050   17.5470   -7.8230 N.ar   59  G59        -0.1963
   1440   C4       -4.6130   16.9960   -6.5950 C.ar   59  G59         0.1712
   1441  H5'       -2.7910   11.2820   -5.1690 H      59  G59         0.0591
   1442 H5''       -1.3210   11.8580   -5.1130 H      59  G59         0.0591
   1443  H4'       -2.4320   12.2030   -7.2040 H      59  G59         0.0647
   1444  H3'       -1.4200   14.4890   -5.9110 H      59  G59         0.0655
   1445  H2'       -2.1670   15.8180   -7.5920 H      59  G59         0.0666
   1446 HO2'       -1.5740   14.0570   -9.1290 H      59  G59         0.2101
   1447  H1'       -4.4320   14.5650   -7.9200 H      59  G59         0.0866
   1448   H8       -4.4530   14.7870   -4.4380 H      59  G59         0.1030
   1449   H1       -5.5080   20.3300   -6.8150 H      59  G59         0.1716
   1450  H21       -5.0490   20.3520   -8.9730 H      59  G59         0.1451
   1451  H22       -4.5530   19.1480   -9.6950 H      59  G59         0.1451
   1452    P.3      1.0260   14.3280   -6.8520 P.3    60  C60         0.2131
   1453  OP1        2.1400   13.6210   -7.5340 O.2    60  C60        -0.5172
   1454  OP2        1.0300   14.4550   -5.3710 O.3    60  C60        -0.4373
   1455  O5'        0.9140   15.7890   -7.4770 O.3    60  C60        -0.3248
   1456  C5'        0.7840   15.9740   -8.8780 C.3    60  C60         0.0837
   1457  C4'        0.3290   17.3720   -9.2110 C.3    60  C60         0.1139
   1458  O4'       -1.0110   17.5870   -8.6960 O.3    60  C60        -0.3456
   1459  C3'        1.1470   18.5010   -8.6030 C.3    60  C60         0.1241
   1460  O3'        2.3250   18.7860   -9.3380 O.3    60  C60        -0.3187
   1461  C2'        0.1520   19.6520   -8.5720 C.3    60  C60         0.1293
   1462  O2'        0.0340   20.2620   -9.8480 O.3    60  C60        -0.3846
   1463  C1'       -1.1500   18.9210   -8.2530 C.3    60  C60         0.1680
   1464   N.1      -1.4510   18.9060   -6.8020 N.ar   60  C60        -0.2700
   1465   C.2      -2.0430   20.0260   -6.2110 C.ar   60  C60         0.3522
   1466   O.2      -2.2980   21.0150   -6.9160 O.2    60  C60        -0.2444
   1467   N.3      -2.3210   20.0030   -4.8850 N.ar   60  C60        -0.1783
   1468   C4       -2.0330   18.9200   -4.1590 C.ar   60  C60         0.1230
   1469   N.4      -2.3230   18.9370   -2.8560 N.pl3  60  C60        -0.3430
   1470   C5       -1.4330   17.7670   -4.7370 C.ar   60  C60        -0.0056
   1471   C6       -1.1630   17.8030   -6.0470 C.ar   60  C60         0.0152
   1472  H5'        0.1360   15.3390   -9.2230 H      60  C60         0.0591
   1473 H5''        1.6420   15.8100   -9.3010 H      60  C60         0.0591
   1474  H4'        0.3160   17.4770  -10.1760 H      60  C60         0.0647
   1475  H3'        1.3890   18.2640   -7.6940 H      60  C60         0.0655
   1476  H2'        0.3750   20.2980   -7.8830 H      60  C60         0.0666
   1477 HO2'        0.7490   20.6650  -10.0250 H      60  C60         0.2101
   1478  H1'       -1.8820   19.3430   -8.7290 H      60  C60         0.0867
   1479  H41       -2.1470   18.2520   -2.3670 H      60  C60         0.1437
   1480  H42       -2.6850   19.6340   -2.5050 H      60  C60         0.1437
   1481   H5       -1.2350   17.0170   -4.2230 H      60  C60         0.0666
   1482   H6       -0.7720   17.0630   -6.4520 H      60  C60         0.0812
   1483    P.3      3.6680   19.2430   -8.5800 P.3    61  C61         0.2131
   1484  OP1        4.7910   19.1230   -9.5440 O.2    61  C61        -0.5172
   1485  OP2        3.7350   18.5350   -7.2760 O.3    61  C61        -0.4373
   1486  O5'        3.4400   20.7930   -8.2890 O.3    61  C61        -0.3248
   1487  C5'        3.3420   21.7270   -9.3550 C.3    61  C61         0.0837
   1488  C4'        2.7540   23.0370   -8.8940 C.3    61  C61         0.1139
   1489  O4'        1.4380   22.8100   -8.3270 O.3    61  C61        -0.3456
   1490  C3'        3.5130   23.7600   -7.7910 C.3    61  C61         0.1241
   1491  O3'        4.6180   24.5060   -8.2760 O.3    61  C61        -0.3187
   1492  C2'        2.4310   24.6210   -7.1530 C.3    61  C61         0.1293
   1493  O2'        2.1980   25.7990   -7.9140 O.3    61  C61        -0.3846
   1494  C1'        1.2090   23.7080   -7.2620 C.3    61  C61         0.1680
   1495   N.1       0.9770   22.9300   -6.0230 N.ar   61  C61        -0.2700
   1496   C.2       0.2580   23.5210   -4.9830 C.ar   61  C61         0.3522
   1497   O.2      -0.1620   24.6770   -5.1330 O.2    61  C61        -0.2444
   1498   N.3       0.0360   22.8240   -3.8450 N.ar   61  C61        -0.1783
   1499   C4        0.5040   21.5820   -3.7240 C.ar   61  C61         0.1230
   1500   N.4       0.2620   20.9270   -2.5850 N.pl3  61  C61        -0.3430
   1501   C5        1.2410   20.9530   -4.7690 C.ar   61  C61        -0.0056
   1502   C6        1.4540   21.6570   -5.8880 C.ar   61  C61         0.0152
   1503  H5'        2.7790   21.3550  -10.0510 H      61  C61         0.0591
   1504 H5''        4.2280   21.8880   -9.7170 H      61  C61         0.0591
   1505  H4'        2.6700   23.6300   -9.6570 H      61  C61         0.0647
   1506  H3'        3.8270   23.1110   -7.1420 H      61  C61         0.0655
   1507  H2'        2.6390   24.8270   -6.2280 H      61  C61         0.0666
   1508 HO2'        1.4370   25.7500   -8.2670 H      61  C61         0.2101
   1509  H1'        0.4240   24.2440   -7.4560 H      61  C61         0.0867
   1510  H41        0.5520   20.1240   -2.4810 H      61  C61         0.1437
   1511  H42       -0.1850   21.3080   -1.9570 H      61  C61         0.1437
   1512   H5        1.5650   20.0860   -4.6760 H      61  C61         0.0666
   1513   H6        1.9310   21.2710   -6.5870 H      61  C61         0.0812
   1514    P.3      6.1200   23.9830   -8.0420 P.3    62  U62         0.2131
   1515  OP1        7.0060   24.7260   -8.9740 O.2    62  U62        -0.5172
   1516  OP2        6.1040   22.4980   -8.0710 O.3    62  U62        -0.4373
   1517  O5'        6.4720   24.4470   -6.5590 O.3    62  U62        -0.3248
   1518  C5'        6.4190   25.8220   -6.1950 C.3    62  U62         0.0837
   1519  C4'        6.9350   26.0620   -4.7960 C.3    62  U62         0.1139
   1520  O4'        6.5360   24.9560   -3.9370 O.3    62  U62        -0.3456
   1521  C3'        8.4540   26.1730   -4.6640 C.3    62  U62         0.1241
   1522  O3'        8.7790   27.1210   -3.6470 O.3    62  U62        -0.3187
   1523  C2'        8.8550   24.7750   -4.2050 C.3    62  U62         0.1293
   1524  O2'       10.0860   24.7100   -3.5170 O.3    62  U62        -0.3846
   1525  C1'        7.6790   24.4110   -3.3060 C.3    62  U62         0.1680
   1526   N.1       7.4760   22.9650   -3.1190 N.ar   62  U62        -0.2715
   1527   C.2       7.5790   22.4600   -1.8350 C.ar   62  U62         0.3314
   1528   O.2       7.8250   23.1520   -0.8610 O.2    62  U62        -0.2464
   1529   N.3       7.3810   21.1070   -1.7270 N.ar   62  U62        -0.2749
   1530   C4        7.0980   20.2240   -2.7500 C.ar   62  U62         0.2539
   1531   O4        6.9460   19.0290   -2.4910 O.2    62  U62        -0.2677
   1532   C5        7.0080   20.8190   -4.0490 C.ar   62  U62         0.0192
   1533   C6        7.1970   22.1370   -4.1820 C.ar   62  U62         0.0171
   1534  H5'        5.5000   26.1260   -6.2480 H      62  U62         0.0591
   1535 H5''        6.9560   26.3330   -6.8200 H      62  U62         0.0591
   1536  H4'        6.5350   26.8780   -4.4560 H      62  U62         0.0647
   1537  H3'        8.8680   26.4000   -5.5110 H      62  U62         0.0655
   1538  H2'        8.8770   24.1770   -4.9680 H      62  U62         0.0666
   1539 HO2'        9.9440   24.4780   -2.7220 H      62  U62         0.2101
   1540  H1'        7.7970   24.8320   -2.4390 H      62  U62         0.0867
   1541   H3        7.4390   20.7720   -0.9370 H      62  U62         0.1734
   1542   H5        6.8210   20.2940   -4.7930 H      62  U62         0.0686
   1543   H6        7.1360   22.5110   -5.0320 H      62  U62         0.0813
   1544    P.3      9.1600   28.6350   -4.0310 P.3    63  U63         0.2131
   1545  OP1        9.0990   28.7710   -5.5090 O.2    63  U63        -0.5172
   1546  OP2       10.4100   28.9880   -3.3130 O.3    63  U63        -0.4373
   1547  O5'        7.9760   29.5010   -3.4080 O.3    63  U63        -0.3248
   1548  C5'        6.9170   29.9860   -4.2280 C.3    63  U63         0.0837
   1549  C4'        5.7790   30.5470   -3.4090 C.3    63  U63         0.1139
   1550  O4'        4.9680   29.4530   -2.8970 O.3    63  U63        -0.3456
   1551  C3'        6.1930   31.3750   -2.1940 C.3    63  U63         0.1241
   1552  O3'        5.2570   32.4350   -1.9920 O.3    63  U63        -0.3187
   1553  C2'        6.0880   30.3700   -1.0520 C.3    63  U63         0.1293
   1554  O2'        5.8990   30.9420    0.2250 O.3    63  U63        -0.3846
   1555  C1'        4.8820   29.5450   -1.4880 C.3    63  U63         0.1680
   1556   N.1       4.8410   28.1840   -0.9330 N.ar   63  U63        -0.2715
   1557   C.2       4.1060   27.9800    0.2200 C.ar   63  U63         0.3314
   1558   O.2       3.5090   28.8750    0.7940 O.2    63  U63        -0.2464
   1559   N.3       4.1050   26.6880    0.6830 N.ar   63  U63        -0.2749
   1560   C4        4.7440   25.6030    0.1170 C.ar   63  U63         0.2539
   1561   O4        4.6480   24.4980    0.6530 O.2    63  U63        -0.2677
   1562   C5        5.4790   25.8920   -1.0770 C.ar   63  U63         0.0192
   1563   C6        5.4970   27.1440   -1.5480 C.ar   63  U63         0.0171
   1564  H5'        6.5830   29.2570   -4.7740 H      63  U63         0.0591
   1565 H5''        7.2610   30.6820   -4.8090 H      63  U63         0.0591
   1566  H4'        5.2270   31.0990   -3.9860 H      63  U63         0.0647
   1567  H3'        7.0980   31.7120   -2.2870 H      63  U63         0.0655
   1568  H2'        6.8780   29.8070   -1.0420 H      63  U63         0.0666
   1569 HO2'        6.5820   31.3860    0.4290 H      63  U63         0.2101
   1570  H1'        4.0680   30.0150   -1.2460 H      63  U63         0.0867
   1571   H3        3.6570   26.5380    1.4010 H      63  U63         0.1734
   1572   H5        5.9390   25.2170   -1.5200 H      63  U63         0.0686
   1573   H6        5.9790   27.3190   -2.3240 H      63  U63         0.0813
   1574    P.3      5.5100   33.8830   -2.6430 P.3    64  A64         0.2131
   1575  OP1        6.9400   33.9740   -3.0380 O.2    64  A64        -0.5172
   1576  OP2        4.9400   34.8990   -1.7200 O.3    64  A64        -0.4373
   1577  O5'        4.6190   33.8720   -3.9660 O.3    64  A64        -0.3248
   1578  C5'        5.1870   34.1520   -5.2380 C.3    64  A64         0.0837
   1579  C4'        4.4380   33.4510   -6.3430 C.3    64  A64         0.1139
   1580  O4'        4.4840   32.0170   -6.1240 O.3    64  A64        -0.3456
   1581  C3'        2.9530   33.7720   -6.4480 C.3    64  A64         0.1241
   1582  O3'        2.7020   34.9650   -7.1730 O.3    64  A64        -0.3187
   1583  C2'        2.3850   32.5220   -7.1090 C.3    64  A64         0.1292
   1584  O2'        2.5980   32.5410   -8.5130 O.3    64  A64        -0.3846
   1585  C1'        3.2570   31.4280   -6.4960 C.3    64  A64         0.1667
   1586   N9        2.6540   30.8270   -5.2900 N.ar   64  A64        -0.2855
   1587   C8        1.8790   31.4290   -4.3290 C.ar   64  A64         0.1004
   1588   N7        1.5080   30.6200   -3.3650 N.ar   64  A64        -0.2306
   1589   C5        2.0840   29.4050   -3.7110 C.ar   64  A64         0.1473
   1590   C6        2.0700   28.1390   -3.0970 C.ar   64  A64         0.1472
   1591   N6        1.4280   27.8710   -1.9580 N.pl3  64  A64        -0.3413
   1592   N.1       2.7460   27.1400   -3.7040 N.ar   64  A64        -0.2188
   1593   C.2       3.3900   27.4050   -4.8470 C.ar   64  A64         0.1205
   1594   N.3       3.4790   28.5510   -5.5190 N.ar   64  A64        -0.2159
   1595   C4        2.7950   29.5220   -4.8910 C.ar   64  A64         0.1674
   1596  H5'        6.1110   33.8570   -5.2440 H      64  A64         0.0591
   1597 H5''        5.1590   35.1090   -5.3940 H      64  A64         0.0591
   1598  H4'        4.8650   33.6550   -7.1900 H      64  A64         0.0647
   1599  H3'        2.5820   33.8570   -5.5560 H      64  A64         0.0655
   1600  H2'        1.4490   32.3960   -6.8890 H      64  A64         0.0666
   1601 HO2'        2.1200   33.1420   -8.8540 H      64  A64         0.2101
   1602  H1'        3.4180   30.7350   -7.1560 H      64  A64         0.0866
   1603   H8        1.6350   32.3260   -4.3610 H      64  A64         0.1030
   1604  H61        1.4510   27.0770   -1.6280 H      64  A64         0.1438
   1605  H62        0.9910   28.4920   -1.5540 H      64  A64         0.1438
   1606   H2        3.8420   26.6850   -5.2260 H      64  A64         0.1048
   1607    P.3      1.3180   35.7630   -6.9880 P.3    65  A65         0.2131
   1608  OP1        1.4960   37.1200   -7.5640 O.2    65  A65        -0.5172
   1609  OP2        0.8800   35.6210   -5.5770 O.3    65  A65        -0.4373
   1610  O5'        0.2910   34.9770   -7.9190 O.3    65  A65        -0.3248
   1611  C5'        0.4250   35.0040   -9.3360 C.3    65  A65         0.0837
   1612  C4'       -0.4240   33.9490  -10.0050 C.3    65  A65         0.1139
   1613  O4'       -0.1810   32.6560   -9.3750 O.3    65  A65        -0.3456
   1614  C3'       -1.9360   34.1740   -9.9260 C.3    65  A65         0.1241
   1615  O3'       -2.5500   33.6710  -11.1130 O.3    65  A65        -0.3187
   1616  C2'       -2.3340   33.3020   -8.7430 C.3    65  A65         0.1292
   1617  O2'       -3.6960   32.9310   -8.7090 O.3    65  A65        -0.3846
   1618  C1'       -1.4160   32.1060   -8.9550 C.3    65  A65         0.1667
   1619   N9       -1.2060   31.2620   -7.7760 N.ar   65  A65        -0.2855
   1620   C8       -1.4260   31.5490   -6.4510 C.ar   65  A65         0.1004
   1621   N7       -1.1470   30.5520   -5.6450 N.ar   65  A65        -0.2306
   1622   C5       -0.7230   29.5400   -6.4960 C.ar   65  A65         0.1473
   1623   C6       -0.2860   28.2240   -6.2680 C.ar   65  A65         0.1472
   1624   N6       -0.1990   27.6710   -5.0560 N.pl3  65  A65        -0.3413
   1625   N.1       0.0620   27.4800   -7.3410 N.ar   65  A65        -0.2188
   1626   C.2      -0.0260   28.0290   -8.5580 C.ar   65  A65         0.1205
   1627   N.3      -0.4220   29.2530   -8.8990 N.ar   65  A65        -0.2159
   1628   C4       -0.7600   29.9640   -7.8100 C.ar   65  A65         0.1674
   1629  H5'        1.3540   34.8530   -9.5680 H      65  A65         0.0591
   1630 H5''        0.1560   35.8770   -9.6620 H      65  A65         0.0591
   1631  H4'       -0.1680   33.8920  -10.9380 H      65  A65         0.0647
   1632  H3'       -2.1530   35.1070   -9.7730 H      65  A65         0.0655
   1633  H2'       -2.0970   33.7490   -7.9150 H      65  A65         0.0666
   1634 HO2'       -3.7560   32.1000   -8.8140 H      65  A65         0.2101
   1635  H1'       -1.7740   31.5590   -9.6720 H      65  A65         0.0866
   1636   H8       -1.7360   32.3730   -6.1530 H      65  A65         0.1030
   1637  H61        0.0730   26.8600   -4.9720 H      65  A65         0.1438
   1638  H62       -0.4160   28.1260   -4.3600 H      65  A65         0.1438
   1639   H2        0.2240   27.4790   -9.2640 H      65  A65         0.1048
   1640    P.3     -3.9070   34.3220  -11.6770 P.3    66  A66         0.2131
   1641  OP1       -3.5400   35.2310  -12.7940 O.2    66  A66        -0.5172
   1642  OP2       -4.6880   34.8480  -10.5280 O.3    66  A66        -0.4373
   1643  O5'       -4.6990   33.0860  -12.2990 O.3    66  A66        -0.3248
   1644  C5'       -5.3400   32.1240  -11.4690 C.3    66  A66         0.0837
   1645  C4'       -4.9140   30.7220  -11.8260 C.3    66  A66         0.1139
   1646  O4'       -3.6910   30.3830  -11.1150 O.3    66  A66        -0.3456
   1647  C3'       -5.8700   29.6020  -11.4470 C.3    66  A66         0.1241
   1648  O3'       -6.9670   29.4630  -12.3350 O.3    66  A66        -0.3187
   1649  C2'       -4.9450   28.3970  -11.4180 C.3    66  A66         0.1292
   1650  O2'       -4.6320   27.9580  -12.7320 O.3    66  A66        -0.3846
   1651  C1'       -3.6970   29.0070  -10.7870 C.3    66  A66         0.1667
   1652   N9       -3.7380   28.8650   -9.3200 N.ar   66  A66        -0.2855
   1653   C8       -4.0180   29.8200   -8.3740 C.ar   66  A66         0.1004
   1654   N7       -3.9970   29.3650   -7.1450 N.ar   66  A66        -0.2306
   1655   C5       -3.6950   28.0180   -7.2920 C.ar   66  A66         0.1473
   1656   C6       -3.5280   26.9740   -6.3650 C.ar   66  A66         0.1472
   1657   N6       -3.6480   27.1280   -5.0440 N.pl3  66  A66        -0.3413
   1658   N.1      -3.2310   25.7460   -6.8450 N.ar   66  A66        -0.2188
   1659   C.2      -3.1130   25.5880   -8.1690 C.ar   66  A66         0.1205
   1660   N.3      -3.2460   26.4910   -9.1380 N.ar   66  A66        -0.2159
   1661   C4       -3.5390   27.6980   -8.6270 C.ar   66  A66         0.1674
   1662  H5'       -6.3010   32.2010  -11.5770 H      66  A66         0.0591
   1663 H5''       -5.1100   32.3000  -10.5430 H      66  A66         0.0591
   1664  H4'       -4.7440   30.6800  -12.7800 H      66  A66         0.0647
   1665  H3'       -6.2070   29.7640  -10.5510 H      66  A66         0.0655
   1666  H2'       -5.3070   27.6810  -10.8740 H      66  A66         0.0666
   1667 HO2'       -5.3200   27.6220  -13.0790 H      66  A66         0.2101
   1668  H1'       -2.9020   28.5780  -11.1400 H      66  A66         0.0866
   1669   H8       -4.1960   30.7080   -8.5850 H      66  A66         0.1030
   1670  H61       -3.5370   26.4550   -4.5210 H      66  A66         0.1438
   1671  H62       -3.8370   27.9010   -4.7170 H      66  A66         0.1438
   1672   H2       -2.9080   24.7260   -8.4520 H      66  A66         0.1048
   1673    P.3     -8.4770   29.4820  -11.7760 P.3    67  C67         0.2131
   1674  OP1       -9.3390   30.0760  -12.8280 O.2    67  C67        -0.5172
   1675  OP2       -8.4780   30.0700  -10.4120 O.3    67  C67        -0.4373
   1676  O5'       -8.8760   27.9440  -11.6560 O.3    67  C67        -0.3248
   1677  C5'       -8.4570   27.1640  -10.5470 C.3    67  C67         0.0837
   1678  C4'       -7.4130   26.1550  -10.9500 C.3    67  C67         0.1139
   1679  O4'       -6.5310   25.8910   -9.8290 O.3    67  C67        -0.3456
   1680  C3'       -7.9140   24.7790  -11.3600 C.3    67  C67         0.1241
   1681  O3'       -8.3750   24.7370  -12.7000 O.3    67  C67        -0.3187
   1682  C2'       -6.6960   23.8980  -11.1110 C.3    67  C67         0.1293
   1683  O2'       -5.7640   23.9980  -12.1780 O.3    67  C67        -0.3846
   1684  C1'       -6.0910   24.5510   -9.8670 C.3    67  C67         0.1680
   1685   N.1      -6.5030   23.8810   -8.6130 N.ar   67  C67        -0.2700
   1686   C.2      -5.8340   22.7190   -8.2260 C.ar   67  C67         0.3522
   1687   O.2      -4.9290   22.2840   -8.9520 O.2    67  C67        -0.2444
   1688   N.3      -6.1930   22.0980   -7.0790 N.ar   67  C67        -0.1783
   1689   C4       -7.1740   22.6000   -6.3270 C.ar   67  C67         0.1230
   1690   N.4      -7.4920   21.9560   -5.2020 N.pl3  67  C67        -0.3430
   1691   C5       -7.8690   23.7880   -6.6960 C.ar   67  C67        -0.0056
   1692   C6       -7.5030   24.3910   -7.8350 C.ar   67  C67         0.0152
   1693  H5'       -9.2240   26.6970  -10.1790 H      67  C67         0.0591
   1694 H5''       -8.0870   27.7500   -9.8680 H      67  C67         0.0591
   1695  H4'       -6.8890   26.5250  -11.6770 H      67  C67         0.0647
   1696  H3'       -8.6310   24.5090  -10.7660 H      67  C67         0.0655
   1697  H2'       -6.9510   22.9770  -10.9400 H      67  C67         0.0666
   1698 HO2'       -6.0930   23.6400  -12.8630 H      67  C67         0.2101
   1699  H1'       -5.1240   24.5340   -9.9360 H      67  C67         0.0867
   1700  H41       -8.1200   22.2560   -4.6970 H      67  C67         0.1437
   1701  H42       -7.0690   21.2400   -4.9820 H      67  C67         0.1437
   1702   H5       -8.5520   24.1320   -6.1660 H      67  C67         0.0666
   1703   H6       -7.9390   25.1680   -8.1020 H      67  C67         0.0812
   1704    P.3     -9.5530   23.7290  -13.1280 P.3    68  U68         0.2131
   1705  OP1       -9.9510   24.0590  -14.5200 O.2    68  U68        -0.5172
   1706  OP2      -10.5790   23.7250  -12.0550 O.3    68  U68        -0.4373
   1707  O5'       -8.8550   22.2990  -13.1430 O.3    68  U68        -0.3248
   1708  C5'       -7.9230   21.9510  -14.1550 C.3    68  U68         0.0837
   1709  C4'       -7.3330   20.5850  -13.9120 C.3    68  U68         0.1139
   1710  O4'       -6.6540   20.5640  -12.6290 O.3    68  U68        -0.3456
   1711  C3'       -8.3300   19.4400  -13.8180 C.3    68  U68         0.1241
   1712  O3'       -8.7570   18.9710  -15.0850 O.3    68  U68        -0.3187
   1713  C2'       -7.5680   18.4030  -13.0040 C.3    68  U68         0.1293
   1714  O2'       -6.6370   17.6970  -13.8110 O.3    68  U68        -0.3846
   1715  C1'       -6.7980   19.2910  -12.0280 C.3    68  U68         0.1680
   1716   N.1      -7.5010   19.4480  -10.7340 N.ar   68  U68        -0.2715
   1717   C.2      -7.4700   18.3880   -9.8510 C.ar   68  U68         0.3314
   1718   O.2      -6.8990   17.3400  -10.0970 O.2    68  U68        -0.2464
   1719   N.3      -8.1310   18.5990   -8.6670 N.ar   68  U68        -0.2749
   1720   C4       -8.8070   19.7390   -8.2840 C.ar   68  U68         0.2539
   1721   O4       -9.3550   19.7770   -7.1820 O.2    68  U68        -0.2677
   1722   C5       -8.7950   20.7940   -9.2510 C.ar   68  U68         0.0192
   1723   C6       -8.1570   20.6120  -10.4120 C.ar   68  U68         0.0171
   1724  H5'       -7.2080   22.6070  -14.1670 H      68  U68         0.0591
   1725 H5''       -8.3720   21.9550  -15.0140 H      68  U68         0.0591
   1726  H4'       -6.6920   20.3890  -14.6120 H      68  U68         0.0647
   1727  H3'       -9.1030   19.7340  -13.3110 H      68  U68         0.0655
   1728  H2'       -8.1700   17.8020  -12.5380 H      68  U68         0.0666
   1729 HO2'       -7.0570   17.2080  -14.3490 H      68  U68         0.2101
   1730  H1'       -5.9200   18.9090  -11.8720 H      68  U68         0.0867
   1731   H3       -8.1250   17.9490   -8.1040 H      68  U68         0.1734
   1732   H5       -9.2270   21.5990   -9.0730 H      68  U68         0.0686
   1733   H6       -8.1550   21.3080  -11.0300 H      68  U68         0.0813
   1734    P.3    -10.2410   18.3810  -15.2680 P.3    69  C69         0.2131
   1735  OP1      -10.4930   18.2690  -16.7280 O.2    69  C69        -0.5172
   1736  OP2      -11.1730   19.1700  -14.4220 O.3    69  C69        -0.4373
   1737  O5'      -10.1500   16.9130  -14.6550 O.3    69  C69        -0.3248
   1738  C5'       -9.3020   15.9370  -15.2400 C.3    69  C69         0.0837
   1739  C4'       -8.9670   14.8280  -14.2740 C.3    69  C69         0.1139
   1740  O4'       -8.4610   15.3830  -13.0310 O.3    69  C69        -0.3456
   1741  C3'      -10.1220   13.9440  -13.8330 C.3    69  C69         0.1241
   1742  O3'      -10.4620   12.9610  -14.7960 O.3    69  C69        -0.3187
   1743  C2'       -9.6100   13.3650  -12.5200 C.3    69  C69         0.1293
   1744  O2'       -8.7230   12.2780  -12.7470 O.3    69  C69        -0.3846
   1745  C1'       -8.8180   14.5440  -11.9510 C.3    69  C69         0.1680
   1746   N.1      -9.5980   15.3290  -10.9650 N.ar   69  C69        -0.2700
   1747   C.2      -9.7510   14.8170   -9.6740 C.ar   69  C69         0.3522
   1748   O.2      -9.2380   13.7220   -9.3980 O.2    69  C69        -0.2444
   1749   N.3     -10.4550   15.5230   -8.7580 N.ar   69  C69        -0.1783
   1750   C4      -10.9940   16.6970   -9.0910 C.ar   69  C69         0.1230
   1751   N.4     -11.6790   17.3600   -8.1570 N.pl3  69  C69        -0.3430
   1752   C5      -10.8530   17.2450  -10.3980 C.ar   69  C69        -0.0056
   1753   C6      -10.1550   16.5340  -11.2940 C.ar   69  C69         0.0152
   1754  H5'       -8.4800   16.3640  -15.5270 H      69  C69         0.0591
   1755 H5''       -9.7470   15.5570  -16.0140 H      69  C69         0.0591
   1756  H4'       -8.2800   14.2690  -14.6680 H      69  C69         0.0647
   1757  H3'      -10.8980   14.4980  -13.6560 H      69  C69         0.0655
   1758  H2'      -10.3410   13.1140  -11.9340 H      69  C69         0.0666
   1759 HO2'       -7.9470   12.5070  -12.5220 H      69  C69         0.2101
   1760  H1'       -8.0120   14.2110  -11.5270 H      69  C69         0.0867
   1761  H41      -12.0370   18.1190   -8.3440 H      69  C69         0.1437
   1762  H42      -11.7630   17.0280   -7.3680 H      69  C69         0.1437
   1763   H5      -11.2320   18.0640  -10.6220 H      69  C69         0.0666
   1764   H6      -10.0450   16.8680  -12.1550 H      69  C69         0.0812
   1765    P.3    -11.9550   12.3710  -14.8620 P.3    70  U70         0.2131
   1766  OP1      -12.0460   11.5150  -16.0730 O.2    70  U70        -0.5172
   1767  OP2      -12.9150   13.4870  -14.6840 O.3    70  U70        -0.4373
   1768  O5'      -12.0530   11.4290  -13.5800 O.3    70  U70        -0.3248
   1769  C5'      -11.1710   10.3290  -13.4160 C.3    70  U70         0.0837
   1770  C4'      -11.3600    9.6630  -12.0770 C.3    70  U70         0.1139
   1771  O4'      -10.9580   10.5640  -11.0130 O.3    70  U70        -0.3456
   1772  C3'      -12.7890    9.2840  -11.7210 C.3    70  U70         0.1241
   1773  O3'      -13.1970    8.0660  -12.3170 O.3    70  U70        -0.3187
   1774  C2'      -12.7560    9.2370  -10.1990 C.3    70  U70         0.1293
   1775  O2'      -12.2240    8.0040   -9.7320 O.3    70  U70        -0.3846
   1776  C1'      -11.7720   10.3620   -9.8760 C.3    70  U70         0.1680
   1777   N.1     -12.4480   11.6370   -9.5410 N.ar   70  U70        -0.2715
   1778   C.2     -13.0110   11.7660   -8.2870 C.ar   70  U70         0.3314
   1779   O.2     -12.9910   10.8720   -7.4550 O.2    70  U70        -0.2464
   1780   N.3     -13.6050   12.9800   -8.0420 N.ar   70  U70        -0.2749
   1781   C4      -13.6860   14.0560   -8.9030 C.ar   70  U70         0.2539
   1782   O4      -14.2550   15.0860   -8.5370 O.2    70  U70        -0.2677
   1783   C5      -13.0750   13.8490  -10.1780 C.ar   70  U70         0.0192
   1784   C6      -12.4930   12.6750  -10.4400 C.ar   70  U70         0.0171
   1785  H5'      -10.2560   10.6440  -13.4860 H      70  U70         0.0591
   1786 H5''      -11.3380    9.6820  -14.1180 H      70  U70         0.0591
   1787  H4'      -10.8060    8.8670  -12.0410 H      70  U70         0.0647
   1788  H3'      -13.3870    9.9930  -12.0050 H      70  U70         0.0655
   1789  H2'      -13.6320    9.4150   -9.8200 H      70  U70         0.0666
   1790 HO2'      -11.4780    8.1460   -9.3740 H      70  U70         0.2101
   1791  H1'      -11.2140   10.0920   -9.1300 H      70  U70         0.0867
   1792   H3      -13.9660   13.0800   -7.2680 H      70  U70         0.1734
   1793   H5      -13.0850   14.5220  -10.8200 H      70  U70         0.0686
   1794   H6      -12.0970   12.5550  -11.2730 H      70  U70         0.0813
   1795    P.3    -14.7270    7.8500  -12.7540 P.3    71  U71         0.2131
   1796  OP1      -14.8080    6.5540  -13.4760 O.2    71  U71        -0.5172
   1797  OP2      -15.2080    9.0980  -13.4010 O.3    71  U71        -0.4373
   1798  O5'      -15.4990    7.6880  -11.3740 O.3    71  U71        -0.3248
   1799  C5'      -15.1440    6.6600  -10.4650 C.3    71  U71         0.0837
   1800  C4'      -15.8330    6.8330   -9.1380 C.3    71  U71         0.1139
   1801  O4'      -15.2820    7.9790   -8.4380 O.3    71  U71        -0.3456
   1802  C3'      -17.3230    7.1240   -9.1920 C.3    71  U71         0.1241
   1803  O3'      -18.1080    5.9690   -9.4370 O.3    71  U71        -0.3187
   1804  C2'      -17.5700    7.7790   -7.8400 C.3    71  U71         0.1293
   1805  O2'      -17.6090    6.8110   -6.8010 O.3    71  U71        -0.3846
   1806  C1'      -16.2950    8.6090   -7.6790 C.3    71  U71         0.1680
   1807   N.1     -16.4490   10.0030   -8.1610 N.ar   71  U71        -0.2715
   1808   C.2     -16.9550   10.9370   -7.2780 C.ar   71  U71         0.3314
   1809   O.2     -17.2890   10.6580   -6.1400 O.2    71  U71        -0.2464
   1810   N.3     -17.0600   12.2120   -7.7750 N.ar   71  U71        -0.2749
   1811   C4      -16.7160   12.6440   -9.0400 C.ar   71  U71         0.2539
   1812   O4      -16.8710   13.8310   -9.3370 O.2    71  U71        -0.2677
   1813   C5      -16.1950   11.6240   -9.8970 C.ar   71  U71         0.0192
   1814   C6      -16.0830   10.3720   -9.4350 C.ar   71  U71         0.0171
   1815  H5'      -14.1840    6.6760  -10.3280 H      71  U71         0.0591
   1816 H5''      -15.3950    5.8020  -10.8430 H      71  U71         0.0591
   1817  H4'      -15.6880    6.0380   -8.6020 H      71  U71         0.0647
   1818  H3'      -17.4920    7.7740   -9.8920 H      71  U71         0.0655
   1819  H2'      -18.3630    8.3380   -7.8480 H      71  U71         0.0666
   1820 HO2'      -16.9260    6.8980   -6.3200 H      71  U71         0.2101
   1821  H1'      -16.0350    8.6190   -6.7440 H      71  U71         0.0867
   1822   H3      -17.3770   12.8060   -7.2410 H      71  U71         0.1734
   1823   H5      -15.9370   11.8280  -10.7670 H      71  U71         0.0686
   1824   H6      -15.7400    9.7200  -10.0030 H      71  U71         0.0813
   1825    P.3    -19.5060    6.1010  -10.2180 P.3    72  G72         0.2131
   1826  OP1      -19.9920    4.7370  -10.5470 O.3    72  G72        -0.4373
   1827  OP2      -19.3600    7.1070  -11.3000 O.2    72  G72        -0.5172
   1828  O5'      -20.4820    6.7010   -9.1180 O.3    72  G72        -0.3248
   1829  C5'      -20.7340    5.9890   -7.9170 C.3    72  G72         0.0837
   1830  C4'      -21.4500    6.8520   -6.9160 C.3    72  G72         0.1139
   1831  O4'      -20.6270    7.9850   -6.5350 O.3    72  G72        -0.3456
   1832  C3'      -22.7300    7.4800   -7.4240 C.3    72  G72         0.1241
   1833  O3'      -23.8130    6.5690   -7.4040 O.3    72  G72        -0.3187
   1834  C2'      -22.8980    8.6870   -6.5090 C.3    72  G72         0.1292
   1835  O2'      -23.4580    8.3100   -5.2600 O.3    72  G72        -0.3846
   1836  C1'      -21.4430    9.1140   -6.2930 C.3    72  G72         0.1667
   1837   N9      -21.0270   10.1960   -7.2080 N.ar   72  G72        -0.2854
   1838   C8      -20.4180   10.0350   -8.4290 C.ar   72  G72         0.1005
   1839   N7      -20.1530   11.1610   -9.0320 N.ar   72  G72        -0.2286
   1840   C5      -20.6160   12.1320   -8.1570 C.ar   72  G72         0.1721
   1841   C6      -20.6020   13.5470   -8.2780 C.ar   72  G72         0.2803
   1842   O6      -20.1650   14.2370   -9.2060 O.2    72  G72        -0.2654
   1843   N.1     -21.1690   14.1610   -7.1680 N.ar   72  G72        -0.2934
   1844   C.2     -21.6850   13.4970   -6.0830 C.ar   72  G72         0.1950
   1845   N.2     -22.1890   14.2730   -5.1140 N.pl3  72  G72        -0.3289
   1846   N.3     -21.7050   12.1780   -5.9570 N.ar   72  G72        -0.1963
   1847   C4      -21.1570   11.5580   -7.0240 C.ar   72  G72         0.1712
   1848  H5'      -19.8900    5.6960   -7.5380 H      72  G72         0.0591
   1849 H5''      -21.2800    5.2120   -8.1160 H      72  G72         0.0591
   1850  H4'      -21.6480    6.3240   -6.1260 H      72  G72         0.0647
   1851  H3'      -22.5920    7.7890   -8.3330 H      72  G72         0.0655
   1852  H2'      -23.4140    9.3890   -6.9360 H      72  G72         0.0666
   1853 HO2'      -24.0360    7.7150   -5.3880 H      72  G72         0.2101
   1854  H1'      -21.3260    9.4050   -5.3750 H      72  G72         0.0866
   1855   H8      -20.2120    9.2030   -8.7900 H      72  G72         0.1030
   1856   H1      -21.2000   15.0200   -7.1610 H      72  G72         0.1716
   1857  H21      -22.1750   15.1290   -5.1970 H      72  G72         0.1451
   1858  H22      -22.5270   13.9150   -4.4080 H      72  G72         0.1451
   1859    P.3    -25.0530    6.7740   -8.3970 P.3    73  A73         0.2131
   1860  OP1      -25.9350    5.5820   -8.3090 O.3    73  A73        -0.4373
   1861  OP2      -24.5290    7.1960   -9.7220 O.2    73  A73        -0.5172
   1862  O5'      -25.8040    8.0140   -7.7490 O.3    73  A73        -0.3248
   1863  C5'      -27.0820    8.4220   -8.1980 C.3    73  A73         0.0837
   1864  C4'      -27.5160    9.6660   -7.4730 C.3    73  A73         0.1139
   1865  O4'      -26.5770   10.7400   -7.7470 O.3    73  A73        -0.3456
   1866  C3'      -28.8620   10.2370   -7.8790 C.3    73  A73         0.1241
   1867  O3'      -29.9500    9.5730   -7.2620 O.3    73  A73        -0.3187
   1868  C2'      -28.7260   11.7020   -7.4870 C.3    73  A73         0.1292
   1869  O2'      -28.8940   11.8780   -6.0880 O.3    73  A73        -0.3846
   1870  C1'      -27.2640   11.9690   -7.8390 C.3    73  A73         0.1667
   1871   N9      -27.1030   12.4860   -9.2100 N.ar   73  A73        -0.2855
   1872   C8      -26.6510   11.7940  -10.3050 C.ar   73  A73         0.1004
   1873   N7      -26.6030   12.5100  -11.4010 N.ar   73  A73        -0.2306
   1874   C5      -27.0530   13.7600  -11.0010 C.ar   73  A73         0.1473
   1875   C6      -27.2370   14.9640  -11.7030 C.ar   73  A73         0.1472
   1876   N6      -26.9780   15.1060  -13.0050 N.pl3  73  A73        -0.3413
   1877   N.1     -27.7010   16.0280  -11.0120 N.ar   73  A73        -0.2188
   1878   C.2     -27.9610   15.8810   -9.7040 C.ar   73  A73         0.1205
   1879   N.3     -27.8280   14.8010   -8.9350 N.ar   73  A73        -0.2159
   1880   C4      -27.3650   13.7610   -9.6520 C.ar   73  A73         0.1674
   1881  H5'      -27.7220    7.7130   -8.0300 H      73  A73         0.0591
   1882 H5''      -27.0450    8.6010   -9.1500 H      73  A73         0.0591
   1883  H4'      -27.5230    9.4890   -6.5190 H      73  A73         0.0647
   1884  H3'      -28.9570   10.1740   -8.8430 H      73  A73         0.0655
   1885  H2'      -29.3260   12.2680   -7.9990 H      73  A73         0.0666
   1886 HO2'      -29.6970   11.7330   -5.8880 H      73  A73         0.2101
   1887  H1'      -26.8870   12.6000   -7.2060 H      73  A73         0.0866
   1888   H8      -26.4010   10.8990  -10.2720 H      73  A73         0.1030
   1889  H61      -27.1070   15.8640  -13.3890 H      73  A73         0.1438
   1890  H62      -26.6820   14.4390  -13.4600 H      73  A73         0.1438
   1891   H2      -28.2780   16.6410   -9.2730 H      73  A73         0.1048
   1892    P.3    -31.3210    9.3460   -8.0680 P.3    74  U74         0.2131
   1893  OP1      -32.2240    8.5510   -7.1990 O.3    74  U74        -0.4373
   1894  OP2      -31.0000    8.8570   -9.4330 O.2    74  U74        -0.5172
   1895  O5'      -31.9280   10.8130   -8.1950 O.3    74  U74        -0.3248
   1896  C5'      -32.2490   11.5620   -7.0340 C.3    74  U74         0.0837
   1897  C4'      -32.4660   13.0190   -7.3520 C.3    74  U74         0.1139
   1898  O4'      -31.2530   13.5980   -7.9020 O.3    74  U74        -0.3456
   1899  C3'      -33.5210   13.3160   -8.4020 C.3    74  U74         0.1241
   1900  O3'      -34.8390   13.2640   -7.8900 O.3    74  U74        -0.3187
   1901  C2'      -33.1040   14.6900   -8.9040 C.3    74  U74         0.1293
   1902  O2'      -33.4930   15.7100   -7.9950 O.3    74  U74        -0.3846
   1903  C1'      -31.5830   14.5680   -8.8750 C.3    74  U74         0.1680
   1904   N.1     -31.0310   14.1330  -10.1800 N.ar   74  U74        -0.2715
   1905   C.2     -30.9560   15.0650  -11.1950 C.ar   74  U74         0.3314
   1906   O.2     -31.3270   16.2190  -11.0640 O.2    74  U74        -0.2464
   1907   N.3     -30.4320   14.5940  -12.3730 N.ar   74  U74        -0.2749
   1908   C4      -29.9840   13.3150  -12.6320 C.ar   74  U74         0.2539
   1909   O4      -29.5360   13.0440  -13.7480 O.2    74  U74        -0.2677
   1910   C5      -30.0930   12.4090  -11.5310 C.ar   74  U74         0.0192
   1911   C6      -30.6010   12.8430  -10.3730 C.ar   74  U74         0.0171
   1912  H5'      -31.5220   11.4830   -6.3970 H      74  U74         0.0591
   1913 H5''      -33.0570   11.2010   -6.6380 H      74  U74         0.0591
   1914  H4'      -32.6960   13.4870   -6.5350 H      74  U74         0.0647
   1915  H3'      -33.4370   12.6750   -9.1260 H      74  U74         0.0655
   1916  H2'      -33.4320   14.8600   -9.8010 H      74  U74         0.0666
   1917 HO2'      -34.3290   15.7820   -8.0060 H      74  U74         0.2101
   1918  H1'      -31.1930   15.4210   -8.6270 H      74  U74         0.0867
   1919   H3      -30.3770   15.1580  -13.0200 H      74  U74         0.1734
   1920   H5      -29.8140   11.5260  -11.6200 H      74  U74         0.0686
   1921   H6      -30.6660   12.2440   -9.6650 H      74  U74         0.0813
   1922    P.3    -36.0190   12.6320   -8.7760 P.3    75  U75         0.2131
   1923  OP1      -37.2400   12.5860   -7.9330 O.3    75  U75        -0.4373
   1924  OP2      -35.5180   11.3850   -9.4100 O.2    75  U75        -0.5172
   1925  O5'      -36.2510   13.7150   -9.9200 O.3    75  U75        -0.3248
   1926  C5'      -36.5910   15.0530   -9.5910 C.3    75  U75         0.0837
   1927  C4'      -36.5230   15.9560  -10.7950 C.3    75  U75         0.1139
   1928  O4'      -35.1480   16.0820  -11.2450 O.3    75  U75        -0.3456
   1929  C3'      -37.2710   15.4710  -12.0250 C.3    75  U75         0.1241
   1930  O3'      -38.6610   15.7330  -11.9620 O.3    75  U75        -0.3187
   1931  C2'      -36.5550   16.1990  -13.1540 C.3    75  U75         0.1293
   1932  O2'      -36.9930   17.5460  -13.2570 O.3    75  U75        -0.3846
   1933  C1'      -35.1100   16.1820  -12.6540 C.3    75  U75         0.1680
   1934   N.1     -34.3520   15.0280  -13.1890 N.ar   75  U75        -0.2715
   1935   C.2     -33.8190   15.1410  -14.4560 C.ar   75  U75         0.3314
   1936   O.2     -33.9470   16.1430  -15.1370 O.2    75  U75        -0.2464
   1937   N.3     -33.1280   14.0370  -14.8960 N.ar   75  U75        -0.2749
   1938   C4      -32.9240   12.8580  -14.2090 C.ar   75  U75         0.2539
   1939   O4      -32.2780   11.9510  -14.7380 O.2    75  U75        -0.2677
   1940   C5      -33.5080   12.8160  -12.9030 C.ar   75  U75         0.0192
   1941   C6      -34.1850   13.8790  -12.4520 C.ar   75  U75         0.0171
   1942  H5'      -35.9760   15.3790   -8.9150 H      75  U75         0.0591
   1943 H5''      -37.4930   15.0710   -9.2330 H      75  U75         0.0591
   1944  H4'      -36.8560   16.8330  -10.5490 H      75  U75         0.0647
   1945  H3'      -37.1320   14.5160  -12.1250 H      75  U75         0.0655
   1946  H2'      -36.6440   15.7260  -13.9960 H      75  U75         0.0666
   1947 HO2'      -36.3680   18.0550  -13.0210 H      75  U75         0.2101
   1948  H1'      -34.6680   17.0070  -12.9090 H      75  U75         0.0867
   1949   H3      -32.7860   14.0870  -15.6830 H      75  U75         0.1734
   1950   H5      -33.4170   12.0580  -12.3730 H      75  U75         0.0686
   1951   H6      -34.5590   13.8390  -11.6020 H      75  U75         0.0813
   1952    P.3    -39.7060   14.7220  -12.6460 P.3    76  A76         0.2131
   1953  OP1      -41.0660   15.0780  -12.1650 O.3    76  A76        -0.4373
   1954  OP2      -39.2030   13.3350  -12.4750 O.2    76  A76        -0.5172
   1955  O5'      -39.6270   15.0900  -14.1940 O.3    76  A76        -0.3248
   1956  C5'      -39.9150   16.4080  -14.6380 C.3    76  A76         0.0837
   1957  C4'      -39.6060   16.5810  -16.1040 C.3    76  A76         0.1139
   1958  O4'      -38.1690   16.5700  -16.3150 O.3    76  A76        -0.3456
   1959  C3'      -40.1210   15.4900  -17.0290 C.3    76  A76         0.1241
   1960  O3'      -41.4950   15.6340  -17.3420 O.3    76  A76        -0.3187
   1961  C2'      -39.1980   15.6180  -18.2320 C.3    76  A76         0.1292
   1962  O2'      -39.5950   16.6940  -19.0710 O.3    76  A76        -0.3846
   1963  C1'      -37.8710   15.9710  -17.5590 C.3    76  A76         0.1667
   1964   N9      -37.0320   14.7790  -17.3230 N.ar   76  A76        -0.2855
   1965   C8      -36.9680   14.0030  -16.1920 C.ar   76  A76         0.1004
   1966   N7      -36.1250   13.0030  -16.2830 N.ar   76  A76        -0.2306
   1967   C5      -35.5990   13.1260  -17.5600 C.ar   76  A76         0.1473
   1968   C6      -34.6480   12.3720  -18.2710 C.ar   76  A76         0.1472
   1969   N6      -34.0320   11.2970  -17.7750 N.pl3  76  A76        -0.3413
   1970   N.1     -34.3460   12.7630  -19.5290 N.ar   76  A76        -0.2188
   1971   C.2     -34.9630   13.8400  -20.0280 C.ar   76  A76         0.1205
   1972   N.3     -35.8710   14.6300  -19.4600 N.ar   76  A76        -0.2159
   1973   C4      -36.1500   14.2140  -18.2120 C.ar   76  A76         0.1674
   1974  H5'      -39.3850   17.0370  -14.1260 H      76  A76         0.0591
   1975 H5''      -40.8560   16.5930  -14.4900 H      76  A76         0.0591
   1976  H4'      -39.9590   17.4350  -16.4000 H      76  A76         0.0647
   1977  H3'      -39.9790   14.6260  -16.6100 H      76  A76         0.0655
   1978  H2'      -39.1360   14.7830  -18.7230 H      76  A76         0.0666
   1979 HO2'      -39.0200   17.3030  -19.0250 H      76  A76         0.2101
   1980  H1'      -37.3850   16.6020  -18.1140 H      76  A76         0.0866
   1981   H8      -37.4750   14.1720  -15.4310 H      76  A76         0.1030
   1982  H61      -33.4580   10.8720  -18.2530 H      76  A76         0.1438
   1983  H62      -34.2080   11.0300  -16.9770 H      76  A76         0.1438
   1984   H2      -34.7220   14.0700  -20.8970 H      76  A76         0.1048
   1985    P.3    -42.4450   14.3400  -17.4320 P.3    77  U77         0.2131
   1986  OP1      -43.8530   14.8140  -17.4480 O.2    77  U77        -0.5172
   1987  OP2      -42.0090   13.3600  -16.4060 O.3    77  U77        -0.4373
   1988  O5'      -42.1260   13.7300  -18.8680 O.3    77  U77        -0.3248
   1989  C5'      -42.4160   14.4640  -20.0480 C.3    77  U77         0.0837
   1990  C4'      -41.8760   13.7780  -21.2760 C.3    77  U77         0.1139
   1991  O4'      -40.4250   13.8570  -21.2920 O.3    77  U77        -0.3456
   1992  C3'      -42.1610   12.2890  -21.3880 C.3    77  U77         0.1241
   1993  O3'      -43.4700   12.0010  -21.8470 O.3    77  U77        -0.3187
   1994  C2'      -41.0600   11.8170  -22.3270 C.3    77  U77         0.1293
   1995  O2'      -41.3680   12.1280  -23.6790 O.3    77  U77        -0.3846
   1996  C1'      -39.8870   12.6840  -21.8680 C.3    77  U77         0.1680
   1997   N.1     -39.0590   11.9930  -20.8530 N.ar   77  U77        -0.2715
   1998   C.2     -38.0560   11.1580  -21.3030 C.ar   77  U77         0.3314
   1999   O.2     -37.8250   10.9790  -22.4850 O.2    77  U77        -0.2464
   2000   N.3     -37.3270   10.5430  -20.3170 N.ar   77  U77        -0.2749
   2001   C4      -37.4990   10.6720  -18.9550 C.ar   77  U77         0.2539
   2002   O4      -36.7580   10.0480  -18.1930 O.2    77  U77        -0.2677
   2003   C5      -38.5600   11.5510  -18.5640 C.ar   77  U77         0.0192
   2004   C6      -39.2860   12.1620  -19.5070 C.ar   77  U77         0.0171
   2005  H5'      -42.0190   15.3460  -19.9770 H      77  U77         0.0591
   2006 H5''      -43.3780   14.5570  -20.1340 H      77  U77         0.0591
   2007  H4'      -42.2230   14.2240  -22.0630 H      77  U77         0.0647
   2008  H3'      -42.0330   11.8770  -20.5190 H      77  U77         0.0655
   2009  H2'      -40.8710   10.8730  -22.2090 H      77  U77         0.0666
   2010 HO2'      -40.8420   12.7250  -23.9490 H      77  U77         0.2101
   2011  H1'      -39.3370   12.9190  -22.6320 H      77  U77         0.0867
   2012   H3      -36.6950   10.0210  -20.5760 H      77  U77         0.1734
   2013   H5      -38.7440   11.6940  -17.6630 H      77  U77         0.0686
   2014   H6      -39.9720   12.7310  -19.2410 H      77  U77         0.0813
   2015    P.3    -44.1860   10.6260  -21.4230 P.3    78  C78         0.2131
   2016  OP1      -45.6010   10.6900  -21.8710 O.2    78  C78        -0.5172
   2017  OP2      -43.8800   10.3620  -19.9940 O.3    78  C78        -0.4373
   2018  O5'      -43.4400    9.5210  -22.2940 O.3    78  C78        -0.3248
   2019  C5'      -43.4500    9.5900  -23.7120 C.3    78  C78         0.0837
   2020  C4'      -42.4890    8.6040  -24.3260 C.3    78  C78         0.1139
   2021  O4'      -41.1230    8.9580  -23.9810 O.3    78  C78        -0.3456
   2022  C3'      -42.6170    7.1620  -23.8640 C.3    78  C78         0.1241
   2023  O3'      -43.6820    6.4660  -24.4870 O.3    78  C78        -0.3187
   2024  C2'      -41.2400    6.5950  -24.1830 C.3    78  C78         0.1293
   2025  O2'      -41.1150    6.2940  -25.5660 O.3    78  C78        -0.3846
   2026  C1'      -40.3430    7.7870  -23.8470 C.3    78  C78         0.1680
   2027   N.1     -39.8260    7.7150  -22.4620 N.ar   78  C78        -0.2700
   2028   C.2     -38.6510    6.9980  -22.2150 C.ar   78  C78         0.3522
   2029   O.2     -38.0720    6.4470  -23.1630 O.2    78  C78        -0.2444
   2030   N.3     -38.1740    6.9260  -20.9520 N.ar   78  C78        -0.1783
   2031   C4      -38.8230    7.5310  -19.9570 C.ar   78  C78         0.1230
   2032   N.4     -38.3170    7.4320  -18.7260 N.pl3  78  C78        -0.3430
   2033   C5      -40.0230    8.2650  -20.1800 C.ar   78  C78        -0.0056
   2034   C6      -40.4850    8.3280  -21.4340 C.ar   78  C78         0.0152
   2035  H5'      -43.2020   10.4860  -23.9860 H      78  C78         0.0591
   2036 H5''      -44.3460    9.3980  -24.0310 H      78  C78         0.0591
   2037  H4'      -42.5850    8.6330  -25.2910 H      78  C78         0.0647
   2038  H3'      -42.7500    7.1480  -22.9030 H      78  C78         0.0655
   2039  H2'      -41.0340    5.8280  -23.6270 H      78  C78         0.0666
   2040 HO2'      -40.5730    6.8330  -25.9150 H      78  C78         0.2101
   2041  H1'      -39.6000    7.8190  -24.4700 H      78  C78         0.0867
   2042  H41      -38.7150    7.8130  -18.0660 H      78  C78         0.1437
   2043  H42      -37.5920    6.9880  -18.5940 H      78  C78         0.1437
   2044   H5      -40.4700    8.6840  -19.4800 H      78  C78         0.0666
   2045   H6      -41.2660    8.8010  -21.6110 H      78  C78         0.0812
   2046    P.3    -44.3200    5.1720  -23.7780 P.3    79  U79         0.2131
   2047  OP1      -45.4840    4.7330  -24.5900 O.2    79  U79        -0.5172
   2048  OP2      -44.5010    5.4760  -22.3360 O.3    79  U79        -0.4373
   2049  O5'      -43.1820    4.0650  -23.9140 O.3    79  U79        -0.3248
   2050  C5'      -42.7660    3.6150  -25.1930 C.3    79  U79         0.0837
   2051  C4'      -41.5600    2.7130  -25.1120 C.3    79  U79         0.1139
   2052  O4'      -40.4360    3.4220  -24.5290 O.3    79  U79        -0.3456
   2053  C3'      -41.6960    1.4780  -24.2380 C.3    79  U79         0.1241
   2054  O3'      -42.4260    0.4350  -24.8600 O.3    79  U79        -0.3187
   2055  C2'      -40.2420    1.1240  -23.9500 C.3    79  U79         0.1293
   2056  O2'      -39.6510    0.4410  -25.0450 O.3    79  U79        -0.3846
   2057  C1'      -39.6070    2.5110  -23.8350 C.3    79  U79         0.1680
   2058   N.1     -39.4630    2.9500  -22.4290 N.ar   79  U79        -0.2715
   2059   C.2     -38.4320    2.3880  -21.7040 C.ar   79  U79         0.3314
   2060   O.2     -37.6680    1.5650  -22.1790 O.2    79  U79        -0.2464
   2061   N.3     -38.3290    2.8220  -20.4060 N.ar   79  U79        -0.2749
   2062   C4      -39.1380    3.7430  -19.7740 C.ar   79  U79         0.2539
   2063   O4      -38.9160    4.0310  -18.5960 O.2    79  U79        -0.2677
   2064   C5      -40.1840    4.2830  -20.5890 C.ar   79  U79         0.0192
   2065   C6      -40.3040    3.8750  -21.8580 C.ar   79  U79         0.0171
   2066  H5'      -42.5480    4.3840  -25.7420 H      79  U79         0.0591
   2067 H5''      -43.4960    3.1280  -25.6080 H      79  U79         0.0591
   2068  H4'      -41.3200    2.4340  -26.0090 H      79  U79         0.0647
   2069  H3'      -42.1340    1.7230  -23.4080 H      79  U79         0.0655
   2070  H2'      -40.1540    0.6240  -23.1230 H      79  U79         0.0666
   2071 HO2'      -39.9970   -0.3210  -25.1110 H      79  U79         0.2101
   2072  H1'      -38.7320    2.4950  -24.2540 H      79  U79         0.0867
   2073   H3      -37.6930    2.4830  -19.9370 H      79  U79         0.1734
   2074   H5      -40.7740    4.9110  -20.2400 H      79  U79         0.0686
   2075   H6      -40.9870    4.2340  -22.3770 H      79  U79         0.0813
   2076    P.3    -43.4220   -0.4820  -23.9920 P.3    80  U80         0.2131
   2077  OP1      -44.2440   -1.2860  -24.9330 O.2    80  U80        -0.5172
   2078  OP2      -44.0910    0.3770  -22.9820 O.3    80  U80        -0.4373
   2079  O5'      -42.4470   -1.4780  -23.2210 O.3    80  U80        -0.3248
   2080  C5'      -41.6420   -2.4000  -23.9390 C.3    80  U80         0.0837
   2081  C4'      -40.6100   -3.0470  -23.0510 C.3    80  U80         0.1139
   2082  O4'      -39.6660   -2.0520  -22.5730 O.3    80  U80        -0.3456
   2083  C3'      -41.1330   -3.6900  -21.7770 C.3    80  U80         0.1241
   2084  O3'      -41.7180   -4.9610  -21.9890 O.3    80  U80        -0.3187
   2085  C2'      -39.8920   -3.7190  -20.8970 C.3    80  U80         0.1293
   2086  O2'      -39.0270   -4.7850  -21.2620 O.3    80  U80        -0.3846
   2087  C1'      -39.2320   -2.3910  -21.2700 C.3    80  U80         0.1680
   2088   N.1     -39.6190   -1.3060  -20.3400 N.ar   80  U80        -0.2715
   2089   C.2     -38.9260   -1.2140  -19.1500 C.ar   80  U80         0.3314
   2090   O.2     -38.0220   -1.9750  -18.8540 O.2    80  U80        -0.2464
   2091   N.3     -39.3290   -0.1950  -18.3240 N.ar   80  U80        -0.2749
   2092   C4      -40.3360    0.7180  -18.5600 C.ar   80  U80         0.2539
   2093   O4      -40.5800    1.5810  -17.7140 O.2    80  U80        -0.2677
   2094   C5      -41.0110    0.5560  -19.8130 C.ar   80  U80         0.0192
   2095   C6      -40.6360   -0.4300  -20.6360 C.ar   80  U80         0.0171
   2096  H5'      -41.1900   -1.9310  -24.6590 H      80  U80         0.0591
   2097 H5''      -42.2100   -3.0880  -24.3180 H      80  U80         0.0591
   2098  H4'      -40.1290   -3.7150  -23.5640 H      80  U80         0.0647
   2099  H3'      -41.7910   -3.1020  -21.3750 H      80  U80         0.0655
   2100  H2'      -40.1230   -3.7480  -19.9560 H      80  U80         0.0666
   2101 HO2'      -38.3310   -4.4660  -21.6080 H      80  U80         0.2101
   2102  H1'      -38.2680   -2.4950  -21.2660 H      80  U80         0.0867
   2103   H3      -38.9080   -0.1180  -17.5770 H      80  U80         0.1734
   2104   H5      -41.7030    1.1300  -20.0520 H      80  U80         0.0686
   2105   H6      -41.0820   -0.5250  -21.4460 H      80  U80         0.0813
   2106    P.3    -42.8470   -5.5000  -20.9810 P.3    81  C81         0.2131
   2107  OP1      -43.4150   -6.7470  -21.5530 O.2    81  C81        -0.5172
   2108  OP2      -43.7510   -4.3720  -20.6420 O.3    81  C81        -0.4373
   2109  O5'      -42.0290   -5.8850  -19.6710 O.3    81  C81        -0.3248
   2110  C5'      -40.9780   -6.8370  -19.7310 C.3    81  C81         0.0837
   2111  C4'      -40.2310   -6.9250  -18.4250 C.3    81  C81         0.1139
   2112  O4'      -39.5060   -5.6920  -18.1780 O.3    81  C81        -0.3456
   2113  C3'      -41.0820   -7.1040  -17.1800 C.3    81  C81         0.1241
   2114  O3'      -41.5160   -8.4380  -16.9920 O.3    81  C81        -0.3187
   2115  C2'      -40.1610   -6.5930  -16.0790 C.3    81  C81         0.1293
   2116  O2'      -39.1990   -7.5740  -15.7160 O.3    81  C81        -0.3846
   2117  C1'      -39.4550   -5.4360  -16.7880 C.3    81  C81         0.1680
   2118   N.1     -40.1060   -4.1340  -16.5160 N.ar   81  C81        -0.2700
   2119   C.2     -39.7930   -3.4610  -15.3320 C.ar   81  C81         0.3522
   2120   O.2     -38.9810   -3.9760  -14.5490 O.2    81  C81        -0.2444
   2121   N.3     -40.3790   -2.2690  -15.0700 N.ar   81  C81        -0.1783
   2122   C4      -41.2480   -1.7480  -15.9390 C.ar   81  C81         0.1230
   2123   N.4     -41.8040   -0.5710  -15.6420 N.pl3  81  C81        -0.3430
   2124   C5      -41.5860   -2.4130  -17.1530 C.ar   81  C81        -0.0056
   2125   C6      -40.9980   -3.5910  -17.3970 C.ar   81  C81         0.0152
   2126  H5'      -40.3590   -6.5800  -20.4320 H      81  C81         0.0591
   2127 H5''      -41.3510   -7.7070  -19.9410 H      81  C81         0.0591
   2128  H4'      -39.5950   -7.6560  -18.4770 H      81  C81         0.0647
   2129  H3'      -41.8570   -6.5230  -17.2390 H      81  C81         0.0655
   2130  H2'      -40.6650   -6.2820  -15.3100 H      81  C81         0.0666
   2131 HO2'      -38.4390   -7.3170  -15.9650 H      81  C81         0.2101
   2132  H1'      -38.5290   -5.4000  -16.5010 H      81  C81         0.0867
   2133  H41      -42.3670   -0.2130  -16.1840 H      81  C81         0.1437
   2134  H42      -41.5980   -0.1710  -14.9090 H      81  C81         0.1437
   2135   H5      -42.1920   -2.0430  -17.7530 H      81  C81         0.0666
   2136   H6      -41.1990   -4.0470  -18.1830 H      81  C81         0.0812
   2137    P.3    -42.9100   -8.7360  -16.2520 P.3    82  C82         0.2131
   2138  OP1      -43.2180  -10.1790  -16.4330 O.3    82  C82        -0.4373
   2139  OP2      -43.9020   -7.7190  -16.6830 O.2    82  C82        -0.5172
   2140  O5'      -42.5800   -8.4960  -14.7120 O.3    82  C82        -0.3248
   2141  C5'      -41.6280   -9.3080  -14.0440 C.3    82  C82         0.0837
   2142  C4'      -41.3030   -8.7770  -12.6710 C.3    82  C82         0.1139
   2143  O4'      -40.6850   -7.4670  -12.7780 O.3    82  C82        -0.3456
   2144  C3'      -42.4830   -8.5460  -11.7420 C.3    82  C82         0.1241
   2145  O3'      -42.9670   -9.7340  -11.1380 O.3    82  C82        -0.3187
   2146  C2'      -41.9190   -7.5370  -10.7530 C.3    82  C82         0.1293
   2147  O2'      -41.0730   -8.1670   -9.8020 O.3    82  C82        -0.3846
   2148  C1'      -41.0640   -6.6690  -11.6730 C.3    82  C82         0.1680
   2149   N.1     -41.8140   -5.4920  -12.1680 N.ar   82  C82        -0.2700
   2150   C.2     -41.9580   -4.3880  -11.3260 C.ar   82  C82         0.3522
   2151   O.2     -41.4480   -4.4280  -10.1980 O.2    82  C82        -0.2444
   2152   N.3     -42.6450   -3.3070  -11.7620 N.ar   82  C82        -0.1783
   2153   C4      -43.1780   -3.3060  -12.9850 C.ar   82  C82         0.1230
   2154   N.4     -43.8480   -2.2190  -13.3750 N.pl3  82  C82        -0.3430
   2155   C5      -43.0490   -4.4200  -13.8630 C.ar   82  C82        -0.0056
   2156   C6      -42.3680   -5.4820  -13.4170 C.ar   82  C82         0.0152
   2157  H5'      -40.8140   -9.3390  -14.5710 H      82  C82         0.0591
   2158 H5''      -41.9830  -10.2070  -13.9590 H      82  C82         0.0591
   2159  H4'      -40.6790   -9.3830  -12.2410 H      82  C82         0.0647
   2160  H3'      -43.2020   -8.1300  -12.2420 H      82  C82         0.0655
   2161  H2'      -42.6220   -7.0220  -10.3270 H      82  C82         0.0666
   2162 HO2'      -41.5410   -8.6460   -9.2940 H      82  C82         0.2101
   2163  H1'      -40.2710   -6.3740  -11.1990 H      82  C82         0.0867
   2164  H41      -44.2020   -2.1910  -14.1590 H      82  C82         0.1437
   2165  H42      -43.9260   -1.5470  -12.8440 H      82  C82         0.1437
   2166   H5      -43.4250   -4.4100  -14.7140 H      82  C82         0.0666
   2167   H6      -42.2660   -6.2240  -13.9680 H      82  C82         0.0812
   2168    P.3    -44.5490   -9.9570  -10.9530 P.3    83  C83         0.2131
   2169  OP1      -44.7830  -11.3890  -10.6370 O.3    83  C83        -0.4373
   2170  OP2      -45.2440   -9.3450  -12.1140 O.2    83  C83        -0.5172
   2171  O5'      -44.9100   -9.1010   -9.6580 O.3    83  C83        -0.3248
   2172  C5'      -44.3320   -9.4060   -8.3970 C.3    83  C83         0.0836
   2173  C4'      -44.5600   -8.2980   -7.3990 C.3    83  C83         0.1133
   2174  O4'      -43.9280   -7.0780   -7.8650 O.3    83  C83        -0.3456
   2175  C3'      -46.0090   -7.8990   -7.1640 C.3    83  C83         0.1135
   2176  O3'      -46.6810   -8.7620   -6.2640 O.3    83  C83        -0.3864
   2177  C2'      -45.8820   -6.4670   -6.6600 C.3    83  C83         0.1286
   2178  O2'      -45.5350   -6.4300   -5.2830 O.3    83  C83        -0.3847
   2179  C1'      -44.6980   -5.9580   -7.4810 C.3    83  C83         0.1680
   2180   N.1     -45.1320   -5.2390   -8.7010 N.ar   83  C83        -0.2700
   2181   C.2     -45.5800   -3.9200   -8.5810 C.ar   83  C83         0.3522
   2182   O.2     -45.6010   -3.3950   -7.4590 O.2    83  C83        -0.2444
   2183   N.3     -45.9780   -3.2530   -9.6890 N.ar   83  C83        -0.1783
   2184   C4      -45.9390   -3.8550  -10.8790 C.ar   83  C83         0.1230
   2185   N.4     -46.3410   -3.1610  -11.9460 N.pl3  83  C83        -0.3430
   2186   C5      -45.4870   -5.1990  -11.0290 C.ar   83  C83        -0.0056
   2187   C6      -45.0970   -5.8470   -9.9240 C.ar   83  C83         0.0152
   2188  H5'      -43.3780   -9.5390   -8.5110 H      83  C83         0.0591
   2189 H5''      -44.7270  -10.2240   -8.0580 H      83  C83         0.0591
   2190  H4'      -44.1630   -8.5530   -6.5510 H      83  C83         0.0647
   2191  H3'      -46.4790   -7.8960   -8.0120 H      83  C83         0.0647
   2192 HO3'      -47.0050   -8.4560   -5.5520 H      83  C83         0.2100
   2193  H2'      -46.6850   -5.9540   -6.8420 H      83  C83         0.0665
   2194 HO2'      -46.1850   -6.7100   -4.8300 H      83  C83         0.2101
   2195  H1'      -44.1570   -5.3670   -6.9350 H      83  C83         0.0867
   2196  H41      -46.3270   -3.5240  -12.7250 H      83  C83         0.1437
   2197  H42      -46.6130   -2.3500  -11.8530 H      83  C83         0.1437
   2198   H5      -45.4650   -5.6100  -11.8630 H      83  C83         0.0666
   2199   H6      -44.7960   -6.7240   -9.9910 H      83  C83         0.0812
@<TRIPOS>BOND
     1  1088  1087    2
     2  1098  1086    1
     3  1087  1086   ar
     4  1087  1089   ar
     5  1086  1084   ar
     6  1099  1089    1
     7  1089  1090   ar
     8  1084  1085    2
     9  1084  1083   ar
    10  1090  1083   ar
    11  1090  1100    1
    12  1083  1082    1
    13  1097  1082    1
    14  1082  1077    1
    15  1082  1080    1
    16  1077  1076    1
    17  1096  1081    1
    18  1081  1080    1
    19  1080  1095    1
    20  1080  1078    1
    21   258   241    1
    22   268   267    2
    23  1076  1093    1
    24  1076  1075    1
    25  1076  1078    1
    26  1074  1075    1
    27  1074  1071    1
    28  1092  1075    1
    29   259   242    1
    30  1073  1071    2
    31   257   241    1
    32  1042  1041    2
    33  1075  1091    1
    34   238   237    2
    35  1078  1079    1
    36  1078  1094    1
    37   241   242    1
    38   241   240    1
    39   231   214    1
    40   245   267    1
    41   245   244    1
    42  1079  1101    1
    43  1071  1072    1
    44  1071  1049    1
    45   242   244    1
    46   242   243    1
    47   262   247    1
    48   267   269    1
    49   267   270    1
    50   214   213    1
    51   290   271    1
    52   247   246    1
    53   212   237    1
    54   212   211    1
    55  1062  1045    1
    56  1064  1048    1
    57   289   271    1
    58  2068  2051    1
    59   244   246    1
    60   244   260    1
    61  2040  2025    1
    62   237   240    1
    63   237   239    1
    64  1008  1007    2
    65   228   209    1
    66  1103  1101    2
    67  2066  2050    1
    68  1041  1043    1
    69  1041  1044    1
    70  1041  1015    1
    71   271   270    1
    72   271   272    1
    73   243   248    1
    74  2067  2050    1
    75  1101  1102    1
    76  1101  1104    1
    77  1031  1011    1
    78  2025  2024    1
    79   302   300    2
    80   246   248    1
    81   246   261    1
    82  1049  1048    1
    83  2037  2020    1
    84  1048  1046    1
    85  1048  1050    1
    86  2050  2051    1
    87  2050  2049    1
    88  1044  1045    1
    89  1045  1061    1
    90  1045  1046    1
    91  2051  2052    1
    92  2051  2053    1
    93  2071  2056    1
    94   213   211    1
    95   213   230    1
    96   213   215    1
    97  2056  2055    1
    98   211   209    1
    99   211   229    1
   100   209   208    1
   101   209   210    1
   102   227   208    1
   103  2077  2076    2
   104   263   248    1
   105  2054  2053    1
   106  2054  2076    1
   107  1015  1014    1
   108   248   249    1
   109   291   272    1
   110  1066  1051    1
   111  1063  1046    1
   112   301   300    1
   113  1030  1011    1
   114  1011  1010    1
   115  1011  1012    1
   116  2096  2080    1
   117  1046  1047    1
   118  2047  2046    2
   119   232   215    1
   120  2052  2057    1
   121   272   274    1
   122   272   273    1
   123  2023  2022    1
   124  2023  2046    1
   125  2041  2026    1
   126  1121  1105    1
   127  1007   982    1
   128  1007  1010    1
   129  1007  1009    1
   130   300   275    1
   131   300   303    1
   132  1032  1012    1
   133  1104  1105    1
   134   208   226    1
   135   208   207    1
   136  2020  2021    1
   137  2020  2022    1
   138  2020  2019    1
   139  2097  2080    1
   140  2072  2057    1
   141  1065  1050    1
   142  2053  2055    1
   143  2053  2069    1
   144  2024  2022    1
   145  2024  2026    1
   146  2024  2039    1
   147   215   210    1
   148   215   216    1
   149   275   274    1
   150  1001   984    1
   151  1050  1051    1
   152  1050  1052    1
   153  1122  1105    1
   154   982   981    1
   155  2036  2019    1
   156  2076  2079    1
   157  2076  2078    1
   158  2035  2019    1
   159  2021  2026    1
   160  1105  1106    1
   161  1129  1119    1
   162  2055  2057    1
   163  2055  2070    1
   164  2010  1995    1
   165  2080  2079    1
   166  2080  2081    1
   167  1012  1014    1
   168  1012  1013    1
   169  2049  2046    1
   170  2022  2038    1
   171  2026  2027    1
   172  2057  2058    1
   173  2046  2048    1
   174   266   256    1
   175  2019  2018    1
   176  1014  1033    1
   177  1014  1016    1
   178  1995  1994    1
   179   274   292    1
   180   274   276    1
   181   273   278    1
   182  2098  2081    1
   183   984   983    1
   184  1035  1017    1
   185   249   256   ar
   186   249   250   ar
   187   198   180    1
   188  1130  1120    1
   189   321   304    1
   190   203   190    1
   191   998   979    1
   192  1119  1120   ar
   193  1119  1117   ar
   194  1047  1052    1
   195  2029  2028    2
   196   224   223   ar
   197   224   225   ar
   198   180   179    1
   199   207   204    1
   200   256   255   ar
   201  2081  2082    1
   202  2081  2083    1
   203   997   978    1
   204   303   304    1
   205   320   304    1
   206  1017  1016    1
   207   205   204    2
   208   236   223    1
   209  1120  1113   ar
   210  1052  1067    1
   211  1052  1053    1
   212   216   225   ar
   213   216   217   ar
   214   981   979    1
   215   981   983    1
   216   981   999    1
   217   304   305    1
   218   251   250    2
   219  1070  1060    1
   220  1118  1117    2
   221  2011  1996    1
   222  1013  1018    1
   223   190   202    1
   224   190   189    1
   225  2082  2087    1
   226   979   978    1
   227   979   980    1
   228  1016  1034    1
   229  1016  1018    1
   230  1106  1107    1
   231  1106  1123    1
   232  1106  1108    1
   233  1999  1998    2
   234  1117  1116   ar
   235   294   277    1
   236  2027  2028   ar
   237  2027  2034   ar
   238   250   252   ar
   239   277   276    1
   240   983  1000    1
   241   983   985    1
   242  2058  2065   ar
   243  2058  2059   ar
   244   223   222   ar
   245   225   219   ar
   246  2075  2065    1
   247   276   278    1
   248   276   293    1
   249  1994  2009    1
   250  1994  1996    1
   251  1994  1992    1
   252  1107  1112    1
   253   278   295    1
   254   278   279    1
   255   296   280    1
   256  2018  2015    1
   257  1125  1110    1
   258   978   996    1
   259   978   977    1
   260  2028  2030   ar
   261  2060  2059    2
   262   204   178    1
   263   204   206    1
   264  1124  1108    1
   265  2007  1990    1
   266   359   343    1
   267  2084  2083    1
   268  2084  2106    1
   269   178   177    1
   270   197   179    1
   271  2016  2015    2
   272  1060  1053   ar
   273  1060  1059   ar
   274  1996  1991    1
   275  1996  1997    1
   276  2065  2064   ar
   277   179   177    1
   278   179   181    1
   279  1993  2015    1
   280  1993  1992    1
   281   255   265    1
   282   255   253   ar
   283  1113  1112    1
   284  1113  1114   ar
   285  2083  2099    1
   286  2083  2085    1
   287   331   330    2
   288  1053  1054   ar
   289  2059  2061   ar
   290   233   217    1
   291  1018  1036    1
   292  1018  1019    1
   293   217   218   ar
   294  1108  1110    1
   295  1108  1109    1
   296  2045  2034    1
   297  2101  2086    1
   298  2107  2106    2
   299   975   974    2
   300   323   307    1
   301  1037  1020    1
   302   280   279   ar
   303   280   281   ar
   304   191   189   ar
   305   191   192   ar
   306   189   188   ar
   307  1110  1112    1
   308  1110  1111    1
   309  2105  2095    1
   310  2034  2033   ar
   311  2015  2017    1
   312  1116  1114   ar
   313  1116  1128    1
   314   199   181    1
   315  1112  1127    1
   316  1992  1990    1
   317  1992  2008    1
   318   329   319    1
   319   980   985    1
   320   279   288   ar
   321   344   343   ar
   322   344   345   ar
   323   305   322    1
   324   305   307    1
   325   305   306    1
   326  1998  1997   ar
   327  1998  2000   ar
   328   343   342   ar
   329  1991  1990    1
   330  1002   985    1
   331  1990  1989    1
   332  2087  2102    1
   333  2087  2085    1
   334  2087  2088    1
   335  2086  2085    1
   336   328   318    1
   337   985   986    1
   338   195   175    1
   339   252   253   ar
   340   252   264    1
   341   177   175    1
   342   177   196    1
   343   977   974    1
   344   222   220   ar
   345   451   436    1
   346   219   218   ar
   347   219   220   ar
   348  1069  1059    1
   349  1114  1115    2
   350   361   347    1
   351  2106  2108    1
   352  2106  2109    1
   353  2030  2031   ar
   354  1984  1971    1
   355  2085  2100    1
   356   181   176    1
   357   181   182    1
   358  1059  1057   ar
   359  1997  2004   ar
   360   479   462    1
   361   324   309    1
   362   307   309    1
   363   307   308    1
   364   253   254    2
   365  1020  1019   ar
   366  1020  1021   ar
   367   436   435    1
   368  1019  1029   ar
   369  2095  2088   ar
   370  2095  2094   ar
   371  2064  2074    1
   372  2064  2062   ar
   373  2012  2000    1
   374   175   176    1
   375   175   174    1
   376   319   318   ar
   377   319   312   ar
   378  1054  1055    2
   379  1054  1056   ar
   380   306   311    1
   381   974   948    1
   382   974   976    1
   383   318   316   ar
   384   201   188    1
   385   281   282   ar
   386  2126  2110    1
   387  1132  1131    2
   388  2061  2073    1
   389  2061  2062   ar
   390   968   950    1
   391   358   341    1
   392   220   221    1
   393  1126  1111    1
   394  1109  1131    1
   395   188   186   ar
   396  2088  2089   ar
   397  2000  2001   ar
   398   950   949    1
   399   330   333    1
   400   330   308    1
   401   330   332    1
   402   192   182   ar
   403   192   185   ar
   404   477   461    1
   405   482   467    1
   406   467   466    1
   407   347   360    1
   408   347   346    1
   409  2033  2031   ar
   410  2033  2044    1
   411   309   311    1
   412   309   310    1
   413  2006  1989    1
   414   342   341    1
   415   342   351   ar
   416   345   346   ar
   417   345   351   ar
   418   288   282   ar
   419   288   287   ar
   420  2104  2094    1
   421  1989  2005    1
   422  1989  1988    1
   423   336   341    1
   424   336   335    1
   425  1971  1970   ar
   426  1971  1972   ar
   427   948   947    1
   428   333   334    1
   429   478   461    1
   430   182   183   ar
   431  2031  2032    1
   432   986   995   ar
   433   986   987   ar
   434  2127  2110    1
   435   462   461    1
   436   462   463    1
   437   462   464    1
   438   994   995   ar
   439   994   993   ar
   440   452   437    1
   441   169   156    1
   442  2094  2092   ar
   443   448   431    1
   444   341   339    1
   445  2062  2063    2
   446  2110  2109    1
   447  2110  2111    1
   448   461   460    1
   449  1131  1133    1
   450  1131  1134    1
   451  1021  1022   ar
   452   194   174    1
   453   483   468    1
   454   973   960    1
   455   463   468    1
   456   311   312    1
   457   311   326    1
   458  1057  1056   ar
   459  1057  1058    2
   460   346   348   ar
   461  1970  1968   ar
   462   282   283   ar
   463  2004  2014    1
   464  2004  2003   ar
   465   465   464    1
   466  1056  1068    1
   467  1972  1973   ar
   468   287   286   ar
   469   312   313   ar
   470   995   989   ar
   471  1029  1028   ar
   472  1029  1022   ar
   473   174   193    1
   474   174   173    1
   475  1006   993    1
   476   351   350   ar
   477   967   949    1
   478   435   437    1
   479   435   450    1
   480   435   433    1
   481  1003   987    1
   482   316   317    2
   483   316   315   ar
   484   949   947    1
   485   949   951    1
   486   310   325    1
   487  2089  2090    2
   488  2089  2091   ar
   489   186   185   ar
   490   186   187    2
   491   185   184   ar
   492   221   234    1
   493   221   235    1
   494   437   432    1
   495   437   438    1
   496  1962  1979    1
   497  1962  1961    1
   498   987   988   ar
   499   440   439    2
   500   993   992   ar
   501   468   466    1
   502   468   469    1
   503   466   464    1
   504   466   481    1
   505   464   480    1
   506   354   335    1
   507  2001  2003   ar
   508  2001  2002    2
   509  1151  1135    1
   510   156   155   ar
   511   156   157   ar
   512   434   433    1
   513   434   457    1
   514   431   432    1
   515   431   433    1
   516   431   430    1
   517   335   334    1
   518   335   337    1
   519   947   966    1
   520   947   945    1
   521   960   972    1
   522   960   959    1
   523  1988  1985    1
   524   965   945    1
   525  1028  1026   ar
   526   334   353    1
   527   334   352    1
   528  1022  1023   ar
   529  2032  2043    1
   530  2032  2042    1
   531  1978  1961    1
   532   183   200    1
   533   183   184   ar
   534  2003  2013    1
   535  2092  2091   ar
   536  2092  2093    2
   537   433   449    1
   538   421   406    1
   539  2128  2111    1
   540   155   153   ar
   541  2111  2112    1
   542  2111  2113    1
   543   458   457    2
   544   406   405    1
   545   460   457    1
   546   410   409    2
   547   339   340    1
   548   339   356    1
   549   339   337    1
   550  1160  1149    1
   551   340   357    1
   552  2091  2103    1
   553   446   430    1
   554   173   170    1
   555   157   158   ar
   556   164   147    1
   557   348   349   ar
   558  1968  1969    1
   559  1968  1967   ar
   560  1982  1969    1
   561  1134  1135    1
   562  1961  1963    1
   563  1961  1959    1
   564  1973  1967   ar
   565  1973  1964   ar
   566   286   299    1
   567   286   285   ar
   568  2136  2125    1
   569   989   988   ar
   570   989   990   ar
   571   945   946    1
   572   945   944    1
   573  2112  2117    1
   574   969   951    1
   575   283   285   ar
   576   283   284    1
   577   313   315   ar
   578   313   314    2
   579   315   327    1
   580  1135  1152    1
   581  1135  1136    1
   582  1980  1963    1
   583   961   959   ar
   584   961   962   ar
   585   350   349   ar
   586  1161  1150    1
   587   430   447    1
   588   430   429    1
   589   457   459    1
   590   439   438   ar
   591   439   441   ar
   592   951   946    1
   593   951   952    1
   594   959   958   ar
   595   298   284    1
   596   438   445   ar
   597   992   990   ar
   598   422   407    1
   599   964   944    1
   600   147   146    1
   601  1969  1983    1
   602  2135  2124    1
   603   337   355    1
   604   337   338    1
   605   471   470    2
   606   469   470   ar
   607   469   476   ar
   608   163   146    1
   609   349   362    1
   610  1149  1150   ar
   611  1149  1147   ar
   612  1026  1027    1
   613  1026  1025   ar
   614  1967  1966   ar
   615  1963  1964    1
   616  1963  1958    1
   617   284   297    1
   618   487   476    1
   619  1986  1985    2
   620  1985  1960    1
   621  1985  1987    1
   622  1023  1025   ar
   623  1023  1024    2
   624  1158  1148    1
   625   990   991    1
   626  1150  1143   ar
   627  2125  2124   ar
   628  2125  2118   ar
   629  1960  1959    1
   630  1964  1965   ar
   631   944   963    1
   632   944   943    1
   633   420   405    1
   634  1040  1027    1
   635   167   154    1
   636  2129  2113    1
   637  1137  1136    1
   638  1137  1142    1
   639   405   407    1
   640   405   403    1
   641  1222  1209    1
   642   153   154    1
   643   153   152   ar
   644  2113  2114    1
   645  2113  2115    1
   646   409   411   ar
   647   409   408   ar
   648  2124  2122   ar
   649   470   472   ar
   650   146   148    1
   651   146   144    1
   652   962   952   ar
   653   962   955   ar
   654   476   475   ar
   655  1959  1977    1
   656  1959  1957    1
   657   423   411    1
   658   407   408    1
   659   407   402    1
   660  1179  1178    2
   661   158   152   ar
   662   158   149   ar
   663   939   926    1
   664  2114  2137    1
   665   489   488    1
   666   171   170    2
   667  1136  1153    1
   668  1136  1138    1
   669   952   953   ar
   670  1027  1039    1
   671   441   442   ar
   672  1025  1038    1
   673   170   145    1
   674   170   172    1
   675   958   971    1
   676   958   956   ar
   677  2117  2118    1
   678  2117  2132    1
   679  2117  2115    1
   680   938   926    1
   681   154   168    1
   682  1735  1734    2
   683  1148  1147    1
   684  1148  1159    1
   685   445   456    1
   686   445   444   ar
   687  2139  2137    2
   688   165   148    1
   689   429   426    1
   690   338   363    1
   691  1147  1146   ar
   692   411   412   ar
   693  2118  2119   ar
   694   926   925    1
   695  1209  1223    1
   696  1209  1208    1
   697  2138  2137    1
   698   145   144    1
   699  1976  1957    1
   700   152   151   ar
   701   408   415   ar
   702  1190  1180    1
   703   418   401    1
   704  1958  1957    1
   705  1966  1965   ar
   706   510   492    1
   707  1143  1142    1
   708  1143  1144   ar
   709   943   940    1
   710  2137  2140    1
   711   148   149    1
   712   148   143    1
   713   991  1005    1
   714   991  1004    1
   715   488   490    1
   716   488   491    1
   717  1965  1981    1
   718  2133  2123    1
   719   402   401    1
   720  1957  1956    1
   721  2115  2116    1
   722  2115  2130    1
   723  1766  1765    2
   724  1142  1157    1
   725  1142  1140    1
   726   134   121    1
   727   404   403    1
   728   404   426    1
   729   149   150   ar
   730  1755  1738    1
   731  1178  1180   ar
   732  1178  1177   ar
   733   144   162    1
   734   144   142    1
   735  2131  2116    1
   736   403   401    1
   737   403   419    1
   738  2122  2123    1
   739  2122  2121   ar
   740   955   956   ar
   741   955   954   ar
   742  1154  1138    1
   743   472   473   ar
   744   136   123    1
   745   934   916    1
   746   475   486    1
   747   475   473   ar
   748   365   363    2
   749   442   444   ar
   750   442   443    1
   751   401   400    1
   752  1180  1181   ar
   753   953   970    1
   754   953   954   ar
   755  1210  1208   ar
   756  1210  1211   ar
   757   956   957    2
   758   511   492    1
   759  1949  1937    1
   760   122   123   ar
   761   122   120   ar
   762  1138  1139    1
   763  1138  1140    1
   764   385   367    1
   765  2123  2134    1
   766   941   940    2
   767   427   426    2
   768   444   455    1
   769   426   428    1
   770  1754  1738    1
   771  1164  1162    2
   772   492   491    1
   773   492   493    1
   774  1146  1144   ar
   775  1208  1207   ar
   776   916   915    1
   777   363   364    1
   778   363   366    1
   779   925   927   ar
   780   925   924   ar
   781  2119  2121   ar
   782  2119  2120    2
   783   386   367    1
   784  1144  1145    2
   785  1734  1712    1
   786  1734  1737    1
   787  1734  1736    1
   788   121   120    1
   789   121   135    1
   790  1738  1737    1
   791  1738  1739    1
   792   473   474    1
   793   123   124   ar
   794   412   413    2
   795   412   414   ar
   796  1189  1177    1
   797   161   142    1
   798  1936  1935    2
   799  1712  1711    1
   800   151   150   ar
   801   415   425    1
   802   415   414   ar
   803   940   914    1
   804   940   942    1
   805   933   915    1
   806  1177  1175   ar
   807  1725  1708    1
   808  1252  1242    1
   809  1224  1211    1
   810   937   924    1
   811   143   142    1
   812   367   366    1
   813   367   368    1
   814   927   928   ar
   815  1139  1162    1
   816   142   141    1
   817   150   166    1
   818  1140  1155    1
   819  1140  1141    1
   820  1937  1935   ar
   821  1937  1938   ar
   822  1765  1742    1
   823  1765  1767    1
   824  1765  1768    1
   825   120   119   ar
   826   454   443    1
   827  1742  1741    1
   828  1211  1212   ar
   829  1939  1938    2
   830  2166  2155    1
   831  2140  2141    1
   832   443   453    1
   833  1756  1739    1
   834   512   493    1
   835  1956  1975    1
   836  1956  1955    1
   837  1956  1974    1
   838   924   922   ar
   839  1726  1709    1
   840  1181  1191    1
   841  1181  1174   ar
   842  2157  2141    1
   843   915   913    1
   844   915   917    1
   845  1705  1704    2
   846   414   424    1
   847  1935  1934   ar
   848   914   913    1
   849   493   494    1
   850   493   495    1
   851  1162  1163    1
   852  1162  1165    1
   853  1729  1714    1
   854   400   416    1
   855   400   417    1
   856   400   399    1
   857  1141  1156    1
   858  1739  1741    1
   859  1739  1740    1
   860  1207  1206   ar
   861  1207  1213   ar
   862  1938  1940   ar
   863  1955  1952    1
   864  1724  1708    1
   865  2164  2154    1
   866  1708  1709    1
   867  1708  1707    1
   868   387   368    1
   869  1240  1238   ar
   870  1240  1241   ar
   871   494   499    1
   872  1242  1251    1
   873  1242  1241    1
   874  1786  1769    1
   875  1239  1238    2
   876  2141  2158    1
   877  2141  2142    1
   878   124   125   ar
   879   474   485    1
   880   474   484    1
   881  1946  1931    1
   882  2167  2156    1
   883  1709  1711    1
   884  1709  1710    1
   885  1175  1174   ar
   886  1175  1176    2
   887  2155  2156   ar
   888  2155  2153   ar
   889   935   917    1
   890  1741  1757    1
   891  1741  1743    1
   892   368   369    1
   893   368   370    1
   894  1711  1727    1
   895  1711  1713    1
   896  1714  1713    1
   897  1909  1908    2
   898   928   918   ar
   899   928   921   ar
   900   913   932    1
   901   913   911    1
   902  1174  1173    1
   903  1206  1205   ar
   904   517   501    1
   905  1768  1769    1
   906  1212  1213   ar
   907   119   125   ar
   908   119   118   ar
   909   141   160    1
   910   141   140    1
   911   141   159    1
   912  1238  1237   ar
   913   917   918    1
   914   917   912    1
   915  1785  1769    1
   916  1796  1795    2
   917  1890  1876    1
   918  1241  1243   ar
   919  2156  2149   ar
   920  1769  1770    1
   921  1797  1795    1
   922   904   892    1
   923  1165  1166    1
   924   922   921   ar
   925   922   923    2
   926  1889  1876    1
   927   369   374    1
   928   399   396    1
   929  2154  2153    1
   930  2154  2165    1
   931  1213  1204   ar
   932  1932  1931    1
   933  1932  1947    1
   934     4     2    2
   935   125   116   ar
   936  1934  1933    1
   937  1934  1941   ar
   938  1931  1933    1
   939  1931  1929    1
   940  1707  1704    1
   941   140   137    1
   942  1704  1681    1
   943  1704  1706    1
   944   101    88    1
   945  1667  1650    1
   946   931   911    1
   947   918   919   ar
   948  1740  1745    1
   949   495   496    1
   950   495   513    1
   951   495   497    1
   952  1919  1907    1
   953  1876  1875    1
   954  1713  1728    1
   955  1713  1715    1
   956  2153  2152   ar
   957   921   920   ar
   958   496   521    1
   959  1948  1933    1
   960  1940  1941   ar
   961  1940  1950    1
   962    87    86    2
   963  1698  1683    1
   964   501   500   ar
   965   501   502   ar
   966  1674  1673    2
   967   392   376    1
   968  1641  1640    2
   969   522   521    2
   970  1664  1645    1
   971  2143  2142    1
   972  2143  2148    1
   973     3     2    1
   974   499   516    1
   975   499   500    1
   976   499   497    1
   977  1795  1773    1
   978  1795  1798    1
   979  1744  1759    1
   980  1744  1743    1
   981   892   905    1
   982   892   891    1
   983  1650  1649    1
   984  2196  2185    1
   985   102    90    1
   986  1681  1680    1
   987  2142  2159    1
   988  2142  2144    1
   989   911   912    1
   990   911   910    1
   991   371   370    1
   992   371   396    1
   993  1933  1928    1
   994   903   890    1
   995  1952  1954    2
   996  1952  1953    1
   997  1952  1930    1
   998   130   113    1
   999  1908  1907   ar
  1000  1908  1910   ar
  1001  1710  1715    1
  1002  1168  1173    1
  1003  1168  1167    1
  1004   370   388    1
  1005   370   372    1
  1006  1743  1745    1
  1007  1743  1758    1
  1008  1941  1951    1
  1009  1205  1204   ar
  1010  1205  1221    1
  1011   118   117   ar
  1012  1173  1188    1
  1013  1173  1171    1
  1014  1907  1905   ar
  1015     2     1    1
  1016     2     5    1
  1017  1182  1166    1
  1018  1648  1673    1
  1019  1648  1647    1
  1020  1773  1772    1
  1021    88    86   ar
  1022    88    89   ar
  1023  1643  1640    1
  1024  1643  1644    1
  1025   500   509   ar
  1026  2160  2144    1
  1027   502   503   ar
  1028  1166  1167    1
  1029  1166  1183    1
  1030  1683  1682    1
  1031   521   523    1
  1032   521   524    1
  1033  1204  1203    1
  1034  2149  2148    1
  1035  2149  2150   ar
  1036  1764  1753    1
  1037  1945  1929    1
  1038  2170  2168    2
  1039  1237  1236    1
  1040  1237  1244   ar
  1041   396   397    2
  1042   396   398    1
  1043  1770  1787    1
  1044  1770  1772    1
  1045  1770  1771    1
  1046   497   498    1
  1047   497   514    1
  1048  1715  1730    1
  1049  1715  1716    1
  1050  1929  1930    1
  1051  1929  1927    1
  1052  1243  1253    1
  1053  1243  1244   ar
  1054  1788  1772    1
  1055  1250  1236    1
  1056    86    85   ar
  1057   374   391    1
  1058   374   372    1
  1059   374   375    1
  1060   890   891   ar
  1061   890   888   ar
  1062  1745  1760    1
  1063  1745  1746    1
  1064  2185  2197    1
  1065  2185  2184    1
  1066   376   375   ar
  1067   376   377   ar
  1068   498   515    1
  1069   116   117   ar
  1070   116   115    1
  1071  1185  1169    1
  1072    90    89    1
  1073    90   103    1
  1074   919   920   ar
  1075   919   936    1
  1076  2198  2186    1
  1077  1645  1644    1
  1078  1645  1647    1
  1079  1645  1646    1
  1080   891   893   ar
  1081  1673  1676    1
  1082  1673  1675    1
  1083  2152  2150   ar
  1084  2144  2145    1
  1085  2144  2146    1
  1086  1772  1774    1
  1087  1875  1877   ar
  1088  1875  1874   ar
  1089   131   114    1
  1090   113   114    1
  1091   113   115    1
  1092   113   111    1
  1093  1248  1234    1
  1094  1695  1678    1
  1095  1640  1615    1
  1096  1640  1642    1
  1097  2148  2163    1
  1098  2148  2146    1
  1099    19    18    2
  1100  1676  1677    1
  1101    53    52    2
  1102  1920  1910    1
  1103   137   139    2
  1104   137   138    1
  1105   137   112    1
  1106  1167  1169    1
  1107  1167  1184    1
  1108  1662  1644    1
  1109  1249  1235    1
  1110   930   910    1
  1111  1910  1911   ar
  1112   117   133    1
  1113  1644  1663    1
  1114   372   373    1
  1115   372   389    1
  1116  1647  1649    1
  1117  1647  1665    1
  1118  1236  1234    1
  1119  1236  1231    1
  1120  1649  1666    1
  1121  1649  1651    1
  1122  1873  1874   ar
  1123  1873  1872   ar
  1124    89    91   ar
  1125  1244  1254    1
  1126  1186  1171    1
  1127   910   909    1
  1128   910   929    1
  1129  1798  1799    1
  1130   375   384   ar
  1131  1680  1682    1
  1132  1680  1678    1
  1133  1680  1696    1
  1134    16    15   ar
  1135    16    17   ar
  1136   889   888    2
  1137  1235  1234    1
  1138   373   390    1
  1139  2150  2151    2
  1140  1827  1825    2
  1141  1753  1746   ar
  1142  1753  1752   ar
  1143   129   111    1
  1144  1794  1784    1
  1145  1928  1927    1
  1146  1171  1169    1
  1147  1171  1172    1
  1148  1169  1170    1
  1149  1905  1906    2
  1150  1905  1904   ar
  1151   509   503   ar
  1152   509   508   ar
  1153   377   378   ar
  1154  1668  1651    1
  1155  2145  2168    1
  1156  1220  1203    1
  1157  1234  1232    1
  1158   115   132    1
  1159   115   110    1
  1160  1646  1651    1
  1161  1615  1614    1
  1162  1682  1697    1
  1163  1682  1684    1
  1164   503   504   ar
  1165   888   887   ar
  1166  1733  1723    1
  1167  2186  2184   ar
  1168  2186  2187   ar
  1169  1771  1776    1
  1170  1877  1878   ar
  1171  1874  1880   ar
  1172    32    15    1
  1173  1746  1747   ar
  1174  2168  2169    1
  1175  2168  2171    1
  1176  1678  1677    1
  1177  1678  1679    1
  1178     5     6    1
  1179  1631  1612    1
  1180  1203  1198    1
  1181  1203  1201    1
  1182   111   112    1
  1183   111   109    1
  1184  2184  2183   ar
  1185  1194  1192    2
  1186  1816  1799    1
  1187   909   906    1
  1188  1793  1783    1
  1189  1927  1944    1
  1190  1927  1926    1
  1191  1651  1652    1
  1192   893   894   ar
  1193  1823  1813    1
  1194  2146  2161    1
  1195  2146  2147    1
  1196  1716  1723   ar
  1197  1716  1717   ar
  1198   524   525    1
  1199    15    14   ar
  1200  1763  1752    1
  1201    85    84   ar
  1202    85    92   ar
  1203    18    17   ar
  1204    18    20   ar
  1205  1218  1201    1
  1206  1677  1693    1
  1207  1677  1694    1
  1208  1826  1825    1
  1209  1799  1815    1
  1210  1799  1800    1
  1211   519   505    1
  1212  1784  1783   ar
  1213  1784  1777   ar
  1214    17    24   ar
  1215  1723  1722   ar
  1216    67    54    1
  1217    52    54   ar
  1218    52    51   ar
  1219  1752  1750   ar
  1220  1911  1904   ar
  1221  1911  1921    1
  1222  1872  1888    1
  1223  1872  1871   ar
  1224   508   507   ar
  1225  1825  1803    1
  1226  1825  1828    1
  1227  1231  1230    1
  1228  1774  1776    1
  1229  1774  1789    1
  1230  1774  1775    1
  1231  1198  1197    1
  1232  1904  1903    1
  1233  1783  1781   ar
  1234  1474  1457    1
  1235    91    92   ar
  1236  1718  1717    2
  1237   384   378   ar
  1238   384   383   ar
  1239  1172  1187    1
  1240  1201  1202    1
  1241  1201  1199    1
  1242  1503  1487    1
  1243   504   505    1
  1244   504   506   ar
  1245  1477  1462    1
  1246  1612  1614    1
  1247  1612  1613    1
  1248  1612  1611    1
  1249  1824  1814    1
  1250  2199  2187    1
  1251   887   894   ar
  1252   887   886   ar
  1253   378   379   ar
  1254   899   881    1
  1255  1170  1192    1
  1256    25     6    1
  1257  1699  1684    1
  1258  1614  1632    1
  1259  1614  1616    1
  1260  2187  2180   ar
  1261   894   884   ar
  1262  1925  1926    1
  1263  1925  1922    1
  1264    84    83   ar
  1265  1813  1814   ar
  1266  1813  1811   ar
  1267  1818  1802    1
  1268  1282  1272    1
  1269   505   518    1
  1270  1776  1777    1
  1271  1776  1791    1
  1272  1684  1679    1
  1273  1684  1685    1
  1274   544   525    1
  1275    54    55   ar
  1276  1717  1719   ar
  1277  1462  1461    1
  1278   110   109    1
  1279  2147  2162    1
  1280  1916  1901    1
  1281    92    82   ar
  1282     6    26    1
  1283     6     7    1
  1284  1775  1790    1
  1285  1861  1859    2
  1286  1504  1487    1
  1287   550   534    1
  1288  1878  1891    1
  1289  1878  1879   ar
  1290  1451  1438    1
  1291   900   882    1
  1292  2183  2181   ar
  1293  1192  1195    1
  1294  1192  1193    1
  1295  1747  1748    2
  1296  1747  1749   ar
  1297  1635  1618    1
  1298  1630  1611    1
  1299  1195  1196    1
  1300  1232  1247    1
  1301  1232  1230    1
  1302  1232  1233    1
  1303  2171  2172    1
  1304  1505  1488    1
  1305  1880  1871   ar
  1306  1880  1879   ar
  1307  1926  1943    1
  1308  1926  1942    1
  1309  1629  1611    1
  1310   525   543    1
  1311   525   526    1
  1312  1217  1199    1
  1313  1484  1483    2
  1314  1777  1778   ar
  1315   109   128    1
  1316   109   108    1
  1317    50    51   ar
  1318    50    49   ar
  1319  1803  1802    1
  1320  1814  1807   ar
  1321  1894  1892    2
  1322    33    20    1
  1323  1924  1922    2
  1324    51    58   ar
  1325    20    21   ar
  1326   907   906    2
  1327   906   908    1
  1328   906   880    1
  1329  1613  1618    1
  1330  1202  1219    1
  1331  1487  1488    1
  1332  1487  1486    1
  1333  1460  1459    1
  1334  1460  1483    1
  1335  1812  1811    2
  1336  1611  1610    1
  1337  1652  1661   ar
  1338  1652  1653   ar
  1339   507   506   ar
  1340   507   520    1
  1341  1473  1456    1
  1342   127   108    1
  1343    14    24   ar
  1344    14    13    1
  1345  1639  1626    1
  1346  1722  1732    1
  1347  1722  1720   ar
  1348  1272  1283    1
  1349  1272  1271    1
  1350  1472  1456    1
  1351  1457  1456    1
  1352  1457  1458    1
  1353  1457  1459    1
  1354  1871  1870    1
  1355  1842  1841    2
  1356  1802  1800    1
  1357  1802  1804    1
  1358  1284  1273    1
  1359   383   382   ar
  1360  1882  1863    1
  1361  1660  1661   ar
  1362  1660  1659   ar
  1363  1800  1817    1
  1364  1800  1801    1
  1365   882   881    1
  1366  1446  1428    1
  1367    24    23   ar
  1368  1915  1899    1
  1369  1828  1829    1
  1370   527   526    1
  1371   527   532    1
  1372  1199  1197    1
  1373  1199  1200    1
  1374  1230  1246    1
  1375  1230  1229    1
  1376  1750  1749   ar
  1377  1750  1751    1
  1378   881   883    1
  1379   881   879    1
  1380   394   380    1
  1381   534   535   ar
  1382   534   533   ar
  1383  1811  1810   ar
  1384  1839  1838   ar
  1385  1839  1840   ar
  1386  1428  1427    1
  1387  1233  1255    1
  1388  1515  1514    2
  1389  1450  1438    1
  1390  1438  1437    1
  1391  1618  1616    1
  1392  1618  1619    1
  1393  1687  1686    2
  1394    28     9    1
  1395  1197  1196    1
  1396  1197  1216    1
  1397   886   885   ar
  1398  1901  1903    1
  1399  1901  1899    1
  1400  1901  1902    1
  1401  1781  1782    2
  1402  1781  1780   ar
  1403  1627  1626   ar
  1404  1627  1628   ar
  1405  1488  1489    1
  1406  1488  1490    1
  1407    38    36    2
  1408   535   536   ar
  1409  1456  1455    1
  1410  1903  1918    1
  1411  1903  1898    1
  1412  1601  1584    1
  1413  1884  1866    1
  1414    68    56    1
  1415     8     7    1
  1416     8    13    1
  1417  1634  1617    1
  1418  1855  1838    1
  1419  1922  1923    1
  1420  1922  1900    1
  1421   884   883    1
  1422   884   885   ar
  1423  1616  1617    1
  1424  1616  1633    1
  1425   379   380    1
  1426   379   381   ar
  1427  1478  1463    1
  1428   108   126    1
  1429   108   107    1
  1430  2180  2181   ar
  1431  2180  2179    1
  1432  1458  1463    1
  1433    83    82   ar
  1434    83   100    1
  1435  1719  1720   ar
  1436  1719  1731    1
  1437  1661  1655   ar
  1438   526   545    1
  1439   526   528    1
  1440  1685  1686   ar
  1441  1685  1692   ar
  1442  1459  1461    1
  1443  1459  1475    1
  1444  1669  1653    1
  1445  1196  1214    1
  1446  1196  1215    1
  1447  2181  2182    2
  1448  1483  1486    1
  1449  1483  1485    1
  1450  1461  1463    1
  1451  1461  1476    1
  1452     7     9    1
  1453     7    27    1
  1454  1626  1625   ar
  1455    82    81    1
  1456    55    56    1
  1457    55    57   ar
  1458  1584  1583    1
  1459  2188  2172    1
  1460  1273  1271   ar
  1461  1273  1274   ar
  1462   380   393    1
  1463  1672  1659    1
  1464   880   879    1
  1465  1801  1806    1
  1466  1838  1837   ar
  1467  1899  1900    1
  1468  1899  1897    1
  1469  2172  2189    1
  1470  2172  2173    1
  1471  1859  1860    1
  1472  1859  1862    1
  1473  1859  1833    1
  1474  1271  1270   ar
  1475   901   883    1
  1476  1653  1654   ar
  1477  1761  1751    1
  1478  1257  1255    2
  1479  1851  1832    1
  1480  1489  1494    1
  1481   898   879    1
  1482   883   878    1
  1483  1778  1780   ar
  1484  1778  1779    2
  1485  1720  1721    2
  1486  1841  1840   ar
  1487  1841  1843   ar
  1488  1491  1514    1
  1489  1491  1490    1
  1490  1508  1493    1
  1491    49    66    1
  1492    49    48   ar
  1493  1463  1464    1
  1494  1686  1688   ar
  1495   885   902    1
  1496    13    31    1
  1497    13    11    1
  1498    56    69    1
  1499   879   877    1
  1500  1228  1229    1
  1501  1228  1225    1
  1502  1863  1881    1
  1503  1863  1862    1
  1504  1863  1864    1
  1505  1895  1892    1
  1506  1895  1896    1
  1507  1659  1658   ar
  1508  1807  1806    1
  1509  1807  1808   ar
  1510  1751  1762    1
  1511  1840  1847   ar
  1512    21    23   ar
  1513    21    22    1
  1514   533   532    1
  1515   533   542   ar
  1516     9    11    1
  1517     9    10    1
  1518   552   538    1
  1519    97    79    1
  1520  1849  1829    1
  1521  1703  1692    1
  1522    58    57   ar
  1523    58    48   ar
  1524  1516  1514    1
  1525   549   532    1
  1526  1892  1867    1
  1527  1892  1893    1
  1528  1514  1517    1
  1529  1780  1792    1
  1530   382   381   ar
  1531   382   395    1
  1532   532   530    1
  1533  2191  2175    1
  1534  1917  1902    1
  1535  1885  1868    1
  1536  1227  1225    2
  1537  1417  1404    1
  1538  1315  1303    1
  1539  1447  1429    1
  1540  1610  1607    1
  1541  1829  1848    1
  1542  1829  1830    1
  1543  1493  1492    1
  1544  1898  1897    1
  1545  1229  1245    1
  1546  1255  1256    1
  1547  1255  1258    1
  1548  1200  1225    1
  1549  1866  1868    1
  1550  1866  1864    1
  1551  1866  1867    1
  1552  2174  2179    1
  1553  2174  2173    1
  1554  1819  1804    1
  1555  1804  1806    1
  1556  1804  1805    1
  1557  1870  1865    1
  1558  1870  1868    1
  1559  1870  1887    1
  1560  1692  1691   ar
  1561  1437  1439   ar
  1562  1437  1436   ar
  1563  1439  1440   ar
  1564  1628  1619   ar
  1565  1628  1622   ar
  1566   536   542   ar
  1567   536   537   ar
  1568   107   104    1
  1569  1490  1492    1
  1570  1490  1506    1
  1571  1619  1620   ar
  1572  1810  1808   ar
  1573  1810  1822    1
  1574  1865  1864    1
  1575   859   858    2
  1576   869   857    1
  1577  1806  1821    1
  1578  1427  1445    1
  1579  1427  1429    1
  1580  1427  1425    1
  1581  1285  1274    1
  1582  1316  1303    1
  1583  1274  1267   ar
  1584  1608  1607    2
  1585  1453  1452    2
  1586  1383  1371    1
  1587  1868  1869    1
  1588  2179  2195    1
  1589  2179  2177    1
  1590  1455  1452    1
  1591  1864  1883    1
  1592   538   537    1
  1593   538   551    1
  1594  1509  1494    1
  1595    36    10    1
  1596    36    39    1
  1597    36    37    1
  1598  1225  1226    1
  1599  1270  1268   ar
  1600  1832  1833    1
  1601  1832  1830    1
  1602  1832  1834    1
  1603  1303  1302    1
  1604  2173  2175    1
  1605  2173  2190    1
  1606    29    11    1
  1607    11    12    1
  1608  1897  1896    1
  1609  1897  1914    1
  1610    48    47    1
  1611   542   541   ar
  1612  1625  1623   ar
  1613    81    99    1
  1614    81    79    1
  1615    81    76    1
  1616  1426  1452    1
  1617  1426  1425    1
  1618  1655  1654   ar
  1619  1655  1656   ar
  1620  1808  1809    2
  1621  1494  1492    1
  1622  1494  1495    1
  1623   546   528    1
  1624    79    80    1
  1625    79    77    1
  1626    34    22    1
  1627   528   530    1
  1628   528   529    1
  1629  1837  1847   ar
  1630  1837  1836    1
  1631  1443  1423    1
  1632  1598  1579    1
  1633  1582  1607    1
  1634  1582  1581    1
  1635  1843  1856    1
  1636  1843  1844   ar
  1637  2175  2177    1
  1638  2175  2176    1
  1639  1429  1424    1
  1640  1429  1430    1
  1641  1602  1585    1
  1642  1492  1507    1
  1643   537   539   ar
  1644  1583  1600    1
  1645  1583  1585    1
  1646  1583  1581    1
  1647    22    35    1
  1648  1688  1689   ar
  1649   106   104    2
  1650  1404  1403   ar
  1651  1404  1405   ar
  1652  1896  1913    1
  1653  1896  1912    1
  1654  1847  1846   ar
  1655  1607  1609    1
  1656   857   858   ar
  1657   857   855   ar
  1658  1852  1834    1
  1659   878   877    1
  1660    96    77    1
  1661  1466  1465    2
  1662  1830  1831    1
  1663  1830  1850    1
  1664  1452  1454    1
  1665   858   860   ar
  1666  1658  1656   ar
  1667  2193  2177    1
  1668  1535  1518    1
  1669  1449  1436    1
  1670   877   897    1
  1671   877   876    1
  1672  1464  1465   ar
  1673  1464  1471   ar
  1674  1805  1820    1
  1675    39    40    1
  1676  1371  1384    1
  1677  1371  1370    1
  1678   530   531    1
  1679   530   547    1
  1680  1425  1423    1
  1681  1425  1444    1
  1682  1382  1369    1
  1683  1348  1335    1
  1684  1436  1434   ar
  1685  1691  1689   ar
  1686  1691  1702    1
  1687  2177  2178    1
  1688  1267  1268   ar
  1689  1267  1266    1
  1690  1258  1259    1
  1691  1403  1401   ar
  1692    80    98    1
  1693  1440  1430   ar
  1694  1440  1433   ar
  1695  1513  1502    1
  1696   104   105    1
  1697   104    78    1
  1698  1517  1518    1
  1699  1268  1269    2
  1700  1831  1836    1
  1701  1834  1836    1
  1702  1834  1835    1
  1703  1622  1623   ar
  1704  1622  1621   ar
  1705  1585  1580    1
  1706  1585  1586    1
  1707  1423  1424    1
  1708  1423  1422    1
  1709  1482  1471    1
  1710  1620  1636    1
  1711  1620  1621   ar
  1712    72    70    2
  1713  1581  1579    1
  1714  1581  1599    1
  1715  1405  1406   ar
  1716    77    78    1
  1717    77    75    1
  1718  1656  1657    1
  1719  1579  1580    1
  1720  1579  1578    1
  1721   531   548    1
  1722  1689  1690    1
  1723   541   540   ar
  1724   856   855    2
  1725  1302  1304   ar
  1726  1302  1301   ar
  1727    62    43    1
  1728  1836  1854    1
  1729  1623  1624    1
  1730  2176  2192    1
  1731  1430  1431   ar
  1732  1534  1518    1
  1733  1465  1467   ar
  1734    76    75    1
  1735  1518  1519    1
  1736   855   854   ar
  1737   539   540   ar
  1738  1869  1886    1
  1739  1844  1846   ar
  1740  1844  1845    1
  1741    12    30    1
  1742  1471  1470   ar
  1743   875   876    1
  1744   875   872    1
  1745  1495  1502   ar
  1746  1495  1496   ar
  1747  1304  1305   ar
  1748  1261  1266    1
  1749  1261  1260    1
  1750    63    45    1
  1751  1369  1370   ar
  1752  1369  1367   ar
  1753  1335  1349    1
  1754  1335  1334    1
  1755  1502  1501   ar
  1756    47    42    1
  1757    47    65    1
  1758    47    45    1
  1759   781   768    1
  1760   540   553    1
  1761   571   570    2
  1762  1275  1259    1
  1763  1370  1372   ar
  1764   876   896    1
  1765   876   895    1
  1766    73    70    1
  1767    73    74    1
  1768   860   870    1
  1769   860   861   ar
  1770  1336  1334   ar
  1771  1336  1337   ar
  1772   829   828    2
  1773  1266  1281    1
  1774  1266  1264    1
  1775   780   768    1
  1776    42    41    1
  1777  1594  1595   ar
  1778  1594  1593   ar
  1779  1537  1521    1
  1780  1545  1544    2
  1781  1259  1260    1
  1782  1259  1276    1
  1783   874   872    2
  1784   618   605    1
  1785   866   851    1
  1786  1434  1433   ar
  1787  1434  1435    2
  1788  1415  1402    1
  1789  1433  1432   ar
  1790  1300  1301   ar
  1791  1300  1299   ar
  1792  1301  1307   ar
  1793    75    74    1
  1794    75    95    1
  1795  1597  1578    1
  1796    43    45    1
  1797    43    41    1
  1798    43    44    1
  1799  1853  1835    1
  1800    45    46    1
  1801    40    59    1
  1802    40    41    1
  1803    40    60    1
  1804   768   767    1
  1805  1368  1367    2
  1806  1412  1395    1
  1807  1401  1402    1
  1808  1401  1400   ar
  1809  1586  1595   ar
  1810  1586  1587   ar
  1811  2178  2194    1
  1812  1596  1578    1
  1813  1578  1577    1
  1814  1395  1394    1
  1815  1606  1593    1
  1816    70    44    1
  1817    70    71    1
  1818  1690  1701    1
  1819  1690  1700    1
  1820  1857  1845    1
  1821  1350  1337    1
  1822  1422  1441    1
  1823  1422  1442    1
  1824  1422  1421    1
  1825  1334  1333   ar
  1826  1497  1496    2
  1827  1845  1858    1
  1828   799   798    2
  1829  1406  1400   ar
  1830  1406  1397   ar
  1831  1624  1637    1
  1832  1624  1638    1
  1833  1657  1671    1
  1834  1657  1670    1
  1835  1543  1533    1
  1836  1413  1396    1
  1837  1367  1366   ar
  1838   854   861   ar
  1839   854   853    1
  1840   839   827    1
  1841   619   605    1
  1842  1496  1498   ar
  1843  1538  1523    1
  1844  1260  1277    1
  1845  1260  1262    1
  1846    41    61    1
  1847   872   873    1
  1848   872   850    1
  1849  1431  1448    1
  1850  1431  1432   ar
  1851  1305  1317    1
  1852  1305  1306   ar
  1853  1595  1589   ar
  1854  1467  1468   ar
  1855  1402  1416    1
  1856  1278  1262    1
  1857  1593  1592   ar
  1858   585   572    1
  1859  1337  1338   ar
  1860   605   604    1
  1861  1565  1548    1
  1862   861   871    1
  1863  1519  1521    1
  1864  1519  1536    1
  1865  1519  1520    1
  1866  1542  1532    1
  1867  1564  1548    1
  1868  1501  1512    1
  1869  1501  1499   ar
  1870  1411  1394    1
  1871  1470  1481    1
  1872  1470  1468   ar
  1873    74    93    1
  1874    74    94    1
  1875  1521  1523    1
  1876  1521  1522    1
  1877   570   572   ar
  1878   570   569   ar
  1879  1372  1373   ar
  1880   828   827   ar
  1881   828   830   ar
  1882  1400  1399   ar
  1883   851   853    1
  1884   851   852    1
  1885   851   849    1
  1886   810   800    1
  1887   865   849    1
  1888   758   776    1
  1889   758   757    1
  1890  1394  1396    1
  1891  1394  1392    1
  1892   681   668    1
  1893  1603  1587    1
  1894  1587  1588   ar
  1895  1299  1314    1
  1896  1299  1298   ar
  1897   827   825   ar
  1898  1307  1306   ar
  1899  1307  1298   ar
  1900  1262  1264    1
  1901  1262  1263    1
  1902   572   573   ar
  1903  1264  1279    1
  1904  1264  1265    1
  1905  1396  1397    1
  1906  1396  1391    1
  1907  1548  1549    1
  1908  1548  1547    1
  1909   767   769   ar
  1910   767   766   ar
  1911  1523  1524    1
  1912  1523  1525    1
  1913  1533  1532   ar
  1914  1533  1526   ar
  1915  1468  1469    1
  1916  1397  1398   ar
  1917    64    46    1
  1918  1532  1530   ar
  1919  1421  1418    1
  1920  1544  1522    1
  1921  1544  1547    1
  1922  1544  1546    1
  1923   853   868    1
  1924   853   848    1
  1925   798   800   ar
  1926   798   797   ar
  1927  1566  1549    1
  1928  1577  1574    1
  1929  1520  1525    1
  1930   852   867    1
  1931   648   636    1
  1932   849   850    1
  1933   849   847    1
  1934   769   770   ar
  1935   784   782    2
  1936  1333  1339   ar
  1937  1333  1332   ar
  1938  1498  1499   ar
  1939  1366  1373   ar
  1940  1366  1365   ar
  1941   779   766    1
  1942   638   637    2
  1943   800   801   ar
  1944   668   682    1
  1945   668   667    1
  1946  1499  1500    1
  1947  1589  1588   ar
  1948  1589  1590   ar
  1949  1592  1590   ar
  1950  1373  1363   ar
  1951   569   568   ar
  1952   569   576   ar
  1953  1338  1339   ar
  1954   604   606   ar
  1955   604   603   ar
  1956   568   567   ar
  1957   775   757    1
  1958  1298  1297    1
  1959  1288  1286    2
  1960  1280  1265    1
  1961   586   574    1
  1962  1524  1539    1
  1963   766   764   ar
  1964  1549  1550    1
  1965  1549  1551    1
  1966   606   607   ar
  1967   840   830    1
  1968   830   831   ar
  1969   757   759    1
  1970   757   755    1
  1971  1525  1526    1
  1972  1525  1540    1
  1973   777   759    1
  1974  1339  1330   ar
  1975   746   734    1
  1976  1399  1398   ar
  1977   825   826    2
  1978   825   824   ar
  1979  1526  1527   ar
  1980  1332  1331   ar
  1981  1590  1591    1
  1982  1391  1390    1
  1983   636   637   ar
  1984   636   634   ar
  1985   573   574    1
  1986   573   575   ar
  1987  1575  1574    2
  1988   809   797    1
  1989  1263  1286    1
  1990  1392  1393    1
  1991  1392  1410    1
  1992  1392  1390    1
  1993  1398  1414    1
  1994   574   587    1
  1995  1550  1555    1
  1996   797   795   ar
  1997  1469  1480    1
  1998  1469  1479    1
  1999  1393  1418    1
  2000   637   639   ar
  2001   848   847    1
  2002   669   667   ar
  2003   669   670   ar
  2004  1409  1390    1
  2005   770   760   ar
  2006   770   763   ar
  2007   667   666   ar
  2008  1530  1531    2
  2009  1530  1529   ar
  2010   756   782    1
  2011   756   755    1
  2012   759   760    1
  2013   759   754    1
  2014  1574  1552    1
  2015  1574  1576    1
  2016  1418  1419    2
  2017  1418  1420    1
  2018  1365  1364   ar
  2019  1500  1510    1
  2020  1500  1511    1
  2021   747   734    1
  2022   863   846    1
  2023   782   783    1
  2024   782   785    1
  2025   847   846    1
  2026   847   864    1
  2027   734   733    1
  2028   635   634    2
  2029   801   811    1
  2030   801   794   ar
  2031   603   602   ar
  2032   603   609   ar
  2033   576   575   ar
  2034   576   566   ar
  2035  1390  1389    1
  2036  1380  1362    1
  2037  1286  1289    1
  2038  1286  1287    1
  2039   567   584    1
  2040   567   566   ar
  2041  1363  1362    1
  2042  1363  1364   ar
  2043   602   601   ar
  2044  1313  1297    1
  2045   764   763   ar
  2046   764   765    2
  2047  1573  1563    1
  2048  1297  1292    1
  2049  1297  1295    1
  2050  1567  1551    1
  2051   745   732    1
  2052   755   774    1
  2053   755   753    1
  2054  1551  1552    1
  2055  1551  1553    1
  2056   831   824   ar
  2057   831   841    1
  2058   634   633   ar
  2059   760   761   ar
  2060   607   620    1
  2061   607   608   ar
  2062  1292  1291    1
  2063   824   823    1
  2064  1331  1330   ar
  2065  1331  1347    1
  2066  1378  1360    1
  2067  1289  1290    1
  2068  1330  1329    1
  2069   773   753    1
  2070  1591  1604    1
  2071  1591  1605    1
  2072   763   762   ar
  2073   846   862    1
  2074   846   845    1
  2075   683   670    1
  2076  1527  1529   ar
  2077  1527  1528    2
  2078  1362  1360    1
  2079  1362  1357    1
  2080   670   671   ar
  2081  1364  1381    1
  2082   556   554    1
  2083  1529  1541    1
  2084   666   665   ar
  2085   666   672   ar
  2086   566   565    1
  2087   795   794   ar
  2088   795   796    2
  2089  1361  1360    1
  2090  1361  1379    1
  2091   754   753    1
  2092  1563  1562   ar
  2093  1563  1556   ar
  2094   732   733   ar
  2095   732   730   ar
  2096  1572  1562    1
  2097   785   786    1
  2098   733   735   ar
  2099   836   821    1
  2100  1555  1570    1
  2101  1555  1553    1
  2102  1555  1556    1
  2103   753   752    1
  2104   639   649    1
  2105   639   640   ar
  2106  1360  1358    1
  2107   794   793    1
  2108  1311  1295    1
  2109   665   664   ar
  2110   609   608   ar
  2111   609   600   ar
  2112  1346  1329    1
  2113  1310  1293    1
  2114  1295  1293    1
  2115  1295  1296    1
  2116   601   617    1
  2117   601   600   ar
  2118  1562  1560   ar
  2119  1553  1568    1
  2120  1553  1554    1
  2121   844   842    2
  2122   761   762   ar
  2123   761   778    1
  2124  1290  1291    1
  2125  1290  1308    1
  2126  1389  1407    1
  2127  1389  1408    1
  2128  1389  1388    1
  2129  1556  1557   ar
  2130  1329  1324    1
  2131  1329  1327    1
  2132  1291  1293    1
  2133  1291  1309    1
  2134   633   640   ar
  2135   633   632    1
  2136   823   838    1
  2137   823   821    1
  2138   823   818    1
  2139   671   672   ar
  2140   672   663   ar
  2141   845   842    1
  2142   731   730    2
  2143   821   819    1
  2144   821   822    1
  2145  1357  1356    1
  2146   805   789    1
  2147  1293  1294    1
  2148   814   812    2
  2149   554   557    1
  2150   554   555    1
  2151   730   729   ar
  2152   735   736   ar
  2153   640   650    1
  2154   835   819    1
  2155  1388  1385    1
  2156  1312  1296    1
  2157  1344  1327    1
  2158   600   599    1
  2159   565   583    1
  2160   565   560    1
  2161   565   563    1
  2162   664   663   ar
  2163   664   680    1
  2164   647   632    1
  2165   786   802    1
  2166   786   803    1
  2167   786   787    1
  2168   560   559    1
  2169  1324  1323    1
  2170   557   558    1
  2171   788   793    1
  2172   788   787    1
  2173   793   808    1
  2174   793   791    1
  2175   752   772    1
  2176   752   771    1
  2177   752   751    1
  2178   842   820    1
  2179   842   843    1
  2180  1358  1377    1
  2181  1358  1356    1
  2182  1358  1359    1
  2183  1327  1328    1
  2184  1327  1325    1
  2185   806   791    1
  2186   819   820    1
  2187   819   817    1
  2188  1560  1561    2
  2189  1560  1559   ar
  2190   822   837    1
  2191   631   646    1
  2192   631   630    1
  2193   663   662    1
  2194   632   630    1
  2195   632   627    1
  2196  1557  1559   ar
  2197  1557  1558    2
  2198  1554  1569    1
  2199  1320  1318    2
  2200   818   817    1
  2201   789   787    1
  2202   789   791    1
  2203   789   790    1
  2204   581   563    1
  2205   736   729   ar
  2206   736   726   ar
  2207   815   812    1
  2208   815   816    1
  2209   729   728   ar
  2210  1356  1376    1
  2211  1356  1355    1
  2212   787   804    1
  2213   791   792    1
  2214   580   561    1
  2215  1328  1345    1
  2216   742   724    1
  2217   577   558    1
  2218  1559  1571    1
  2219   812   790    1
  2220   812   813    1
  2221   751   748    1
  2222  1343  1325    1
  2223   741   723    1
  2224  1359  1385    1
  2225   563   561    1
  2226   563   564    1
  2227  1294  1318    1
  2228   630   645    1
  2229   630   628    1
  2230   558   559    1
  2231   558   578    1
  2232  1385  1387    2
  2233  1385  1386    1
  2234  1321  1318    1
  2235  1321  1322    1
  2236   817   816    1
  2237   817   834    1
  2238   599   616    1
  2239   599   594    1
  2240   599   597    1
  2241   559   561    1
  2242   559   579    1
  2243  1325  1323    1
  2244  1325  1326    1
  2245   627   626    1
  2246   679   662    1
  2247  1318  1319    1
  2248   561   562    1
  2249  1323  1322    1
  2250  1323  1342    1
  2251   614   597    1
  2252   724   723    1
  2253   662   657    1
  2254   662   660    1
  2255   816   832    1
  2256   816   833    1
  2257  1354  1355    1
  2258  1354  1351    1
  2259   723   725    1
  2260   723   721    1
  2261   726   725    1
  2262   726   727   ar
  2263   594   593    1
  2264   743   725    1
  2265   657   656    1
  2266   728   727   ar
  2267   590   588    2
  2268   613   595    1
  2269  1355  1374    1
  2270  1355  1375    1
  2271   564   582    1
  2272  1322  1340    1
  2273  1322  1341    1
  2274   597   595    1
  2275   597   598    1
  2276   611   592    1
  2277   792   807    1
  2278   725   720    1
  2279  1353  1351    2
  2280   629   628    1
  2281   629   651    1
  2282   727   744    1
  2283   628   626    1
  2284   628   644    1
  2285  1326  1351    1
  2286   748   749    2
  2287   748   750    1
  2288   748   722    1
  2289   595   593    1
  2290   595   596    1
  2291   623   621    2
  2292   626   643    1
  2293   626   625    1
  2294   562   588    1
  2295  1351  1352    1
  2296   677   660    1
  2297   660   661    1
  2298   660   658    1
  2299   593   592    1
  2300   593   612    1
  2301   592   591    1
  2302   592   610    1
  2303   740   721    1
  2304   721   722    1
  2305   721   719    1
  2306   661   678    1
  2307   673   655    1
  2308   588   591    1
  2309   588   589    1
  2310   615   598    1
  2311   624   625    1
  2312   624   621    1
  2313   656   675    1
  2314   656   655    1
  2315   656   658    1
  2316   654   655    1
  2317   654   651    1
  2318   653   651    2
  2319   655   674    1
  2320   651   652    1
  2321   720   719    1
  2322   625   641    1
  2323   625   642    1
  2324   621   596    1
  2325   621   622    1
  2326   658   659    1
  2327   658   676    1
  2328   719   739    1
  2329   719   718    1
  2330   659   684    1
  2331   705   688    1
  2332   717   718    1
  2333   717   714    1
  2334   718   738    1
  2335   718   737    1
  2336   716   714    2
  2337   686   684    2
  2338   684   687    1
  2339   684   685    1
  2340   707   691    1
  2341   688   687    1
  2342   688   704    1
  2343   688   689    1
  2344   714   715    1
  2345   714   692    1
  2346   691   689    1
  2347   691   692    1
  2348   691   693    1
  2349   706   689    1
  2350   689   690    1
  2351   708   693    1
  2352   693   694    1
  2353   693   695    1
  2354   694   709    1
  2355   713   703    1
  2356   690   695    1
  2357   695   710    1
  2358   695   696    1
  2359   703   696   ar
  2360   703   702   ar
  2361   712   702    1
  2362   696   697   ar
  2363   702   700   ar
  2364   697   698    2
  2365   697   699   ar
  2366   700   699   ar
  2367   700   701    2
  2368   699   711    1
