ligand
  PyMOL2.2          3D                             0

 14 13  0  0  0  0  0  0  0  0999 V2000
   10.5360   14.6010   14.2440 N   0  0  0  0  0  0  0  0  0  0  0  0
   11.3370   13.4810   14.7560 C   0  0  0  0  0  0  0  0  0  0  0  0
   11.7200   12.5640   13.5990 C   0  0  0  0  0  0  0  0  0  0  0  0
   12.8890   11.6950   14.0330 C   0  0  0  0  0  0  0  0  0  0  0  0
   12.4520   10.2950   14.0770 N   0  0  0  0  0  0  0  0  0  0  0  0
   13.4660    9.5050   13.3570 C   0  0  0  0  0  0  0  0  0  0  0  0
   12.9010    8.9830   12.0310 C   0  0  0  0  0  0  0  0  0  0  0  0
   14.0530    8.8920   11.0190 C   0  0  0  0  0  0  0  0  0  0  0  0
   13.6930    9.5970    9.7780 C   0  0  0  0  0  0  0  0  0  0  0  0
   14.0370   11.0220    9.9590 N   0  0  0  0  0  0  0  0  0  0  0  0
   15.5170   11.2540    9.6340 C   0  0  0  0  0  0  0  0  0  0  0  0
   16.0340   12.4650   10.4200 C   0  0  0  0  0  0  0  0  0  0  0  0
   17.4400   12.2430   10.8090 C   0  0  0  0  0  0  0  0  0  0  0  0
   17.9430   13.4190   11.5510 N   0  0  0  0  0  0  0  0  0  0  0  0
  1  2  1  0  0  0  0
  2  3  1  0  0  0  0
  3  4  1  0  0  0  0
  4  5  1  0  0  0  0
  5  6  1  0  0  0  0
  6  7  1  0  0  0  0
  7  8  1  0  0  0  0
  8  9  1  0  0  0  0
  9 10  1  0  0  0  0
 10 11  1  0  0  0  0
 11 12  1  0  0  0  0
 12 13  1  0  0  0  0
 13 14  1  0  0  0  0
M  END
$$$$
