ligand
 OpenBabel11021811463D
libRbt.so/2013.1/901 2013/11/27
 14 13  0  0  0  0  0  0  0  0999 V2000
   10.2901   14.3286   15.3701 N   0  0  0  0  0  0  0  0  0  0  0  0
   11.5968   13.6821   15.1889 C   0  0  0  0  0  0  0  0  0  0  0  0
   11.3904   12.2663   14.6604 C   0  0  0  0  0  0  0  0  0  0  0  0
   12.7467   11.5927   14.5306 C   0  0  0  0  0  0  0  0  0  0  0  0
   12.5558   10.2309   14.0188 N   0  0  0  0  0  0  0  0  0  0  0  0
   12.8872   10.2602   12.5836 C   0  0  0  0  0  0  0  0  0  0  0  0
   12.6235    8.8934   11.9414 C   0  0  0  0  0  0  0  0  0  0  0  0
   12.9790    8.9853   10.4499 C   0  0  0  0  0  0  0  0  0  0  0  0
   14.4379    8.9038   10.2716 C   0  0  0  0  0  0  0  0  0  0  0  0
   14.9969   10.2415   10.5540 N   0  0  0  0  0  0  0  0  0  0  0  0
   16.5287   10.1912   10.5249 C   0  0  0  0  0  0  0  0  0  0  0  0
   17.0864   11.5983   10.2785 C   0  0  0  0  0  0  0  0  0  0  0  0
   16.8366   12.4469   11.4596 C   0  0  0  0  0  0  0  0  0  0  0  0
   15.4023   12.8010   11.5239 N   0  0  0  0  0  0  0  0  0  0  0  0
  1  2  1  0  0  0  0
  2  3  1  0  0  0  0
  3  4  1  0  0  0  0
  4  5  1  0  0  0  0
  5  6  1  0  0  0  0
  6  7  1  0  0  0  0
  7  8  1  0  0  0  0
  8  9  1  0  0  0  0
  9 10  1  0  0  0  0
 10 11  1  0  0  0  0
 11 12  1  0  0  0  0
 12 13  1  0  0  0  0
 13 14  1  0  0  0  0
M  END
>  <CHROM.1>
-177.79264475,-179.84920842,101.49452760,-176.14730719,179.73209925,78.47344506
-80.51049664,174.27386013,158.40610866,69.06404528,-73.37041845,13.74005371
11.17270686,12.38239458,-2.43975880,-0.53219828,-2.61912317

>  <Name>
ligand

>  <RI>
0

>  <Rbt.Current_Directory>
/home/itssahil/PROJECTS/Mol_Feturizer/New_Systems/rnas/2O3Y

>  <Rbt.Executable>
rbdock ($Id: //depot/dev/client3/rdock/2013.1/src/exe/rbdock.cxx#4 $)

>  <Rbt.Library>
libRbt.so (2013.1, Build901 2013/11/27)

>  <Rbt.Parameter_File>
/export/apps/rDock/src/rDock_2013.1_src/data/scripts/dock_solv.prm

>  <Rbt.Receptor>
prm/pocket_docking_2.prm

>  <SCORE>
3.3872

>  <SCORE.INTER>
10.1825

>  <SCORE.INTER.CONST>
1

>  <SCORE.INTER.POLAR>
0

>  <SCORE.INTER.ROT>
11

>  <SCORE.INTER.SOLV>
1.6568

>  <SCORE.INTER.VDW>
-4.69725

>  <SCORE.INTER.norm>
0.727324

>  <SCORE.INTRA>
-6.79533

>  <SCORE.INTRA.DIHEDRAL>
-19.0595

>  <SCORE.INTRA.DIHEDRAL.0>
24.1231

>  <SCORE.INTRA.POLAR>
0

>  <SCORE.INTRA.POLAR.0>
0

>  <SCORE.INTRA.REPUL>
0

>  <SCORE.INTRA.REPUL.0>
0

>  <SCORE.INTRA.SOLV>
4.03138

>  <SCORE.INTRA.SOLV.lig_0>
-48.2216

>  <SCORE.INTRA.VDW>
0.718716

>  <SCORE.INTRA.VDW.0>
-1.3967

>  <SCORE.INTRA.norm>
-0.485381

>  <SCORE.RESTR>
0

>  <SCORE.RESTR.CAVITY>
0

>  <SCORE.RESTR.norm>
0

>  <SCORE.SYSTEM>
0

>  <SCORE.SYSTEM.CONST>
0

>  <SCORE.SYSTEM.DIHEDRAL>
0

>  <SCORE.SYSTEM.SOLV>
0

>  <SCORE.SYSTEM.norm>
0

>  <SCORE.heavy>
14

>  <SCORE.norm>
0.241943

>  <RMSD>
1.255

$$$$
ligand
 OpenBabel11021811463D
libRbt.so/2013.1/901 2013/11/27
 14 13  0  0  0  0  0  0  0  0999 V2000
   17.2193   14.1669   10.1375 N   0  0  0  0  0  0  0  0  0  0  0  0
   16.0209   13.4443    9.6903 C   0  0  0  0  0  0  0  0  0  0  0  0
   16.0670   12.0144   10.2190 C   0  0  0  0  0  0  0  0  0  0  0  0
   14.8611   11.2589    9.6851 C   0  0  0  0  0  0  0  0  0  0  0  0
   14.8830    9.8906   10.2143 N   0  0  0  0  0  0  0  0  0  0  0  0
   13.6261    9.2468    9.7944 C   0  0  0  0  0  0  0  0  0  0  0  0
   12.8987    8.6455   11.0025 C   0  0  0  0  0  0  0  0  0  0  0  0
   12.3596    9.7981   11.8629 C   0  0  0  0  0  0  0  0  0  0  0  0
   11.7394    9.2677   13.0879 C   0  0  0  0  0  0  0  0  0  0  0  0
   11.1967   10.4140   13.8451 N   0  0  0  0  0  0  0  0  0  0  0  0
   12.3112   11.0899   14.6519 C   0  0  0  0  0  0  0  0  0  0  0  0
   11.8707   12.5016   15.0578 C   0  0  0  0  0  0  0  0  0  0  0  0
   11.6741   13.3281   13.8513 C   0  0  0  0  0  0  0  0  0  0  0  0
   11.2412   14.6865   14.2434 N   0  0  0  0  0  0  0  0  0  0  0  0
  1  2  1  0  0  0  0
  2  3  1  0  0  0  0
  3  4  1  0  0  0  0
  4  5  1  0  0  0  0
  5  6  1  0  0  0  0
  6  7  1  0  0  0  0
  7  8  1  0  0  0  0
  8  9  1  0  0  0  0
  9 10  1  0  0  0  0
 10 11  1  0  0  0  0
 11 12  1  0  0  0  0
 12 13  1  0  0  0  0
 13 14  1  0  0  0  0
M  END
>  <CHROM.1>
-176.91333648,-178.74451575,173.86153157,-127.11246753,70.38798042,-175.80438503
-177.87952385,-81.56325789,161.76968078,-63.62805550,179.64603249,13.42627825
11.41059045,11.95303721,-0.27155909,0.75789109,0.43099411

>  <Name>
ligand

>  <RI>
0

>  <Rbt.Current_Directory>
/home/itssahil/PROJECTS/Mol_Feturizer/New_Systems/rnas/2O3Y

>  <Rbt.Executable>
rbdock ($Id: //depot/dev/client3/rdock/2013.1/src/exe/rbdock.cxx#4 $)

>  <Rbt.Library>
libRbt.so (2013.1, Build901 2013/11/27)

>  <Rbt.Parameter_File>
/export/apps/rDock/src/rDock_2013.1_src/data/scripts/dock_solv.prm

>  <Rbt.Receptor>
prm/pocket_docking_2.prm

>  <SCORE>
0.17509

>  <SCORE.INTER>
10.4912

>  <SCORE.INTER.CONST>
1

>  <SCORE.INTER.POLAR>
0

>  <SCORE.INTER.ROT>
11

>  <SCORE.INTER.SOLV>
1.71727

>  <SCORE.INTER.VDW>
-4.5116

>  <SCORE.INTER.norm>
0.749374

>  <SCORE.INTRA>
-10.3161

>  <SCORE.INTRA.DIHEDRAL>
-21.7559

>  <SCORE.INTRA.DIHEDRAL.0>
24.1231

>  <SCORE.INTRA.POLAR>
0

>  <SCORE.INTRA.POLAR.0>
0

>  <SCORE.INTRA.REPUL>
0

>  <SCORE.INTRA.REPUL.0>
0

>  <SCORE.INTRA.SOLV>
-0.130695

>  <SCORE.INTRA.SOLV.lig_0>
-48.2216

>  <SCORE.INTRA.VDW>
0.627166

>  <SCORE.INTRA.VDW.0>
-1.3967

>  <SCORE.INTRA.norm>
-0.736868

>  <SCORE.RESTR>
0

>  <SCORE.RESTR.CAVITY>
0

>  <SCORE.RESTR.norm>
0

>  <SCORE.SYSTEM>
0

>  <SCORE.SYSTEM.CONST>
0

>  <SCORE.SYSTEM.DIHEDRAL>
0

>  <SCORE.SYSTEM.SOLV>
0

>  <SCORE.SYSTEM.norm>
0

>  <SCORE.heavy>
14

>  <SCORE.norm>
0.0125065

>  <RMSD>
1.267

$$$$
ligand
 OpenBabel11021811463D
libRbt.so/2013.1/901 2013/11/27
 14 13  0  0  0  0  0  0  0  0999 V2000
   17.6610   13.2632   10.0866 N   0  0  0  0  0  0  0  0  0  0  0  0
   16.2730   12.9597    9.7133 C   0  0  0  0  0  0  0  0  0  0  0  0
   16.0519   11.4518    9.7751 C   0  0  0  0  0  0  0  0  0  0  0  0
   14.6376   11.1477    9.3090 C   0  0  0  0  0  0  0  0  0  0  0  0
   14.4089    9.7007    9.3920 N   0  0  0  0  0  0  0  0  0  0  0  0
   12.9507    9.4930    9.3588 C   0  0  0  0  0  0  0  0  0  0  0  0
   12.3666    9.5439   10.7752 C   0  0  0  0  0  0  0  0  0  0  0  0
   12.8788    8.3216   11.5518 C   0  0  0  0  0  0  0  0  0  0  0  0
   12.5331    8.4466   12.9771 C   0  0  0  0  0  0  0  0  0  0  0  0
   13.3649    9.5273   13.5445 N   0  0  0  0  0  0  0  0  0  0  0  0
   12.4784   10.6884   14.0088 C   0  0  0  0  0  0  0  0  0  0  0  0
   13.3471   11.9206   14.2889 C   0  0  0  0  0  0  0  0  0  0  0  0
   12.4900   13.0551   14.6835 C   0  0  0  0  0  0  0  0  0  0  0  0
   11.7100   13.5195   13.5163 N   0  0  0  0  0  0  0  0  0  0  0  0
  1  2  1  0  0  0  0
  2  3  1  0  0  0  0
  3  4  1  0  0  0  0
  4  5  1  0  0  0  0
  5  6  1  0  0  0  0
  6  7  1  0  0  0  0
  7  8  1  0  0  0  0
  8  9  1  0  0  0  0
  9 10  1  0  0  0  0
 10 11  1  0  0  0  0
 11 12  1  0  0  0  0
 12 13  1  0  0  0  0
 13 14  1  0  0  0  0
M  END
>  <CHROM.1>
-176.74375412,-178.85763145,162.20573030,-88.47595159,-67.54415232,170.39721783
-70.15378985,115.79383211,-166.94523481,177.72709996,-69.91499195,13.79636932
10.93112291,11.64149895,-0.39816396,0.81925725,0.70772843

>  <Name>
ligand

>  <RI>
0

>  <Rbt.Current_Directory>
/home/itssahil/PROJECTS/Mol_Feturizer/New_Systems/rnas/2O3Y

>  <Rbt.Executable>
rbdock ($Id: //depot/dev/client3/rdock/2013.1/src/exe/rbdock.cxx#4 $)

>  <Rbt.Library>
libRbt.so (2013.1, Build901 2013/11/27)

>  <Rbt.Parameter_File>
/export/apps/rDock/src/rDock_2013.1_src/data/scripts/dock_solv.prm

>  <Rbt.Receptor>
prm/pocket_docking_2.prm

>  <SCORE>
-0.839441

>  <SCORE.INTER>
8.62019

>  <SCORE.INTER.CONST>
1

>  <SCORE.INTER.POLAR>
0

>  <SCORE.INTER.ROT>
11

>  <SCORE.INTER.SOLV>
3.15598

>  <SCORE.INTER.VDW>
-6.23853

>  <SCORE.INTER.norm>
0.615728

>  <SCORE.INTRA>
-9.45963

>  <SCORE.INTRA.DIHEDRAL>
-20.6082

>  <SCORE.INTRA.DIHEDRAL.0>
24.1231

>  <SCORE.INTRA.POLAR>
0

>  <SCORE.INTRA.POLAR.0>
0

>  <SCORE.INTRA.REPUL>
0

>  <SCORE.INTRA.REPUL.0>
0

>  <SCORE.INTRA.SOLV>
0.757809

>  <SCORE.INTRA.SOLV.lig_0>
-48.2216

>  <SCORE.INTRA.VDW>
0.465549

>  <SCORE.INTRA.VDW.0>
-1.3967

>  <SCORE.INTRA.norm>
-0.675688

>  <SCORE.RESTR>
0

>  <SCORE.RESTR.CAVITY>
0

>  <SCORE.RESTR.norm>
0

>  <SCORE.SYSTEM>
0

>  <SCORE.SYSTEM.CONST>
0

>  <SCORE.SYSTEM.DIHEDRAL>
0

>  <SCORE.SYSTEM.SOLV>
0

>  <SCORE.SYSTEM.norm>
0

>  <SCORE.heavy>
14

>  <SCORE.norm>
-0.0599601

>  <RMSD>
1.408

$$$$
ligand
 OpenBabel11021811463D
libRbt.so/2013.1/901 2013/11/27
 14 13  0  0  0  0  0  0  0  0999 V2000
   17.4482   12.8652    9.6429 N   0  0  0  0  0  0  0  0  0  0  0  0
   16.2330   13.2160   10.3901 C   0  0  0  0  0  0  0  0  0  0  0  0
   15.0657   13.3557    9.4185 C   0  0  0  0  0  0  0  0  0  0  0  0
   14.6913   11.9748    8.9057 C   0  0  0  0  0  0  0  0  0  0  0  0
   14.1276   11.1921   10.0115 N   0  0  0  0  0  0  0  0  0  0  0  0
   13.8202    9.8536    9.4782 C   0  0  0  0  0  0  0  0  0  0  0  0
   13.2320    8.9584   10.5749 C   0  0  0  0  0  0  0  0  0  0  0  0
   11.8904    9.5600   11.0197 C   0  0  0  0  0  0  0  0  0  0  0  0
   11.3883    8.8525   12.2088 C   0  0  0  0  0  0  0  0  0  0  0  0
   12.3072    9.1508   13.3262 N   0  0  0  0  0  0  0  0  0  0  0  0
   11.6767   10.1830   14.2679 C   0  0  0  0  0  0  0  0  0  0  0  0
   11.8811   11.5925   13.6994 C   0  0  0  0  0  0  0  0  0  0  0  0
   11.2677   12.5869   14.6008 C   0  0  0  0  0  0  0  0  0  0  0  0
   11.4019   13.9384   14.0161 N   0  0  0  0  0  0  0  0  0  0  0  0
  1  2  1  0  0  0  0
  2  3  1  0  0  0  0
  3  4  1  0  0  0  0
  4  5  1  0  0  0  0
  5  6  1  0  0  0  0
  6  7  1  0  0  0  0
  7  8  1  0  0  0  0
  8  9  1  0  0  0  0
  9 10  1  0  0  0  0
 10 11  1  0  0  0  0
 11 12  1  0  0  0  0
 12 13  1  0  0  0  0
 13 14  1  0  0  0  0
M  END
>  <CHROM.1>
71.01952055,67.76364709,-178.27335800,179.59812872,64.06854279,-171.40920537
67.06779641,103.49587203,-81.67910283,179.66217001,-176.99141335,13.31631182
11.23405148,11.53997205,-0.11625775,0.80329127,0.52768538

>  <Name>
ligand

>  <RI>
0

>  <Rbt.Current_Directory>
/home/itssahil/PROJECTS/Mol_Feturizer/New_Systems/rnas/2O3Y

>  <Rbt.Executable>
rbdock ($Id: //depot/dev/client3/rdock/2013.1/src/exe/rbdock.cxx#4 $)

>  <Rbt.Library>
libRbt.so (2013.1, Build901 2013/11/27)

>  <Rbt.Parameter_File>
/export/apps/rDock/src/rDock_2013.1_src/data/scripts/dock_solv.prm

>  <Rbt.Receptor>
prm/pocket_docking_2.prm

>  <SCORE>
0.627163

>  <SCORE.INTER>
9.51457

>  <SCORE.INTER.CONST>
1

>  <SCORE.INTER.POLAR>
0

>  <SCORE.INTER.ROT>
11

>  <SCORE.INTER.SOLV>
1.60787

>  <SCORE.INTER.VDW>
-5.12624

>  <SCORE.INTER.norm>
0.679612

>  <SCORE.INTRA>
-8.88741

>  <SCORE.INTRA.DIHEDRAL>
-21.5242

>  <SCORE.INTRA.DIHEDRAL.0>
24.1231

>  <SCORE.INTRA.POLAR>
0

>  <SCORE.INTRA.POLAR.0>
0

>  <SCORE.INTRA.REPUL>
0

>  <SCORE.INTRA.REPUL.0>
0

>  <SCORE.INTRA.SOLV>
1.75577

>  <SCORE.INTRA.SOLV.lig_0>
-48.2216

>  <SCORE.INTRA.VDW>
0.996817

>  <SCORE.INTRA.VDW.0>
-1.3967

>  <SCORE.INTRA.norm>
-0.634815

>  <SCORE.RESTR>
0

>  <SCORE.RESTR.CAVITY>
0

>  <SCORE.RESTR.norm>
0

>  <SCORE.SYSTEM>
0

>  <SCORE.SYSTEM.CONST>
0

>  <SCORE.SYSTEM.DIHEDRAL>
0

>  <SCORE.SYSTEM.SOLV>
0

>  <SCORE.SYSTEM.norm>
0

>  <SCORE.heavy>
14

>  <SCORE.norm>
0.0447973

>  <RMSD>
1.452

$$$$
ligand
 OpenBabel11021811463D
libRbt.so/2013.1/901 2013/11/27
 14 13  0  0  0  0  0  0  0  0999 V2000
    9.6165   14.5600   13.5401 N   0  0  0  0  0  0  0  0  0  0  0  0
    9.7723   13.1474   13.9118 C   0  0  0  0  0  0  0  0  0  0  0  0
   10.8299   12.5046   13.0204 C   0  0  0  0  0  0  0  0  0  0  0  0
   10.9620   11.0391   13.4009 C   0  0  0  0  0  0  0  0  0  0  0  0
   12.0258   10.4308   12.5938 N   0  0  0  0  0  0  0  0  0  0  0  0
   11.4532    9.2289   11.9628 C   0  0  0  0  0  0  0  0  0  0  0  0
   12.5590    8.3659   11.3445 C   0  0  0  0  0  0  0  0  0  0  0  0
   13.1867    9.1481   10.1810 C   0  0  0  0  0  0  0  0  0  0  0  0
   14.1891   10.0972   10.6920 C   0  0  0  0  0  0  0  0  0  0  0  0
   14.7563   10.8142    9.5318 N   0  0  0  0  0  0  0  0  0  0  0  0
   15.6928   11.9310   10.0067 C   0  0  0  0  0  0  0  0  0  0  0  0
   17.1311   11.4037   10.0755 C   0  0  0  0  0  0  0  0  0  0  0  0
   18.0195   12.4492   10.6188 C   0  0  0  0  0  0  0  0  0  0  0  0
   18.0822   13.5878    9.6775 N   0  0  0  0  0  0  0  0  0  0  0  0
  1  2  1  0  0  0  0
  2  3  1  0  0  0  0
  3  4  1  0  0  0  0
  4  5  1  0  0  0  0
  5  6  1  0  0  0  0
  6  7  1  0  0  0  0
  7  8  1  0  0  0  0
  8  9  1  0  0  0  0
  9 10  1  0  0  0  0
 10 11  1  0  0  0  0
 11 12  1  0  0  0  0
 12 13  1  0  0  0  0
 13 14  1  0  0  0  0
M  END
>  <CHROM.1>
-179.03178974,-177.15621034,-127.50762952,-167.93235617,-66.10279883,82.29693063
179.89329541,173.57052502,92.72784044,-176.20592833,-65.52601606,13.44824060
11.33587789,11.46844667,-3.00368627,-0.43950837,-2.86515748

>  <Name>
ligand

>  <RI>
0

>  <Rbt.Current_Directory>
/home/itssahil/PROJECTS/Mol_Feturizer/New_Systems/rnas/2O3Y

>  <Rbt.Executable>
rbdock ($Id: //depot/dev/client3/rdock/2013.1/src/exe/rbdock.cxx#4 $)

>  <Rbt.Library>
libRbt.so (2013.1, Build901 2013/11/27)

>  <Rbt.Parameter_File>
/export/apps/rDock/src/rDock_2013.1_src/data/scripts/dock_solv.prm

>  <Rbt.Receptor>
prm/pocket_docking_2.prm

>  <SCORE>
0.684543

>  <SCORE.INTER>
8.98404

>  <SCORE.INTER.CONST>
1

>  <SCORE.INTER.POLAR>
0

>  <SCORE.INTER.ROT>
11

>  <SCORE.INTER.SOLV>
1.94113

>  <SCORE.INTER.VDW>
-5.59102

>  <SCORE.INTER.norm>
0.641717

>  <SCORE.INTRA>
-8.29989

>  <SCORE.INTRA.DIHEDRAL>
-19.9321

>  <SCORE.INTRA.DIHEDRAL.0>
24.1231

>  <SCORE.INTRA.POLAR>
0

>  <SCORE.INTRA.POLAR.0>
0

>  <SCORE.INTRA.REPUL>
0

>  <SCORE.INTRA.REPUL.0>
0

>  <SCORE.INTRA.SOLV>
1.01825

>  <SCORE.INTRA.SOLV.lig_0>
-48.2216

>  <SCORE.INTRA.VDW>
1.15703

>  <SCORE.INTRA.VDW.0>
-1.3967

>  <SCORE.INTRA.norm>
-0.592849

>  <SCORE.RESTR>
0.000397302

>  <SCORE.RESTR.CAVITY>
0.000397302

>  <SCORE.RESTR.norm>
2.83787e-05

>  <SCORE.SYSTEM>
0

>  <SCORE.SYSTEM.CONST>
0

>  <SCORE.SYSTEM.DIHEDRAL>
0

>  <SCORE.SYSTEM.SOLV>
0

>  <SCORE.SYSTEM.norm>
0

>  <SCORE.heavy>
14

>  <SCORE.norm>
0.0488959

>  <RMSD>
1.473

$$$$
ligand
 OpenBabel11021811463D
libRbt.so/2013.1/901 2013/11/27
 14 13  0  0  0  0  0  0  0  0999 V2000
   17.9721   12.2322    9.6872 N   0  0  0  0  0  0  0  0  0  0  0  0
   17.4066   12.5015   11.0161 C   0  0  0  0  0  0  0  0  0  0  0  0
   16.7974   11.2196   11.5746 C   0  0  0  0  0  0  0  0  0  0  0  0
   15.5985   10.8386   10.7218 C   0  0  0  0  0  0  0  0  0  0  0  0
   14.9680    9.6429   11.2924 N   0  0  0  0  0  0  0  0  0  0  0  0
   13.7473    9.3847   10.5089 C   0  0  0  0  0  0  0  0  0  0  0  0
   12.8849    8.3165   11.1908 C   0  0  0  0  0  0  0  0  0  0  0  0
   12.3989    8.8763   12.5361 C   0  0  0  0  0  0  0  0  0  0  0  0
   11.3976    9.9319   12.3127 C   0  0  0  0  0  0  0  0  0  0  0  0
   10.9731   10.4311   13.6365 N   0  0  0  0  0  0  0  0  0  0  0  0
   11.4289   11.8824   13.8253 C   0  0  0  0  0  0  0  0  0  0  0  0
   10.3649   12.8342   13.2654 C   0  0  0  0  0  0  0  0  0  0  0  0
   10.8053   14.2317   13.4397 C   0  0  0  0  0  0  0  0  0  0  0  0
   10.8445   14.5654   14.8798 N   0  0  0  0  0  0  0  0  0  0  0  0
  1  2  1  0  0  0  0
  2  3  1  0  0  0  0
  3  4  1  0  0  0  0
  4  5  1  0  0  0  0
  5  6  1  0  0  0  0
  6  7  1  0  0  0  0
  7  8  1  0  0  0  0
  8  9  1  0  0  0  0
  9 10  1  0  0  0  0
 10 11  1  0  0  0  0
 11 12  1  0  0  0  0
 12 13  1  0  0  0  0
 13 14  1  0  0  0  0
M  END
>  <CHROM.1>
-66.53927224,-177.25089473,174.98736437,-169.36568151,64.84749623,70.86019236
-179.85344170,113.29977648,87.78784287,-179.69653691,-66.91027138,13.39902505
11.20615154,12.13471379,-0.34891363,0.41428186,0.29804907

>  <Name>
ligand

>  <RI>
0

>  <Rbt.Current_Directory>
/home/itssahil/PROJECTS/Mol_Feturizer/New_Systems/rnas/2O3Y

>  <Rbt.Executable>
rbdock ($Id: //depot/dev/client3/rdock/2013.1/src/exe/rbdock.cxx#4 $)

>  <Rbt.Library>
libRbt.so (2013.1, Build901 2013/11/27)

>  <Rbt.Parameter_File>
/export/apps/rDock/src/rDock_2013.1_src/data/scripts/dock_solv.prm

>  <Rbt.Receptor>
prm/pocket_docking_2.prm

>  <SCORE>
0.942224

>  <SCORE.INTER>
9.29611

>  <SCORE.INTER.CONST>
1

>  <SCORE.INTER.POLAR>
0

>  <SCORE.INTER.ROT>
11

>  <SCORE.INTER.SOLV>
1.60792

>  <SCORE.INTER.VDW>
-5.2719

>  <SCORE.INTER.norm>
0.664008

>  <SCORE.INTRA>
-8.35626

>  <SCORE.INTRA.DIHEDRAL>
-21.38

>  <SCORE.INTRA.DIHEDRAL.0>
24.1231

>  <SCORE.INTRA.POLAR>
0

>  <SCORE.INTRA.POLAR.0>
0

>  <SCORE.INTRA.REPUL>
0

>  <SCORE.INTRA.REPUL.0>
0

>  <SCORE.INTRA.SOLV>
1.43539

>  <SCORE.INTRA.SOLV.lig_0>
-48.2216

>  <SCORE.INTRA.VDW>
1.61603

>  <SCORE.INTRA.VDW.0>
-1.3967

>  <SCORE.INTRA.norm>
-0.596876

>  <SCORE.RESTR>
0.00236975

>  <SCORE.RESTR.CAVITY>
0.00236975

>  <SCORE.RESTR.norm>
0.000169268

>  <SCORE.SYSTEM>
0

>  <SCORE.SYSTEM.CONST>
0

>  <SCORE.SYSTEM.DIHEDRAL>
0

>  <SCORE.SYSTEM.SOLV>
0

>  <SCORE.SYSTEM.norm>
0

>  <SCORE.heavy>
14

>  <SCORE.norm>
0.0673017

>  <RMSD>
1.523

$$$$
ligand
 OpenBabel11021811463D
libRbt.so/2013.1/901 2013/11/27
 14 13  0  0  0  0  0  0  0  0999 V2000
   11.0858   13.5398   14.9858 N   0  0  0  0  0  0  0  0  0  0  0  0
   12.4297   12.9657   14.8363 C   0  0  0  0  0  0  0  0  0  0  0  0
   12.3108   11.4779   14.5221 C   0  0  0  0  0  0  0  0  0  0  0  0
   11.7404   11.3200   13.1222 C   0  0  0  0  0  0  0  0  0  0  0  0
   11.6569    9.8911   12.7996 N   0  0  0  0  0  0  0  0  0  0  0  0
   11.6083    9.7837   11.3310 C   0  0  0  0  0  0  0  0  0  0  0  0
   12.8156    8.9972   10.8078 C   0  0  0  0  0  0  0  0  0  0  0  0
   12.9840    9.3108    9.3135 C   0  0  0  0  0  0  0  0  0  0  0  0
   13.5582   10.6551    9.1404 C   0  0  0  0  0  0  0  0  0  0  0  0
   14.9284   10.6289    9.6914 N   0  0  0  0  0  0  0  0  0  0  0  0
   15.2951   12.0035   10.2621 C   0  0  0  0  0  0  0  0  0  0  0  0
   16.6848   11.9401   10.9073 C   0  0  0  0  0  0  0  0  0  0  0  0
   17.0354   13.2602   11.4658 C   0  0  0  0  0  0  0  0  0  0  0  0
   17.2112   14.2347   10.3676 N   0  0  0  0  0  0  0  0  0  0  0  0
  1  2  1  0  0  0  0
  2  3  1  0  0  0  0
  3  4  1  0  0  0  0
  4  5  1  0  0  0  0
  5  6  1  0  0  0  0
  6  7  1  0  0  0  0
  7  8  1  0  0  0  0
  8  9  1  0  0  0  0
  9 10  1  0  0  0  0
 10 11  1  0  0  0  0
 11 12  1  0  0  0  0
 12 13  1  0  0  0  0
 13 14  1  0  0  0  0
M  END
>  <CHROM.1>
69.36887722,178.50184116,-158.77927560,118.50120583,-161.07992861,75.12134946
65.69399298,-148.66827792,176.54921050,-179.60007094,-67.04720073,13.66744476
11.42892523,11.68222977,-2.71892116,-0.56472536,-2.27394536

>  <Name>
ligand

>  <RI>
0

>  <Rbt.Current_Directory>
/home/itssahil/PROJECTS/Mol_Feturizer/New_Systems/rnas/2O3Y

>  <Rbt.Executable>
rbdock ($Id: //depot/dev/client3/rdock/2013.1/src/exe/rbdock.cxx#4 $)

>  <Rbt.Library>
libRbt.so (2013.1, Build901 2013/11/27)

>  <Rbt.Parameter_File>
/export/apps/rDock/src/rDock_2013.1_src/data/scripts/dock_solv.prm

>  <Rbt.Receptor>
prm/pocket_docking_2.prm

>  <SCORE>
0.856615

>  <SCORE.INTER>
8.75574

>  <SCORE.INTER.CONST>
1

>  <SCORE.INTER.POLAR>
0

>  <SCORE.INTER.ROT>
11

>  <SCORE.INTER.SOLV>
2.27436

>  <SCORE.INTER.VDW>
-5.8543

>  <SCORE.INTER.norm>
0.62541

>  <SCORE.INTRA>
-7.89912

>  <SCORE.INTRA.DIHEDRAL>
-19.1403

>  <SCORE.INTRA.DIHEDRAL.0>
24.1231

>  <SCORE.INTRA.POLAR>
0

>  <SCORE.INTRA.POLAR.0>
0

>  <SCORE.INTRA.REPUL>
0

>  <SCORE.INTRA.REPUL.0>
0

>  <SCORE.INTRA.SOLV>
1.44024

>  <SCORE.INTRA.SOLV.lig_0>
-48.2216

>  <SCORE.INTRA.VDW>
0.950914

>  <SCORE.INTRA.VDW.0>
-1.3967

>  <SCORE.INTRA.norm>
-0.564223

>  <SCORE.RESTR>
0

>  <SCORE.RESTR.CAVITY>
0

>  <SCORE.RESTR.norm>
0

>  <SCORE.SYSTEM>
0

>  <SCORE.SYSTEM.CONST>
0

>  <SCORE.SYSTEM.DIHEDRAL>
0

>  <SCORE.SYSTEM.SOLV>
0

>  <SCORE.SYSTEM.norm>
0

>  <SCORE.heavy>
14

>  <SCORE.norm>
0.0611868

>  <RMSD>
1.527

$$$$
ligand
 OpenBabel11021811463D
libRbt.so/2013.1/901 2013/11/27
 14 13  0  0  0  0  0  0  0  0999 V2000
   15.5766   13.4536   11.5885 N   0  0  0  0  0  0  0  0  0  0  0  0
   15.0839   12.2161   10.9689 C   0  0  0  0  0  0  0  0  0  0  0  0
   14.8602   12.4521    9.4787 C   0  0  0  0  0  0  0  0  0  0  0  0
   14.3861   11.1540    8.8461 C   0  0  0  0  0  0  0  0  0  0  0  0
   13.0569   10.8243    9.3728 N   0  0  0  0  0  0  0  0  0  0  0  0
   12.9171    9.3594    9.3014 C   0  0  0  0  0  0  0  0  0  0  0  0
   13.0681    8.7350   10.6933 C   0  0  0  0  0  0  0  0  0  0  0  0
   11.9711    9.3109   11.6013 C   0  0  0  0  0  0  0  0  0  0  0  0
   12.1267    8.7964   12.9716 C   0  0  0  0  0  0  0  0  0  0  0  0
   11.2398    9.5878   13.8484 N   0  0  0  0  0  0  0  0  0  0  0  0
   11.9466   10.8729   14.2942 C   0  0  0  0  0  0  0  0  0  0  0  0
   10.9048   11.9586   14.5897 C   0  0  0  0  0  0  0  0  0  0  0  0
   10.3188   12.4439   13.3253 C   0  0  0  0  0  0  0  0  0  0  0  0
    9.4232   13.5884   13.5986 N   0  0  0  0  0  0  0  0  0  0  0  0
  1  2  1  0  0  0  0
  2  3  1  0  0  0  0
  3  4  1  0  0  0  0
  4  5  1  0  0  0  0
  5  6  1  0  0  0  0
  6  7  1  0  0  0  0
  7  8  1  0  0  0  0
  8  9  1  0  0  0  0
  9 10  1  0  0  0  0
 10 11  1  0  0  0  0
 11 12  1  0  0  0  0
 12 13  1  0  0  0  0
 13 14  1  0  0  0  0
M  END
>  <CHROM.1>
178.52802609,66.53448289,-152.74581099,104.59266196,60.03657869,-176.73084367
168.35812977,-85.02249894,152.72717314,-72.25811610,-173.95820883,12.63439586
11.05347910,11.74833711,-0.32216808,0.80337541,0.37013278

>  <Name>
ligand

>  <RI>
0

>  <Rbt.Current_Directory>
/home/itssahil/PROJECTS/Mol_Feturizer/New_Systems/rnas/2O3Y

>  <Rbt.Executable>
rbdock ($Id: //depot/dev/client3/rdock/2013.1/src/exe/rbdock.cxx#4 $)

>  <Rbt.Library>
libRbt.so (2013.1, Build901 2013/11/27)

>  <Rbt.Parameter_File>
/export/apps/rDock/src/rDock_2013.1_src/data/scripts/dock_solv.prm

>  <Rbt.Receptor>
prm/pocket_docking_2.prm

>  <SCORE>
-0.241616

>  <SCORE.INTER>
9.23871

>  <SCORE.INTER.CONST>
1

>  <SCORE.INTER.POLAR>
0

>  <SCORE.INTER.ROT>
11

>  <SCORE.INTER.SOLV>
3.03039

>  <SCORE.INTER.VDW>
-5.78433

>  <SCORE.INTER.norm>
0.659908

>  <SCORE.INTRA>
-9.48033

>  <SCORE.INTRA.DIHEDRAL>
-20.2378

>  <SCORE.INTRA.DIHEDRAL.0>
24.1231

>  <SCORE.INTRA.POLAR>
0

>  <SCORE.INTRA.POLAR.0>
0

>  <SCORE.INTRA.REPUL>
0

>  <SCORE.INTRA.REPUL.0>
0

>  <SCORE.INTRA.SOLV>
0.255675

>  <SCORE.INTRA.SOLV.lig_0>
-48.2216

>  <SCORE.INTRA.VDW>
0.510722

>  <SCORE.INTRA.VDW.0>
-1.3967

>  <SCORE.INTRA.norm>
-0.677166

>  <SCORE.RESTR>
0

>  <SCORE.RESTR.CAVITY>
0

>  <SCORE.RESTR.norm>
0

>  <SCORE.SYSTEM>
0

>  <SCORE.SYSTEM.CONST>
0

>  <SCORE.SYSTEM.DIHEDRAL>
0

>  <SCORE.SYSTEM.SOLV>
0

>  <SCORE.SYSTEM.norm>
0

>  <SCORE.heavy>
14

>  <SCORE.norm>
-0.0172583

>  <RMSD>
1.576

$$$$
ligand
 OpenBabel11021811463D
libRbt.so/2013.1/901 2013/11/27
 14 13  0  0  0  0  0  0  0  0999 V2000
   17.3319   13.4309   10.4990 N   0  0  0  0  0  0  0  0  0  0  0  0
   16.9998   12.0003   10.4659 C   0  0  0  0  0  0  0  0  0  0  0  0
   16.3379   11.6665    9.1330 C   0  0  0  0  0  0  0  0  0  0  0  0
   16.0364   10.1772    9.0987 C   0  0  0  0  0  0  0  0  0  0  0  0
   15.0044    9.8763   10.0973 N   0  0  0  0  0  0  0  0  0  0  0  0
   13.7512    9.6345    9.3613 C   0  0  0  0  0  0  0  0  0  0  0  0
   12.5568    9.6157   10.3221 C   0  0  0  0  0  0  0  0  0  0  0  0
   12.7215    8.4199   11.2721 C   0  0  0  0  0  0  0  0  0  0  0  0
   11.6756    8.4486   12.3074 C   0  0  0  0  0  0  0  0  0  0  0  0
   11.9708    9.5814   13.2081 N   0  0  0  0  0  0  0  0  0  0  0  0
   10.8987   10.6671   13.0610 C   0  0  0  0  0  0  0  0  0  0  0  0
   11.5529   11.9815   12.6184 C   0  0  0  0  0  0  0  0  0  0  0  0
   10.5176   13.0177   12.4395 C   0  0  0  0  0  0  0  0  0  0  0  0
    9.9514   13.3880   13.7543 N   0  0  0  0  0  0  0  0  0  0  0  0
  1  2  1  0  0  0  0
  2  3  1  0  0  0  0
  3  4  1  0  0  0  0
  4  5  1  0  0  0  0
  5  6  1  0  0  0  0
  6  7  1  0  0  0  0
  7  8  1  0  0  0  0
  8  9  1  0  0  0  0
  9 10  1  0  0  0  0
 10 11  1  0  0  0  0
 11 12  1  0  0  0  0
 12 13  1  0  0  0  0
 13 14  1  0  0  0  0
M  END
>  <CHROM.1>
178.41910959,67.09318206,105.77603503,-167.59195616,-64.50092509,173.75999595
-70.27226902,112.27537677,-120.65132238,178.41563903,68.90247082,13.37899406
10.85009199,11.25959652,-0.12767979,0.51232105,0.28473234

>  <Name>
ligand

>  <RI>
0

>  <Rbt.Current_Directory>
/home/itssahil/PROJECTS/Mol_Feturizer/New_Systems/rnas/2O3Y

>  <Rbt.Executable>
rbdock ($Id: //depot/dev/client3/rdock/2013.1/src/exe/rbdock.cxx#4 $)

>  <Rbt.Library>
libRbt.so (2013.1, Build901 2013/11/27)

>  <Rbt.Parameter_File>
/export/apps/rDock/src/rDock_2013.1_src/data/scripts/dock_solv.prm

>  <Rbt.Receptor>
prm/pocket_docking_2.prm

>  <SCORE>
-0.436376

>  <SCORE.INTER>
8.07575

>  <SCORE.INTER.CONST>
1

>  <SCORE.INTER.POLAR>
0

>  <SCORE.INTER.ROT>
11

>  <SCORE.INTER.SOLV>
2.60965

>  <SCORE.INTER.VDW>
-6.41938

>  <SCORE.INTER.norm>
0.57684

>  <SCORE.INTRA>
-8.51345

>  <SCORE.INTRA.DIHEDRAL>
-19.4791

>  <SCORE.INTRA.DIHEDRAL.0>
24.1231

>  <SCORE.INTRA.POLAR>
0

>  <SCORE.INTRA.POLAR.0>
0

>  <SCORE.INTRA.REPUL>
0

>  <SCORE.INTRA.REPUL.0>
0

>  <SCORE.INTRA.SOLV>
1.14326

>  <SCORE.INTRA.SOLV.lig_0>
-48.2216

>  <SCORE.INTRA.VDW>
0.654446

>  <SCORE.INTRA.VDW.0>
-1.3967

>  <SCORE.INTRA.norm>
-0.608104

>  <SCORE.RESTR>
0.00132338

>  <SCORE.RESTR.CAVITY>
0.00132338

>  <SCORE.RESTR.norm>
9.45274e-05

>  <SCORE.SYSTEM>
0

>  <SCORE.SYSTEM.CONST>
0

>  <SCORE.SYSTEM.DIHEDRAL>
0

>  <SCORE.SYSTEM.SOLV>
0

>  <SCORE.SYSTEM.norm>
0

>  <SCORE.heavy>
14

>  <SCORE.norm>
-0.0311697

>  <RMSD>
1.583

$$$$
ligand
 OpenBabel11021811463D
libRbt.so/2013.1/901 2013/11/27
 14 13  0  0  0  0  0  0  0  0999 V2000
   17.2828   14.5190   10.5014 N   0  0  0  0  0  0  0  0  0  0  0  0
   16.3252   13.5437   11.0397 C   0  0  0  0  0  0  0  0  0  0  0  0
   15.3269   13.1630    9.9513 C   0  0  0  0  0  0  0  0  0  0  0  0
   14.3408   12.1586   10.5249 C   0  0  0  0  0  0  0  0  0  0  0  0
   13.4190   11.7362    9.4643 N   0  0  0  0  0  0  0  0  0  0  0  0
   13.9200   10.4515    8.9453 C   0  0  0  0  0  0  0  0  0  0  0  0
   12.9003    9.3346    9.1956 C   0  0  0  0  0  0  0  0  0  0  0  0
   12.8224    9.0836   10.7090 C   0  0  0  0  0  0  0  0  0  0  0  0
   11.8661   10.0160   11.3278 C   0  0  0  0  0  0  0  0  0  0  0  0
   11.9029    9.7891   12.7868 N   0  0  0  0  0  0  0  0  0  0  0  0
   10.9214   10.7313   13.4932 C   0  0  0  0  0  0  0  0  0  0  0  0
   11.5702   12.1085   13.6771 C   0  0  0  0  0  0  0  0  0  0  0  0
   10.6521   12.9972   14.4152 C   0  0  0  0  0  0  0  0  0  0  0  0
   11.2306   14.3556   14.4949 N   0  0  0  0  0  0  0  0  0  0  0  0
  1  2  1  0  0  0  0
  2  3  1  0  0  0  0
  3  4  1  0  0  0  0
  4  5  1  0  0  0  0
  5  6  1  0  0  0  0
  6  7  1  0  0  0  0
  7  8  1  0  0  0  0
  8  9  1  0  0  0  0
  9 10  1  0  0  0  0
 10 11  1  0  0  0  0
 11 12  1  0  0  0  0
 12 13  1  0  0  0  0
 13 14  1  0  0  0  0
M  END
>  <CHROM.1>
-179.78449307,-177.15036287,98.12055004,117.03600450,-68.05940999,85.58687572
-176.23540609,-179.84486256,-81.86900582,-177.26016803,-175.36820121,13.17708549
11.71305649,11.46602117,-0.28084649,0.65748479,0.68458701

>  <Name>
ligand

>  <RI>
0

>  <Rbt.Current_Directory>
/home/itssahil/PROJECTS/Mol_Feturizer/New_Systems/rnas/2O3Y

>  <Rbt.Executable>
rbdock ($Id: //depot/dev/client3/rdock/2013.1/src/exe/rbdock.cxx#4 $)

>  <Rbt.Library>
libRbt.so (2013.1, Build901 2013/11/27)

>  <Rbt.Parameter_File>
/export/apps/rDock/src/rDock_2013.1_src/data/scripts/dock_solv.prm

>  <Rbt.Receptor>
prm/pocket_docking_2.prm

>  <SCORE>
1.61992

>  <SCORE.INTER>
9.90152

>  <SCORE.INTER.CONST>
1

>  <SCORE.INTER.POLAR>
0

>  <SCORE.INTER.ROT>
11

>  <SCORE.INTER.SOLV>
2.10756

>  <SCORE.INTER.VDW>
-5.03484

>  <SCORE.INTER.norm>
0.707252

>  <SCORE.INTRA>
-8.2816

>  <SCORE.INTRA.DIHEDRAL>
-18.9359

>  <SCORE.INTRA.DIHEDRAL.0>
24.1231

>  <SCORE.INTRA.POLAR>
0

>  <SCORE.INTRA.POLAR.0>
0

>  <SCORE.INTRA.REPUL>
0

>  <SCORE.INTRA.REPUL.0>
0

>  <SCORE.INTRA.SOLV>
0.44056

>  <SCORE.INTRA.SOLV.lig_0>
-48.2216

>  <SCORE.INTRA.VDW>
0.966059

>  <SCORE.INTRA.VDW.0>
-1.3967

>  <SCORE.INTRA.norm>
-0.591543

>  <SCORE.RESTR>
0

>  <SCORE.RESTR.CAVITY>
0

>  <SCORE.RESTR.norm>
0

>  <SCORE.SYSTEM>
0

>  <SCORE.SYSTEM.CONST>
0

>  <SCORE.SYSTEM.DIHEDRAL>
0

>  <SCORE.SYSTEM.SOLV>
0

>  <SCORE.SYSTEM.norm>
0

>  <SCORE.heavy>
14

>  <SCORE.norm>
0.115709

>  <RMSD>
1.583

$$$$
ligand
 OpenBabel11021811463D
libRbt.so/2013.1/901 2013/11/27
 14 13  0  0  0  0  0  0  0  0999 V2000
   11.4361   13.6552   14.0181 N   0  0  0  0  0  0  0  0  0  0  0  0
   10.2139   13.0985   13.4227 C   0  0  0  0  0  0  0  0  0  0  0  0
   10.5144   11.7155   12.8541 C   0  0  0  0  0  0  0  0  0  0  0  0
   10.8317   10.7745   14.0048 C   0  0  0  0  0  0  0  0  0  0  0  0
   11.0049    9.4166   13.4765 N   0  0  0  0  0  0  0  0  0  0  0  0
   12.4412    9.1007   13.5648 C   0  0  0  0  0  0  0  0  0  0  0  0
   13.1684    9.5360   12.2874 C   0  0  0  0  0  0  0  0  0  0  0  0
   12.5866    8.7428   11.1077 C   0  0  0  0  0  0  0  0  0  0  0  0
   13.1165    9.2641    9.8372 C   0  0  0  0  0  0  0  0  0  0  0  0
   14.5714    9.0094    9.8229 N   0  0  0  0  0  0  0  0  0  0  0  0
   15.3251   10.2729    9.3925 C   0  0  0  0  0  0  0  0  0  0  0  0
   16.5773   10.4473   10.2604 C   0  0  0  0  0  0  0  0  0  0  0  0
   17.2873   11.6800    9.8682 C   0  0  0  0  0  0  0  0  0  0  0  0
   16.4673   12.8597   10.2179 N   0  0  0  0  0  0  0  0  0  0  0  0
  1  2  1  0  0  0  0
  2  3  1  0  0  0  0
  3  4  1  0  0  0  0
  4  5  1  0  0  0  0
  5  6  1  0  0  0  0
  6  7  1  0  0  0  0
  7  8  1  0  0  0  0
  8  9  1  0  0  0  0
  9 10  1  0  0  0  0
 10 11  1  0  0  0  0
 11 12  1  0  0  0  0
 12 13  1  0  0  0  0
 13 14  1  0  0  0  0
M  END
>  <CHROM.1>
66.81846916,175.03705933,108.48364427,-89.38987095,-62.18735588,171.87793388
64.86546918,-132.73065354,138.61006881,-178.69660871,67.31381176,13.25296776
10.68357422,11.72387770,-2.88165253,-0.58040449,-2.87340774

>  <Name>
ligand

>  <RI>
0

>  <Rbt.Current_Directory>
/home/itssahil/PROJECTS/Mol_Feturizer/New_Systems/rnas/2O3Y

>  <Rbt.Executable>
rbdock ($Id: //depot/dev/client3/rdock/2013.1/src/exe/rbdock.cxx#4 $)

>  <Rbt.Library>
libRbt.so (2013.1, Build901 2013/11/27)

>  <Rbt.Parameter_File>
/export/apps/rDock/src/rDock_2013.1_src/data/scripts/dock_solv.prm

>  <Rbt.Receptor>
prm/pocket_docking_2.prm

>  <SCORE>
1.32158

>  <SCORE.INTER>
9.35722

>  <SCORE.INTER.CONST>
1

>  <SCORE.INTER.POLAR>
0

>  <SCORE.INTER.ROT>
11

>  <SCORE.INTER.SOLV>
2.10244

>  <SCORE.INTER.VDW>
-5.396

>  <SCORE.INTER.norm>
0.668373

>  <SCORE.INTRA>
-8.03835

>  <SCORE.INTRA.DIHEDRAL>
-19.5868

>  <SCORE.INTRA.DIHEDRAL.0>
24.1231

>  <SCORE.INTRA.POLAR>
0

>  <SCORE.INTRA.POLAR.0>
0

>  <SCORE.INTRA.REPUL>
0

>  <SCORE.INTRA.REPUL.0>
0

>  <SCORE.INTRA.SOLV>
1.56402

>  <SCORE.INTRA.SOLV.lig_0>
-48.2216

>  <SCORE.INTRA.VDW>
0.973024

>  <SCORE.INTRA.VDW.0>
-1.3967

>  <SCORE.INTRA.norm>
-0.574168

>  <SCORE.RESTR>
0.0027095

>  <SCORE.RESTR.CAVITY>
0.0027095

>  <SCORE.RESTR.norm>
0.000193536

>  <SCORE.SYSTEM>
0

>  <SCORE.SYSTEM.CONST>
0

>  <SCORE.SYSTEM.DIHEDRAL>
0

>  <SCORE.SYSTEM.SOLV>
0

>  <SCORE.SYSTEM.norm>
0

>  <SCORE.heavy>
14

>  <SCORE.norm>
0.0943984

>  <RMSD>
1.595

$$$$
ligand
 OpenBabel11021811463D
libRbt.so/2013.1/901 2013/11/27
 14 13  0  0  0  0  0  0  0  0999 V2000
   17.0399   14.2998   10.8076 N   0  0  0  0  0  0  0  0  0  0  0  0
   16.4259   12.9733   10.9541 C   0  0  0  0  0  0  0  0  0  0  0  0
   17.2675   11.9425   10.2088 C   0  0  0  0  0  0  0  0  0  0  0  0
   16.5962   10.5845   10.3328 C   0  0  0  0  0  0  0  0  0  0  0  0
   15.3704   10.5831    9.5264 N   0  0  0  0  0  0  0  0  0  0  0  0
   14.6315    9.3553    9.8691 C   0  0  0  0  0  0  0  0  0  0  0  0
   13.4384    9.6795   10.7754 C   0  0  0  0  0  0  0  0  0  0  0  0
   12.8038    8.3560   11.2282 C   0  0  0  0  0  0  0  0  0  0  0  0
   11.6339    8.6217   12.0812 C   0  0  0  0  0  0  0  0  0  0  0  0
   12.1164    9.3021   13.3002 N   0  0  0  0  0  0  0  0  0  0  0  0
   10.9676   10.0652   13.9695 C   0  0  0  0  0  0  0  0  0  0  0  0
   10.9245   11.5029   13.4376 C   0  0  0  0  0  0  0  0  0  0  0  0
   12.1734   12.2034   13.7939 C   0  0  0  0  0  0  0  0  0  0  0  0
   12.1237   13.5946   13.2952 N   0  0  0  0  0  0  0  0  0  0  0  0
  1  2  1  0  0  0  0
  2  3  1  0  0  0  0
  3  4  1  0  0  0  0
  4  5  1  0  0  0  0
  5  6  1  0  0  0  0
  6  7  1  0  0  0  0
  7  8  1  0  0  0  0
  8  9  1  0  0  0  0
  9 10  1  0  0  0  0
 10 11  1  0  0  0  0
 11 12  1  0  0  0  0
 12 13  1  0  0  0  0
 13 14  1  0  0  0  0
M  END
>  <CHROM.1>
-178.22642248,70.71807066,-169.76141796,104.38183539,-173.66747798,-178.85172352
-64.00941226,158.80444885,-91.32826511,-62.73939754,-179.30402859,13.82223140
10.93270764,11.68424329,0.09219313,0.58186292,0.41794232

>  <Name>
ligand

>  <RI>
0

>  <Rbt.Current_Directory>
/home/itssahil/PROJECTS/Mol_Feturizer/New_Systems/rnas/2O3Y

>  <Rbt.Executable>
rbdock ($Id: //depot/dev/client3/rdock/2013.1/src/exe/rbdock.cxx#4 $)

>  <Rbt.Library>
libRbt.so (2013.1, Build901 2013/11/27)

>  <Rbt.Parameter_File>
/export/apps/rDock/src/rDock_2013.1_src/data/scripts/dock_solv.prm

>  <Rbt.Receptor>
prm/pocket_docking_2.prm

>  <SCORE>
-0.554936

>  <SCORE.INTER>
9.46041

>  <SCORE.INTER.CONST>
1

>  <SCORE.INTER.POLAR>
0

>  <SCORE.INTER.ROT>
11

>  <SCORE.INTER.SOLV>
1.8081

>  <SCORE.INTER.VDW>
-5.22909

>  <SCORE.INTER.norm>
0.675744

>  <SCORE.INTRA>
-10.0153

>  <SCORE.INTRA.DIHEDRAL>
-21.372

>  <SCORE.INTRA.DIHEDRAL.0>
24.1231

>  <SCORE.INTRA.POLAR>
0

>  <SCORE.INTRA.POLAR.0>
0

>  <SCORE.INTRA.REPUL>
0

>  <SCORE.INTRA.REPUL.0>
0

>  <SCORE.INTRA.SOLV>
0.36131

>  <SCORE.INTRA.SOLV.lig_0>
-48.2216

>  <SCORE.INTRA.VDW>
0.489987

>  <SCORE.INTRA.VDW.0>
-1.3967

>  <SCORE.INTRA.norm>
-0.715382

>  <SCORE.RESTR>
0

>  <SCORE.RESTR.CAVITY>
0

>  <SCORE.RESTR.norm>
0

>  <SCORE.SYSTEM>
0

>  <SCORE.SYSTEM.CONST>
0

>  <SCORE.SYSTEM.DIHEDRAL>
0

>  <SCORE.SYSTEM.SOLV>
0

>  <SCORE.SYSTEM.norm>
0

>  <SCORE.heavy>
14

>  <SCORE.norm>
-0.0396383

>  <RMSD>
1.607

$$$$
ligand
 OpenBabel11021811463D
libRbt.so/2013.1/901 2013/11/27
 14 13  0  0  0  0  0  0  0  0999 V2000
   16.6714   13.6486   10.0118 N   0  0  0  0  0  0  0  0  0  0  0  0
   15.2569   13.5765    9.6218 C   0  0  0  0  0  0  0  0  0  0  0  0
   14.9013   12.1339    9.2771 C   0  0  0  0  0  0  0  0  0  0  0  0
   13.4187   12.0628    8.9502 C   0  0  0  0  0  0  0  0  0  0  0  0
   13.0490   10.6627    8.7139 N   0  0  0  0  0  0  0  0  0  0  0  0
   12.4420   10.1619    9.9595 C   0  0  0  0  0  0  0  0  0  0  0  0
   13.1420    8.8792   10.4226 C   0  0  0  0  0  0  0  0  0  0  0  0
   12.4877    8.4198   11.7342 C   0  0  0  0  0  0  0  0  0  0  0  0
   13.0998    9.1180   12.8764 C   0  0  0  0  0  0  0  0  0  0  0  0
   12.6209   10.5151   12.8535 N   0  0  0  0  0  0  0  0  0  0  0  0
   13.3865   11.3534   13.8836 C   0  0  0  0  0  0  0  0  0  0  0  0
   13.2998   12.8376   13.5077 C   0  0  0  0  0  0  0  0  0  0  0  0
   11.8961   13.2874   13.5753 C   0  0  0  0  0  0  0  0  0  0  0  0
   11.4361   13.2740   14.9806 N   0  0  0  0  0  0  0  0  0  0  0  0
  1  2  1  0  0  0  0
  2  3  1  0  0  0  0
  3  4  1  0  0  0  0
  4  5  1  0  0  0  0
  5  6  1  0  0  0  0
  6  7  1  0  0  0  0
  7  8  1  0  0  0  0
  8  9  1  0  0  0  0
  9 10  1  0  0  0  0
 10 11  1  0  0  0  0
 11 12  1  0  0  0  0
 12 13  1  0  0  0  0
 13 14  1  0  0  0  0
M  END
>  <CHROM.1>
176.92123730,-175.88844672,98.97463575,-126.46523185,178.92482552,-84.82667425
73.00519716,-171.21399968,158.34413758,63.81525405,67.60047585,13.36482589
11.42339289,11.45479890,-0.57732869,1.00654546,0.73339254

>  <Name>
ligand

>  <RI>
0

>  <Rbt.Current_Directory>
/home/itssahil/PROJECTS/Mol_Feturizer/New_Systems/rnas/2O3Y

>  <Rbt.Executable>
rbdock ($Id: //depot/dev/client3/rdock/2013.1/src/exe/rbdock.cxx#4 $)

>  <Rbt.Library>
libRbt.so (2013.1, Build901 2013/11/27)

>  <Rbt.Parameter_File>
/export/apps/rDock/src/rDock_2013.1_src/data/scripts/dock_solv.prm

>  <Rbt.Receptor>
prm/pocket_docking_2.prm

>  <SCORE>
0.730277

>  <SCORE.INTER>
8.45856

>  <SCORE.INTER.CONST>
1

>  <SCORE.INTER.POLAR>
0

>  <SCORE.INTER.ROT>
11

>  <SCORE.INTER.SOLV>
3.61278

>  <SCORE.INTER.VDW>
-6.49855

>  <SCORE.INTER.norm>
0.604183

>  <SCORE.INTRA>
-7.74043

>  <SCORE.INTRA.DIHEDRAL>
-18.4458

>  <SCORE.INTRA.DIHEDRAL.0>
24.1231

>  <SCORE.INTRA.POLAR>
0

>  <SCORE.INTRA.POLAR.0>
0

>  <SCORE.INTRA.REPUL>
0

>  <SCORE.INTRA.REPUL.0>
0

>  <SCORE.INTRA.SOLV>
2.05066

>  <SCORE.INTRA.SOLV.lig_0>
-48.2216

>  <SCORE.INTRA.VDW>
0.457122

>  <SCORE.INTRA.VDW.0>
-1.3967

>  <SCORE.INTRA.norm>
-0.552888

>  <SCORE.RESTR>
0.0121476

>  <SCORE.RESTR.CAVITY>
0.0121476

>  <SCORE.RESTR.norm>
0.000867687

>  <SCORE.SYSTEM>
0

>  <SCORE.SYSTEM.CONST>
0

>  <SCORE.SYSTEM.DIHEDRAL>
0

>  <SCORE.SYSTEM.SOLV>
0

>  <SCORE.SYSTEM.norm>
0

>  <SCORE.heavy>
14

>  <SCORE.norm>
0.0521626

>  <RMSD>
1.614

$$$$
ligand
 OpenBabel11021811463D
libRbt.so/2013.1/901 2013/11/27
 14 13  0  0  0  0  0  0  0  0999 V2000
   17.1456   11.5290    9.8848 N   0  0  0  0  0  0  0  0  0  0  0  0
   15.8688   10.9106    9.5035 C   0  0  0  0  0  0  0  0  0  0  0  0
   14.9609   11.9681    8.8842 C   0  0  0  0  0  0  0  0  0  0  0  0
   13.6540   11.3087    8.4751 C   0  0  0  0  0  0  0  0  0  0  0  0
   12.9687   10.8217    9.6776 N   0  0  0  0  0  0  0  0  0  0  0  0
   12.8268    9.3626    9.5307 C   0  0  0  0  0  0  0  0  0  0  0  0
   13.1092    8.6568   10.8619 C   0  0  0  0  0  0  0  0  0  0  0  0
   12.1649    9.2377   11.9251 C   0  0  0  0  0  0  0  0  0  0  0  0
   12.4650    8.6528   13.2421 C   0  0  0  0  0  0  0  0  0  0  0  0
   11.7903    9.4813   14.2620 N   0  0  0  0  0  0  0  0  0  0  0  0
   12.8018   10.4120   14.9407 C   0  0  0  0  0  0  0  0  0  0  0  0
   12.8749   11.7395   14.1764 C   0  0  0  0  0  0  0  0  0  0  0  0
   11.5860   12.4493   14.2866 C   0  0  0  0  0  0  0  0  0  0  0  0
   11.6670   13.7422   13.5736 N   0  0  0  0  0  0  0  0  0  0  0  0
  1  2  1  0  0  0  0
  2  3  1  0  0  0  0
  3  4  1  0  0  0  0
  4  5  1  0  0  0  0
  5  6  1  0  0  0  0
  6  7  1  0  0  0  0
  7  8  1  0  0  0  0
  8  9  1  0  0  0  0
  9 10  1  0  0  0  0
 10 11  1  0  0  0  0
 11 12  1  0  0  0  0
 12 13  1  0  0  0  0
 13 14  1  0  0  0  0
M  END
>  <CHROM.1>
179.10385815,64.26688305,-119.43116667,139.00671044,56.19070160,-176.13748816
165.57954989,-101.95494243,90.23655972,65.70427596,178.80082558,13.27737699
10.73346700,11.65880855,-0.45907964,0.97688736,0.54061669

>  <Name>
ligand

>  <RI>
0

>  <Rbt.Current_Directory>
/home/itssahil/PROJECTS/Mol_Feturizer/New_Systems/rnas/2O3Y

>  <Rbt.Executable>
rbdock ($Id: //depot/dev/client3/rdock/2013.1/src/exe/rbdock.cxx#4 $)

>  <Rbt.Library>
libRbt.so (2013.1, Build901 2013/11/27)

>  <Rbt.Parameter_File>
/export/apps/rDock/src/rDock_2013.1_src/data/scripts/dock_solv.prm

>  <Rbt.Receptor>
prm/pocket_docking_2.prm

>  <SCORE>
-0.372207

>  <SCORE.INTER>
8.43925

>  <SCORE.INTER.CONST>
1

>  <SCORE.INTER.POLAR>
0

>  <SCORE.INTER.ROT>
11

>  <SCORE.INTER.SOLV>
2.40554

>  <SCORE.INTER.VDW>
-6.10901

>  <SCORE.INTER.norm>
0.602804

>  <SCORE.INTRA>
-8.81146

>  <SCORE.INTRA.DIHEDRAL>
-19.3714

>  <SCORE.INTRA.DIHEDRAL.0>
24.1231

>  <SCORE.INTRA.POLAR>
0

>  <SCORE.INTRA.POLAR.0>
0

>  <SCORE.INTRA.REPUL>
0

>  <SCORE.INTRA.REPUL.0>
0

>  <SCORE.INTRA.SOLV>
0.451131

>  <SCORE.INTRA.SOLV.lig_0>
-48.2216

>  <SCORE.INTRA.VDW>
0.648671

>  <SCORE.INTRA.VDW.0>
-1.3967

>  <SCORE.INTRA.norm>
-0.62939

>  <SCORE.RESTR>
0

>  <SCORE.RESTR.CAVITY>
0

>  <SCORE.RESTR.norm>
0

>  <SCORE.SYSTEM>
0

>  <SCORE.SYSTEM.CONST>
0

>  <SCORE.SYSTEM.DIHEDRAL>
0

>  <SCORE.SYSTEM.SOLV>
0

>  <SCORE.SYSTEM.norm>
0

>  <SCORE.heavy>
14

>  <SCORE.norm>
-0.0265862

>  <RMSD>
1.620

$$$$
ligand
 OpenBabel11021811463D
libRbt.so/2013.1/901 2013/11/27
 14 13  0  0  0  0  0  0  0  0999 V2000
   10.3780   13.1374   14.6697 N   0  0  0  0  0  0  0  0  0  0  0  0
   10.2235   12.5945   13.3134 C   0  0  0  0  0  0  0  0  0  0  0  0
   11.5217   11.9142   12.8911 C   0  0  0  0  0  0  0  0  0  0  0  0
   11.7370   10.6904   13.7663 C   0  0  0  0  0  0  0  0  0  0  0  0
   13.0237   10.0764   13.4194 N   0  0  0  0  0  0  0  0  0  0  0  0
   12.7504    8.6704   13.0742 C   0  0  0  0  0  0  0  0  0  0  0  0
   12.3368    8.5471   11.6032 C   0  0  0  0  0  0  0  0  0  0  0  0
   13.4399    9.1752   10.7383 C   0  0  0  0  0  0  0  0  0  0  0  0
   12.9716    9.3242    9.3508 C   0  0  0  0  0  0  0  0  0  0  0  0
   13.9909   10.1019    8.6174 N   0  0  0  0  0  0  0  0  0  0  0  0
   13.5063   11.5405    8.4047 C   0  0  0  0  0  0  0  0  0  0  0  0
   14.0565   12.4401    9.5181 C   0  0  0  0  0  0  0  0  0  0  0  0
   15.5268   12.5142    9.4176 C   0  0  0  0  0  0  0  0  0  0  0  0
   16.0616   13.3274   10.5308 N   0  0  0  0  0  0  0  0  0  0  0  0
  1  2  1  0  0  0  0
  2  3  1  0  0  0  0
  3  4  1  0  0  0  0
  4  5  1  0  0  0  0
  5  6  1  0  0  0  0
  6  7  1  0  0  0  0
  7  8  1  0  0  0  0
  8  9  1  0  0  0  0
  9 10  1  0  0  0  0
 10 11  1  0  0  0  0
 11 12  1  0  0  0  0
 12 13  1  0  0  0  0
 13 14  1  0  0  0  0
M  END
>  <CHROM.1>
66.60971700,-176.66343559,-124.50362568,84.95584335,55.62573741,-168.69509523
172.07858827,-104.37934746,95.18873458,65.18977111,-177.22959111,12.96588774
11.00358685,11.37946652,-2.96537211,-0.92854216,-2.93384043

>  <Name>
ligand

>  <RI>
0

>  <Rbt.Current_Directory>
/home/itssahil/PROJECTS/Mol_Feturizer/New_Systems/rnas/2O3Y

>  <Rbt.Executable>
rbdock ($Id: //depot/dev/client3/rdock/2013.1/src/exe/rbdock.cxx#4 $)

>  <Rbt.Library>
libRbt.so (2013.1, Build901 2013/11/27)

>  <Rbt.Parameter_File>
/export/apps/rDock/src/rDock_2013.1_src/data/scripts/dock_solv.prm

>  <Rbt.Receptor>
prm/pocket_docking_2.prm

>  <SCORE>
-0.259188

>  <SCORE.INTER>
8.22863

>  <SCORE.INTER.CONST>
1

>  <SCORE.INTER.POLAR>
0

>  <SCORE.INTER.ROT>
11

>  <SCORE.INTER.SOLV>
3.02979

>  <SCORE.INTER.VDW>
-6.45751

>  <SCORE.INTER.norm>
0.587759

>  <SCORE.INTRA>
-8.491

>  <SCORE.INTRA.DIHEDRAL>
-19.5625

>  <SCORE.INTRA.DIHEDRAL.0>
24.1231

>  <SCORE.INTRA.POLAR>
0

>  <SCORE.INTRA.POLAR.0>
0

>  <SCORE.INTRA.REPUL>
0

>  <SCORE.INTRA.REPUL.0>
0

>  <SCORE.INTRA.SOLV>
0.858752

>  <SCORE.INTRA.SOLV.lig_0>
-48.2216

>  <SCORE.INTRA.VDW>
0.860859

>  <SCORE.INTRA.VDW.0>
-1.3967

>  <SCORE.INTRA.norm>
-0.6065

>  <SCORE.RESTR>
0.00318216

>  <SCORE.RESTR.CAVITY>
0.00318216

>  <SCORE.RESTR.norm>
0.000227297

>  <SCORE.SYSTEM>
0

>  <SCORE.SYSTEM.CONST>
0

>  <SCORE.SYSTEM.DIHEDRAL>
0

>  <SCORE.SYSTEM.SOLV>
0

>  <SCORE.SYSTEM.norm>
0

>  <SCORE.heavy>
14

>  <SCORE.norm>
-0.0185135

>  <RMSD>
1.630

$$$$
ligand
 OpenBabel11021811463D
libRbt.so/2013.1/901 2013/11/27
 14 13  0  0  0  0  0  0  0  0999 V2000
   17.9879   10.9682   10.6686 N   0  0  0  0  0  0  0  0  0  0  0  0
   17.0307   12.0631   10.8762 C   0  0  0  0  0  0  0  0  0  0  0  0
   16.4873   12.5210    9.5266 C   0  0  0  0  0  0  0  0  0  0  0  0
   15.6568   11.3969    8.9294 C   0  0  0  0  0  0  0  0  0  0  0  0
   14.4640   11.1926    9.7591 N   0  0  0  0  0  0  0  0  0  0  0  0
   13.5105   10.4076    8.9558 C   0  0  0  0  0  0  0  0  0  0  0  0
   12.3866    9.8558    9.8403 C   0  0  0  0  0  0  0  0  0  0  0  0
   12.9778    8.7651   10.7461 C   0  0  0  0  0  0  0  0  0  0  0  0
   12.0676    8.4932   11.8706 C   0  0  0  0  0  0  0  0  0  0  0  0
   12.2280    9.5883   12.8487 N   0  0  0  0  0  0  0  0  0  0  0  0
   10.9013   10.3347   13.0290 C   0  0  0  0  0  0  0  0  0  0  0  0
   11.1738   11.8311   13.2241 C   0  0  0  0  0  0  0  0  0  0  0  0
    9.9089   12.5343   13.5122 C   0  0  0  0  0  0  0  0  0  0  0  0
   10.1675   13.9824   13.6632 N   0  0  0  0  0  0  0  0  0  0  0  0
  1  2  1  0  0  0  0
  2  3  1  0  0  0  0
  3  4  1  0  0  0  0
  4  5  1  0  0  0  0
  5  6  1  0  0  0  0
  6  7  1  0  0  0  0
  7  8  1  0  0  0  0
  8  9  1  0  0  0  0
  9 10  1  0  0  0  0
 10 11  1  0  0  0  0
 11 12  1  0  0  0  0
 12 13  1  0  0  0  0
 13 14  1  0  0  0  0
M  END
>  <CHROM.1>
66.48219343,66.54323760,163.45119757,166.26131982,-70.09813218,163.01356840
-77.23647696,118.78567295,-143.54491858,-175.20286350,-178.44851048,13.35333669
10.99513514,11.24622369,-0.22940533,0.47755049,0.41074996

>  <Name>
ligand

>  <RI>
0

>  <Rbt.Current_Directory>
/home/itssahil/PROJECTS/Mol_Feturizer/New_Systems/rnas/2O3Y

>  <Rbt.Executable>
rbdock ($Id: //depot/dev/client3/rdock/2013.1/src/exe/rbdock.cxx#4 $)

>  <Rbt.Library>
libRbt.so (2013.1, Build901 2013/11/27)

>  <Rbt.Parameter_File>
/export/apps/rDock/src/rDock_2013.1_src/data/scripts/dock_solv.prm

>  <Rbt.Receptor>
prm/pocket_docking_2.prm

>  <SCORE>
-0.185764

>  <SCORE.INTER>
8.08826

>  <SCORE.INTER.CONST>
1

>  <SCORE.INTER.POLAR>
0

>  <SCORE.INTER.ROT>
11

>  <SCORE.INTER.SOLV>
2.00955

>  <SCORE.INTER.VDW>
-6.21101

>  <SCORE.INTER.norm>
0.577733

>  <SCORE.INTRA>
-8.27719

>  <SCORE.INTRA.DIHEDRAL>
-18.7924

>  <SCORE.INTRA.DIHEDRAL.0>
24.1231

>  <SCORE.INTRA.POLAR>
0

>  <SCORE.INTRA.POLAR.0>
0

>  <SCORE.INTRA.REPUL>
0

>  <SCORE.INTRA.REPUL.0>
0

>  <SCORE.INTRA.SOLV>
1.82859

>  <SCORE.INTRA.SOLV.lig_0>
-48.2216

>  <SCORE.INTRA.VDW>
0.204708

>  <SCORE.INTRA.VDW.0>
-1.3967

>  <SCORE.INTRA.norm>
-0.591228

>  <SCORE.RESTR>
0.00316841

>  <SCORE.RESTR.CAVITY>
0.00316841

>  <SCORE.RESTR.norm>
0.000226315

>  <SCORE.SYSTEM>
0

>  <SCORE.SYSTEM.CONST>
0

>  <SCORE.SYSTEM.DIHEDRAL>
0

>  <SCORE.SYSTEM.SOLV>
0

>  <SCORE.SYSTEM.norm>
0

>  <SCORE.heavy>
14

>  <SCORE.norm>
-0.0132689

>  <RMSD>
1.633

$$$$
ligand
 OpenBabel11021811463D
libRbt.so/2013.1/901 2013/11/27
 14 13  0  0  0  0  0  0  0  0999 V2000
   11.1948   14.6257   13.7813 N   0  0  0  0  0  0  0  0  0  0  0  0
   11.6232   13.2346   13.9798 C   0  0  0  0  0  0  0  0  0  0  0  0
   10.4292   12.3060   13.7846 C   0  0  0  0  0  0  0  0  0  0  0  0
   10.8783   10.8760   14.0366 C   0  0  0  0  0  0  0  0  0  0  0  0
   11.8325   10.4849   12.9929 N   0  0  0  0  0  0  0  0  0  0  0  0
   12.3686    9.1661   13.3724 C   0  0  0  0  0  0  0  0  0  0  0  0
   13.5196    8.7643   12.4431 C   0  0  0  0  0  0  0  0  0  0  0  0
   12.9263    8.3809   11.0791 C   0  0  0  0  0  0  0  0  0  0  0  0
   12.4571    9.5854   10.3750 C   0  0  0  0  0  0  0  0  0  0  0  0
   13.6285   10.4580   10.1553 N   0  0  0  0  0  0  0  0  0  0  0  0
   14.2601   10.1614    8.7904 C   0  0  0  0  0  0  0  0  0  0  0  0
   15.5482   10.9778    8.6298 C   0  0  0  0  0  0  0  0  0  0  0  0
   16.5307   10.5639    9.6499 C   0  0  0  0  0  0  0  0  0  0  0  0
   17.7566   11.3807    9.5211 N   0  0  0  0  0  0  0  0  0  0  0  0
  1  2  1  0  0  0  0
  2  3  1  0  0  0  0
  3  4  1  0  0  0  0
  4  5  1  0  0  0  0
  5  6  1  0  0  0  0
  6  7  1  0  0  0  0
  7  8  1  0  0  0  0
  8  9  1  0  0  0  0
  9 10  1  0  0  0  0
 10 11  1  0  0  0  0
 11 12  1  0  0  0  0
 12 13  1  0  0  0  0
 13 14  1  0  0  0  0
M  END
>  <CHROM.1>
-178.22161835,-66.31012641,172.87316814,-172.05076925,-73.25500972,72.26924981
61.62871690,92.06283252,-174.73221680,63.14425109,-178.24670293,13.21082099
10.78288835,11.61365783,-2.74226880,-0.71251925,-2.93468078

>  <Name>
ligand

>  <RI>
0

>  <Rbt.Current_Directory>
/home/itssahil/PROJECTS/Mol_Feturizer/New_Systems/rnas/2O3Y

>  <Rbt.Executable>
rbdock ($Id: //depot/dev/client3/rdock/2013.1/src/exe/rbdock.cxx#4 $)

>  <Rbt.Library>
libRbt.so (2013.1, Build901 2013/11/27)

>  <Rbt.Parameter_File>
/export/apps/rDock/src/rDock_2013.1_src/data/scripts/dock_solv.prm

>  <Rbt.Receptor>
prm/pocket_docking_2.prm

>  <SCORE>
1.23113

>  <SCORE.INTER>
9.21379

>  <SCORE.INTER.CONST>
1

>  <SCORE.INTER.POLAR>
0

>  <SCORE.INTER.ROT>
11

>  <SCORE.INTER.SOLV>
1.64072

>  <SCORE.INTER.VDW>
-5.33771

>  <SCORE.INTER.norm>
0.658128

>  <SCORE.INTRA>
-7.98266

>  <SCORE.INTRA.DIHEDRAL>
-21.8746

>  <SCORE.INTRA.DIHEDRAL.0>
24.1231

>  <SCORE.INTRA.POLAR>
0

>  <SCORE.INTRA.POLAR.0>
0

>  <SCORE.INTRA.REPUL>
0

>  <SCORE.INTRA.REPUL.0>
0

>  <SCORE.INTRA.SOLV>
2.08053

>  <SCORE.INTRA.SOLV.lig_0>
-48.2216

>  <SCORE.INTRA.VDW>
1.91435

>  <SCORE.INTRA.VDW.0>
-1.3967

>  <SCORE.INTRA.norm>
-0.57019

>  <SCORE.RESTR>
0

>  <SCORE.RESTR.CAVITY>
0

>  <SCORE.RESTR.norm>
0

>  <SCORE.SYSTEM>
0

>  <SCORE.SYSTEM.CONST>
0

>  <SCORE.SYSTEM.DIHEDRAL>
0

>  <SCORE.SYSTEM.SOLV>
0

>  <SCORE.SYSTEM.norm>
0

>  <SCORE.heavy>
14

>  <SCORE.norm>
0.0879379

>  <RMSD>
1.642

$$$$
ligand
 OpenBabel11021811463D
libRbt.so/2013.1/901 2013/11/27
 14 13  0  0  0  0  0  0  0  0999 V2000
   16.0932   13.3984   10.7278 N   0  0  0  0  0  0  0  0  0  0  0  0
   15.4940   12.0961   10.4067 C   0  0  0  0  0  0  0  0  0  0  0  0
   15.6141   11.8410    8.9078 C   0  0  0  0  0  0  0  0  0  0  0  0
   14.8939   10.5445    8.5754 C   0  0  0  0  0  0  0  0  0  0  0  0
   13.4564   10.7244    8.8080 N   0  0  0  0  0  0  0  0  0  0  0  0
   12.9645    9.4871    9.4387 C   0  0  0  0  0  0  0  0  0  0  0  0
   13.2565    9.4962   10.9436 C   0  0  0  0  0  0  0  0  0  0  0  0
   12.4665    8.3509   11.5946 C   0  0  0  0  0  0  0  0  0  0  0  0
   12.6877    8.3471   13.0498 C   0  0  0  0  0  0  0  0  0  0  0  0
   12.4096    9.7100   13.5466 N   0  0  0  0  0  0  0  0  0  0  0  0
   10.9028    9.8994   13.7551 C   0  0  0  0  0  0  0  0  0  0  0  0
   10.5953   11.3855   13.9753 C   0  0  0  0  0  0  0  0  0  0  0  0
   10.8862   12.1423   12.7424 C   0  0  0  0  0  0  0  0  0  0  0  0
   10.6668   13.5852   12.9803 N   0  0  0  0  0  0  0  0  0  0  0  0
  1  2  1  0  0  0  0
  2  3  1  0  0  0  0
  3  4  1  0  0  0  0
  4  5  1  0  0  0  0
  5  6  1  0  0  0  0
  6  7  1  0  0  0  0
  7  8  1  0  0  0  0
  8  9  1  0  0  0  0
  9 10  1  0  0  0  0
 10 11  1  0  0  0  0
 11 12  1  0  0  0  0
 12 13  1  0  0  0  0
 13 14  1  0  0  0  0
M  END
>  <CHROM.1>
-175.56610471,66.47713452,-139.33018973,81.46244979,167.84813029,-178.36578960
51.91353064,82.44243761,-167.88479527,66.21247180,-176.63182274,13.02763704
10.78585252,11.38938223,0.00785477,0.80860880,0.18011273

>  <Name>
ligand

>  <RI>
0

>  <Rbt.Current_Directory>
/home/itssahil/PROJECTS/Mol_Feturizer/New_Systems/rnas/2O3Y

>  <Rbt.Executable>
rbdock ($Id: //depot/dev/client3/rdock/2013.1/src/exe/rbdock.cxx#4 $)

>  <Rbt.Library>
libRbt.so (2013.1, Build901 2013/11/27)

>  <Rbt.Parameter_File>
/export/apps/rDock/src/rDock_2013.1_src/data/scripts/dock_solv.prm

>  <Rbt.Receptor>
prm/pocket_docking_2.prm

>  <SCORE>
0.135121

>  <SCORE.INTER>
8.68259

>  <SCORE.INTER.CONST>
1

>  <SCORE.INTER.POLAR>
0

>  <SCORE.INTER.ROT>
11

>  <SCORE.INTER.SOLV>
3.23996

>  <SCORE.INTER.VDW>
-6.22493

>  <SCORE.INTER.norm>
0.620185

>  <SCORE.INTRA>
-8.54747

>  <SCORE.INTRA.DIHEDRAL>
-21.1652

>  <SCORE.INTRA.DIHEDRAL.0>
24.1231

>  <SCORE.INTRA.POLAR>
0

>  <SCORE.INTRA.POLAR.0>
0

>  <SCORE.INTRA.REPUL>
0

>  <SCORE.INTRA.REPUL.0>
0

>  <SCORE.INTRA.SOLV>
0.534413

>  <SCORE.INTRA.SOLV.lig_0>
-48.2216

>  <SCORE.INTRA.VDW>
1.76793

>  <SCORE.INTRA.VDW.0>
-1.3967

>  <SCORE.INTRA.norm>
-0.610533

>  <SCORE.RESTR>
0

>  <SCORE.RESTR.CAVITY>
0

>  <SCORE.RESTR.norm>
0

>  <SCORE.SYSTEM>
0

>  <SCORE.SYSTEM.CONST>
0

>  <SCORE.SYSTEM.DIHEDRAL>
0

>  <SCORE.SYSTEM.SOLV>
0

>  <SCORE.SYSTEM.norm>
0

>  <SCORE.heavy>
14

>  <SCORE.norm>
0.00965152

>  <RMSD>
1.659

$$$$
ligand
 OpenBabel11021811463D
libRbt.so/2013.1/901 2013/11/27
 14 13  0  0  0  0  0  0  0  0999 V2000
   17.8851   11.2471   10.3550 N   0  0  0  0  0  0  0  0  0  0  0  0
   16.8381   11.0391    9.3457 C   0  0  0  0  0  0  0  0  0  0  0  0
   15.7738   10.1025    9.9082 C   0  0  0  0  0  0  0  0  0  0  0  0
   14.6946    9.9045    8.8564 C   0  0  0  0  0  0  0  0  0  0  0  0
   13.6546    9.0238    9.4002 N   0  0  0  0  0  0  0  0  0  0  0  0
   12.4880    9.8714    9.7023 C   0  0  0  0  0  0  0  0  0  0  0  0
   11.8960    9.5067   11.0686 C   0  0  0  0  0  0  0  0  0  0  0  0
   12.9770    9.7296   12.1369 C   0  0  0  0  0  0  0  0  0  0  0  0
   12.4227    9.4787   13.4773 C   0  0  0  0  0  0  0  0  0  0  0  0
   11.3986   10.5110   13.7367 N   0  0  0  0  0  0  0  0  0  0  0  0
   11.9754   11.6151   14.6301 C   0  0  0  0  0  0  0  0  0  0  0  0
   11.0152   12.8105   14.6576 C   0  0  0  0  0  0  0  0  0  0  0  0
   11.5820   13.8855   15.4947 C   0  0  0  0  0  0  0  0  0  0  0  0
   10.6462   15.0296   15.5368 N   0  0  0  0  0  0  0  0  0  0  0  0
  1  2  1  0  0  0  0
  2  3  1  0  0  0  0
  3  4  1  0  0  0  0
  4  5  1  0  0  0  0
  5  6  1  0  0  0  0
  6  7  1  0  0  0  0
  7  8  1  0  0  0  0
  8  9  1  0  0  0  0
  9 10  1  0  0  0  0
 10 11  1  0  0  0  0
 11 12  1  0  0  0  0
 12 13  1  0  0  0  0
 13 14  1  0  0  0  0
M  END
>  <CHROM.1>
179.65192693,-178.96370174,106.07510830,-136.00586810,60.23206985,176.15805967
-65.72887680,-100.44227455,168.45052080,-178.83225578,-179.16359350,13.23187845
10.98232352,12.02179870,-0.87714469,0.45936740,0.72486463

>  <Name>
ligand

>  <RI>
0

>  <Rbt.Current_Directory>
/home/itssahil/PROJECTS/Mol_Feturizer/New_Systems/rnas/2O3Y

>  <Rbt.Executable>
rbdock ($Id: //depot/dev/client3/rdock/2013.1/src/exe/rbdock.cxx#4 $)

>  <Rbt.Library>
libRbt.so (2013.1, Build901 2013/11/27)

>  <Rbt.Parameter_File>
/export/apps/rDock/src/rDock_2013.1_src/data/scripts/dock_solv.prm

>  <Rbt.Receptor>
prm/pocket_docking_2.prm

>  <SCORE>
0.00636756

>  <SCORE.INTER>
9.90591

>  <SCORE.INTER.CONST>
1

>  <SCORE.INTER.POLAR>
0

>  <SCORE.INTER.ROT>
11

>  <SCORE.INTER.SOLV>
3.86922

>  <SCORE.INTER.VDW>
-5.61913

>  <SCORE.INTER.norm>
0.707565

>  <SCORE.INTRA>
-9.90384

>  <SCORE.INTRA.DIHEDRAL>
-20.8585

>  <SCORE.INTRA.DIHEDRAL.0>
24.1231

>  <SCORE.INTRA.POLAR>
0

>  <SCORE.INTRA.POLAR.0>
0

>  <SCORE.INTRA.REPUL>
0

>  <SCORE.INTRA.REPUL.0>
0

>  <SCORE.INTRA.SOLV>
-0.0626097

>  <SCORE.INTRA.SOLV.lig_0>
-48.2216

>  <SCORE.INTRA.VDW>
0.556698

>  <SCORE.INTRA.VDW.0>
-1.3967

>  <SCORE.INTRA.norm>
-0.707417

>  <SCORE.RESTR>
0.00429853

>  <SCORE.RESTR.CAVITY>
0.00429853

>  <SCORE.RESTR.norm>
0.000307038

>  <SCORE.SYSTEM>
0

>  <SCORE.SYSTEM.CONST>
0

>  <SCORE.SYSTEM.DIHEDRAL>
0

>  <SCORE.SYSTEM.SOLV>
0

>  <SCORE.SYSTEM.norm>
0

>  <SCORE.heavy>
14

>  <SCORE.norm>
0.000454826

>  <RMSD>
1.660

$$$$
ligand
 OpenBabel11021811463D
libRbt.so/2013.1/901 2013/11/27
 14 13  0  0  0  0  0  0  0  0999 V2000
   11.5130   14.1265   13.6564 N   0  0  0  0  0  0  0  0  0  0  0  0
   12.7439   13.3565   13.8801 C   0  0  0  0  0  0  0  0  0  0  0  0
   12.4539   12.2096   14.8429 C   0  0  0  0  0  0  0  0  0  0  0  0
   11.5690   11.1945   14.1382 C   0  0  0  0  0  0  0  0  0  0  0  0
   12.3649   10.4877   13.1284 N   0  0  0  0  0  0  0  0  0  0  0  0
   11.4387    9.6185   12.3817 C   0  0  0  0  0  0  0  0  0  0  0  0
   12.1728    8.3856   11.8425 C   0  0  0  0  0  0  0  0  0  0  0  0
   13.2705    8.8615   10.8791 C   0  0  0  0  0  0  0  0  0  0  0  0
   12.6672    9.3704    9.6367 C   0  0  0  0  0  0  0  0  0  0  0  0
   13.7677    9.8011    8.7506 N   0  0  0  0  0  0  0  0  0  0  0  0
   13.6403   11.2964    8.4379 C   0  0  0  0  0  0  0  0  0  0  0  0
   14.9038   12.0302    8.9033 C   0  0  0  0  0  0  0  0  0  0  0  0
   15.0145   11.9487   10.3725 C   0  0  0  0  0  0  0  0  0  0  0  0
   16.2194   12.6784   10.8223 N   0  0  0  0  0  0  0  0  0  0  0  0
  1  2  1  0  0  0  0
  2  3  1  0  0  0  0
  3  4  1  0  0  0  0
  4  5  1  0  0  0  0
  5  6  1  0  0  0  0
  6  7  1  0  0  0  0
  7  8  1  0  0  0  0
  8  9  1  0  0  0  0
  9 10  1  0  0  0  0
 10 11  1  0  0  0  0
 11 12  1  0  0  0  0
 12 13  1  0  0  0  0
 13 14  1  0  0  0  0
M  END
>  <CHROM.1>
69.41044846,71.82328406,-174.31656457,-151.47462173,-61.47927437,-71.34247861
-179.56410943,-119.40968990,121.00826897,-64.84736303,-178.93528631,13.12409922
11.09726675,11.54803302,-2.24383686,-0.88333146,-2.44030341

>  <Name>
ligand

>  <RI>
0

>  <Rbt.Current_Directory>
/home/itssahil/PROJECTS/Mol_Feturizer/New_Systems/rnas/2O3Y

>  <Rbt.Executable>
rbdock ($Id: //depot/dev/client3/rdock/2013.1/src/exe/rbdock.cxx#4 $)

>  <Rbt.Library>
libRbt.so (2013.1, Build901 2013/11/27)

>  <Rbt.Parameter_File>
/export/apps/rDock/src/rDock_2013.1_src/data/scripts/dock_solv.prm

>  <Rbt.Receptor>
prm/pocket_docking_2.prm

>  <SCORE>
-0.163717

>  <SCORE.INTER>
7.79016

>  <SCORE.INTER.CONST>
1

>  <SCORE.INTER.POLAR>
0

>  <SCORE.INTER.ROT>
11

>  <SCORE.INTER.SOLV>
4.01622

>  <SCORE.INTER.VDW>
-7.07863

>  <SCORE.INTER.norm>
0.55644

>  <SCORE.INTRA>
-7.95943

>  <SCORE.INTRA.DIHEDRAL>
-19.678

>  <SCORE.INTRA.DIHEDRAL.0>
24.1231

>  <SCORE.INTRA.POLAR>
0

>  <SCORE.INTRA.POLAR.0>
0

>  <SCORE.INTRA.REPUL>
0

>  <SCORE.INTRA.REPUL.0>
0

>  <SCORE.INTRA.SOLV>
2.05523

>  <SCORE.INTRA.SOLV.lig_0>
-48.2216

>  <SCORE.INTRA.VDW>
0.851935

>  <SCORE.INTRA.VDW.0>
-1.3967

>  <SCORE.INTRA.norm>
-0.568531

>  <SCORE.RESTR>
0.00554741

>  <SCORE.RESTR.CAVITY>
0.00554741

>  <SCORE.RESTR.norm>
0.000396244

>  <SCORE.SYSTEM>
0

>  <SCORE.SYSTEM.CONST>
0

>  <SCORE.SYSTEM.DIHEDRAL>
0

>  <SCORE.SYSTEM.SOLV>
0

>  <SCORE.SYSTEM.norm>
0

>  <SCORE.heavy>
14

>  <SCORE.norm>
-0.0116941

>  <RMSD>
1.672

$$$$
ligand
 OpenBabel11021811463D
libRbt.so/2013.1/901 2013/11/27
 14 13  0  0  0  0  0  0  0  0999 V2000
   10.1509   13.3462   14.4269 N   0  0  0  0  0  0  0  0  0  0  0  0
   11.0968   13.0768   15.5182 C   0  0  0  0  0  0  0  0  0  0  0  0
   12.2671   12.2593   14.9813 C   0  0  0  0  0  0  0  0  0  0  0  0
   11.7675   10.8681   14.6276 C   0  0  0  0  0  0  0  0  0  0  0  0
   12.9094   10.0391   14.2257 N   0  0  0  0  0  0  0  0  0  0  0  0
   12.3652    8.7455   13.7771 C   0  0  0  0  0  0  0  0  0  0  0  0
   12.7000    8.5026   12.3010 C   0  0  0  0  0  0  0  0  0  0  0  0
   11.9101    9.5128   11.4553 C   0  0  0  0  0  0  0  0  0  0  0  0
   12.3939    9.4966   10.0652 C   0  0  0  0  0  0  0  0  0  0  0  0
   13.7265   10.1335   10.0495 N   0  0  0  0  0  0  0  0  0  0  0  0
   14.2814   10.1634    8.6209 C   0  0  0  0  0  0  0  0  0  0  0  0
   15.5064   11.0840    8.5625 C   0  0  0  0  0  0  0  0  0  0  0  0
   16.5454   10.5896    9.4864 C   0  0  0  0  0  0  0  0  0  0  0  0
   17.7380   11.4602    9.4064 N   0  0  0  0  0  0  0  0  0  0  0  0
  1  2  1  0  0  0  0
  2  3  1  0  0  0  0
  3  4  1  0  0  0  0
  4  5  1  0  0  0  0
  5  6  1  0  0  0  0
  6  7  1  0  0  0  0
  7  8  1  0  0  0  0
  8  9  1  0  0  0  0
  9 10  1  0  0  0  0
 10 11  1  0  0  0  0
 11 12  1  0  0  0  0
 12 13  1  0  0  0  0
 13 14  1  0  0  0  0
M  END
>  <CHROM.1>
-68.84061002,-174.92125683,-174.96403809,118.01599484,-68.19903629,168.92212553
-71.89632049,-179.32960031,167.79723335,59.59116657,178.71146418,13.23974705
10.66246751,11.96453361,-2.51315356,-0.73955798,-2.52805252

>  <Name>
ligand

>  <RI>
0

>  <Rbt.Current_Directory>
/home/itssahil/PROJECTS/Mol_Feturizer/New_Systems/rnas/2O3Y

>  <Rbt.Executable>
rbdock ($Id: //depot/dev/client3/rdock/2013.1/src/exe/rbdock.cxx#4 $)

>  <Rbt.Library>
libRbt.so (2013.1, Build901 2013/11/27)

>  <Rbt.Parameter_File>
/export/apps/rDock/src/rDock_2013.1_src/data/scripts/dock_solv.prm

>  <Rbt.Receptor>
prm/pocket_docking_2.prm

>  <SCORE>
-0.229322

>  <SCORE.INTER>
9.2073

>  <SCORE.INTER.CONST>
1

>  <SCORE.INTER.POLAR>
0

>  <SCORE.INTER.ROT>
11

>  <SCORE.INTER.SOLV>
2.00747

>  <SCORE.INTER.VDW>
-5.46429

>  <SCORE.INTER.norm>
0.657664

>  <SCORE.INTRA>
-9.45319

>  <SCORE.INTRA.DIHEDRAL>
-21.1232

>  <SCORE.INTRA.DIHEDRAL.0>
24.1231

>  <SCORE.INTRA.POLAR>
0

>  <SCORE.INTRA.POLAR.0>
0

>  <SCORE.INTRA.REPUL>
0

>  <SCORE.INTRA.REPUL.0>
0

>  <SCORE.INTRA.SOLV>
1.25604

>  <SCORE.INTRA.SOLV.lig_0>
-48.2216

>  <SCORE.INTRA.VDW>
0.480398

>  <SCORE.INTRA.VDW.0>
-1.3967

>  <SCORE.INTRA.norm>
-0.675228

>  <SCORE.RESTR>
0.0165741

>  <SCORE.RESTR.CAVITY>
0.0165741

>  <SCORE.RESTR.norm>
0.00118387

>  <SCORE.SYSTEM>
0

>  <SCORE.SYSTEM.CONST>
0

>  <SCORE.SYSTEM.DIHEDRAL>
0

>  <SCORE.SYSTEM.SOLV>
0

>  <SCORE.SYSTEM.norm>
0

>  <SCORE.heavy>
14

>  <SCORE.norm>
-0.0163801

>  <RMSD>
1.706

$$$$
ligand
 OpenBabel11021811463D
libRbt.so/2013.1/901 2013/11/27
 14 13  0  0  0  0  0  0  0  0999 V2000
   16.9246   11.8371   11.6614 N   0  0  0  0  0  0  0  0  0  0  0  0
   17.8251   11.8412   10.5007 C   0  0  0  0  0  0  0  0  0  0  0  0
   16.9975   11.8340    9.2197 C   0  0  0  0  0  0  0  0  0  0  0  0
   16.3812   10.4556    9.0460 C   0  0  0  0  0  0  0  0  0  0  0  0
   15.3492   10.2621   10.0710 N   0  0  0  0  0  0  0  0  0  0  0  0
   14.7629    8.9295    9.8449 C   0  0  0  0  0  0  0  0  0  0  0  0
   13.6175    8.6703   10.8302 C   0  0  0  0  0  0  0  0  0  0  0  0
   12.4955    9.6786   10.5407 C   0  0  0  0  0  0  0  0  0  0  0  0
   11.4128    9.5276   11.5264 C   0  0  0  0  0  0  0  0  0  0  0  0
   11.9551    9.9094   12.8462 N   0  0  0  0  0  0  0  0  0  0  0  0
   10.8389   10.4711   13.7341 C   0  0  0  0  0  0  0  0  0  0  0  0
   11.4318   10.9591   15.0614 C   0  0  0  0  0  0  0  0  0  0  0  0
   12.3248   12.1079   14.8156 C   0  0  0  0  0  0  0  0  0  0  0  0
   11.5238   13.2839   14.4131 N   0  0  0  0  0  0  0  0  0  0  0  0
  1  2  1  0  0  0  0
  2  3  1  0  0  0  0
  3  4  1  0  0  0  0
  4  5  1  0  0  0  0
  5  6  1  0  0  0  0
  6  7  1  0  0  0  0
  7  8  1  0  0  0  0
  8  9  1  0  0  0  0
  9 10  1  0  0  0  0
 10 11  1  0  0  0  0
 11 12  1  0  0  0  0
 12 13  1  0  0  0  0
 13 14  1  0  0  0  0
M  END
>  <CHROM.1>
-72.62985852,69.85387685,178.80187540,-177.00118848,64.37374087,-176.03669730
65.54722222,150.87983463,-175.84204982,65.65853189,69.83162816,13.84572347
10.69741535,11.72203150,-0.50453995,0.47982251,0.81092398

>  <Name>
ligand

>  <RI>
0

>  <Rbt.Current_Directory>
/home/itssahil/PROJECTS/Mol_Feturizer/New_Systems/rnas/2O3Y

>  <Rbt.Executable>
rbdock ($Id: //depot/dev/client3/rdock/2013.1/src/exe/rbdock.cxx#4 $)

>  <Rbt.Library>
libRbt.so (2013.1, Build901 2013/11/27)

>  <Rbt.Parameter_File>
/export/apps/rDock/src/rDock_2013.1_src/data/scripts/dock_solv.prm

>  <Rbt.Receptor>
prm/pocket_docking_2.prm

>  <SCORE>
1.9496

>  <SCORE.INTER>
9.70912

>  <SCORE.INTER.CONST>
1

>  <SCORE.INTER.POLAR>
0

>  <SCORE.INTER.ROT>
11

>  <SCORE.INTER.SOLV>
2.22049

>  <SCORE.INTER.VDW>
-5.20075

>  <SCORE.INTER.norm>
0.693509

>  <SCORE.INTRA>
-7.75952

>  <SCORE.INTRA.DIHEDRAL>
-21.8556

>  <SCORE.INTRA.DIHEDRAL.0>
24.1231

>  <SCORE.INTRA.POLAR>
0

>  <SCORE.INTRA.POLAR.0>
0

>  <SCORE.INTRA.REPUL>
0.00450322

>  <SCORE.INTRA.REPUL.0>
0

>  <SCORE.INTRA.SOLV>
4.68136

>  <SCORE.INTRA.SOLV.lig_0>
-48.2216

>  <SCORE.INTRA.VDW>
0.805106

>  <SCORE.INTRA.VDW.0>
-1.3967

>  <SCORE.INTRA.norm>
-0.554252

>  <SCORE.RESTR>
0

>  <SCORE.RESTR.CAVITY>
0

>  <SCORE.RESTR.norm>
0

>  <SCORE.SYSTEM>
0

>  <SCORE.SYSTEM.CONST>
0

>  <SCORE.SYSTEM.DIHEDRAL>
0

>  <SCORE.SYSTEM.SOLV>
0

>  <SCORE.SYSTEM.norm>
0

>  <SCORE.heavy>
14

>  <SCORE.norm>
0.139257

>  <RMSD>
1.715

$$$$
ligand
 OpenBabel11021811463D
libRbt.so/2013.1/901 2013/11/27
 14 13  0  0  0  0  0  0  0  0999 V2000
   17.8571   11.5417    9.3903 N   0  0  0  0  0  0  0  0  0  0  0  0
   16.4171   11.4737    9.1076 C   0  0  0  0  0  0  0  0  0  0  0  0
   16.0054   10.0155    8.9332 C   0  0  0  0  0  0  0  0  0  0  0  0
   14.5206    9.9639    8.6126 C   0  0  0  0  0  0  0  0  0  0  0  0
   13.7664   10.4766    9.7620 N   0  0  0  0  0  0  0  0  0  0  0  0
   12.4197    9.8831    9.6922 C   0  0  0  0  0  0  0  0  0  0  0  0
   11.8526    9.6662   11.0998 C   0  0  0  0  0  0  0  0  0  0  0  0
   12.6284    8.5163   11.7597 C   0  0  0  0  0  0  0  0  0  0  0  0
   12.2435    8.3932   13.1752 C   0  0  0  0  0  0  0  0  0  0  0  0
   12.8369    9.5356   13.8994 N   0  0  0  0  0  0  0  0  0  0  0  0
   11.7332   10.4694   14.4091 C   0  0  0  0  0  0  0  0  0  0  0  0
   12.1232   11.9269   14.1350 C   0  0  0  0  0  0  0  0  0  0  0  0
   11.0503   12.8259   14.6018 C   0  0  0  0  0  0  0  0  0  0  0  0
   11.3752   14.2212   14.2356 N   0  0  0  0  0  0  0  0  0  0  0  0
  1  2  1  0  0  0  0
  2  3  1  0  0  0  0
  3  4  1  0  0  0  0
  4  5  1  0  0  0  0
  5  6  1  0  0  0  0
  6  7  1  0  0  0  0
  7  8  1  0  0  0  0
  8  9  1  0  0  0  0
  9 10  1  0  0  0  0
 10 11  1  0  0  0  0
 11 12  1  0  0  0  0
 12 13  1  0  0  0  0
 13 14  1  0  0  0  0
M  END
>  <CHROM.1>
-178.81234383,-64.26513204,-155.29307907,147.76203134,-70.91047682,172.32372122
-72.50683381,113.23077383,-135.79117474,178.93108678,-175.28712302,13.34472039
10.63604411,11.62945823,-0.50818255,0.75994220,0.48411447

>  <Name>
ligand

>  <RI>
0

>  <Rbt.Current_Directory>
/home/itssahil/PROJECTS/Mol_Feturizer/New_Systems/rnas/2O3Y

>  <Rbt.Executable>
rbdock ($Id: //depot/dev/client3/rdock/2013.1/src/exe/rbdock.cxx#4 $)

>  <Rbt.Library>
libRbt.so (2013.1, Build901 2013/11/27)

>  <Rbt.Parameter_File>
/export/apps/rDock/src/rDock_2013.1_src/data/scripts/dock_solv.prm

>  <Rbt.Receptor>
prm/pocket_docking_2.prm

>  <SCORE>
-0.478928

>  <SCORE.INTER>
8.88491

>  <SCORE.INTER.CONST>
1

>  <SCORE.INTER.POLAR>
0

>  <SCORE.INTER.ROT>
11

>  <SCORE.INTER.SOLV>
2.39675

>  <SCORE.INTER.VDW>
-5.80898

>  <SCORE.INTER.norm>
0.634636

>  <SCORE.INTRA>
-9.38163

>  <SCORE.INTRA.DIHEDRAL>
-19.4332

>  <SCORE.INTRA.DIHEDRAL.0>
24.1231

>  <SCORE.INTRA.POLAR>
0

>  <SCORE.INTRA.POLAR.0>
0

>  <SCORE.INTRA.REPUL>
0

>  <SCORE.INTRA.REPUL.0>
0

>  <SCORE.INTRA.SOLV>
0.379057

>  <SCORE.INTRA.SOLV.lig_0>
-48.2216

>  <SCORE.INTRA.VDW>
0.145459

>  <SCORE.INTRA.VDW.0>
-1.3967

>  <SCORE.INTRA.norm>
-0.670117

>  <SCORE.RESTR>
0.0177978

>  <SCORE.RESTR.CAVITY>
0.0177978

>  <SCORE.RESTR.norm>
0.00127127

>  <SCORE.SYSTEM>
0

>  <SCORE.SYSTEM.CONST>
0

>  <SCORE.SYSTEM.DIHEDRAL>
0

>  <SCORE.SYSTEM.SOLV>
0

>  <SCORE.SYSTEM.norm>
0

>  <SCORE.heavy>
14

>  <SCORE.norm>
-0.0342091

>  <RMSD>
1.718

$$$$
ligand
 OpenBabel11021811463D
libRbt.so/2013.1/901 2013/11/27
 14 13  0  0  0  0  0  0  0  0999 V2000
   17.9986   10.9123   10.6106 N   0  0  0  0  0  0  0  0  0  0  0  0
   17.7237   12.2060    9.9712 C   0  0  0  0  0  0  0  0  0  0  0  0
   16.2394   12.5300   10.1053 C   0  0  0  0  0  0  0  0  0  0  0  0
   15.4433   11.4978    9.3238 C   0  0  0  0  0  0  0  0  0  0  0  0
   14.0155   11.8208    9.4241 N   0  0  0  0  0  0  0  0  0  0  0  0
   13.2810   10.7393    8.7447 C   0  0  0  0  0  0  0  0  0  0  0  0
   12.3948    9.9816    9.7399 C   0  0  0  0  0  0  0  0  0  0  0  0
   13.2890    9.0426   10.5634 C   0  0  0  0  0  0  0  0  0  0  0  0
   12.5339    8.4942   11.7017 C   0  0  0  0  0  0  0  0  0  0  0  0
   12.4771    9.5393   12.7440 N   0  0  0  0  0  0  0  0  0  0  0  0
   11.0412   10.0526   12.9004 C   0  0  0  0  0  0  0  0  0  0  0  0
   11.0014   11.5624   12.6350 C   0  0  0  0  0  0  0  0  0  0  0  0
   11.7165   12.2762   13.7104 C   0  0  0  0  0  0  0  0  0  0  0  0
   11.6479   13.7339   13.4717 N   0  0  0  0  0  0  0  0  0  0  0  0
  1  2  1  0  0  0  0
  2  3  1  0  0  0  0
  3  4  1  0  0  0  0
  4  5  1  0  0  0  0
  5  6  1  0  0  0  0
  6  7  1  0  0  0  0
  7  8  1  0  0  0  0
  8  9  1  0  0  0  0
  9 10  1  0  0  0  0
 10 11  1  0  0  0  0
 11 12  1  0  0  0  0
 12 13  1  0  0  0  0
 13 14  1  0  0  0  0
M  END
>  <CHROM.1>
-64.68672298,-178.76323502,-175.62993812,116.21099862,-77.06219343,168.88602343
-78.38241254,111.68199012,-121.31848885,-68.06411267,-178.56704252,13.62864220
11.02760521,11.11742136,-0.18867164,0.50315229,0.58352541

>  <Name>
ligand

>  <RI>
0

>  <Rbt.Current_Directory>
/home/itssahil/PROJECTS/Mol_Feturizer/New_Systems/rnas/2O3Y

>  <Rbt.Executable>
rbdock ($Id: //depot/dev/client3/rdock/2013.1/src/exe/rbdock.cxx#4 $)

>  <Rbt.Library>
libRbt.so (2013.1, Build901 2013/11/27)

>  <Rbt.Parameter_File>
/export/apps/rDock/src/rDock_2013.1_src/data/scripts/dock_solv.prm

>  <Rbt.Receptor>
prm/pocket_docking_2.prm

>  <SCORE>
0.230858

>  <SCORE.INTER>
8.352

>  <SCORE.INTER.CONST>
1

>  <SCORE.INTER.POLAR>
0

>  <SCORE.INTER.ROT>
11

>  <SCORE.INTER.SOLV>
2.00768

>  <SCORE.INTER.VDW>
-6.03456

>  <SCORE.INTER.norm>
0.596572

>  <SCORE.INTRA>
-8.12437

>  <SCORE.INTRA.DIHEDRAL>
-17.5216

>  <SCORE.INTRA.DIHEDRAL.0>
24.1231

>  <SCORE.INTRA.POLAR>
0

>  <SCORE.INTRA.POLAR.0>
0

>  <SCORE.INTRA.REPUL>
0

>  <SCORE.INTRA.REPUL.0>
0

>  <SCORE.INTRA.SOLV>
1.20462

>  <SCORE.INTRA.SOLV.lig_0>
-48.2216

>  <SCORE.INTRA.VDW>
0.0341082

>  <SCORE.INTRA.VDW.0>
-1.3967

>  <SCORE.INTRA.norm>
-0.580312

>  <SCORE.RESTR>
0.00322455

>  <SCORE.RESTR.CAVITY>
0.00322455

>  <SCORE.RESTR.norm>
0.000230325

>  <SCORE.SYSTEM>
0

>  <SCORE.SYSTEM.CONST>
0

>  <SCORE.SYSTEM.DIHEDRAL>
0

>  <SCORE.SYSTEM.SOLV>
0

>  <SCORE.SYSTEM.norm>
0

>  <SCORE.heavy>
14

>  <SCORE.norm>
0.0164899

>  <RMSD>
1.726

$$$$
ligand
 OpenBabel11021811463D
libRbt.so/2013.1/901 2013/11/27
 14 13  0  0  0  0  0  0  0  0999 V2000
   11.4477   14.4298   13.5151 N   0  0  0  0  0  0  0  0  0  0  0  0
   10.7058   13.3272   14.1413 C   0  0  0  0  0  0  0  0  0  0  0  0
   11.6902   12.3684   14.8031 C   0  0  0  0  0  0  0  0  0  0  0  0
   12.4994   11.6763   13.7186 C   0  0  0  0  0  0  0  0  0  0  0  0
   11.6071   10.8160   12.9334 N   0  0  0  0  0  0  0  0  0  0  0  0
   11.7593    9.4471   13.4562 C   0  0  0  0  0  0  0  0  0  0  0  0
   11.5049    8.4163   12.3504 C   0  0  0  0  0  0  0  0  0  0  0  0
   12.6814    8.4674   11.3642 C   0  0  0  0  0  0  0  0  0  0  0  0
   12.5067    9.5883   10.4262 C   0  0  0  0  0  0  0  0  0  0  0  0
   13.7303    9.6757    9.6033 N   0  0  0  0  0  0  0  0  0  0  0  0
   13.5625   10.7458    8.5186 C   0  0  0  0  0  0  0  0  0  0  0  0
   13.9499   12.1179    9.0833 C   0  0  0  0  0  0  0  0  0  0  0  0
   15.3965   12.1470    9.3728 C   0  0  0  0  0  0  0  0  0  0  0  0
   15.7775   13.4855    9.8726 N   0  0  0  0  0  0  0  0  0  0  0  0
  1  2  1  0  0  0  0
  2  3  1  0  0  0  0
  3  4  1  0  0  0  0
  4  5  1  0  0  0  0
  5  6  1  0  0  0  0
  6  7  1  0  0  0  0
  7  8  1  0  0  0  0
  8  9  1  0  0  0  0
  9 10  1  0  0  0  0
 10 11  1  0  0  0  0
 11 12  1  0  0  0  0
 12 13  1  0  0  0  0
 13 14  1  0  0  0  0
M  END
>  <CHROM.1>
-67.83805905,-66.28819751,-98.26496944,-150.40551433,70.96201472,-80.93745996
173.99306066,174.93515919,86.17314850,67.03783533,178.02919661,12.77264861
11.19311643,11.65429234,-2.68830897,-0.94106926,-2.76349027

>  <Name>
ligand

>  <RI>
0

>  <Rbt.Current_Directory>
/home/itssahil/PROJECTS/Mol_Feturizer/New_Systems/rnas/2O3Y

>  <Rbt.Executable>
rbdock ($Id: //depot/dev/client3/rdock/2013.1/src/exe/rbdock.cxx#4 $)

>  <Rbt.Library>
libRbt.so (2013.1, Build901 2013/11/27)

>  <Rbt.Parameter_File>
/export/apps/rDock/src/rDock_2013.1_src/data/scripts/dock_solv.prm

>  <Rbt.Receptor>
prm/pocket_docking_2.prm

>  <SCORE>
1.28095

>  <SCORE.INTER>
8.43398

>  <SCORE.INTER.CONST>
1

>  <SCORE.INTER.POLAR>
0

>  <SCORE.INTER.ROT>
11

>  <SCORE.INTER.SOLV>
2.68159

>  <SCORE.INTER.VDW>
-6.20454

>  <SCORE.INTER.norm>
0.602427

>  <SCORE.INTRA>
-7.15324

>  <SCORE.INTRA.DIHEDRAL>
-19.3657

>  <SCORE.INTRA.DIHEDRAL.0>
24.1231

>  <SCORE.INTRA.POLAR>
0

>  <SCORE.INTRA.POLAR.0>
0

>  <SCORE.INTRA.REPUL>
0

>  <SCORE.INTRA.REPUL.0>
0

>  <SCORE.INTRA.SOLV>
2.31893

>  <SCORE.INTRA.SOLV.lig_0>
-48.2216

>  <SCORE.INTRA.VDW>
1.37015

>  <SCORE.INTRA.VDW.0>
-1.3967

>  <SCORE.INTRA.norm>
-0.510946

>  <SCORE.RESTR>
0.000214872

>  <SCORE.RESTR.CAVITY>
0.000214872

>  <SCORE.RESTR.norm>
1.5348e-05

>  <SCORE.SYSTEM>
0

>  <SCORE.SYSTEM.CONST>
0

>  <SCORE.SYSTEM.DIHEDRAL>
0

>  <SCORE.SYSTEM.SOLV>
0

>  <SCORE.SYSTEM.norm>
0

>  <SCORE.heavy>
14

>  <SCORE.norm>
0.0914968

>  <RMSD>
1.750

$$$$
ligand
 OpenBabel11021811463D
libRbt.so/2013.1/901 2013/11/27
 14 13  0  0  0  0  0  0  0  0999 V2000
   16.7125   12.4589    9.6494 N   0  0  0  0  0  0  0  0  0  0  0  0
   15.3814   11.8822    9.8807 C   0  0  0  0  0  0  0  0  0  0  0  0
   14.7835   11.4421    8.5484 C   0  0  0  0  0  0  0  0  0  0  0  0
   13.4097   10.8446    8.8049 C   0  0  0  0  0  0  0  0  0  0  0  0
   13.5661    9.5967    9.5606 N   0  0  0  0  0  0  0  0  0  0  0  0
   12.4394    9.5230   10.5072 C   0  0  0  0  0  0  0  0  0  0  0  0
   12.6614    8.3963   11.5227 C   0  0  0  0  0  0  0  0  0  0  0  0
   11.4957    8.4126   12.5229 C   0  0  0  0  0  0  0  0  0  0  0  0
   11.7607    9.3881   13.5928 C   0  0  0  0  0  0  0  0  0  0  0  0
   11.6726   10.7372   12.9979 N   0  0  0  0  0  0  0  0  0  0  0  0
   12.0034   11.8016   14.0502 C   0  0  0  0  0  0  0  0  0  0  0  0
   12.1980   13.1602   13.3661 C   0  0  0  0  0  0  0  0  0  0  0  0
   10.9446   13.5679   12.7026 C   0  0  0  0  0  0  0  0  0  0  0  0
    9.9139   13.8602   13.7219 N   0  0  0  0  0  0  0  0  0  0  0  0
  1  2  1  0  0  0  0
  2  3  1  0  0  0  0
  3  4  1  0  0  0  0
  4  5  1  0  0  0  0
  5  6  1  0  0  0  0
  6  7  1  0  0  0  0
  7  8  1  0  0  0  0
  8  9  1  0  0  0  0
  9 10  1  0  0  0  0
 10 11  1  0  0  0  0
 11 12  1  0  0  0  0
 12 13  1  0  0  0  0
 13 14  1  0  0  0  0
M  END
>  <CHROM.1>
179.83388785,-66.97772200,143.21124558,-169.05382564,177.17612862,-84.38567679
69.67441295,-177.40153100,168.20068534,62.18454708,67.83090646,12.78156709
11.07629502,11.53061897,-0.31110011,0.80894933,0.20615016

>  <Name>
ligand

>  <RI>
0

>  <Rbt.Current_Directory>
/home/itssahil/PROJECTS/Mol_Feturizer/New_Systems/rnas/2O3Y

>  <Rbt.Executable>
rbdock ($Id: //depot/dev/client3/rdock/2013.1/src/exe/rbdock.cxx#4 $)

>  <Rbt.Library>
libRbt.so (2013.1, Build901 2013/11/27)

>  <Rbt.Parameter_File>
/export/apps/rDock/src/rDock_2013.1_src/data/scripts/dock_solv.prm

>  <Rbt.Receptor>
prm/pocket_docking_2.prm

>  <SCORE>
0.364447

>  <SCORE.INTER>
8.22987

>  <SCORE.INTER.CONST>
1

>  <SCORE.INTER.POLAR>
0

>  <SCORE.INTER.ROT>
11

>  <SCORE.INTER.SOLV>
3.14483

>  <SCORE.INTER.VDW>
-6.49503

>  <SCORE.INTER.norm>
0.587848

>  <SCORE.INTRA>
-7.86652

>  <SCORE.INTRA.DIHEDRAL>
-20.1228

>  <SCORE.INTRA.DIHEDRAL.0>
24.1231

>  <SCORE.INTRA.POLAR>
0

>  <SCORE.INTRA.POLAR.0>
0

>  <SCORE.INTRA.REPUL>
0

>  <SCORE.INTRA.REPUL.0>
0

>  <SCORE.INTRA.SOLV>
2.50987

>  <SCORE.INTRA.SOLV.lig_0>
-48.2216

>  <SCORE.INTRA.VDW>
0.939946

>  <SCORE.INTRA.VDW.0>
-1.3967

>  <SCORE.INTRA.norm>
-0.561894

>  <SCORE.RESTR>
0.0010977

>  <SCORE.RESTR.CAVITY>
0.0010977

>  <SCORE.RESTR.norm>
7.84072e-05

>  <SCORE.SYSTEM>
0

>  <SCORE.SYSTEM.CONST>
0

>  <SCORE.SYSTEM.DIHEDRAL>
0

>  <SCORE.SYSTEM.SOLV>
0

>  <SCORE.SYSTEM.norm>
0

>  <SCORE.heavy>
14

>  <SCORE.norm>
0.0260319

>  <RMSD>
1.776

$$$$
ligand
 OpenBabel11021811463D
libRbt.so/2013.1/901 2013/11/27
 14 13  0  0  0  0  0  0  0  0999 V2000
   12.4587   13.6041   13.1132 N   0  0  0  0  0  0  0  0  0  0  0  0
   12.7443   12.1803   12.8908 C   0  0  0  0  0  0  0  0  0  0  0  0
   13.8323   11.7266   13.8586 C   0  0  0  0  0  0  0  0  0  0  0  0
   14.1455   10.2642   13.5881 C   0  0  0  0  0  0  0  0  0  0  0  0
   12.9335    9.4677   13.8110 N   0  0  0  0  0  0  0  0  0  0  0  0
   13.0824    8.2292   13.0270 C   0  0  0  0  0  0  0  0  0  0  0  0
   12.4392    8.3859   11.6444 C   0  0  0  0  0  0  0  0  0  0  0  0
   13.4565    9.0632   10.7138 C   0  0  0  0  0  0  0  0  0  0  0  0
   12.8467    9.3199    9.3989 C   0  0  0  0  0  0  0  0  0  0  0  0
   13.8951    9.8819    8.5233 N   0  0  0  0  0  0  0  0  0  0  0  0
   13.9758   11.4020    8.7037 C   0  0  0  0  0  0  0  0  0  0  0  0
   15.3691   11.7875    9.2153 C   0  0  0  0  0  0  0  0  0  0  0  0
   15.4148   13.2361    9.4924 C   0  0  0  0  0  0  0  0  0  0  0  0
   16.7543   13.6041    9.9992 N   0  0  0  0  0  0  0  0  0  0  0  0
  1  2  1  0  0  0  0
  2  3  1  0  0  0  0
  3  4  1  0  0  0  0
  4  5  1  0  0  0  0
  5  6  1  0  0  0  0
  6  7  1  0  0  0  0
  7  8  1  0  0  0  0
  8  9  1  0  0  0  0
  9 10  1  0  0  0  0
 10 11  1  0  0  0  0
 11 12  1  0  0  0  0
 12 13  1  0  0  0  0
 13 14  1  0  0  0  0
M  END
>  <CHROM.1>
-178.32156775,-60.91780790,156.50008504,-93.28747133,84.08578775,-176.01967098
-176.11202750,-86.27959694,118.86996990,-175.49431864,179.40288022,13.81049350
10.86772565,11.28424645,-2.85266019,-1.10128605,-2.20504123

>  <Name>
ligand

>  <RI>
0

>  <Rbt.Current_Directory>
/home/itssahil/PROJECTS/Mol_Feturizer/New_Systems/rnas/2O3Y

>  <Rbt.Executable>
rbdock ($Id: //depot/dev/client3/rdock/2013.1/src/exe/rbdock.cxx#4 $)

>  <Rbt.Library>
libRbt.so (2013.1, Build901 2013/11/27)

>  <Rbt.Parameter_File>
/export/apps/rDock/src/rDock_2013.1_src/data/scripts/dock_solv.prm

>  <Rbt.Receptor>
prm/pocket_docking_2.prm

>  <SCORE>
-0.922342

>  <SCORE.INTER>
8.36365

>  <SCORE.INTER.CONST>
1

>  <SCORE.INTER.POLAR>
0

>  <SCORE.INTER.ROT>
11

>  <SCORE.INTER.SOLV>
3.66733

>  <SCORE.INTER.VDW>
-6.58001

>  <SCORE.INTER.norm>
0.597404

>  <SCORE.INTRA>
-9.29007

>  <SCORE.INTRA.DIHEDRAL>
-19.2041

>  <SCORE.INTRA.DIHEDRAL.0>
24.1231

>  <SCORE.INTRA.POLAR>
0

>  <SCORE.INTRA.POLAR.0>
0

>  <SCORE.INTRA.REPUL>
0

>  <SCORE.INTRA.REPUL.0>
0

>  <SCORE.INTRA.SOLV>
-0.114092

>  <SCORE.INTRA.SOLV.lig_0>
-48.2216

>  <SCORE.INTRA.VDW>
0.369011

>  <SCORE.INTRA.VDW.0>
-1.3967

>  <SCORE.INTRA.norm>
-0.663576

>  <SCORE.RESTR>
0.00406965

>  <SCORE.RESTR.CAVITY>
0.00406965

>  <SCORE.RESTR.norm>
0.00029069

>  <SCORE.SYSTEM>
0

>  <SCORE.SYSTEM.CONST>
0

>  <SCORE.SYSTEM.DIHEDRAL>
0

>  <SCORE.SYSTEM.SOLV>
0

>  <SCORE.SYSTEM.norm>
0

>  <SCORE.heavy>
14

>  <SCORE.norm>
-0.0658816

>  <RMSD>
1.829

$$$$
ligand
 OpenBabel11021811463D
libRbt.so/2013.1/901 2013/11/27
 14 13  0  0  0  0  0  0  0  0999 V2000
   12.3478   13.0096   13.4250 N   0  0  0  0  0  0  0  0  0  0  0  0
   13.5581   12.3044   13.8678 C   0  0  0  0  0  0  0  0  0  0  0  0
   13.2278   11.4532   15.0895 C   0  0  0  0  0  0  0  0  0  0  0  0
   12.3948   10.2630   14.6427 C   0  0  0  0  0  0  0  0  0  0  0  0
   13.2021    9.4243   13.7495 N   0  0  0  0  0  0  0  0  0  0  0  0
   12.2865    8.4507   13.1295 C   0  0  0  0  0  0  0  0  0  0  0  0
   12.5595    8.3361   11.6253 C   0  0  0  0  0  0  0  0  0  0  0  0
   12.1841    9.6710   10.9645 C   0  0  0  0  0  0  0  0  0  0  0  0
   12.5764    9.6612    9.5459 C   0  0  0  0  0  0  0  0  0  0  0  0
   14.0525    9.6559    9.4916 N   0  0  0  0  0  0  0  0  0  0  0  0
   14.5446   10.6074    8.3952 C   0  0  0  0  0  0  0  0  0  0  0  0
   14.7757   12.0025    8.9885 C   0  0  0  0  0  0  0  0  0  0  0  0
   15.8667   11.9473    9.9806 C   0  0  0  0  0  0  0  0  0  0  0  0
   16.0258   13.2712   10.6198 N   0  0  0  0  0  0  0  0  0  0  0  0
  1  2  1  0  0  0  0
  2  3  1  0  0  0  0
  3  4  1  0  0  0  0
  4  5  1  0  0  0  0
  5  6  1  0  0  0  0
  6  7  1  0  0  0  0
  7  8  1  0  0  0  0
  8  9  1  0  0  0  0
  9 10  1  0  0  0  0
 10 11  1  0  0  0  0
 11 12  1  0  0  0  0
 12 13  1  0  0  0  0
 13 14  1  0  0  0  0
M  END
>  <CHROM.1>
72.40943340,64.06026852,-168.67679921,135.19930665,-66.69345080,173.41821546
-68.00964191,-138.16161898,91.10970117,64.59732650,-176.09138801,13.54287834
10.71815890,11.67961143,-2.35404288,-0.97972058,-2.10291969

>  <Name>
ligand

>  <RI>
0

>  <Rbt.Current_Directory>
/home/itssahil/PROJECTS/Mol_Feturizer/New_Systems/rnas/2O3Y

>  <Rbt.Executable>
rbdock ($Id: //depot/dev/client3/rdock/2013.1/src/exe/rbdock.cxx#4 $)

>  <Rbt.Library>
libRbt.so (2013.1, Build901 2013/11/27)

>  <Rbt.Parameter_File>
/export/apps/rDock/src/rDock_2013.1_src/data/scripts/dock_solv.prm

>  <Rbt.Receptor>
prm/pocket_docking_2.prm

>  <SCORE>
-0.195756

>  <SCORE.INTER>
8.06073

>  <SCORE.INTER.CONST>
1

>  <SCORE.INTER.POLAR>
0

>  <SCORE.INTER.ROT>
11

>  <SCORE.INTER.SOLV>
2.97014

>  <SCORE.INTER.VDW>
-6.54956

>  <SCORE.INTER.norm>
0.575766

>  <SCORE.INTRA>
-8.26132

>  <SCORE.INTRA.DIHEDRAL>
-20.0689

>  <SCORE.INTRA.DIHEDRAL.0>
24.1231

>  <SCORE.INTRA.POLAR>
0

>  <SCORE.INTRA.POLAR.0>
0

>  <SCORE.INTRA.REPUL>
0

>  <SCORE.INTRA.REPUL.0>
0

>  <SCORE.INTRA.SOLV>
2.98437

>  <SCORE.INTRA.SOLV.lig_0>
-48.2216

>  <SCORE.INTRA.VDW>
0.280956

>  <SCORE.INTRA.VDW.0>
-1.3967

>  <SCORE.INTRA.norm>
-0.590094

>  <SCORE.RESTR>
0.00483271

>  <SCORE.RESTR.CAVITY>
0.00483271

>  <SCORE.RESTR.norm>
0.000345193

>  <SCORE.SYSTEM>
0

>  <SCORE.SYSTEM.CONST>
0

>  <SCORE.SYSTEM.DIHEDRAL>
0

>  <SCORE.SYSTEM.SOLV>
0

>  <SCORE.SYSTEM.norm>
0

>  <SCORE.heavy>
14

>  <SCORE.norm>
-0.0139826

>  <RMSD>
1.865

$$$$
ligand
 OpenBabel11021811463D
libRbt.so/2013.1/901 2013/11/27
 14 13  0  0  0  0  0  0  0  0999 V2000
   11.1429   14.2097   14.3504 N   0  0  0  0  0  0  0  0  0  0  0  0
   11.4357   12.7770   14.4907 C   0  0  0  0  0  0  0  0  0  0  0  0
   10.5161   11.9815   13.5699 C   0  0  0  0  0  0  0  0  0  0  0  0
   10.7585   10.4991   13.8022 C   0  0  0  0  0  0  0  0  0  0  0  0
   12.1358   10.1745   13.4142 N   0  0  0  0  0  0  0  0  0  0  0  0
   12.1662    8.7357   13.0989 C   0  0  0  0  0  0  0  0  0  0  0  0
   12.1253    8.5152   11.5824 C   0  0  0  0  0  0  0  0  0  0  0  0
   13.3650    9.1799   10.9653 C   0  0  0  0  0  0  0  0  0  0  0  0
   13.2934    9.1188    9.4964 C   0  0  0  0  0  0  0  0  0  0  0  0
   14.4754    9.8257    8.9626 N   0  0  0  0  0  0  0  0  0  0  0  0
   14.0387   11.0664    8.1754 C   0  0  0  0  0  0  0  0  0  0  0  0
   13.4284   12.0966    9.1334 C   0  0  0  0  0  0  0  0  0  0  0  0
   14.4488   12.5420   10.1018 C   0  0  0  0  0  0  0  0  0  0  0  0
   15.4704   13.3566    9.4095 N   0  0  0  0  0  0  0  0  0  0  0  0
  1  2  1  0  0  0  0
  2  3  1  0  0  0  0
  3  4  1  0  0  0  0
  4  5  1  0  0  0  0
  5  6  1  0  0  0  0
  6  7  1  0  0  0  0
  7  8  1  0  0  0  0
  8  9  1  0  0  0  0
  9 10  1  0  0  0  0
 10 11  1  0  0  0  0
 11 12  1  0  0  0  0
 12 13  1  0  0  0  0
 13 14  1  0  0  0  0
M  END
>  <CHROM.1>
-175.82432876,-63.83655865,-156.29183043,100.66429544,61.05102317,-173.92310039
177.41588220,-115.74520318,67.46859903,62.93823138,69.45628257,12.77125399
11.00525829,11.46806155,-2.83805698,-0.98115563,-2.93385220

>  <Name>
ligand

>  <RI>
0

>  <Rbt.Current_Directory>
/home/itssahil/PROJECTS/Mol_Feturizer/New_Systems/rnas/2O3Y

>  <Rbt.Executable>
rbdock ($Id: //depot/dev/client3/rdock/2013.1/src/exe/rbdock.cxx#4 $)

>  <Rbt.Library>
libRbt.so (2013.1, Build901 2013/11/27)

>  <Rbt.Parameter_File>
/export/apps/rDock/src/rDock_2013.1_src/data/scripts/dock_solv.prm

>  <Rbt.Receptor>
prm/pocket_docking_2.prm

>  <SCORE>
0.334782

>  <SCORE.INTER>
8.40507

>  <SCORE.INTER.CONST>
1

>  <SCORE.INTER.POLAR>
0

>  <SCORE.INTER.ROT>
11

>  <SCORE.INTER.SOLV>
2.66076

>  <SCORE.INTER.VDW>
-6.21687

>  <SCORE.INTER.norm>
0.600362

>  <SCORE.INTRA>
-8.07029

>  <SCORE.INTRA.DIHEDRAL>
-20.9006

>  <SCORE.INTRA.DIHEDRAL.0>
24.1231

>  <SCORE.INTRA.POLAR>
0

>  <SCORE.INTRA.POLAR.0>
0

>  <SCORE.INTRA.REPUL>
0

>  <SCORE.INTRA.REPUL.0>
0

>  <SCORE.INTRA.SOLV>
1.70036

>  <SCORE.INTRA.SOLV.lig_0>
-48.2216

>  <SCORE.INTRA.VDW>
1.52983

>  <SCORE.INTRA.VDW.0>
-1.3967

>  <SCORE.INTRA.norm>
-0.57645

>  <SCORE.RESTR>
0

>  <SCORE.RESTR.CAVITY>
0

>  <SCORE.RESTR.norm>
0

>  <SCORE.SYSTEM>
0

>  <SCORE.SYSTEM.CONST>
0

>  <SCORE.SYSTEM.DIHEDRAL>
0

>  <SCORE.SYSTEM.SOLV>
0

>  <SCORE.SYSTEM.norm>
0

>  <SCORE.heavy>
14

>  <SCORE.norm>
0.023913

>  <RMSD>
1.883

$$$$
ligand
 OpenBabel11021811463D
libRbt.so/2013.1/901 2013/11/27
 14 13  0  0  0  0  0  0  0  0999 V2000
    9.6180   14.5506   14.8036 N   0  0  0  0  0  0  0  0  0  0  0  0
   10.6097   14.0043   15.7397 C   0  0  0  0  0  0  0  0  0  0  0  0
   11.5657   13.0872   14.9838 C   0  0  0  0  0  0  0  0  0  0  0  0
   10.8042   11.8486   14.5412 C   0  0  0  0  0  0  0  0  0  0  0  0
   11.7447   10.9046   13.9270 N   0  0  0  0  0  0  0  0  0  0  0  0
   10.9631    9.7262   13.5134 C   0  0  0  0  0  0  0  0  0  0  0  0
   11.3809    9.2671   12.1117 C   0  0  0  0  0  0  0  0  0  0  0  0
   12.8592    8.8527   12.1612 C   0  0  0  0  0  0  0  0  0  0  0  0
   13.3656    8.6213   10.7986 C   0  0  0  0  0  0  0  0  0  0  0  0
   13.2931    9.9053   10.0721 N   0  0  0  0  0  0  0  0  0  0  0  0
   14.1500    9.8435    8.8026 C   0  0  0  0  0  0  0  0  0  0  0  0
   14.7660   11.2209    8.5286 C   0  0  0  0  0  0  0  0  0  0  0  0
   15.6831   11.5837    9.6262 C   0  0  0  0  0  0  0  0  0  0  0  0
   16.2184   12.9433    9.3990 N   0  0  0  0  0  0  0  0  0  0  0  0
  1  2  1  0  0  0  0
  2  3  1  0  0  0  0
  3  4  1  0  0  0  0
  4  5  1  0  0  0  0
  5  6  1  0  0  0  0
  6  7  1  0  0  0  0
  7  8  1  0  0  0  0
  8  9  1  0  0  0  0
  9 10  1  0  0  0  0
 10 11  1  0  0  0  0
 11 12  1  0  0  0  0
 12 13  1  0  0  0  0
 13 14  1  0  0  0  0
M  END
>  <CHROM.1>
-68.56889524,-174.62554122,-179.89058733,136.31436233,62.23415292,-170.49655657
63.36902964,164.23498040,-146.01523335,63.74934473,-176.86349599,12.64436821
11.16815474,12.07207323,-2.56995460,-0.82913939,-2.81091089

>  <Name>
ligand

>  <RI>
0

>  <Rbt.Current_Directory>
/home/itssahil/PROJECTS/Mol_Feturizer/New_Systems/rnas/2O3Y

>  <Rbt.Executable>
rbdock ($Id: //depot/dev/client3/rdock/2013.1/src/exe/rbdock.cxx#4 $)

>  <Rbt.Library>
libRbt.so (2013.1, Build901 2013/11/27)

>  <Rbt.Parameter_File>
/export/apps/rDock/src/rDock_2013.1_src/data/scripts/dock_solv.prm

>  <Rbt.Receptor>
prm/pocket_docking_2.prm

>  <SCORE>
-0.292311

>  <SCORE.INTER>
8.98226

>  <SCORE.INTER.CONST>
1

>  <SCORE.INTER.POLAR>
0

>  <SCORE.INTER.ROT>
11

>  <SCORE.INTER.SOLV>
2.31356

>  <SCORE.INTER.VDW>
-5.71634

>  <SCORE.INTER.norm>
0.64159

>  <SCORE.INTRA>
-9.27554

>  <SCORE.INTRA.DIHEDRAL>
-21.307

>  <SCORE.INTRA.DIHEDRAL.0>
24.1231

>  <SCORE.INTRA.POLAR>
0

>  <SCORE.INTRA.POLAR.0>
0

>  <SCORE.INTRA.REPUL>
0

>  <SCORE.INTRA.REPUL.0>
0

>  <SCORE.INTRA.SOLV>
1.32585

>  <SCORE.INTRA.SOLV.lig_0>
-48.2216

>  <SCORE.INTRA.VDW>
0.715043

>  <SCORE.INTRA.VDW.0>
-1.3967

>  <SCORE.INTRA.norm>
-0.662538

>  <SCORE.RESTR>
0.000965217

>  <SCORE.RESTR.CAVITY>
0.000965217

>  <SCORE.RESTR.norm>
6.89441e-05

>  <SCORE.SYSTEM>
0

>  <SCORE.SYSTEM.CONST>
0

>  <SCORE.SYSTEM.DIHEDRAL>
0

>  <SCORE.SYSTEM.SOLV>
0

>  <SCORE.SYSTEM.norm>
0

>  <SCORE.heavy>
14

>  <SCORE.norm>
-0.0208793

>  <RMSD>
1.891

$$$$
ligand
 OpenBabel11021811463D
libRbt.so/2013.1/901 2013/11/27
 14 13  0  0  0  0  0  0  0  0999 V2000
   13.7755   13.0237   13.9329 N   0  0  0  0  0  0  0  0  0  0  0  0
   12.9561   11.8252   14.1568 C   0  0  0  0  0  0  0  0  0  0  0  0
   11.7878   11.8221   13.1764 C   0  0  0  0  0  0  0  0  0  0  0  0
   10.9019   10.6247   13.4785 C   0  0  0  0  0  0  0  0  0  0  0  0
   11.6711    9.3947   13.2585 N   0  0  0  0  0  0  0  0  0  0  0  0
   11.4046    8.9621   11.8756 C   0  0  0  0  0  0  0  0  0  0  0  0
   12.6729    8.3840   11.2377 C   0  0  0  0  0  0  0  0  0  0  0  0
   13.7131    9.5090   11.1286 C   0  0  0  0  0  0  0  0  0  0  0  0
   14.9678    8.9849   10.5648 C   0  0  0  0  0  0  0  0  0  0  0  0
   15.9529   10.0855   10.5702 N   0  0  0  0  0  0  0  0  0  0  0  0
   15.9517   10.8027    9.2154 C   0  0  0  0  0  0  0  0  0  0  0  0
   17.0412   11.8818    9.2020 C   0  0  0  0  0  0  0  0  0  0  0  0
   16.7094   12.9369   10.1788 C   0  0  0  0  0  0  0  0  0  0  0  0
   17.7112   14.0216   10.0996 N   0  0  0  0  0  0  0  0  0  0  0  0
  1  2  1  0  0  0  0
  2  3  1  0  0  0  0
  3  4  1  0  0  0  0
  4  5  1  0  0  0  0
  5  6  1  0  0  0  0
  6  7  1  0  0  0  0
  7  8  1  0  0  0  0
  8  9  1  0  0  0  0
  9 10  1  0  0  0  0
 10 11  1  0  0  0  0
 11 12  1  0  0  0  0
 12 13  1  0  0  0  0
 13 14  1  0  0  0  0
M  END
>  <CHROM.1>
-176.44510048,-62.93134320,-93.50565166,142.42826853,-64.60615171,177.93625598
-176.22743287,-94.30204266,-176.29601229,-65.77054484,-176.15226505,14.08666102
10.87534180,11.57668078,3.13180709,-0.63930700,-2.58278732

>  <Name>
ligand

>  <RI>
0

>  <Rbt.Current_Directory>
/home/itssahil/PROJECTS/Mol_Feturizer/New_Systems/rnas/2O3Y

>  <Rbt.Executable>
rbdock ($Id: //depot/dev/client3/rdock/2013.1/src/exe/rbdock.cxx#4 $)

>  <Rbt.Library>
libRbt.so (2013.1, Build901 2013/11/27)

>  <Rbt.Parameter_File>
/export/apps/rDock/src/rDock_2013.1_src/data/scripts/dock_solv.prm

>  <Rbt.Receptor>
prm/pocket_docking_2.prm

>  <SCORE>
0.714967

>  <SCORE.INTER>
10.5144

>  <SCORE.INTER.CONST>
1

>  <SCORE.INTER.POLAR>
0

>  <SCORE.INTER.ROT>
11

>  <SCORE.INTER.SOLV>
4.06194

>  <SCORE.INTER.VDW>
-5.2777

>  <SCORE.INTER.norm>
0.751029

>  <SCORE.INTRA>
-9.79944

>  <SCORE.INTRA.DIHEDRAL>
-21.4243

>  <SCORE.INTRA.DIHEDRAL.0>
24.1231

>  <SCORE.INTRA.POLAR>
0

>  <SCORE.INTRA.POLAR.0>
0

>  <SCORE.INTRA.REPUL>
0

>  <SCORE.INTRA.REPUL.0>
0

>  <SCORE.INTRA.SOLV>
0.47848

>  <SCORE.INTRA.SOLV.lig_0>
-48.2216

>  <SCORE.INTRA.VDW>
0.673453

>  <SCORE.INTRA.VDW.0>
-1.3967

>  <SCORE.INTRA.norm>
-0.69996

>  <SCORE.RESTR>
0

>  <SCORE.RESTR.CAVITY>
0

>  <SCORE.RESTR.norm>
0

>  <SCORE.SYSTEM>
0

>  <SCORE.SYSTEM.CONST>
0

>  <SCORE.SYSTEM.DIHEDRAL>
0

>  <SCORE.SYSTEM.SOLV>
0

>  <SCORE.SYSTEM.norm>
0

>  <SCORE.heavy>
14

>  <SCORE.norm>
0.0510691

>  <RMSD>
1.894

$$$$
ligand
 OpenBabel11021811463D
libRbt.so/2013.1/901 2013/11/27
 14 13  0  0  0  0  0  0  0  0999 V2000
   15.9740   13.5768    9.4822 N   0  0  0  0  0  0  0  0  0  0  0  0
   14.8551   12.6940    9.8383 C   0  0  0  0  0  0  0  0  0  0  0  0
   14.3451   11.9941    8.5829 C   0  0  0  0  0  0  0  0  0  0  0  0
   13.2544   11.0134    8.9813 C   0  0  0  0  0  0  0  0  0  0  0  0
   13.8242   10.0080    9.8855 N   0  0  0  0  0  0  0  0  0  0  0  0
   12.7578    9.0323   10.1708 C   0  0  0  0  0  0  0  0  0  0  0  0
   13.0475    8.2835   11.4767 C   0  0  0  0  0  0  0  0  0  0  0  0
   13.0016    9.2945   12.6322 C   0  0  0  0  0  0  0  0  0  0  0  0
   11.6108    9.6978   12.8965 C   0  0  0  0  0  0  0  0  0  0  0  0
   11.6448   10.7919   13.8883 N   0  0  0  0  0  0  0  0  0  0  0  0
   10.4129   11.6898   13.7273 C   0  0  0  0  0  0  0  0  0  0  0  0
   10.6033   12.6151   12.5194 C   0  0  0  0  0  0  0  0  0  0  0  0
   11.6912   13.5738   12.7930 C   0  0  0  0  0  0  0  0  0  0  0  0
   11.2914   14.4809   13.8902 N   0  0  0  0  0  0  0  0  0  0  0  0
  1  2  1  0  0  0  0
  2  3  1  0  0  0  0
  3  4  1  0  0  0  0
  4  5  1  0  0  0  0
  5  6  1  0  0  0  0
  6  7  1  0  0  0  0
  7  8  1  0  0  0  0
  8  9  1  0  0  0  0
  9 10  1  0  0  0  0
 10 11  1  0  0  0  0
 11 12  1  0  0  0  0
 12 13  1  0  0  0  0
 13 14  1  0  0  0  0
M  END
>  <CHROM.1>
176.08419876,-61.55028410,-176.27568815,-158.03648749,64.76879316,72.56330432
-172.78770548,152.93203319,-77.24964953,-67.09860558,-65.92714388,12.73654066
11.33863337,11.48307000,-0.18263928,0.87935734,0.09888858

>  <Name>
ligand

>  <RI>
0

>  <Rbt.Current_Directory>
/home/itssahil/PROJECTS/Mol_Feturizer/New_Systems/rnas/2O3Y

>  <Rbt.Executable>
rbdock ($Id: //depot/dev/client3/rdock/2013.1/src/exe/rbdock.cxx#4 $)

>  <Rbt.Library>
libRbt.so (2013.1, Build901 2013/11/27)

>  <Rbt.Parameter_File>
/export/apps/rDock/src/rDock_2013.1_src/data/scripts/dock_solv.prm

>  <Rbt.Receptor>
prm/pocket_docking_2.prm

>  <SCORE>
-0.106458

>  <SCORE.INTER>
8.34234

>  <SCORE.INTER.CONST>
1

>  <SCORE.INTER.POLAR>
0

>  <SCORE.INTER.ROT>
11

>  <SCORE.INTER.SOLV>
2.0439

>  <SCORE.INTER.VDW>
-6.05308

>  <SCORE.INTER.norm>
0.595881

>  <SCORE.INTRA>
-8.44879

>  <SCORE.INTRA.DIHEDRAL>
-21.7142

>  <SCORE.INTRA.DIHEDRAL.0>
24.1231

>  <SCORE.INTRA.POLAR>
0

>  <SCORE.INTRA.POLAR.0>
0

>  <SCORE.INTRA.REPUL>
0

>  <SCORE.INTRA.REPUL.0>
0

>  <SCORE.INTRA.SOLV>
2.11021

>  <SCORE.INTRA.SOLV.lig_0>
-48.2216

>  <SCORE.INTRA.VDW>
1.35322

>  <SCORE.INTRA.VDW.0>
-1.3967

>  <SCORE.INTRA.norm>
-0.603485

>  <SCORE.RESTR>
0

>  <SCORE.RESTR.CAVITY>
0

>  <SCORE.RESTR.norm>
0

>  <SCORE.SYSTEM>
0

>  <SCORE.SYSTEM.CONST>
0

>  <SCORE.SYSTEM.DIHEDRAL>
0

>  <SCORE.SYSTEM.SOLV>
0

>  <SCORE.SYSTEM.norm>
0

>  <SCORE.heavy>
14

>  <SCORE.norm>
-0.00760415

>  <RMSD>
1.899

$$$$
ligand
 OpenBabel11021811463D
libRbt.so/2013.1/901 2013/11/27
 14 13  0  0  0  0  0  0  0  0999 V2000
   15.0877   13.3964    9.4087 N   0  0  0  0  0  0  0  0  0  0  0  0
   14.7406   12.0082    9.7411 C   0  0  0  0  0  0  0  0  0  0  0  0
   14.0893   11.3471    8.5307 C   0  0  0  0  0  0  0  0  0  0  0  0
   13.7139    9.9209    8.8983 C   0  0  0  0  0  0  0  0  0  0  0  0
   12.5346    9.9480    9.7709 N   0  0  0  0  0  0  0  0  0  0  0  0
   13.0111    9.7151   11.1455 C   0  0  0  0  0  0  0  0  0  0  0  0
   12.3965    8.4333   11.7192 C   0  0  0  0  0  0  0  0  0  0  0  0
   12.9366    8.2356   13.1435 C   0  0  0  0  0  0  0  0  0  0  0  0
   12.2076    9.1002   14.0856 C   0  0  0  0  0  0  0  0  0  0  0  0
   12.6757   10.4850   13.8734 N   0  0  0  0  0  0  0  0  0  0  0  0
   12.1971   11.3860   15.0175 C   0  0  0  0  0  0  0  0  0  0  0  0
   11.8841   12.7858   14.4752 C   0  0  0  0  0  0  0  0  0  0  0  0
   11.4128   13.6515   15.5734 C   0  0  0  0  0  0  0  0  0  0  0  0
   10.9874   14.9590   15.0293 N   0  0  0  0  0  0  0  0  0  0  0  0
  1  2  1  0  0  0  0
  2  3  1  0  0  0  0
  3  4  1  0  0  0  0
  4  5  1  0  0  0  0
  5  6  1  0  0  0  0
  6  7  1  0  0  0  0
  7  8  1  0  0  0  0
  8  9  1  0  0  0  0
  9 10  1  0  0  0  0
 10 11  1  0  0  0  0
 11 12  1  0  0  0  0
 12 13  1  0  0  0  0
 13 14  1  0  0  0  0
M  END
>  <CHROM.1>
-178.99643710,74.40726001,-102.71940172,-118.46475215,179.50326903,79.60899647
-74.04363450,-167.44873085,-145.20526324,179.54582092,-174.55286866,12.84822765
11.09755184,12.17236766,-0.45583961,1.16680039,0.13943622

>  <Name>
ligand

>  <RI>
0

>  <Rbt.Current_Directory>
/home/itssahil/PROJECTS/Mol_Feturizer/New_Systems/rnas/2O3Y

>  <Rbt.Executable>
rbdock ($Id: //depot/dev/client3/rdock/2013.1/src/exe/rbdock.cxx#4 $)

>  <Rbt.Library>
libRbt.so (2013.1, Build901 2013/11/27)

>  <Rbt.Parameter_File>
/export/apps/rDock/src/rDock_2013.1_src/data/scripts/dock_solv.prm

>  <Rbt.Receptor>
prm/pocket_docking_2.prm

>  <SCORE>
1.21267

>  <SCORE.INTER>
8.44465

>  <SCORE.INTER.CONST>
1

>  <SCORE.INTER.POLAR>
0

>  <SCORE.INTER.ROT>
11

>  <SCORE.INTER.SOLV>
4.18746

>  <SCORE.INTER.VDW>
-6.69939

>  <SCORE.INTER.norm>
0.603189

>  <SCORE.INTRA>
-7.23198

>  <SCORE.INTRA.DIHEDRAL>
-18.0253

>  <SCORE.INTRA.DIHEDRAL.0>
24.1231

>  <SCORE.INTRA.POLAR>
0

>  <SCORE.INTRA.POLAR.0>
0

>  <SCORE.INTRA.REPUL>
0

>  <SCORE.INTRA.REPUL.0>
0

>  <SCORE.INTRA.SOLV>
0.718428

>  <SCORE.INTRA.SOLV.lig_0>
-48.2216

>  <SCORE.INTRA.VDW>
1.42146

>  <SCORE.INTRA.VDW.0>
-1.3967

>  <SCORE.INTRA.norm>
-0.51657

>  <SCORE.RESTR>
0

>  <SCORE.RESTR.CAVITY>
0

>  <SCORE.RESTR.norm>
0

>  <SCORE.SYSTEM>
0

>  <SCORE.SYSTEM.CONST>
0

>  <SCORE.SYSTEM.DIHEDRAL>
0

>  <SCORE.SYSTEM.SOLV>
0

>  <SCORE.SYSTEM.norm>
0

>  <SCORE.heavy>
14

>  <SCORE.norm>
0.086619

>  <RMSD>
1.943

$$$$
ligand
 OpenBabel11021811463D
libRbt.so/2013.1/901 2013/11/27
 14 13  0  0  0  0  0  0  0  0999 V2000
   16.6214   13.5336    9.9527 N   0  0  0  0  0  0  0  0  0  0  0  0
   15.4355   12.9214   10.5666 C   0  0  0  0  0  0  0  0  0  0  0  0
   14.4064   12.6168    9.4828 C   0  0  0  0  0  0  0  0  0  0  0  0
   14.9834   11.5700    8.5441 C   0  0  0  0  0  0  0  0  0  0  0  0
   15.2152   10.3313    9.2957 N   0  0  0  0  0  0  0  0  0  0  0  0
   14.3447    9.3001    8.7044 C   0  0  0  0  0  0  0  0  0  0  0  0
   12.9810    9.2798    9.4043 C   0  0  0  0  0  0  0  0  0  0  0  0
   13.2042    8.9343   10.8843 C   0  0  0  0  0  0  0  0  0  0  0  0
   11.9172    8.9127   11.5984 C   0  0  0  0  0  0  0  0  0  0  0  0
   12.2038    9.0707   13.0387 N   0  0  0  0  0  0  0  0  0  0  0  0
   10.9316    9.4812   13.7890 C   0  0  0  0  0  0  0  0  0  0  0  0
   10.9760   10.9829   14.0966 C   0  0  0  0  0  0  0  0  0  0  0  0
   10.8964   11.7514   12.8395 C   0  0  0  0  0  0  0  0  0  0  0  0
   10.9449   13.1991   13.1369 N   0  0  0  0  0  0  0  0  0  0  0  0
  1  2  1  0  0  0  0
  2  3  1  0  0  0  0
  3  4  1  0  0  0  0
  4  5  1  0  0  0  0
  5  6  1  0  0  0  0
  6  7  1  0  0  0  0
  7  8  1  0  0  0  0
  8  9  1  0  0  0  0
  9 10  1  0  0  0  0
 10 11  1  0  0  0  0
 11 12  1  0  0  0  0
 12 13  1  0  0  0  0
 13 14  1  0  0  0  0
M  END
>  <CHROM.1>
64.59540532,63.04620137,117.00909589,-90.12141254,-61.41076724,179.62622996
-159.74561685,162.83632064,-102.41562280,67.00960935,-179.77083094,13.21847168
10.84867614,11.09517943,-0.04981014,0.78773880,0.37851529

>  <Name>
ligand

>  <RI>
0

>  <Rbt.Current_Directory>
/home/itssahil/PROJECTS/Mol_Feturizer/New_Systems/rnas/2O3Y

>  <Rbt.Executable>
rbdock ($Id: //depot/dev/client3/rdock/2013.1/src/exe/rbdock.cxx#4 $)

>  <Rbt.Library>
libRbt.so (2013.1, Build901 2013/11/27)

>  <Rbt.Parameter_File>
/export/apps/rDock/src/rDock_2013.1_src/data/scripts/dock_solv.prm

>  <Rbt.Receptor>
prm/pocket_docking_2.prm

>  <SCORE>
0.733897

>  <SCORE.INTER>
8.50471

>  <SCORE.INTER.CONST>
1

>  <SCORE.INTER.POLAR>
0

>  <SCORE.INTER.ROT>
11

>  <SCORE.INTER.SOLV>
2.30378

>  <SCORE.INTER.VDW>
-6.03145

>  <SCORE.INTER.norm>
0.607479

>  <SCORE.INTRA>
-7.77081

>  <SCORE.INTRA.DIHEDRAL>
-19.4184

>  <SCORE.INTRA.DIHEDRAL.0>
24.1231

>  <SCORE.INTRA.POLAR>
0

>  <SCORE.INTRA.POLAR.0>
0

>  <SCORE.INTRA.REPUL>
0

>  <SCORE.INTRA.REPUL.0>
0

>  <SCORE.INTRA.SOLV>
1.81743

>  <SCORE.INTRA.SOLV.lig_0>
-48.2216

>  <SCORE.INTRA.VDW>
1.02969

>  <SCORE.INTRA.VDW.0>
-1.3967

>  <SCORE.INTRA.norm>
-0.555058

>  <SCORE.RESTR>
0

>  <SCORE.RESTR.CAVITY>
0

>  <SCORE.RESTR.norm>
0

>  <SCORE.SYSTEM>
0

>  <SCORE.SYSTEM.CONST>
0

>  <SCORE.SYSTEM.DIHEDRAL>
0

>  <SCORE.SYSTEM.SOLV>
0

>  <SCORE.SYSTEM.norm>
0

>  <SCORE.heavy>
14

>  <SCORE.norm>
0.0524212

>  <RMSD>
1.965

$$$$
ligand
 OpenBabel11021811463D
libRbt.so/2013.1/901 2013/11/27
 14 13  0  0  0  0  0  0  0  0999 V2000
   11.9003   12.4555   13.4711 N   0  0  0  0  0  0  0  0  0  0  0  0
   10.6458   11.7610   13.1516 C   0  0  0  0  0  0  0  0  0  0  0  0
   10.5883   10.4443   13.9193 C   0  0  0  0  0  0  0  0  0  0  0  0
   11.6757    9.5240   13.3895 C   0  0  0  0  0  0  0  0  0  0  0  0
   11.3580    9.1584   12.0044 N   0  0  0  0  0  0  0  0  0  0  0  0
   12.4372    8.2719   11.5352 C   0  0  0  0  0  0  0  0  0  0  0  0
   13.4712    9.0632   10.7260 C   0  0  0  0  0  0  0  0  0  0  0  0
   12.7880    9.5894    9.4548 C   0  0  0  0  0  0  0  0  0  0  0  0
   13.7254   10.4233    8.6850 C   0  0  0  0  0  0  0  0  0  0  0  0
   14.0089   11.6312    9.4863 N   0  0  0  0  0  0  0  0  0  0  0  0
   15.3990   12.1789    9.1434 C   0  0  0  0  0  0  0  0  0  0  0  0
   15.9447   12.9810   10.3311 C   0  0  0  0  0  0  0  0  0  0  0  0
   17.2477   13.5747    9.9745 C   0  0  0  0  0  0  0  0  0  0  0  0
   18.2617   12.5068    9.8408 N   0  0  0  0  0  0  0  0  0  0  0  0
  1  2  1  0  0  0  0
  2  3  1  0  0  0  0
  3  4  1  0  0  0  0
  4  5  1  0  0  0  0
  5  6  1  0  0  0  0
  6  7  1  0  0  0  0
  7  8  1  0  0  0  0
  8  9  1  0  0  0  0
  9 10  1  0  0  0  0
 10 11  1  0  0  0  0
 11 12  1  0  0  0  0
 12 13  1  0  0  0  0
 13 14  1  0  0  0  0
M  END
>  <CHROM.1>
-66.61396635,-66.59082836,179.88449985,-97.76427174,-64.79006077,176.69084297
-66.43701414,152.36189603,-154.85891621,-176.70824081,-69.01691104,13.53211875
10.96864415,11.07944625,-3.10800410,-0.65544754,-2.43122808

>  <Name>
ligand

>  <RI>
0

>  <Rbt.Current_Directory>
/home/itssahil/PROJECTS/Mol_Feturizer/New_Systems/rnas/2O3Y

>  <Rbt.Executable>
rbdock ($Id: //depot/dev/client3/rdock/2013.1/src/exe/rbdock.cxx#4 $)

>  <Rbt.Library>
libRbt.so (2013.1, Build901 2013/11/27)

>  <Rbt.Parameter_File>
/export/apps/rDock/src/rDock_2013.1_src/data/scripts/dock_solv.prm

>  <Rbt.Receptor>
prm/pocket_docking_2.prm

>  <SCORE>
-0.0730477

>  <SCORE.INTER>
8.53052

>  <SCORE.INTER.CONST>
1

>  <SCORE.INTER.POLAR>
0

>  <SCORE.INTER.ROT>
11

>  <SCORE.INTER.SOLV>
3.0466

>  <SCORE.INTER.VDW>
-6.26186

>  <SCORE.INTER.norm>
0.609323

>  <SCORE.INTRA>
-8.6085

>  <SCORE.INTRA.DIHEDRAL>
-21.354

>  <SCORE.INTRA.DIHEDRAL.0>
24.1231

>  <SCORE.INTRA.POLAR>
0

>  <SCORE.INTRA.POLAR.0>
0

>  <SCORE.INTRA.REPUL>
0

>  <SCORE.INTRA.REPUL.0>
0

>  <SCORE.INTRA.SOLV>
2.52588

>  <SCORE.INTRA.SOLV.lig_0>
-48.2216

>  <SCORE.INTRA.VDW>
0.805565

>  <SCORE.INTRA.VDW.0>
-1.3967

>  <SCORE.INTRA.norm>
-0.614893

>  <SCORE.RESTR>
0.00493228

>  <SCORE.RESTR.CAVITY>
0.00493228

>  <SCORE.RESTR.norm>
0.000352306

>  <SCORE.SYSTEM>
0

>  <SCORE.SYSTEM.CONST>
0

>  <SCORE.SYSTEM.DIHEDRAL>
0

>  <SCORE.SYSTEM.SOLV>
0

>  <SCORE.SYSTEM.norm>
0

>  <SCORE.heavy>
14

>  <SCORE.norm>
-0.00521769

>  <RMSD>
1.983

$$$$
ligand
 OpenBabel11021811463D
libRbt.so/2013.1/901 2013/11/27
 14 13  0  0  0  0  0  0  0  0999 V2000
   17.8097   13.7017   10.0094 N   0  0  0  0  0  0  0  0  0  0  0  0
   17.0850   12.5864    9.3857 C   0  0  0  0  0  0  0  0  0  0  0  0
   17.3415   11.3104   10.1808 C   0  0  0  0  0  0  0  0  0  0  0  0
   16.5910   10.1658    9.5199 C   0  0  0  0  0  0  0  0  0  0  0  0
   15.1513   10.4430    9.5781 N   0  0  0  0  0  0  0  0  0  0  0  0
   14.4578    9.1913    9.2272 C   0  0  0  0  0  0  0  0  0  0  0  0
   12.9650    9.2903    9.5615 C   0  0  0  0  0  0  0  0  0  0  0  0
   12.8247    9.5419   11.0703 C   0  0  0  0  0  0  0  0  0  0  0  0
   11.4020    9.5960   11.4441 C   0  0  0  0  0  0  0  0  0  0  0  0
   11.3281   10.0212   12.8567 N   0  0  0  0  0  0  0  0  0  0  0  0
   10.7124   11.4215   12.9558 C   0  0  0  0  0  0  0  0  0  0  0  0
   10.6875   11.8714   14.4216 C   0  0  0  0  0  0  0  0  0  0  0  0
   12.0551   12.2067   14.8630 C   0  0  0  0  0  0  0  0  0  0  0  0
   12.8640   10.9726   14.9588 N   0  0  0  0  0  0  0  0  0  0  0  0
  1  2  1  0  0  0  0
  2  3  1  0  0  0  0
  3  4  1  0  0  0  0
  4  5  1  0  0  0  0
  5  6  1  0  0  0  0
  6  7  1  0  0  0  0
  7  8  1  0  0  0  0
  8  9  1  0  0  0  0
  9 10  1  0  0  0  0
 10 11  1  0  0  0  0
 11 12  1  0  0  0  0
 12 13  1  0  0  0  0
 13 14  1  0  0  0  0
M  END
>  <CHROM.1>
-179.73973598,-63.02174122,-166.86565833,167.36869218,-60.29861093,-177.98438527
-172.38538909,111.92308097,-177.98269375,73.01866699,-69.84279544,13.80516451
10.87985169,11.43075533,-0.43728639,0.50686973,0.87732037

>  <Name>
ligand

>  <RI>
0

>  <Rbt.Current_Directory>
/home/itssahil/PROJECTS/Mol_Feturizer/New_Systems/rnas/2O3Y

>  <Rbt.Executable>
rbdock ($Id: //depot/dev/client3/rdock/2013.1/src/exe/rbdock.cxx#4 $)

>  <Rbt.Library>
libRbt.so (2013.1, Build901 2013/11/27)

>  <Rbt.Parameter_File>
/export/apps/rDock/src/rDock_2013.1_src/data/scripts/dock_solv.prm

>  <Rbt.Receptor>
prm/pocket_docking_2.prm

>  <SCORE>
1.221

>  <SCORE.INTER>
9.60559

>  <SCORE.INTER.CONST>
1

>  <SCORE.INTER.POLAR>
0

>  <SCORE.INTER.ROT>
11

>  <SCORE.INTER.SOLV>
1.96721

>  <SCORE.INTER.VDW>
-5.18534

>  <SCORE.INTER.norm>
0.686113

>  <SCORE.INTRA>
-8.40633

>  <SCORE.INTRA.DIHEDRAL>
-21.4659

>  <SCORE.INTRA.DIHEDRAL.0>
24.1231

>  <SCORE.INTRA.POLAR>
0

>  <SCORE.INTRA.POLAR.0>
0

>  <SCORE.INTRA.REPUL>
0

>  <SCORE.INTRA.REPUL.0>
0

>  <SCORE.INTRA.SOLV>
3.4383

>  <SCORE.INTRA.SOLV.lig_0>
-48.2216

>  <SCORE.INTRA.VDW>
0.607471

>  <SCORE.INTRA.VDW.0>
-1.3967

>  <SCORE.INTRA.norm>
-0.600452

>  <SCORE.RESTR>
0.0217425

>  <SCORE.RESTR.CAVITY>
0.0217425

>  <SCORE.RESTR.norm>
0.00155304

>  <SCORE.SYSTEM>
0

>  <SCORE.SYSTEM.CONST>
0

>  <SCORE.SYSTEM.DIHEDRAL>
0

>  <SCORE.SYSTEM.SOLV>
0

>  <SCORE.SYSTEM.norm>
0

>  <SCORE.heavy>
14

>  <SCORE.norm>
0.0872143

>  <RMSD>
2.033

$$$$
ligand
 OpenBabel11021811463D
libRbt.so/2013.1/901 2013/11/27
 14 13  0  0  0  0  0  0  0  0999 V2000
   14.1884   14.5932   10.5884 N   0  0  0  0  0  0  0  0  0  0  0  0
   13.5407   13.2947   10.3592 C   0  0  0  0  0  0  0  0  0  0  0  0
   13.6474   12.9312    8.8818 C   0  0  0  0  0  0  0  0  0  0  0  0
   13.0085   11.5687    8.6684 C   0  0  0  0  0  0  0  0  0  0  0  0
   13.7860   10.5584    9.3947 N   0  0  0  0  0  0  0  0  0  0  0  0
   12.9442    9.3528    9.4878 C   0  0  0  0  0  0  0  0  0  0  0  0
   13.0128    8.7550   10.8978 C   0  0  0  0  0  0  0  0  0  0  0  0
   12.4048    9.7673   11.8803 C   0  0  0  0  0  0  0  0  0  0  0  0
   12.4847    9.2482   13.2554 C   0  0  0  0  0  0  0  0  0  0  0  0
   11.8762   10.2555   14.1481 N   0  0  0  0  0  0  0  0  0  0  0  0
   12.9605   11.1686   14.7316 C   0  0  0  0  0  0  0  0  0  0  0  0
   12.3395   12.1050   15.7752 C   0  0  0  0  0  0  0  0  0  0  0  0
   11.3690   13.0046   15.1223 C   0  0  0  0  0  0  0  0  0  0  0  0
   10.8477   13.9749   16.1089 N   0  0  0  0  0  0  0  0  0  0  0  0
  1  2  1  0  0  0  0
  2  3  1  0  0  0  0
  3  4  1  0  0  0  0
  4  5  1  0  0  0  0
  5  6  1  0  0  0  0
  6  7  1  0  0  0  0
  7  8  1  0  0  0  0
  8  9  1  0  0  0  0
  9 10  1  0  0  0  0
 10 11  1  0  0  0  0
 11 12  1  0  0  0  0
 12 13  1  0  0  0  0
 13 14  1  0  0  0  0
M  END
>  <CHROM.1>
178.40106438,-64.73223385,164.10450450,-136.07067869,64.48191116,-178.41481879
-179.49313471,-95.12151543,-173.65106622,-64.33157492,-175.69936492,12.74363299
11.46950812,12.09265848,-0.40077474,1.27776836,0.24592848

>  <Name>
ligand

>  <RI>
0

>  <Rbt.Current_Directory>
/home/itssahil/PROJECTS/Mol_Feturizer/New_Systems/rnas/2O3Y

>  <Rbt.Executable>
rbdock ($Id: //depot/dev/client3/rdock/2013.1/src/exe/rbdock.cxx#4 $)

>  <Rbt.Library>
libRbt.so (2013.1, Build901 2013/11/27)

>  <Rbt.Parameter_File>
/export/apps/rDock/src/rDock_2013.1_src/data/scripts/dock_solv.prm

>  <Rbt.Receptor>
prm/pocket_docking_3.prm

>  <SCORE>
-3.33885

>  <SCORE.INTER>
7.00697

>  <SCORE.INTER.CONST>
1

>  <SCORE.INTER.POLAR>
0

>  <SCORE.INTER.ROT>
11

>  <SCORE.INTER.SOLV>
2.5712

>  <SCORE.INTER.VDW>
-7.11909

>  <SCORE.INTER.norm>
0.500498

>  <SCORE.INTRA>
-10.3458

>  <SCORE.INTRA.DIHEDRAL>
-21.8139

>  <SCORE.INTRA.DIHEDRAL.0>
24.1231

>  <SCORE.INTRA.POLAR>
0

>  <SCORE.INTRA.POLAR.0>
0

>  <SCORE.INTRA.REPUL>
0

>  <SCORE.INTRA.REPUL.0>
0

>  <SCORE.INTRA.SOLV>
0.361226

>  <SCORE.INTRA.SOLV.lig_0>
-48.2216

>  <SCORE.INTRA.VDW>
0.380514

>  <SCORE.INTRA.VDW.0>
-1.3967

>  <SCORE.INTRA.norm>
-0.738987

>  <SCORE.RESTR>
0

>  <SCORE.RESTR.CAVITY>
0

>  <SCORE.RESTR.norm>
0

>  <SCORE.SYSTEM>
0

>  <SCORE.SYSTEM.CONST>
0

>  <SCORE.SYSTEM.DIHEDRAL>
0

>  <SCORE.SYSTEM.SOLV>
0

>  <SCORE.SYSTEM.norm>
0

>  <SCORE.heavy>
14

>  <SCORE.norm>
-0.238489

>  <RMSD>
2.132

$$$$
ligand
 OpenBabel11021811463D
libRbt.so/2013.1/901 2013/11/27
 14 13  0  0  0  0  0  0  0  0999 V2000
   18.2919   14.5054   10.7580 N   0  0  0  0  0  0  0  0  0  0  0  0
   17.0640   14.1276   10.0455 C   0  0  0  0  0  0  0  0  0  0  0  0
   16.9295   12.6084   10.0420 C   0  0  0  0  0  0  0  0  0  0  0  0
   15.6862   12.2315    9.2532 C   0  0  0  0  0  0  0  0  0  0  0  0
   15.5262   10.7732    9.2833 N   0  0  0  0  0  0  0  0  0  0  0  0
   14.2838   10.4617    8.5552 C   0  0  0  0  0  0  0  0  0  0  0  0
   13.5866    9.2451    9.1747 C   0  0  0  0  0  0  0  0  0  0  0  0
   12.9348    9.6837   10.4946 C   0  0  0  0  0  0  0  0  0  0  0  0
   12.5513    8.5033   11.2861 C   0  0  0  0  0  0  0  0  0  0  0  0
   11.8208    8.9832   12.4768 N   0  0  0  0  0  0  0  0  0  0  0  0
   12.8023    9.5665   13.4997 C   0  0  0  0  0  0  0  0  0  0  0  0
   12.1791   10.7975   14.1688 C   0  0  0  0  0  0  0  0  0  0  0  0
   13.1816   11.4602   15.0251 C   0  0  0  0  0  0  0  0  0  0  0  0
   14.2308   12.0718   14.1814 N   0  0  0  0  0  0  0  0  0  0  0  0
  1  2  1  0  0  0  0
  2  3  1  0  0  0  0
  3  4  1  0  0  0  0
  4  5  1  0  0  0  0
  5  6  1  0  0  0  0
  6  7  1  0  0  0  0
  7  8  1  0  0  0  0
  8  9  1  0  0  0  0
  9 10  1  0  0  0  0
 10 11  1  0  0  0  0
 11 12  1  0  0  0  0
 12 13  1  0  0  0  0
 13 14  1  0  0  0  0
M  END
>  <CHROM.1>
-177.70995978,-178.14981474,177.76318326,-146.19109594,74.50282546,-165.78062132
-174.80658839,-75.95023854,142.10202420,-172.84691972,68.91268797,14.36182486
11.07257339,11.30302285,-0.25322726,0.77315047,1.17094179

>  <Name>
ligand

>  <RI>
0

>  <Rbt.Current_Directory>
/home/itssahil/PROJECTS/Mol_Feturizer/New_Systems/rnas/2O3Y

>  <Rbt.Executable>
rbdock ($Id: //depot/dev/client3/rdock/2013.1/src/exe/rbdock.cxx#4 $)

>  <Rbt.Library>
libRbt.so (2013.1, Build901 2013/11/27)

>  <Rbt.Parameter_File>
/export/apps/rDock/src/rDock_2013.1_src/data/scripts/dock_solv.prm

>  <Rbt.Receptor>
prm/pocket_docking_2.prm

>  <SCORE>
1.35698

>  <SCORE.INTER>
10.3905

>  <SCORE.INTER.CONST>
1

>  <SCORE.INTER.POLAR>
0

>  <SCORE.INTER.ROT>
11

>  <SCORE.INTER.SOLV>
5.85968

>  <SCORE.INTER.VDW>
-5.95958

>  <SCORE.INTER.norm>
0.742176

>  <SCORE.INTRA>
-9.03951

>  <SCORE.INTRA.DIHEDRAL>
-20.1731

>  <SCORE.INTRA.DIHEDRAL.0>
24.1231

>  <SCORE.INTRA.POLAR>
0

>  <SCORE.INTRA.POLAR.0>
0

>  <SCORE.INTRA.REPUL>
0

>  <SCORE.INTRA.REPUL.0>
0

>  <SCORE.INTRA.SOLV>
0.330494

>  <SCORE.INTRA.SOLV.lig_0>
-48.2216

>  <SCORE.INTRA.VDW>
0.881817

>  <SCORE.INTRA.VDW.0>
-1.3967

>  <SCORE.INTRA.norm>
-0.645679

>  <SCORE.RESTR>
0.00601714

>  <SCORE.RESTR.CAVITY>
0.00601714

>  <SCORE.RESTR.norm>
0.000429796

>  <SCORE.SYSTEM>
0

>  <SCORE.SYSTEM.CONST>
0

>  <SCORE.SYSTEM.DIHEDRAL>
0

>  <SCORE.SYSTEM.SOLV>
0

>  <SCORE.SYSTEM.norm>
0

>  <SCORE.heavy>
14

>  <SCORE.norm>
0.0969272

>  <RMSD>
2.190

$$$$
ligand
 OpenBabel11021811463D
libRbt.so/2013.1/901 2013/11/27
 14 13  0  0  0  0  0  0  0  0999 V2000
   15.2543   11.8535    9.7727 N   0  0  0  0  0  0  0  0  0  0  0  0
   14.4439   11.9697    8.5529 C   0  0  0  0  0  0  0  0  0  0  0  0
   12.9704   11.7994    8.9079 C   0  0  0  0  0  0  0  0  0  0  0  0
   12.7155   10.3384    9.2402 C   0  0  0  0  0  0  0  0  0  0  0  0
   13.2405   10.0556   10.5808 N   0  0  0  0  0  0  0  0  0  0  0  0
   12.9207    8.6489   10.8802 C   0  0  0  0  0  0  0  0  0  0  0  0
   12.6640    8.4617   12.3798 C   0  0  0  0  0  0  0  0  0  0  0  0
   13.9700    8.7568   13.1327 C   0  0  0  0  0  0  0  0  0  0  0  0
   13.7227    8.7828   14.5835 C   0  0  0  0  0  0  0  0  0  0  0  0
   12.7767    9.8842   14.8548 N   0  0  0  0  0  0  0  0  0  0  0  0
   13.5323   11.2124   14.9763 C   0  0  0  0  0  0  0  0  0  0  0  0
   12.5301   12.3682   15.0820 C   0  0  0  0  0  0  0  0  0  0  0  0
   11.7938   12.5068   13.8107 C   0  0  0  0  0  0  0  0  0  0  0  0
   10.8487   13.6403   13.9037 N   0  0  0  0  0  0  0  0  0  0  0  0
  1  2  1  0  0  0  0
  2  3  1  0  0  0  0
  3  4  1  0  0  0  0
  4  5  1  0  0  0  0
  5  6  1  0  0  0  0
  6  7  1  0  0  0  0
  7  8  1  0  0  0  0
  8  9  1  0  0  0  0
  9 10  1  0  0  0  0
 10 11  1  0  0  0  0
 11 12  1  0  0  0  0
 12 13  1  0  0  0  0
 13 14  1  0  0  0  0
M  END
>  <CHROM.1>
-72.35056275,76.07244588,177.66313192,-147.45910113,-64.78812563,171.72522395
-62.38292171,-84.00447559,172.96085592,-66.99988753,-178.77219275,13.09885105
10.73394590,12.18984307,0.88670948,1.24362421,-0.92233539

>  <Name>
ligand

>  <RI>
0

>  <Rbt.Current_Directory>
/home/itssahil/PROJECTS/Mol_Feturizer/New_Systems/rnas/2O3Y

>  <Rbt.Executable>
rbdock ($Id: //depot/dev/client3/rdock/2013.1/src/exe/rbdock.cxx#4 $)

>  <Rbt.Library>
libRbt.so (2013.1, Build901 2013/11/27)

>  <Rbt.Parameter_File>
/export/apps/rDock/src/rDock_2013.1_src/data/scripts/dock_solv.prm

>  <Rbt.Receptor>
prm/pocket_docking_2.prm

>  <SCORE>
-0.106169

>  <SCORE.INTER>
7.84412

>  <SCORE.INTER.CONST>
1

>  <SCORE.INTER.POLAR>
0

>  <SCORE.INTER.ROT>
11

>  <SCORE.INTER.SOLV>
2.24634

>  <SCORE.INTER.VDW>
-6.4527

>  <SCORE.INTER.norm>
0.560294

>  <SCORE.INTRA>
-7.95029

>  <SCORE.INTRA.DIHEDRAL>
-20.9263

>  <SCORE.INTRA.DIHEDRAL.0>
24.1231

>  <SCORE.INTRA.POLAR>
0

>  <SCORE.INTRA.POLAR.0>
0

>  <SCORE.INTRA.REPUL>
0

>  <SCORE.INTRA.REPUL.0>
0

>  <SCORE.INTRA.SOLV>
3.49057

>  <SCORE.INTRA.SOLV.lig_0>
-48.2216

>  <SCORE.INTRA.VDW>
0.767559

>  <SCORE.INTRA.VDW.0>
-1.3967

>  <SCORE.INTRA.norm>
-0.567878

>  <SCORE.RESTR>
0

>  <SCORE.RESTR.CAVITY>
0

>  <SCORE.RESTR.norm>
0

>  <SCORE.SYSTEM>
0

>  <SCORE.SYSTEM.CONST>
0

>  <SCORE.SYSTEM.DIHEDRAL>
0

>  <SCORE.SYSTEM.SOLV>
0

>  <SCORE.SYSTEM.norm>
0

>  <SCORE.heavy>
14

>  <SCORE.norm>
-0.00758352

>  <RMSD>
2.229

$$$$
ligand
 OpenBabel11021811463D
libRbt.so/2013.1/901 2013/11/27
 14 13  0  0  0  0  0  0  0  0999 V2000
    9.5343   14.6178   13.6807 N   0  0  0  0  0  0  0  0  0  0  0  0
    9.8081   13.2412   14.1143 C   0  0  0  0  0  0  0  0  0  0  0  0
   11.3121   13.0567   14.2886 C   0  0  0  0  0  0  0  0  0  0  0  0
   11.5740   11.6488   14.7977 C   0  0  0  0  0  0  0  0  0  0  0  0
   11.1358   10.6851   13.7817 N   0  0  0  0  0  0  0  0  0  0  0  0
   11.6947    9.3758   14.1612 C   0  0  0  0  0  0  0  0  0  0  0  0
   11.6446    8.4044   12.9764 C   0  0  0  0  0  0  0  0  0  0  0  0
   12.5720    8.9396   11.8751 C   0  0  0  0  0  0  0  0  0  0  0  0
   11.8663    9.9449   11.0638 C   0  0  0  0  0  0  0  0  0  0  0  0
   12.8859   10.7169   10.3247 N   0  0  0  0  0  0  0  0  0  0  0  0
   13.2772    9.9803    9.0386 C   0  0  0  0  0  0  0  0  0  0  0  0
   14.0777   10.9203    8.1291 C   0  0  0  0  0  0  0  0  0  0  0  0
   15.2712   11.4098    8.8457 C   0  0  0  0  0  0  0  0  0  0  0  0
   16.2105   10.2904    9.0713 N   0  0  0  0  0  0  0  0  0  0  0  0
  1  2  1  0  0  0  0
  2  3  1  0  0  0  0
  3  4  1  0  0  0  0
  4  5  1  0  0  0  0
  5  6  1  0  0  0  0
  6  7  1  0  0  0  0
  7  8  1  0  0  0  0
  8  9  1  0  0  0  0
  9 10  1  0  0  0  0
 10 11  1  0  0  0  0
 11 12  1  0  0  0  0
 12 13  1  0  0  0  0
 13 14  1  0  0  0  0
M  END
>  <CHROM.1>
177.45068605,63.60112440,166.62599038,-163.49330758,65.00787445,-83.63170549
162.50655326,84.08645266,167.04999190,57.68304533,67.67873872,12.34742652
10.94487869,11.86783214,-3.09123483,-0.94550308,2.84088719

>  <Name>
ligand

>  <RI>
0

>  <Rbt.Current_Directory>
/home/itssahil/PROJECTS/Mol_Feturizer/New_Systems/rnas/2O3Y

>  <Rbt.Executable>
rbdock ($Id: //depot/dev/client3/rdock/2013.1/src/exe/rbdock.cxx#4 $)

>  <Rbt.Library>
libRbt.so (2013.1, Build901 2013/11/27)

>  <Rbt.Parameter_File>
/export/apps/rDock/src/rDock_2013.1_src/data/scripts/dock_solv.prm

>  <Rbt.Receptor>
prm/pocket_docking_2.prm

>  <SCORE>
2.13972

>  <SCORE.INTER>
8.89402

>  <SCORE.INTER.CONST>
1

>  <SCORE.INTER.POLAR>
0

>  <SCORE.INTER.ROT>
11

>  <SCORE.INTER.SOLV>
2.13477

>  <SCORE.INTER.VDW>
-5.71558

>  <SCORE.INTER.norm>
0.635287

>  <SCORE.INTRA>
-6.76562

>  <SCORE.INTRA.DIHEDRAL>
-19.6758

>  <SCORE.INTRA.DIHEDRAL.0>
24.1231

>  <SCORE.INTRA.POLAR>
0

>  <SCORE.INTRA.POLAR.0>
0

>  <SCORE.INTRA.REPUL>
0

>  <SCORE.INTRA.REPUL.0>
0

>  <SCORE.INTRA.SOLV>
2.76288

>  <SCORE.INTRA.SOLV.lig_0>
-48.2216

>  <SCORE.INTRA.VDW>
1.69084

>  <SCORE.INTRA.VDW.0>
-1.3967

>  <SCORE.INTRA.norm>
-0.483259

>  <SCORE.RESTR>
0.0113224

>  <SCORE.RESTR.CAVITY>
0.0113224

>  <SCORE.RESTR.norm>
0.000808741

>  <SCORE.SYSTEM>
0

>  <SCORE.SYSTEM.CONST>
0

>  <SCORE.SYSTEM.DIHEDRAL>
0

>  <SCORE.SYSTEM.SOLV>
0

>  <SCORE.SYSTEM.norm>
0

>  <SCORE.heavy>
14

>  <SCORE.norm>
0.152837

>  <RMSD>
2.270

$$$$
ligand
 OpenBabel11021811463D
libRbt.so/2013.1/901 2013/11/27
 14 13  0  0  0  0  0  0  0  0999 V2000
    9.7684   14.1929   13.7160 N   0  0  0  0  0  0  0  0  0  0  0  0
   10.6251   14.0825   14.9043 C   0  0  0  0  0  0  0  0  0  0  0  0
   12.0782   13.9302   14.4665 C   0  0  0  0  0  0  0  0  0  0  0  0
   12.2223   12.6237   13.7033 C   0  0  0  0  0  0  0  0  0  0  0  0
   11.9442   11.5067   14.6132 N   0  0  0  0  0  0  0  0  0  0  0  0
   12.3798   10.2764   13.9296 C   0  0  0  0  0  0  0  0  0  0  0  0
   11.2981    9.7865   12.9602 C   0  0  0  0  0  0  0  0  0  0  0  0
   11.7235    8.4140   12.4172 C   0  0  0  0  0  0  0  0  0  0  0  0
   12.8597    8.5653   11.4938 C   0  0  0  0  0  0  0  0  0  0  0  0
   12.3931    9.3599   10.3393 N   0  0  0  0  0  0  0  0  0  0  0  0
   13.4527    9.3555    9.2316 C   0  0  0  0  0  0  0  0  0  0  0  0
   14.4623   10.4829    9.4791 C   0  0  0  0  0  0  0  0  0  0  0  0
   13.7961   11.7907    9.3257 C   0  0  0  0  0  0  0  0  0  0  0  0
   14.7831   12.8767    9.5076 N   0  0  0  0  0  0  0  0  0  0  0  0
  1  2  1  0  0  0  0
  2  3  1  0  0  0  0
  3  4  1  0  0  0  0
  4  5  1  0  0  0  0
  5  6  1  0  0  0  0
  6  7  1  0  0  0  0
  7  8  1  0  0  0  0
  8  9  1  0  0  0  0
  9 10  1  0  0  0  0
 10 11  1  0  0  0  0
 11 12  1  0  0  0  0
 12 13  1  0  0  0  0
 13 14  1  0  0  0  0
M  END
>  <CHROM.1>
-63.97482082,-64.43512996,-167.74956829,-82.43890848,-172.71385859,-71.11552624
-63.77907955,-170.47584271,-86.45457741,-66.53734672,-177.60055740,12.41340435
11.23139425,12.14913606,-2.44475733,-1.01630959,-2.98949376

>  <Name>
ligand

>  <RI>
0

>  <Rbt.Current_Directory>
/home/itssahil/PROJECTS/Mol_Feturizer/New_Systems/rnas/2O3Y

>  <Rbt.Executable>
rbdock ($Id: //depot/dev/client3/rdock/2013.1/src/exe/rbdock.cxx#4 $)

>  <Rbt.Library>
libRbt.so (2013.1, Build901 2013/11/27)

>  <Rbt.Parameter_File>
/export/apps/rDock/src/rDock_2013.1_src/data/scripts/dock_solv.prm

>  <Rbt.Receptor>
prm/pocket_docking_2.prm

>  <SCORE>
0.857725

>  <SCORE.INTER>
8.5189

>  <SCORE.INTER.CONST>
1

>  <SCORE.INTER.POLAR>
0

>  <SCORE.INTER.ROT>
11

>  <SCORE.INTER.SOLV>
3.79282

>  <SCORE.INTER.VDW>
-6.51834

>  <SCORE.INTER.norm>
0.608493

>  <SCORE.INTRA>
-7.66982

>  <SCORE.INTRA.DIHEDRAL>
-22.0013

>  <SCORE.INTRA.DIHEDRAL.0>
24.1231

>  <SCORE.INTRA.POLAR>
0

>  <SCORE.INTRA.POLAR.0>
0

>  <SCORE.INTRA.REPUL>
0

>  <SCORE.INTRA.REPUL.0>
0

>  <SCORE.INTRA.SOLV>
2.08208

>  <SCORE.INTRA.SOLV.lig_0>
-48.2216

>  <SCORE.INTRA.VDW>
2.2898

>  <SCORE.INTRA.VDW.0>
-1.3967

>  <SCORE.INTRA.norm>
-0.547844

>  <SCORE.RESTR>
0.00864327

>  <SCORE.RESTR.CAVITY>
0.00864327

>  <SCORE.RESTR.norm>
0.000617376

>  <SCORE.SYSTEM>
0

>  <SCORE.SYSTEM.CONST>
0

>  <SCORE.SYSTEM.DIHEDRAL>
0

>  <SCORE.SYSTEM.SOLV>
0

>  <SCORE.SYSTEM.norm>
0

>  <SCORE.heavy>
14

>  <SCORE.norm>
0.0612661

>  <RMSD>
2.355

$$$$
ligand
 OpenBabel11021811463D
libRbt.so/2013.1/901 2013/11/27
 14 13  0  0  0  0  0  0  0  0999 V2000
   16.3949   10.7694    8.9131 N   0  0  0  0  0  0  0  0  0  0  0  0
   15.3322    9.8919    9.4216 C   0  0  0  0  0  0  0  0  0  0  0  0
   14.0390   10.1738    8.6636 C   0  0  0  0  0  0  0  0  0  0  0  0
   12.9258    9.3366    9.2718 C   0  0  0  0  0  0  0  0  0  0  0  0
   12.7102    9.7649   10.6586 N   0  0  0  0  0  0  0  0  0  0  0  0
   12.3982    8.5548   11.4390 C   0  0  0  0  0  0  0  0  0  0  0  0
   12.5674    8.8222   12.9389 C   0  0  0  0  0  0  0  0  0  0  0  0
   14.0659    8.9883   13.2327 C   0  0  0  0  0  0  0  0  0  0  0  0
   14.2557    9.7035   14.5052 C   0  0  0  0  0  0  0  0  0  0  0  0
   14.0024   11.1367   14.2531 N   0  0  0  0  0  0  0  0  0  0  0  0
   12.8258   11.6237   15.1065 C   0  0  0  0  0  0  0  0  0  0  0  0
   12.4442   13.0501   14.6928 C   0  0  0  0  0  0  0  0  0  0  0  0
   11.3599   13.5474   15.5615 C   0  0  0  0  0  0  0  0  0  0  0  0
   10.9355   14.8898   15.1092 N   0  0  0  0  0  0  0  0  0  0  0  0
  1  2  1  0  0  0  0
  2  3  1  0  0  0  0
  3  4  1  0  0  0  0
  4  5  1  0  0  0  0
  5  6  1  0  0  0  0
  6  7  1  0  0  0  0
  7  8  1  0  0  0  0
  8  9  1  0  0  0  0
  9 10  1  0  0  0  0
 10 11  1  0  0  0  0
 11 12  1  0  0  0  0
 12 13  1  0  0  0  0
 13 14  1  0  0  0  0
M  END
>  <CHROM.1>
-175.69834332,63.81792933,-143.23508482,163.12287241,-69.97591498,159.83471814
-77.17095134,118.90769195,-171.97147174,-176.97641224,-176.52409560,13.30400863
10.73199496,12.41205040,0.02963805,1.22448229,-0.56950819

>  <Name>
ligand

>  <RI>
0

>  <Rbt.Current_Directory>
/home/itssahil/PROJECTS/Mol_Feturizer/New_Systems/rnas/2O3Y

>  <Rbt.Executable>
rbdock ($Id: //depot/dev/client3/rdock/2013.1/src/exe/rbdock.cxx#4 $)

>  <Rbt.Library>
libRbt.so (2013.1, Build901 2013/11/27)

>  <Rbt.Parameter_File>
/export/apps/rDock/src/rDock_2013.1_src/data/scripts/dock_solv.prm

>  <Rbt.Receptor>
prm/pocket_docking_2.prm

>  <SCORE>
-1.26089

>  <SCORE.INTER>
7.74961

>  <SCORE.INTER.CONST>
1

>  <SCORE.INTER.POLAR>
0

>  <SCORE.INTER.ROT>
11

>  <SCORE.INTER.SOLV>
3.77353

>  <SCORE.INTER.VDW>
-7.02477

>  <SCORE.INTER.norm>
0.553543

>  <SCORE.INTRA>
-9.0105

>  <SCORE.INTRA.DIHEDRAL>
-18.6762

>  <SCORE.INTRA.DIHEDRAL.0>
24.1231

>  <SCORE.INTRA.POLAR>
0

>  <SCORE.INTRA.POLAR.0>
0

>  <SCORE.INTRA.REPUL>
0

>  <SCORE.INTRA.REPUL.0>
0

>  <SCORE.INTRA.SOLV>
0.676019

>  <SCORE.INTRA.SOLV.lig_0>
-48.2216

>  <SCORE.INTRA.VDW>
-0.0104163

>  <SCORE.INTRA.VDW.0>
-1.3967

>  <SCORE.INTRA.norm>
-0.643607

>  <SCORE.RESTR>
0

>  <SCORE.RESTR.CAVITY>
0

>  <SCORE.RESTR.norm>
0

>  <SCORE.SYSTEM>
0

>  <SCORE.SYSTEM.CONST>
0

>  <SCORE.SYSTEM.DIHEDRAL>
0

>  <SCORE.SYSTEM.SOLV>
0

>  <SCORE.SYSTEM.norm>
0

>  <SCORE.heavy>
14

>  <SCORE.norm>
-0.0900636

>  <RMSD>
2.376

$$$$
ligand
 OpenBabel11021811463D
libRbt.so/2013.1/901 2013/11/27
 14 13  0  0  0  0  0  0  0  0999 V2000
   19.0875   10.4684   11.4943 N   0  0  0  0  0  0  0  0  0  0  0  0
   18.9476   11.2398   10.2518 C   0  0  0  0  0  0  0  0  0  0  0  0
   18.0925   10.4537    9.2634 C   0  0  0  0  0  0  0  0  0  0  0  0
   16.6842   10.3373    9.8232 C   0  0  0  0  0  0  0  0  0  0  0  0
   15.8726    9.5273    8.9078 N   0  0  0  0  0  0  0  0  0  0  0  0
   14.8439    8.8578    9.7227 C   0  0  0  0  0  0  0  0  0  0  0  0
   13.5621    9.6973    9.7690 C   0  0  0  0  0  0  0  0  0  0  0  0
   12.6038    9.0580   10.7851 C   0  0  0  0  0  0  0  0  0  0  0  0
   11.3525    9.8301   10.8556 C   0  0  0  0  0  0  0  0  0  0  0  0
   11.6664   11.1315   11.4797 N   0  0  0  0  0  0  0  0  0  0  0  0
   10.4146   12.0155   11.5169 C   0  0  0  0  0  0  0  0  0  0  0  0
   10.5790   13.0975   12.5911 C   0  0  0  0  0  0  0  0  0  0  0  0
    9.3586   13.9245   12.6559 C   0  0  0  0  0  0  0  0  0  0  0  0
    9.5092   14.9528   13.7078 N   0  0  0  0  0  0  0  0  0  0  0  0
  1  2  1  0  0  0  0
  2  3  1  0  0  0  0
  3  4  1  0  0  0  0
  4  5  1  0  0  0  0
  5  6  1  0  0  0  0
  6  7  1  0  0  0  0
  7  8  1  0  0  0  0
  8  9  1  0  0  0  0
  9 10  1  0  0  0  0
 10 11  1  0  0  0  0
 11 12  1  0  0  0  0
 12 13  1  0  0  0  0
 13 14  1  0  0  0  0
M  END
>  <CHROM.1>
65.58539951,-177.31845691,150.93354398,92.47830059,-172.04585586,-179.65627390
-68.81869670,177.07885122,158.85178986,-178.32431694,179.03844488,13.75519998
11.04206227,10.91581775,-0.45896270,0.09119135,0.53612694

>  <Name>
ligand

>  <RI>
0

>  <Rbt.Current_Directory>
/home/itssahil/PROJECTS/Mol_Feturizer/New_Systems/rnas/2O3Y

>  <Rbt.Executable>
rbdock ($Id: //depot/dev/client3/rdock/2013.1/src/exe/rbdock.cxx#4 $)

>  <Rbt.Library>
libRbt.so (2013.1, Build901 2013/11/27)

>  <Rbt.Parameter_File>
/export/apps/rDock/src/rDock_2013.1_src/data/scripts/dock_solv.prm

>  <Rbt.Receptor>
prm/pocket_docking_3.prm

>  <SCORE>
-3.20152

>  <SCORE.INTER>
6.79461

>  <SCORE.INTER.CONST>
1

>  <SCORE.INTER.POLAR>
0

>  <SCORE.INTER.ROT>
11

>  <SCORE.INTER.SOLV>
5.13659

>  <SCORE.INTER.VDW>
-8.11579

>  <SCORE.INTER.norm>
0.485329

>  <SCORE.INTRA>
-10.0079

>  <SCORE.INTRA.DIHEDRAL>
-21.8521

>  <SCORE.INTRA.DIHEDRAL.0>
24.1231

>  <SCORE.INTRA.POLAR>
0

>  <SCORE.INTRA.POLAR.0>
0

>  <SCORE.INTRA.REPUL>
0

>  <SCORE.INTRA.REPUL.0>
0

>  <SCORE.INTRA.SOLV>
0.340935

>  <SCORE.INTRA.SOLV.lig_0>
-48.2216

>  <SCORE.INTRA.VDW>
0.747641

>  <SCORE.INTRA.VDW.0>
-1.3967

>  <SCORE.INTRA.norm>
-0.714853

>  <SCORE.RESTR>
0.0118144

>  <SCORE.RESTR.CAVITY>
0.0118144

>  <SCORE.RESTR.norm>
0.000843888

>  <SCORE.SYSTEM>
0

>  <SCORE.SYSTEM.CONST>
0

>  <SCORE.SYSTEM.DIHEDRAL>
0

>  <SCORE.SYSTEM.SOLV>
0

>  <SCORE.SYSTEM.norm>
0

>  <SCORE.heavy>
14

>  <SCORE.norm>
-0.22868

>  <RMSD>
2.423

$$$$
ligand
 OpenBabel11021811463D
libRbt.so/2013.1/901 2013/11/27
 14 13  0  0  0  0  0  0  0  0999 V2000
   10.7662   15.2916   13.5431 N   0  0  0  0  0  0  0  0  0  0  0  0
   11.1616   13.9653   13.0504 C   0  0  0  0  0  0  0  0  0  0  0  0
    9.9161   13.1892   12.6353 C   0  0  0  0  0  0  0  0  0  0  0  0
   10.3393   11.8114   12.1528 C   0  0  0  0  0  0  0  0  0  0  0  0
   11.0997   11.9554   10.9063 N   0  0  0  0  0  0  0  0  0  0  0  0
   11.5233   10.6034   10.5021 C   0  0  0  0  0  0  0  0  0  0  0  0
   12.7609   10.6733    9.6002 C   0  0  0  0  0  0  0  0  0  0  0  0
   13.2553    9.2408    9.3487 C   0  0  0  0  0  0  0  0  0  0  0  0
   14.5016    9.2660    8.5660 C   0  0  0  0  0  0  0  0  0  0  0  0
   15.5562    9.8412    9.4255 N   0  0  0  0  0  0  0  0  0  0  0  0
   16.7754   10.2269    8.5801 C   0  0  0  0  0  0  0  0  0  0  0  0
   17.3216   11.5806    9.0500 C   0  0  0  0  0  0  0  0  0  0  0  0
   17.8596   11.4528   10.4181 C   0  0  0  0  0  0  0  0  0  0  0  0
   19.0586   10.5875   10.4029 N   0  0  0  0  0  0  0  0  0  0  0  0
  1  2  1  0  0  0  0
  2  3  1  0  0  0  0
  3  4  1  0  0  0  0
  4  5  1  0  0  0  0
  5  6  1  0  0  0  0
  6  7  1  0  0  0  0
  7  8  1  0  0  0  0
  8  9  1  0  0  0  0
  9 10  1  0  0  0  0
 10 11  1  0  0  0  0
 11 12  1  0  0  0  0
 12 13  1  0  0  0  0
 13 14  1  0  0  0  0
M  END
>  <CHROM.1>
-178.95537657,-67.27956495,178.23633808,-156.33373859,173.33812757,-175.89986384
68.20908558,-165.63366222,138.33873670,66.27343780,67.12490762,13.70663817
11.40589214,10.58419866,-2.58602901,-0.10086744,-2.47054018

>  <Name>
ligand

>  <RI>
0

>  <Rbt.Current_Directory>
/home/itssahil/PROJECTS/Mol_Feturizer/New_Systems/rnas/2O3Y

>  <Rbt.Executable>
rbdock ($Id: //depot/dev/client3/rdock/2013.1/src/exe/rbdock.cxx#4 $)

>  <Rbt.Library>
libRbt.so (2013.1, Build901 2013/11/27)

>  <Rbt.Parameter_File>
/export/apps/rDock/src/rDock_2013.1_src/data/scripts/dock_solv.prm

>  <Rbt.Receptor>
prm/pocket_docking_3.prm

>  <SCORE>
-2.37388

>  <SCORE.INTER>
7.00194

>  <SCORE.INTER.CONST>
1

>  <SCORE.INTER.POLAR>
0

>  <SCORE.INTER.ROT>
11

>  <SCORE.INTER.SOLV>
3.14799

>  <SCORE.INTER.VDW>
-7.31471

>  <SCORE.INTER.norm>
0.500138

>  <SCORE.INTRA>
-9.37581

>  <SCORE.INTRA.DIHEDRAL>
-21.5829

>  <SCORE.INTRA.DIHEDRAL.0>
24.1231

>  <SCORE.INTRA.POLAR>
0

>  <SCORE.INTRA.POLAR.0>
0

>  <SCORE.INTRA.REPUL>
0

>  <SCORE.INTRA.REPUL.0>
0

>  <SCORE.INTRA.SOLV>
1.63607

>  <SCORE.INTRA.SOLV.lig_0>
-48.2216

>  <SCORE.INTRA.VDW>
0.597592

>  <SCORE.INTRA.VDW.0>
-1.3967

>  <SCORE.INTRA.norm>
-0.669701

>  <SCORE.RESTR>
0

>  <SCORE.RESTR.CAVITY>
0

>  <SCORE.RESTR.norm>
0

>  <SCORE.SYSTEM>
0

>  <SCORE.SYSTEM.CONST>
0

>  <SCORE.SYSTEM.DIHEDRAL>
0

>  <SCORE.SYSTEM.SOLV>
0

>  <SCORE.SYSTEM.norm>
0

>  <SCORE.heavy>
14

>  <SCORE.norm>
-0.169563

>  <RMSD>
2.460

$$$$
ligand
 OpenBabel11021811463D
libRbt.so/2013.1/901 2013/11/27
 14 13  0  0  0  0  0  0  0  0999 V2000
   10.6929   14.6256   16.1604 N   0  0  0  0  0  0  0  0  0  0  0  0
    9.8547   13.5641   15.5871 C   0  0  0  0  0  0  0  0  0  0  0  0
   10.7268   12.3591   15.2500 C   0  0  0  0  0  0  0  0  0  0  0  0
    9.8630   11.3068   14.5742 C   0  0  0  0  0  0  0  0  0  0  0  0
   10.6971   10.1461   14.2427 N   0  0  0  0  0  0  0  0  0  0  0  0
    9.9706    9.3720   13.2211 C   0  0  0  0  0  0  0  0  0  0  0  0
   10.9306    8.4522   12.4580 C   0  0  0  0  0  0  0  0  0  0  0  0
   11.9990    9.3249   11.7823 C   0  0  0  0  0  0  0  0  0  0  0  0
   12.9985    8.4750   11.1150 C   0  0  0  0  0  0  0  0  0  0  0  0
   14.0458    9.3626   10.5698 N   0  0  0  0  0  0  0  0  0  0  0  0
   15.1584    8.5313    9.9213 C   0  0  0  0  0  0  0  0  0  0  0  0
   16.4614    9.3396    9.9014 C   0  0  0  0  0  0  0  0  0  0  0  0
   16.9587    9.5167   11.2794 C   0  0  0  0  0  0  0  0  0  0  0  0
   18.1920   10.3323   11.2627 N   0  0  0  0  0  0  0  0  0  0  0  0
  1  2  1  0  0  0  0
  2  3  1  0  0  0  0
  3  4  1  0  0  0  0
  4  5  1  0  0  0  0
  5  6  1  0  0  0  0
  6  7  1  0  0  0  0
  7  8  1  0  0  0  0
  8  9  1  0  0  0  0
  9 10  1  0  0  0  0
 10 11  1  0  0  0  0
 11 12  1  0  0  0  0
 12 13  1  0  0  0  0
 13 14  1  0  0  0  0
M  END
>  <CHROM.1>
-176.28602394,179.80105655,-161.42908093,159.83472874,-59.82700992,176.03606040
-176.02485685,177.12074500,-156.06715609,68.20666705,-178.23049564,12.75327657
10.33599087,12.66593114,-2.44312675,-0.29785191,-2.50716792

>  <Name>
ligand

>  <RI>
0

>  <Rbt.Current_Directory>
/home/itssahil/PROJECTS/Mol_Feturizer/New_Systems/rnas/2O3Y

>  <Rbt.Executable>
rbdock ($Id: //depot/dev/client3/rdock/2013.1/src/exe/rbdock.cxx#4 $)

>  <Rbt.Library>
libRbt.so (2013.1, Build901 2013/11/27)

>  <Rbt.Parameter_File>
/export/apps/rDock/src/rDock_2013.1_src/data/scripts/dock_solv.prm

>  <Rbt.Receptor>
prm/pocket_docking_3.prm

>  <SCORE>
-4.3536

>  <SCORE.INTER>
6.78317

>  <SCORE.INTER.CONST>
1

>  <SCORE.INTER.POLAR>
0

>  <SCORE.INTER.ROT>
11

>  <SCORE.INTER.SOLV>
4.58168

>  <SCORE.INTER.VDW>
-7.93845

>  <SCORE.INTER.norm>
0.484512

>  <SCORE.INTRA>
-11.1368

>  <SCORE.INTRA.DIHEDRAL>
-22.6969

>  <SCORE.INTRA.DIHEDRAL.0>
24.1231

>  <SCORE.INTRA.POLAR>
0

>  <SCORE.INTRA.POLAR.0>
0

>  <SCORE.INTRA.REPUL>
0

>  <SCORE.INTRA.REPUL.0>
0

>  <SCORE.INTRA.SOLV>
-0.107439

>  <SCORE.INTRA.SOLV.lig_0>
-48.2216

>  <SCORE.INTRA.VDW>
0.265427

>  <SCORE.INTRA.VDW.0>
-1.3967

>  <SCORE.INTRA.norm>
-0.795483

>  <SCORE.RESTR>
0

>  <SCORE.RESTR.CAVITY>
0

>  <SCORE.RESTR.norm>
0

>  <SCORE.SYSTEM>
0

>  <SCORE.SYSTEM.CONST>
0

>  <SCORE.SYSTEM.DIHEDRAL>
0

>  <SCORE.SYSTEM.SOLV>
0

>  <SCORE.SYSTEM.norm>
0

>  <SCORE.heavy>
14

>  <SCORE.norm>
-0.310971

>  <RMSD>
2.489

$$$$
ligand
 OpenBabel11021811463D
libRbt.so/2013.1/901 2013/11/27
 14 13  0  0  0  0  0  0  0  0999 V2000
   18.5996   10.3480   10.6777 N   0  0  0  0  0  0  0  0  0  0  0  0
   17.4068    9.5554   11.0053 C   0  0  0  0  0  0  0  0  0  0  0  0
   16.2306   10.0429   10.1657 C   0  0  0  0  0  0  0  0  0  0  0  0
   14.9892    9.2637   10.5680 C   0  0  0  0  0  0  0  0  0  0  0  0
   13.8417    9.7676    9.8050 N   0  0  0  0  0  0  0  0  0  0  0  0
   12.6273    9.3345   10.5180 C   0  0  0  0  0  0  0  0  0  0  0  0
   11.4496   10.2582   10.1869 C   0  0  0  0  0  0  0  0  0  0  0  0
   11.7385   11.6418   10.7884 C   0  0  0  0  0  0  0  0  0  0  0  0
   11.5288   11.6139   12.2451 C   0  0  0  0  0  0  0  0  0  0  0  0
   11.9077   12.9393   12.7755 N   0  0  0  0  0  0  0  0  0  0  0  0
   11.6579   12.9951   14.2869 C   0  0  0  0  0  0  0  0  0  0  0  0
   11.9181   14.4164   14.8006 C   0  0  0  0  0  0  0  0  0  0  0  0
   11.6367   14.4823   16.2476 C   0  0  0  0  0  0  0  0  0  0  0  0
   10.1942   14.2600   16.4850 N   0  0  0  0  0  0  0  0  0  0  0  0
  1  2  1  0  0  0  0
  2  3  1  0  0  0  0
  3  4  1  0  0  0  0
  4  5  1  0  0  0  0
  5  6  1  0  0  0  0
  6  7  1  0  0  0  0
  7  8  1  0  0  0  0
  8  9  1  0  0  0  0
  9 10  1  0  0  0  0
 10 11  1  0  0  0  0
 11 12  1  0  0  0  0
 12 13  1  0  0  0  0
 13 14  1  0  0  0  0
M  END
>  <CHROM.1>
-177.05947516,177.59023725,-161.36741528,155.92151305,-67.47656034,-75.48255582
176.26753175,177.71298130,-174.24405824,178.21063978,-65.69758170,13.26602899
11.49408921,12.18246032,-0.91654864,-0.07999171,0.91793607

>  <Name>
ligand

>  <RI>
0

>  <Rbt.Current_Directory>
/home/itssahil/PROJECTS/Mol_Feturizer/New_Systems/rnas/2O3Y

>  <Rbt.Executable>
rbdock ($Id: //depot/dev/client3/rdock/2013.1/src/exe/rbdock.cxx#4 $)

>  <Rbt.Library>
libRbt.so (2013.1, Build901 2013/11/27)

>  <Rbt.Parameter_File>
/export/apps/rDock/src/rDock_2013.1_src/data/scripts/dock_solv.prm

>  <Rbt.Receptor>
prm/pocket_docking_3.prm

>  <SCORE>
-2.61819

>  <SCORE.INTER>
7.1682

>  <SCORE.INTER.CONST>
1

>  <SCORE.INTER.POLAR>
0

>  <SCORE.INTER.ROT>
11

>  <SCORE.INTER.SOLV>
4.56493

>  <SCORE.INTER.VDW>
-7.67618

>  <SCORE.INTER.norm>
0.512014

>  <SCORE.INTRA>
-9.79706

>  <SCORE.INTRA.DIHEDRAL>
-22.0097

>  <SCORE.INTRA.DIHEDRAL.0>
24.1231

>  <SCORE.INTRA.POLAR>
0

>  <SCORE.INTRA.POLAR.0>
0

>  <SCORE.INTRA.REPUL>
0

>  <SCORE.INTRA.REPUL.0>
0

>  <SCORE.INTRA.SOLV>
0.572724

>  <SCORE.INTRA.SOLV.lig_0>
-48.2216

>  <SCORE.INTRA.VDW>
0.921421

>  <SCORE.INTRA.VDW.0>
-1.3967

>  <SCORE.INTRA.norm>
-0.69979

>  <SCORE.RESTR>
0.0106691

>  <SCORE.RESTR.CAVITY>
0.0106691

>  <SCORE.RESTR.norm>
0.000762081

>  <SCORE.SYSTEM>
0

>  <SCORE.SYSTEM.CONST>
0

>  <SCORE.SYSTEM.DIHEDRAL>
0

>  <SCORE.SYSTEM.SOLV>
0

>  <SCORE.SYSTEM.norm>
0

>  <SCORE.heavy>
14

>  <SCORE.norm>
-0.187014

>  <RMSD>
2.490

$$$$
ligand
 OpenBabel11021811463D
libRbt.so/2013.1/901 2013/11/27
 14 13  0  0  0  0  0  0  0  0999 V2000
   16.5303   11.0047    8.9491 N   0  0  0  0  0  0  0  0  0  0  0  0
   15.5271   10.0873    9.5060 C   0  0  0  0  0  0  0  0  0  0  0  0
   14.2289   10.2193    8.7164 C   0  0  0  0  0  0  0  0  0  0  0  0
   13.1860    9.3049    9.3379 C   0  0  0  0  0  0  0  0  0  0  0  0
   12.9237    9.7457   10.7126 N   0  0  0  0  0  0  0  0  0  0  0  0
   12.4572    8.5656   11.4612 C   0  0  0  0  0  0  0  0  0  0  0  0
   12.1933    8.9269   12.9274 C   0  0  0  0  0  0  0  0  0  0  0  0
   11.0339    9.9334   12.9744 C   0  0  0  0  0  0  0  0  0  0  0  0
   10.8774   10.4614   14.3395 C   0  0  0  0  0  0  0  0  0  0  0  0
   12.0591   11.2979   14.6320 N   0  0  0  0  0  0  0  0  0  0  0  0
   11.7640   12.7649   14.2990 C   0  0  0  0  0  0  0  0  0  0  0  0
   11.4543   13.5343   15.5888 C   0  0  0  0  0  0  0  0  0  0  0  0
   11.1801   14.9490   15.2712 C   0  0  0  0  0  0  0  0  0  0  0  0
    9.9071   15.0545   14.5263 N   0  0  0  0  0  0  0  0  0  0  0  0
  1  2  1  0  0  0  0
  2  3  1  0  0  0  0
  3  4  1  0  0  0  0
  4  5  1  0  0  0  0
  5  6  1  0  0  0  0
  6  7  1  0  0  0  0
  7  8  1  0  0  0  0
  8  9  1  0  0  0  0
  9 10  1  0  0  0  0
 10 11  1  0  0  0  0
 11 12  1  0  0  0  0
 12 13  1  0  0  0  0
 13 14  1  0  0  0  0
M  END
>  <CHROM.1>
-177.81572856,62.69549070,-153.86885362,178.46574960,64.65399590,-171.56393006
68.34060339,93.72881903,101.29833197,179.56359489,68.30047051,12.52288665
11.13189012,12.37448529,-0.78695718,0.83542902,0.33861600

>  <Name>
ligand

>  <RI>
0

>  <Rbt.Current_Directory>
/home/itssahil/PROJECTS/Mol_Feturizer/New_Systems/rnas/2O3Y

>  <Rbt.Executable>
rbdock ($Id: //depot/dev/client3/rdock/2013.1/src/exe/rbdock.cxx#4 $)

>  <Rbt.Library>
libRbt.so (2013.1, Build901 2013/11/27)

>  <Rbt.Parameter_File>
/export/apps/rDock/src/rDock_2013.1_src/data/scripts/dock_solv.prm

>  <Rbt.Receptor>
prm/pocket_docking_2.prm

>  <SCORE>
-0.934613

>  <SCORE.INTER>
7.91471

>  <SCORE.INTER.CONST>
1

>  <SCORE.INTER.POLAR>
0

>  <SCORE.INTER.ROT>
11

>  <SCORE.INTER.SOLV>
2.83526

>  <SCORE.INTER.VDW>
-6.60195

>  <SCORE.INTER.norm>
0.565336

>  <SCORE.INTRA>
-8.84932

>  <SCORE.INTRA.DIHEDRAL>
-21.0538

>  <SCORE.INTRA.DIHEDRAL.0>
24.1231

>  <SCORE.INTRA.POLAR>
0

>  <SCORE.INTRA.POLAR.0>
0

>  <SCORE.INTRA.REPUL>
0

>  <SCORE.INTRA.REPUL.0>
0

>  <SCORE.INTRA.SOLV>
1.31519

>  <SCORE.INTRA.SOLV.lig_0>
-48.2216

>  <SCORE.INTRA.VDW>
1.02

>  <SCORE.INTRA.VDW.0>
-1.3967

>  <SCORE.INTRA.norm>
-0.632094

>  <SCORE.RESTR>
0

>  <SCORE.RESTR.CAVITY>
0

>  <SCORE.RESTR.norm>
0

>  <SCORE.SYSTEM>
0

>  <SCORE.SYSTEM.CONST>
0

>  <SCORE.SYSTEM.DIHEDRAL>
0

>  <SCORE.SYSTEM.SOLV>
0

>  <SCORE.SYSTEM.norm>
0

>  <SCORE.heavy>
14

>  <SCORE.norm>
-0.066758

>  <RMSD>
2.493

$$$$
ligand
 OpenBabel11021811463D
libRbt.so/2013.1/901 2013/11/27
 14 13  0  0  0  0  0  0  0  0999 V2000
   15.8214   11.6269    8.9750 N   0  0  0  0  0  0  0  0  0  0  0  0
   15.0642   10.5073    9.5505 C   0  0  0  0  0  0  0  0  0  0  0  0
   13.6938   10.4301    8.8856 C   0  0  0  0  0  0  0  0  0  0  0  0
   12.9029    9.3033    9.5297 C   0  0  0  0  0  0  0  0  0  0  0  0
   12.5920    9.6706   10.9158 N   0  0  0  0  0  0  0  0  0  0  0  0
   12.3561    8.4157   11.6509 C   0  0  0  0  0  0  0  0  0  0  0  0
   12.3076    8.6763   13.1607 C   0  0  0  0  0  0  0  0  0  0  0  0
   11.0081    9.4316   13.4777 C   0  0  0  0  0  0  0  0  0  0  0  0
   11.1292   10.8404   13.0687 C   0  0  0  0  0  0  0  0  0  0  0  0
   12.1548   11.4672   13.9271 N   0  0  0  0  0  0  0  0  0  0  0  0
   12.5462   12.8395   13.3671 C   0  0  0  0  0  0  0  0  0  0  0  0
   11.4667   13.8688   13.7230 C   0  0  0  0  0  0  0  0  0  0  0  0
   11.4172   14.0530   15.1863 C   0  0  0  0  0  0  0  0  0  0  0  0
   10.3620   15.0304   15.5297 N   0  0  0  0  0  0  0  0  0  0  0  0
  1  2  1  0  0  0  0
  2  3  1  0  0  0  0
  3  4  1  0  0  0  0
  4  5  1  0  0  0  0
  5  6  1  0  0  0  0
  6  7  1  0  0  0  0
  7  8  1  0  0  0  0
  8  9  1  0  0  0  0
  9 10  1  0  0  0  0
 10 11  1  0  0  0  0
 11 12  1  0  0  0  0
 12 13  1  0  0  0  0
 13 14  1  0  0  0  0
M  END
>  <CHROM.1>
-177.76671729,67.81627794,-156.79155515,168.39825542,70.91227600,-75.62558228
-66.11679655,167.96094918,77.91857566,65.14382292,-179.14383657,12.48719168
11.15402552,12.21051270,-0.83930271,0.90006525,0.33000376

>  <Name>
ligand

>  <RI>
0

>  <Rbt.Current_Directory>
/home/itssahil/PROJECTS/Mol_Feturizer/New_Systems/rnas/2O3Y

>  <Rbt.Executable>
rbdock ($Id: //depot/dev/client3/rdock/2013.1/src/exe/rbdock.cxx#4 $)

>  <Rbt.Library>
libRbt.so (2013.1, Build901 2013/11/27)

>  <Rbt.Parameter_File>
/export/apps/rDock/src/rDock_2013.1_src/data/scripts/dock_solv.prm

>  <Rbt.Receptor>
prm/pocket_docking_2.prm

>  <SCORE>
-0.142747

>  <SCORE.INTER>
7.79235

>  <SCORE.INTER.CONST>
1

>  <SCORE.INTER.POLAR>
0

>  <SCORE.INTER.ROT>
11

>  <SCORE.INTER.SOLV>
2.63417

>  <SCORE.INTER.VDW>
-6.61649

>  <SCORE.INTER.norm>
0.556596

>  <SCORE.INTRA>
-7.9351

>  <SCORE.INTRA.DIHEDRAL>
-21.368

>  <SCORE.INTRA.DIHEDRAL.0>
24.1231

>  <SCORE.INTRA.POLAR>
0

>  <SCORE.INTRA.POLAR.0>
0

>  <SCORE.INTRA.REPUL>
0

>  <SCORE.INTRA.REPUL.0>
0

>  <SCORE.INTRA.SOLV>
2.11567

>  <SCORE.INTRA.SOLV.lig_0>
-48.2216

>  <SCORE.INTRA.VDW>
1.69108

>  <SCORE.INTRA.VDW.0>
-1.3967

>  <SCORE.INTRA.norm>
-0.566793

>  <SCORE.RESTR>
0

>  <SCORE.RESTR.CAVITY>
0

>  <SCORE.RESTR.norm>
0

>  <SCORE.SYSTEM>
0

>  <SCORE.SYSTEM.CONST>
0

>  <SCORE.SYSTEM.DIHEDRAL>
0

>  <SCORE.SYSTEM.SOLV>
0

>  <SCORE.SYSTEM.norm>
0

>  <SCORE.heavy>
14

>  <SCORE.norm>
-0.0101962

>  <RMSD>
2.495

$$$$
ligand
 OpenBabel11021811463D
libRbt.so/2013.1/901 2013/11/27
 14 13  0  0  0  0  0  0  0  0999 V2000
    8.3257   14.0381   13.5917 N   0  0  0  0  0  0  0  0  0  0  0  0
    9.6250   14.2711   12.9470 C   0  0  0  0  0  0  0  0  0  0  0  0
    9.9967   13.0540   12.1062 C   0  0  0  0  0  0  0  0  0  0  0  0
   10.2400   11.8762   13.0355 C   0  0  0  0  0  0  0  0  0  0  0  0
   10.5709   10.6945   12.2312 N   0  0  0  0  0  0  0  0  0  0  0  0
   10.4957    9.5285   13.1286 C   0  0  0  0  0  0  0  0  0  0  0  0
   10.8672    8.2450   12.3771 C   0  0  0  0  0  0  0  0  0  0  0  0
   12.3859    8.2440   12.1468 C   0  0  0  0  0  0  0  0  0  0  0  0
   12.7321    9.1651   11.0521 C   0  0  0  0  0  0  0  0  0  0  0  0
   14.1351    8.9004   10.6736 N   0  0  0  0  0  0  0  0  0  0  0  0
   15.0823    9.7543   11.5243 C   0  0  0  0  0  0  0  0  0  0  0  0
   16.5224    9.5772   11.0280 C   0  0  0  0  0  0  0  0  0  0  0  0
   17.4327   10.4163   11.8310 C   0  0  0  0  0  0  0  0  0  0  0  0
   18.8152   10.2757   11.3257 N   0  0  0  0  0  0  0  0  0  0  0  0
  1  2  1  0  0  0  0
  2  3  1  0  0  0  0
  3  4  1  0  0  0  0
  4  5  1  0  0  0  0
  5  6  1  0  0  0  0
  6  7  1  0  0  0  0
  7  8  1  0  0  0  0
  8  9  1  0  0  0  0
  9 10  1  0  0  0  0
 10 11  1  0  0  0  0
 11 12  1  0  0  0  0
 12 13  1  0  0  0  0
 13 14  1  0  0  0  0
M  END
>  <CHROM.1>
-66.55514643,178.83587754,-167.39231194,-178.41543355,73.56173491,-76.37095310
-167.45788726,-88.53289677,-174.33162142,179.03820358,-178.32176781,12.65894081
10.57414512,12.07140537,-2.74157805,-0.16676512,-3.00663749

>  <Name>
ligand

>  <RI>
0

>  <Rbt.Current_Directory>
/home/itssahil/PROJECTS/Mol_Feturizer/New_Systems/rnas/2O3Y

>  <Rbt.Executable>
rbdock ($Id: //depot/dev/client3/rdock/2013.1/src/exe/rbdock.cxx#4 $)

>  <Rbt.Library>
libRbt.so (2013.1, Build901 2013/11/27)

>  <Rbt.Parameter_File>
/export/apps/rDock/src/rDock_2013.1_src/data/scripts/dock_solv.prm

>  <Rbt.Receptor>
prm/pocket_docking_3.prm

>  <SCORE>
-2.63014

>  <SCORE.INTER>
5.95379

>  <SCORE.INTER.CONST>
1

>  <SCORE.INTER.POLAR>
0

>  <SCORE.INTER.ROT>
11

>  <SCORE.INTER.SOLV>
6.36881

>  <SCORE.INTER.VDW>
-9.08708

>  <SCORE.INTER.norm>
0.425271

>  <SCORE.INTRA>
-8.58393

>  <SCORE.INTRA.DIHEDRAL>
-20.9364

>  <SCORE.INTRA.DIHEDRAL.0>
24.1231

>  <SCORE.INTRA.POLAR>
0

>  <SCORE.INTRA.POLAR.0>
0

>  <SCORE.INTRA.REPUL>
0

>  <SCORE.INTRA.REPUL.0>
0

>  <SCORE.INTRA.SOLV>
0.952985

>  <SCORE.INTRA.SOLV.lig_0>
-48.2216

>  <SCORE.INTRA.VDW>
1.40778

>  <SCORE.INTRA.VDW.0>
-1.3967

>  <SCORE.INTRA.norm>
-0.613138

>  <SCORE.RESTR>
0

>  <SCORE.RESTR.CAVITY>
0

>  <SCORE.RESTR.norm>
0

>  <SCORE.SYSTEM>
0

>  <SCORE.SYSTEM.CONST>
0

>  <SCORE.SYSTEM.DIHEDRAL>
0

>  <SCORE.SYSTEM.SOLV>
0

>  <SCORE.SYSTEM.norm>
0

>  <SCORE.heavy>
14

>  <SCORE.norm>
-0.187867

>  <RMSD>
2.521

$$$$
ligand
 OpenBabel11021811463D
libRbt.so/2013.1/901 2013/11/27
 14 13  0  0  0  0  0  0  0  0999 V2000
    9.9213   14.9135   13.6671 N   0  0  0  0  0  0  0  0  0  0  0  0
    9.6876   13.4676   13.5538 C   0  0  0  0  0  0  0  0  0  0  0  0
   10.5256   12.9092   12.4082 C   0  0  0  0  0  0  0  0  0  0  0  0
   11.9957   13.0429   12.7703 C   0  0  0  0  0  0  0  0  0  0  0  0
   12.2798   12.1929   13.9321 N   0  0  0  0  0  0  0  0  0  0  0  0
   12.8106   10.9198   13.4142 C   0  0  0  0  0  0  0  0  0  0  0  0
   11.8218    9.7777   13.6745 C   0  0  0  0  0  0  0  0  0  0  0  0
   12.4475    8.4723   13.1610 C   0  0  0  0  0  0  0  0  0  0  0  0
   12.2870    8.3744   11.7011 C   0  0  0  0  0  0  0  0  0  0  0  0
   13.2644    9.2929   11.0826 N   0  0  0  0  0  0  0  0  0  0  0  0
   12.8981    9.5452    9.6156 C   0  0  0  0  0  0  0  0  0  0  0  0
   14.0409   10.2948    8.9201 C   0  0  0  0  0  0  0  0  0  0  0  0
   14.2225   11.6183    9.5468 C   0  0  0  0  0  0  0  0  0  0  0  0
   15.4000   12.2910    8.9573 N   0  0  0  0  0  0  0  0  0  0  0  0
  1  2  1  0  0  0  0
  2  3  1  0  0  0  0
  3  4  1  0  0  0  0
  4  5  1  0  0  0  0
  5  6  1  0  0  0  0
  6  7  1  0  0  0  0
  7  8  1  0  0  0  0
  8  9  1  0  0  0  0
  9 10  1  0  0  0  0
 10 11  1  0  0  0  0
 11 12  1  0  0  0  0
 12 13  1  0  0  0  0
 13 14  1  0  0  0  0
M  END
>  <CHROM.1>
65.92127088,64.88085132,95.95633707,-112.20985715,-177.99515483,-79.90320918
75.59968241,-163.99292168,-170.20146346,-63.04615731,174.99393913,12.40006734
11.22193467,11.88603391,-2.78440764,-0.93072754,2.85631859

>  <Name>
ligand

>  <RI>
0

>  <Rbt.Current_Directory>
/home/itssahil/PROJECTS/Mol_Feturizer/New_Systems/rnas/2O3Y

>  <Rbt.Executable>
rbdock ($Id: //depot/dev/client3/rdock/2013.1/src/exe/rbdock.cxx#4 $)

>  <Rbt.Library>
libRbt.so (2013.1, Build901 2013/11/27)

>  <Rbt.Parameter_File>
/export/apps/rDock/src/rDock_2013.1_src/data/scripts/dock_solv.prm

>  <Rbt.Receptor>
prm/pocket_docking_2.prm

>  <SCORE>
0.94468

>  <SCORE.INTER>
8.16591

>  <SCORE.INTER.CONST>
1

>  <SCORE.INTER.POLAR>
0

>  <SCORE.INTER.ROT>
11

>  <SCORE.INTER.SOLV>
2.72592

>  <SCORE.INTER.VDW>
-6.39803

>  <SCORE.INTER.norm>
0.583279

>  <SCORE.INTRA>
-7.22123

>  <SCORE.INTRA.DIHEDRAL>
-19.1594

>  <SCORE.INTRA.DIHEDRAL.0>
24.1231

>  <SCORE.INTRA.POLAR>
0

>  <SCORE.INTRA.POLAR.0>
0

>  <SCORE.INTRA.REPUL>
0

>  <SCORE.INTRA.REPUL.0>
0

>  <SCORE.INTRA.SOLV>
2.61354

>  <SCORE.INTRA.SOLV.lig_0>
-48.2216

>  <SCORE.INTRA.VDW>
1.05168

>  <SCORE.INTRA.VDW.0>
-1.3967

>  <SCORE.INTRA.norm>
-0.515802

>  <SCORE.RESTR>
0

>  <SCORE.RESTR.CAVITY>
0

>  <SCORE.RESTR.norm>
0

>  <SCORE.SYSTEM>
0

>  <SCORE.SYSTEM.CONST>
0

>  <SCORE.SYSTEM.DIHEDRAL>
0

>  <SCORE.SYSTEM.SOLV>
0

>  <SCORE.SYSTEM.norm>
0

>  <SCORE.heavy>
14

>  <SCORE.norm>
0.0674771

>  <RMSD>
2.530

$$$$
ligand
 OpenBabel11021811463D
libRbt.so/2013.1/901 2013/11/27
 14 13  0  0  0  0  0  0  0  0999 V2000
   17.1299   15.5437   11.0208 N   0  0  0  0  0  0  0  0  0  0  0  0
   16.8199   14.7407    9.8303 C   0  0  0  0  0  0  0  0  0  0  0  0
   15.3337   14.3981    9.8256 C   0  0  0  0  0  0  0  0  0  0  0  0
   15.0532   13.4639    8.6600 C   0  0  0  0  0  0  0  0  0  0  0  0
   13.6295   13.1091    8.6652 N   0  0  0  0  0  0  0  0  0  0  0  0
   13.5046   11.8209    7.9611 C   0  0  0  0  0  0  0  0  0  0  0  0
   13.3239   10.6745    8.9626 C   0  0  0  0  0  0  0  0  0  0  0  0
   12.0284   10.9222    9.7499 C   0  0  0  0  0  0  0  0  0  0  0  0
   11.8197    9.8460   10.7321 C   0  0  0  0  0  0  0  0  0  0  0  0
   10.5551   10.1286   11.4411 N   0  0  0  0  0  0  0  0  0  0  0  0
   10.8079   10.2399   12.9490 C   0  0  0  0  0  0  0  0  0  0  0  0
   11.1789   11.6848   13.3045 C   0  0  0  0  0  0  0  0  0  0  0  0
   10.0203   12.5684   13.0713 C   0  0  0  0  0  0  0  0  0  0  0  0
   10.3881   13.9654   13.3869 N   0  0  0  0  0  0  0  0  0  0  0  0
  1  2  1  0  0  0  0
  2  3  1  0  0  0  0
  3  4  1  0  0  0  0
  4  5  1  0  0  0  0
  5  6  1  0  0  0  0
  6  7  1  0  0  0  0
  7  8  1  0  0  0  0
  8  9  1  0  0  0  0
  9 10  1  0  0  0  0
 10 11  1  0  0  0  0
 11 12  1  0  0  0  0
 12 13  1  0  0  0  0
 13 14  1  0  0  0  0
M  END
>  <CHROM.1>
-174.89636354,178.89681838,-155.74205884,102.57080415,61.45588395,-179.64036564
-179.21975368,-122.12229065,87.95104304,66.39615570,-178.79939330,12.97094544
12.36439204,10.68269505,-0.02110137,0.67647991,0.85655086

>  <Name>
ligand

>  <RI>
0

>  <Rbt.Current_Directory>
/home/itssahil/PROJECTS/Mol_Feturizer/New_Systems/rnas/2O3Y

>  <Rbt.Executable>
rbdock ($Id: //depot/dev/client3/rdock/2013.1/src/exe/rbdock.cxx#4 $)

>  <Rbt.Library>
libRbt.so (2013.1, Build901 2013/11/27)

>  <Rbt.Parameter_File>
/export/apps/rDock/src/rDock_2013.1_src/data/scripts/dock_solv.prm

>  <Rbt.Receptor>
prm/pocket_docking_3.prm

>  <SCORE>
-3.35825

>  <SCORE.INTER>
6.53309

>  <SCORE.INTER.CONST>
1

>  <SCORE.INTER.POLAR>
0

>  <SCORE.INTER.ROT>
11

>  <SCORE.INTER.SOLV>
2.57079

>  <SCORE.INTER.VDW>
-7.43487

>  <SCORE.INTER.norm>
0.466649

>  <SCORE.INTRA>
-9.90041

>  <SCORE.INTRA.DIHEDRAL>
-20.7295

>  <SCORE.INTRA.DIHEDRAL.0>
24.1231

>  <SCORE.INTRA.POLAR>
0

>  <SCORE.INTRA.POLAR.0>
0

>  <SCORE.INTRA.REPUL>
0

>  <SCORE.INTRA.REPUL.0>
0

>  <SCORE.INTRA.SOLV>
-0.112776

>  <SCORE.INTRA.SOLV.lig_0>
-48.2216

>  <SCORE.INTRA.VDW>
0.520728

>  <SCORE.INTRA.VDW.0>
-1.3967

>  <SCORE.INTRA.norm>
-0.707172

>  <SCORE.RESTR>
0.00907795

>  <SCORE.RESTR.CAVITY>
0.00907795

>  <SCORE.RESTR.norm>
0.000648425

>  <SCORE.SYSTEM>
0

>  <SCORE.SYSTEM.CONST>
0

>  <SCORE.SYSTEM.DIHEDRAL>
0

>  <SCORE.SYSTEM.SOLV>
0

>  <SCORE.SYSTEM.norm>
0

>  <SCORE.heavy>
14

>  <SCORE.norm>
-0.239875

>  <RMSD>
2.556

$$$$
ligand
 OpenBabel11021811463D
libRbt.so/2013.1/901 2013/11/27
 14 13  0  0  0  0  0  0  0  0999 V2000
    9.5525   13.8982   14.7789 N   0  0  0  0  0  0  0  0  0  0  0  0
   10.9331   13.9834   14.2840 C   0  0  0  0  0  0  0  0  0  0  0  0
   11.6913   12.7218   14.6839 C   0  0  0  0  0  0  0  0  0  0  0  0
   13.1197   12.8308   14.1761 C   0  0  0  0  0  0  0  0  0  0  0  0
   13.8407   11.5979   14.5122 N   0  0  0  0  0  0  0  0  0  0  0  0
   13.7806   10.7272   13.3252 C   0  0  0  0  0  0  0  0  0  0  0  0
   13.4811    9.2801   13.7328 C   0  0  0  0  0  0  0  0  0  0  0  0
   13.4630    8.4159   12.4630 C   0  0  0  0  0  0  0  0  0  0  0  0
   12.2004    8.6157   11.7331 C   0  0  0  0  0  0  0  0  0  0  0  0
   12.2920    9.9119   11.0306 N   0  0  0  0  0  0  0  0  0  0  0  0
   12.3785    9.6878    9.5167 C   0  0  0  0  0  0  0  0  0  0  0  0
   13.7012   10.2539    8.9862 C   0  0  0  0  0  0  0  0  0  0  0  0
   14.8259    9.4330    9.4746 C   0  0  0  0  0  0  0  0  0  0  0  0
   16.1037   10.0066    9.0005 N   0  0  0  0  0  0  0  0  0  0  0  0
  1  2  1  0  0  0  0
  2  3  1  0  0  0  0
  3  4  1  0  0  0  0
  4  5  1  0  0  0  0
  5  6  1  0  0  0  0
  6  7  1  0  0  0  0
  7  8  1  0  0  0  0
  8  9  1  0  0  0  0
  9 10  1  0  0  0  0
 10 11  1  0  0  0  0
 11 12  1  0  0  0  0
 12 13  1  0  0  0  0
 13 14  1  0  0  0  0
M  END
>  <CHROM.1>
-179.49196666,-177.83524390,95.93361623,-137.06188765,-178.69446318,-77.02334012
76.76138329,110.77748758,-118.80703567,69.10712400,-178.08258499,12.95454697
10.81151713,12.26409814,2.24746059,-0.82464200,1.45038181

>  <Name>
ligand

>  <RI>
0

>  <Rbt.Current_Directory>
/home/itssahil/PROJECTS/Mol_Feturizer/New_Systems/rnas/2O3Y

>  <Rbt.Executable>
rbdock ($Id: //depot/dev/client3/rdock/2013.1/src/exe/rbdock.cxx#4 $)

>  <Rbt.Library>
libRbt.so (2013.1, Build901 2013/11/27)

>  <Rbt.Parameter_File>
/export/apps/rDock/src/rDock_2013.1_src/data/scripts/dock_solv.prm

>  <Rbt.Receptor>
prm/pocket_docking_2.prm

>  <SCORE>
0.917901

>  <SCORE.INTER>
8.38295

>  <SCORE.INTER.CONST>
1

>  <SCORE.INTER.POLAR>
0

>  <SCORE.INTER.ROT>
11

>  <SCORE.INTER.SOLV>
3.34589

>  <SCORE.INTER.VDW>
-6.46

>  <SCORE.INTER.norm>
0.598782

>  <SCORE.INTRA>
-7.46731

>  <SCORE.INTRA.DIHEDRAL>
-17.5529

>  <SCORE.INTRA.DIHEDRAL.0>
24.1231

>  <SCORE.INTRA.POLAR>
0

>  <SCORE.INTRA.POLAR.0>
0

>  <SCORE.INTRA.REPUL>
0

>  <SCORE.INTRA.REPUL.0>
0

>  <SCORE.INTRA.SOLV>
0.742292

>  <SCORE.INTRA.SOLV.lig_0>
-48.2216

>  <SCORE.INTRA.VDW>
0.937975

>  <SCORE.INTRA.VDW.0>
-1.3967

>  <SCORE.INTRA.norm>
-0.533379

>  <SCORE.RESTR>
0.00226154

>  <SCORE.RESTR.CAVITY>
0.00226154

>  <SCORE.RESTR.norm>
0.000161538

>  <SCORE.SYSTEM>
0

>  <SCORE.SYSTEM.CONST>
0

>  <SCORE.SYSTEM.DIHEDRAL>
0

>  <SCORE.SYSTEM.SOLV>
0

>  <SCORE.SYSTEM.norm>
0

>  <SCORE.heavy>
14

>  <SCORE.norm>
0.0655643

>  <RMSD>
2.557

$$$$
ligand
 OpenBabel11021811463D
libRbt.so/2013.1/901 2013/11/27
 14 13  0  0  0  0  0  0  0  0999 V2000
   14.3805   14.1917    9.4716 N   0  0  0  0  0  0  0  0  0  0  0  0
   14.6333   13.1127    8.5073 C   0  0  0  0  0  0  0  0  0  0  0  0
   13.3081   12.4719    8.1079 C   0  0  0  0  0  0  0  0  0  0  0  0
   12.6726   11.8571    9.3441 C   0  0  0  0  0  0  0  0  0  0  0  0
   13.6057   10.8866    9.9276 N   0  0  0  0  0  0  0  0  0  0  0  0
   13.0402    9.5476    9.6866 C   0  0  0  0  0  0  0  0  0  0  0  0
   12.4145    8.9880   10.9693 C   0  0  0  0  0  0  0  0  0  0  0  0
   11.0864    9.7191   11.2163 C   0  0  0  0  0  0  0  0  0  0  0  0
   10.3972    9.1371   12.3795 C   0  0  0  0  0  0  0  0  0  0  0  0
   11.0540    9.6604   13.5946 N   0  0  0  0  0  0  0  0  0  0  0  0
   10.0545   10.4694   14.4291 C   0  0  0  0  0  0  0  0  0  0  0  0
   10.5114   11.9312   14.5064 C   0  0  0  0  0  0  0  0  0  0  0  0
   10.5146   12.5242   13.1552 C   0  0  0  0  0  0  0  0  0  0  0  0
   11.0144   13.9143   13.2227 N   0  0  0  0  0  0  0  0  0  0  0  0
  1  2  1  0  0  0  0
  2  3  1  0  0  0  0
  3  4  1  0  0  0  0
  4  5  1  0  0  0  0
  5  6  1  0  0  0  0
  6  7  1  0  0  0  0
  7  8  1  0  0  0  0
  8  9  1  0  0  0  0
  9 10  1  0  0  0  0
 10 11  1  0  0  0  0
 11 12  1  0  0  0  0
 12 13  1  0  0  0  0
 13 14  1  0  0  0  0
M  END
>  <CHROM.1>
-62.35891965,-57.38352384,-109.38531372,-103.69433080,74.51748745,175.42493739
77.92556807,118.18333951,-116.59101986,63.08039782,-177.41304890,12.04891387
11.31474465,11.32264145,0.07772431,0.98029907,0.24750878

>  <Name>
ligand

>  <RI>
0

>  <Rbt.Current_Directory>
/home/itssahil/PROJECTS/Mol_Feturizer/New_Systems/rnas/2O3Y

>  <Rbt.Executable>
rbdock ($Id: //depot/dev/client3/rdock/2013.1/src/exe/rbdock.cxx#4 $)

>  <Rbt.Library>
libRbt.so (2013.1, Build901 2013/11/27)

>  <Rbt.Parameter_File>
/export/apps/rDock/src/rDock_2013.1_src/data/scripts/dock_solv.prm

>  <Rbt.Receptor>
prm/pocket_docking_3.prm

>  <SCORE>
-1.98524

>  <SCORE.INTER>
4.54739

>  <SCORE.INTER.CONST>
1

>  <SCORE.INTER.POLAR>
0

>  <SCORE.INTER.ROT>
11

>  <SCORE.INTER.SOLV>
2.29923

>  <SCORE.INTER.VDW>
-8.66815

>  <SCORE.INTER.norm>
0.324813

>  <SCORE.INTRA>
-6.53829

>  <SCORE.INTRA.DIHEDRAL>
-17.5473

>  <SCORE.INTRA.DIHEDRAL.0>
24.1231

>  <SCORE.INTRA.POLAR>
0

>  <SCORE.INTRA.POLAR.0>
0

>  <SCORE.INTRA.REPUL>
0

>  <SCORE.INTRA.REPUL.0>
0

>  <SCORE.INTRA.SOLV>
2.35488

>  <SCORE.INTRA.SOLV.lig_0>
-48.2216

>  <SCORE.INTRA.VDW>
1.05791

>  <SCORE.INTRA.VDW.0>
-1.3967

>  <SCORE.INTRA.norm>
-0.467021

>  <SCORE.RESTR>
0.00565529

>  <SCORE.RESTR.CAVITY>
0.00565529

>  <SCORE.RESTR.norm>
0.000403949

>  <SCORE.SYSTEM>
0

>  <SCORE.SYSTEM.CONST>
0

>  <SCORE.SYSTEM.DIHEDRAL>
0

>  <SCORE.SYSTEM.SOLV>
0

>  <SCORE.SYSTEM.norm>
0

>  <SCORE.heavy>
14

>  <SCORE.norm>
-0.141803

>  <RMSD>
2.564

$$$$
ligand
 OpenBabel11021811463D
libRbt.so/2013.1/901 2013/11/27
 14 13  0  0  0  0  0  0  0  0999 V2000
    8.9177   15.2471   13.6148 N   0  0  0  0  0  0  0  0  0  0  0  0
    8.5778   13.8603   13.9603 C   0  0  0  0  0  0  0  0  0  0  0  0
    9.7715   12.9589   13.6626 C   0  0  0  0  0  0  0  0  0  0  0  0
    9.4163   11.5346   14.0568 C   0  0  0  0  0  0  0  0  0  0  0  0
   10.5490   10.6563   13.7429 N   0  0  0  0  0  0  0  0  0  0  0  0
    9.9860    9.3929   13.2354 C   0  0  0  0  0  0  0  0  0  0  0  0
   11.1040    8.4528   12.7704 C   0  0  0  0  0  0  0  0  0  0  0  0
   11.8498    9.1283   11.6098 C   0  0  0  0  0  0  0  0  0  0  0  0
   13.0153    8.3190   11.2182 C   0  0  0  0  0  0  0  0  0  0  0  0
   13.6891    9.0172   10.1046 N   0  0  0  0  0  0  0  0  0  0  0  0
   15.1796    8.6600   10.0811 C   0  0  0  0  0  0  0  0  0  0  0  0
   15.9856    9.7643   10.7757 C   0  0  0  0  0  0  0  0  0  0  0  0
   17.4277    9.4704   10.6692 C   0  0  0  0  0  0  0  0  0  0  0  0
   18.2025   10.5193   11.3664 N   0  0  0  0  0  0  0  0  0  0  0  0
  1  2  1  0  0  0  0
  2  3  1  0  0  0  0
  3  4  1  0  0  0  0
  4  5  1  0  0  0  0
  5  6  1  0  0  0  0
  6  7  1  0  0  0  0
  7  8  1  0  0  0  0
  8  9  1  0  0  0  0
  9 10  1  0  0  0  0
 10 11  1  0  0  0  0
 11 12  1  0  0  0  0
 12 13  1  0  0  0  0
 13 14  1  0  0  0  0
M  END
>  <CHROM.1>
178.63264248,178.65137661,-141.57649480,175.28791831,-62.34122401,174.46748892
-179.94857970,153.09389611,-97.97550977,-175.96127516,-178.69543665,12.40497188
10.49831865,12.20486417,-2.63123577,-0.30756739,-2.91470419

>  <Name>
ligand

>  <RI>
0

>  <Rbt.Current_Directory>
/home/itssahil/PROJECTS/Mol_Feturizer/New_Systems/rnas/2O3Y

>  <Rbt.Executable>
rbdock ($Id: //depot/dev/client3/rdock/2013.1/src/exe/rbdock.cxx#4 $)

>  <Rbt.Library>
libRbt.so (2013.1, Build901 2013/11/27)

>  <Rbt.Parameter_File>
/export/apps/rDock/src/rDock_2013.1_src/data/scripts/dock_solv.prm

>  <Rbt.Receptor>
prm/pocket_docking_3.prm

>  <SCORE>
-4.36148

>  <SCORE.INTER>
6.4848

>  <SCORE.INTER.CONST>
1

>  <SCORE.INTER.POLAR>
0

>  <SCORE.INTER.ROT>
11

>  <SCORE.INTER.SOLV>
5.51975

>  <SCORE.INTER.VDW>
-8.45005

>  <SCORE.INTER.norm>
0.4632

>  <SCORE.INTRA>
-10.8463

>  <SCORE.INTRA.DIHEDRAL>
-21.6722

>  <SCORE.INTRA.DIHEDRAL.0>
24.1231

>  <SCORE.INTRA.POLAR>
0

>  <SCORE.INTRA.POLAR.0>
0

>  <SCORE.INTRA.REPUL>
0

>  <SCORE.INTRA.REPUL.0>
0

>  <SCORE.INTRA.SOLV>
-0.5371

>  <SCORE.INTRA.SOLV.lig_0>
-48.2216

>  <SCORE.INTRA.VDW>
0.258346

>  <SCORE.INTRA.VDW.0>
-1.3967

>  <SCORE.INTRA.norm>
-0.774734

>  <SCORE.RESTR>
0

>  <SCORE.RESTR.CAVITY>
0

>  <SCORE.RESTR.norm>
0

>  <SCORE.SYSTEM>
0

>  <SCORE.SYSTEM.CONST>
0

>  <SCORE.SYSTEM.DIHEDRAL>
0

>  <SCORE.SYSTEM.SOLV>
0

>  <SCORE.SYSTEM.norm>
0

>  <SCORE.heavy>
14

>  <SCORE.norm>
-0.311534

>  <RMSD>
2.566

$$$$
ligand
 OpenBabel11021811463D
libRbt.so/2013.1/901 2013/11/27
 14 13  0  0  0  0  0  0  0  0999 V2000
   10.8432   13.5692   13.0081 N   0  0  0  0  0  0  0  0  0  0  0  0
   10.2215   12.3061   12.5884 C   0  0  0  0  0  0  0  0  0  0  0  0
   10.5584   11.2167   13.6013 C   0  0  0  0  0  0  0  0  0  0  0  0
    9.9640    9.9034   13.1196 C   0  0  0  0  0  0  0  0  0  0  0  0
   10.6636    9.4820   11.9006 N   0  0  0  0  0  0  0  0  0  0  0  0
   11.8401    8.7043   12.3268 C   0  0  0  0  0  0  0  0  0  0  0  0
   12.7254    8.3625   11.1229 C   0  0  0  0  0  0  0  0  0  0  0  0
   13.2807    9.6733   10.5458 C   0  0  0  0  0  0  0  0  0  0  0  0
   13.9529    9.4159    9.2618 C   0  0  0  0  0  0  0  0  0  0  0  0
   14.6455   10.6585    8.8643 N   0  0  0  0  0  0  0  0  0  0  0  0
   13.7364   11.5070    7.9679 C   0  0  0  0  0  0  0  0  0  0  0  0
   13.2613   12.7445    8.7390 C   0  0  0  0  0  0  0  0  0  0  0  0
   14.4267   13.5399    9.1710 C   0  0  0  0  0  0  0  0  0  0  0  0
   13.9897   14.5916   10.1141 N   0  0  0  0  0  0  0  0  0  0  0  0
  1  2  1  0  0  0  0
  2  3  1  0  0  0  0
  3  4  1  0  0  0  0
  4  5  1  0  0  0  0
  5  6  1  0  0  0  0
  6  7  1  0  0  0  0
  7  8  1  0  0  0  0
  8  9  1  0  0  0  0
  9 10  1  0  0  0  0
 10 11  1  0  0  0  0
 11 12  1  0  0  0  0
 12 13  1  0  0  0  0
 13 14  1  0  0  0  0
M  END
>  <CHROM.1>
-177.35561691,67.32025054,87.29451124,-173.26097448,64.63372379,-170.69551170
-171.19686113,-92.45815141,108.62414676,59.13756613,-169.87507749,12.43634957
11.11925386,10.88079003,2.81399696,-0.84489767,3.13460173

>  <Name>
ligand

>  <RI>
0

>  <Rbt.Current_Directory>
/home/itssahil/PROJECTS/Mol_Feturizer/New_Systems/rnas/2O3Y

>  <Rbt.Executable>
rbdock ($Id: //depot/dev/client3/rdock/2013.1/src/exe/rbdock.cxx#4 $)

>  <Rbt.Library>
libRbt.so (2013.1, Build901 2013/11/27)

>  <Rbt.Parameter_File>
/export/apps/rDock/src/rDock_2013.1_src/data/scripts/dock_solv.prm

>  <Rbt.Receptor>
prm/pocket_docking_3.prm

>  <SCORE>
-4.24102

>  <SCORE.INTER>
4.66889

>  <SCORE.INTER.CONST>
1

>  <SCORE.INTER.POLAR>
0

>  <SCORE.INTER.ROT>
11

>  <SCORE.INTER.SOLV>
4.49831

>  <SCORE.INTER.VDW>
-9.32018

>  <SCORE.INTER.norm>
0.333492

>  <SCORE.INTRA>
-8.91072

>  <SCORE.INTRA.DIHEDRAL>
-20.4639

>  <SCORE.INTRA.DIHEDRAL.0>
24.1231

>  <SCORE.INTRA.POLAR>
0

>  <SCORE.INTRA.POLAR.0>
0

>  <SCORE.INTRA.REPUL>
0

>  <SCORE.INTRA.REPUL.0>
0

>  <SCORE.INTRA.SOLV>
0.542399

>  <SCORE.INTRA.SOLV.lig_0>
-48.2216

>  <SCORE.INTRA.VDW>
1.05006

>  <SCORE.INTRA.VDW.0>
-1.3967

>  <SCORE.INTRA.norm>
-0.63648

>  <SCORE.RESTR>
0.000808243

>  <SCORE.RESTR.CAVITY>
0.000808243

>  <SCORE.RESTR.norm>
5.77316e-05

>  <SCORE.SYSTEM>
0

>  <SCORE.SYSTEM.CONST>
0

>  <SCORE.SYSTEM.DIHEDRAL>
0

>  <SCORE.SYSTEM.SOLV>
0

>  <SCORE.SYSTEM.norm>
0

>  <SCORE.heavy>
14

>  <SCORE.norm>
-0.30293

>  <RMSD>
2.571

$$$$
ligand
 OpenBabel11021811463D
libRbt.so/2013.1/901 2013/11/27
 14 13  0  0  0  0  0  0  0  0999 V2000
   11.0155   10.1979   14.1168 N   0  0  0  0  0  0  0  0  0  0  0  0
   11.9354    9.5118   15.0339 C   0  0  0  0  0  0  0  0  0  0  0  0
   13.2982    9.3642   14.3650 C   0  0  0  0  0  0  0  0  0  0  0  0
   13.1953    8.3063   13.2786 C   0  0  0  0  0  0  0  0  0  0  0  0
   12.4730    8.8688   12.1320 N   0  0  0  0  0  0  0  0  0  0  0  0
   13.4824    9.2199   11.1179 C   0  0  0  0  0  0  0  0  0  0  0  0
   12.8352    9.3451    9.7339 C   0  0  0  0  0  0  0  0  0  0  0  0
   13.9426    9.6300    8.7082 C   0  0  0  0  0  0  0  0  0  0  0  0
   14.1249   11.0822    8.5509 C   0  0  0  0  0  0  0  0  0  0  0  0
   14.7587   11.5881    9.7855 N   0  0  0  0  0  0  0  0  0  0  0  0
   15.2066   13.0414    9.5925 C   0  0  0  0  0  0  0  0  0  0  0  0
   16.7382   13.1083    9.5541 C   0  0  0  0  0  0  0  0  0  0  0  0
   17.2862   12.7358   10.8726 C   0  0  0  0  0  0  0  0  0  0  0  0
   16.9600   13.7853   11.8620 N   0  0  0  0  0  0  0  0  0  0  0  0
  1  2  1  0  0  0  0
  2  3  1  0  0  0  0
  3  4  1  0  0  0  0
  4  5  1  0  0  0  0
  5  6  1  0  0  0  0
  6  7  1  0  0  0  0
  7  8  1  0  0  0  0
  8  9  1  0  0  0  0
  9 10  1  0  0  0  0
 10 11  1  0  0  0  0
 11 12  1  0  0  0  0
 12 13  1  0  0  0  0
 13 14  1  0  0  0  0
M  END
>  <CHROM.1>
-72.45378541,74.57285382,101.79227363,160.12023356,-176.74744841,-91.08693255
71.17289172,169.83482615,-110.29482097,-66.26300662,-68.85697998,14.08954765
10.69875817,11.33572145,-2.60612427,-0.79872291,-1.70598704

>  <Name>
ligand

>  <RI>
0

>  <Rbt.Current_Directory>
/home/itssahil/PROJECTS/Mol_Feturizer/New_Systems/rnas/2O3Y

>  <Rbt.Executable>
rbdock ($Id: //depot/dev/client3/rdock/2013.1/src/exe/rbdock.cxx#4 $)

>  <Rbt.Library>
libRbt.so (2013.1, Build901 2013/11/27)

>  <Rbt.Parameter_File>
/export/apps/rDock/src/rDock_2013.1_src/data/scripts/dock_solv.prm

>  <Rbt.Receptor>
prm/pocket_docking_2.prm

>  <SCORE>
4.85279

>  <SCORE.INTER>
9.55692

>  <SCORE.INTER.CONST>
1

>  <SCORE.INTER.POLAR>
0

>  <SCORE.INTER.ROT>
11

>  <SCORE.INTER.SOLV>
4.22221

>  <SCORE.INTER.VDW>
-5.96946

>  <SCORE.INTER.norm>
0.682637

>  <SCORE.INTRA>
-4.70413

>  <SCORE.INTRA.DIHEDRAL>
-16.1688

>  <SCORE.INTRA.DIHEDRAL.0>
24.1231

>  <SCORE.INTRA.POLAR>
0

>  <SCORE.INTRA.POLAR.0>
0

>  <SCORE.INTRA.REPUL>
0

>  <SCORE.INTRA.REPUL.0>
0

>  <SCORE.INTRA.SOLV>
4.73619

>  <SCORE.INTRA.SOLV.lig_0>
-48.2216

>  <SCORE.INTRA.VDW>
1.01216

>  <SCORE.INTRA.VDW.0>
-1.3967

>  <SCORE.INTRA.norm>
-0.336009

>  <SCORE.RESTR>
0

>  <SCORE.RESTR.CAVITY>
0

>  <SCORE.RESTR.norm>
0

>  <SCORE.SYSTEM>
0

>  <SCORE.SYSTEM.CONST>
0

>  <SCORE.SYSTEM.DIHEDRAL>
0

>  <SCORE.SYSTEM.SOLV>
0

>  <SCORE.SYSTEM.norm>
0

>  <SCORE.heavy>
14

>  <SCORE.norm>
0.346628

>  <RMSD>
2.601

$$$$
ligand
 OpenBabel11021811463D
libRbt.so/2013.1/901 2013/11/27
 14 13  0  0  0  0  0  0  0  0999 V2000
   19.1311   11.5408   10.4583 N   0  0  0  0  0  0  0  0  0  0  0  0
   19.0985   10.3630   11.3358 C   0  0  0  0  0  0  0  0  0  0  0  0
   17.6516    9.9267   11.5414 C   0  0  0  0  0  0  0  0  0  0  0  0
   17.0866    9.4696   10.2065 C   0  0  0  0  0  0  0  0  0  0  0  0
   15.6965    9.0411   10.3986 N   0  0  0  0  0  0  0  0  0  0  0  0
   15.0458    9.0869    9.0776 C   0  0  0  0  0  0  0  0  0  0  0  0
   13.5311    9.2683    9.2288 C   0  0  0  0  0  0  0  0  0  0  0  0
   13.2737   10.6189    9.9138 C   0  0  0  0  0  0  0  0  0  0  0  0
   11.8321   10.8000   10.1493 C   0  0  0  0  0  0  0  0  0  0  0  0
   11.6590   12.0527   10.9125 N   0  0  0  0  0  0  0  0  0  0  0  0
   10.3513   12.0089   11.7111 C   0  0  0  0  0  0  0  0  0  0  0  0
   10.1210   13.3603   12.3983 C   0  0  0  0  0  0  0  0  0  0  0  0
   11.2105   13.6231   13.3582 C   0  0  0  0  0  0  0  0  0  0  0  0
   10.9837   14.9231   14.0253 N   0  0  0  0  0  0  0  0  0  0  0  0
  1  2  1  0  0  0  0
  2  3  1  0  0  0  0
  3  4  1  0  0  0  0
  4  5  1  0  0  0  0
  5  6  1  0  0  0  0
  6  7  1  0  0  0  0
  7  8  1  0  0  0  0
  8  9  1  0  0  0  0
  9 10  1  0  0  0  0
 10 11  1  0  0  0  0
 11 12  1  0  0  0  0
 12 13  1  0  0  0  0
 13 14  1  0  0  0  0
M  END
>  <CHROM.1>
64.75651988,179.68121952,159.54081842,-155.04435049,62.61748023,-176.75841634
175.09365236,-155.03656283,-174.96893777,-62.47722841,-179.70676836,14.04790724
11.14851769,11.05094897,-0.49126898,-0.10196289,0.73391326

>  <Name>
ligand

>  <RI>
0

>  <Rbt.Current_Directory>
/home/itssahil/PROJECTS/Mol_Feturizer/New_Systems/rnas/2O3Y

>  <Rbt.Executable>
rbdock ($Id: //depot/dev/client3/rdock/2013.1/src/exe/rbdock.cxx#4 $)

>  <Rbt.Library>
libRbt.so (2013.1, Build901 2013/11/27)

>  <Rbt.Parameter_File>
/export/apps/rDock/src/rDock_2013.1_src/data/scripts/dock_solv.prm

>  <Rbt.Receptor>
prm/pocket_docking_3.prm

>  <SCORE>
-4.88377

>  <SCORE.INTER>
5.48988

>  <SCORE.INTER.CONST>
1

>  <SCORE.INTER.POLAR>
0

>  <SCORE.INTER.ROT>
11

>  <SCORE.INTER.SOLV>
5.33711

>  <SCORE.INTER.VDW>
-9.05245

>  <SCORE.INTER.norm>
0.392134

>  <SCORE.INTRA>
-10.3744

>  <SCORE.INTRA.DIHEDRAL>
-22.6334

>  <SCORE.INTRA.DIHEDRAL.0>
24.1231

>  <SCORE.INTRA.POLAR>
0

>  <SCORE.INTRA.POLAR.0>
0

>  <SCORE.INTRA.REPUL>
0

>  <SCORE.INTRA.REPUL.0>
0

>  <SCORE.INTRA.SOLV>
0.806337

>  <SCORE.INTRA.SOLV.lig_0>
-48.2216

>  <SCORE.INTRA.VDW>
0.539102

>  <SCORE.INTRA.VDW.0>
-1.3967

>  <SCORE.INTRA.norm>
-0.741031

>  <SCORE.RESTR>
0.000776171

>  <SCORE.RESTR.CAVITY>
0.000776171

>  <SCORE.RESTR.norm>
5.54408e-05

>  <SCORE.SYSTEM>
0

>  <SCORE.SYSTEM.CONST>
0

>  <SCORE.SYSTEM.DIHEDRAL>
0

>  <SCORE.SYSTEM.SOLV>
0

>  <SCORE.SYSTEM.norm>
0

>  <SCORE.heavy>
14

>  <SCORE.norm>
-0.348841

>  <RMSD>
2.627

$$$$
ligand
 OpenBabel11021811463D
libRbt.so/2013.1/901 2013/11/27
 14 13  0  0  0  0  0  0  0  0999 V2000
   18.9548   13.4336    9.9520 N   0  0  0  0  0  0  0  0  0  0  0  0
   19.5518   12.1234   10.2436 C   0  0  0  0  0  0  0  0  0  0  0  0
   18.4753   11.1871   10.7828 C   0  0  0  0  0  0  0  0  0  0  0  0
   17.4317   10.9700    9.6994 C   0  0  0  0  0  0  0  0  0  0  0  0
   16.4199   10.0293   10.1935 N   0  0  0  0  0  0  0  0  0  0  0  0
   15.3009   10.0588    9.2356 C   0  0  0  0  0  0  0  0  0  0  0  0
   14.2748    8.9705    9.5716 C   0  0  0  0  0  0  0  0  0  0  0  0
   13.6985    9.2653   10.9646 C   0  0  0  0  0  0  0  0  0  0  0  0
   12.7118    8.2366   11.3319 C   0  0  0  0  0  0  0  0  0  0  0  0
   12.1176    8.6305   12.6255 N   0  0  0  0  0  0  0  0  0  0  0  0
   10.6088    8.3600   12.6185 C   0  0  0  0  0  0  0  0  0  0  0  0
    9.9284    9.2037   13.7033 C   0  0  0  0  0  0  0  0  0  0  0  0
   10.1425   10.6373   13.4267 C   0  0  0  0  0  0  0  0  0  0  0  0
    9.4661   11.4502   14.4602 N   0  0  0  0  0  0  0  0  0  0  0  0
  1  2  1  0  0  0  0
  2  3  1  0  0  0  0
  3  4  1  0  0  0  0
  4  5  1  0  0  0  0
  5  6  1  0  0  0  0
  6  7  1  0  0  0  0
  7  8  1  0  0  0  0
  8  9  1  0  0  0  0
  9 10  1  0  0  0  0
 10 11  1  0  0  0  0
 11 12  1  0  0  0  0
 12 13  1  0  0  0  0
 13 14  1  0  0  0  0
M  END
>  <CHROM.1>
63.48156519,177.85370399,168.78353360,172.57804816,62.45016261,-179.64597810
-175.57400401,139.24767586,-159.65135383,61.21064330,179.01574795,14.22021281
10.18229426,11.34331979,-0.00665686,0.45554058,0.57889034

>  <Name>
ligand

>  <RI>
0

>  <Rbt.Current_Directory>
/home/itssahil/PROJECTS/Mol_Feturizer/New_Systems/rnas/2O3Y

>  <Rbt.Executable>
rbdock ($Id: //depot/dev/client3/rdock/2013.1/src/exe/rbdock.cxx#4 $)

>  <Rbt.Library>
libRbt.so (2013.1, Build901 2013/11/27)

>  <Rbt.Parameter_File>
/export/apps/rDock/src/rDock_2013.1_src/data/scripts/dock_solv.prm

>  <Rbt.Receptor>
prm/pocket_docking_3.prm

>  <SCORE>
-3.62465

>  <SCORE.INTER>
6.65208

>  <SCORE.INTER.CONST>
1

>  <SCORE.INTER.POLAR>
0

>  <SCORE.INTER.ROT>
11

>  <SCORE.INTER.SOLV>
5.80676

>  <SCORE.INTER.VDW>
-8.4342

>  <SCORE.INTER.norm>
0.475149

>  <SCORE.INTRA>
-10.2767

>  <SCORE.INTRA.DIHEDRAL>
-22.5787

>  <SCORE.INTRA.DIHEDRAL.0>
24.1231

>  <SCORE.INTRA.POLAR>
0

>  <SCORE.INTRA.POLAR.0>
0

>  <SCORE.INTRA.REPUL>
0

>  <SCORE.INTRA.REPUL.0>
0

>  <SCORE.INTRA.SOLV>
0.826173

>  <SCORE.INTRA.SOLV.lig_0>
-48.2216

>  <SCORE.INTRA.VDW>
0.599542

>  <SCORE.INTRA.VDW.0>
-1.3967

>  <SCORE.INTRA.norm>
-0.734053

>  <SCORE.RESTR>
0

>  <SCORE.RESTR.CAVITY>
0

>  <SCORE.RESTR.norm>
0

>  <SCORE.SYSTEM>
0

>  <SCORE.SYSTEM.CONST>
0

>  <SCORE.SYSTEM.DIHEDRAL>
0

>  <SCORE.SYSTEM.SOLV>
0

>  <SCORE.SYSTEM.norm>
0

>  <SCORE.heavy>
14

>  <SCORE.norm>
-0.258904

>  <RMSD>
2.675

$$$$
ligand
 OpenBabel11021811463D
libRbt.so/2013.1/901 2013/11/27
 14 13  0  0  0  0  0  0  0  0999 V2000
   14.6238   13.2363    8.8181 N   0  0  0  0  0  0  0  0  0  0  0  0
   14.5139   11.9029    9.4250 C   0  0  0  0  0  0  0  0  0  0  0  0
   13.5350   11.0589    8.6151 C   0  0  0  0  0  0  0  0  0  0  0  0
   13.4499    9.6768    9.2416 C   0  0  0  0  0  0  0  0  0  0  0  0
   12.8554    9.7947   10.5779 N   0  0  0  0  0  0  0  0  0  0  0  0
   12.7787    8.4334   11.1362 C   0  0  0  0  0  0  0  0  0  0  0  0
   12.0619    8.4462   12.4912 C   0  0  0  0  0  0  0  0  0  0  0  0
   10.6300    8.9578   12.2740 C   0  0  0  0  0  0  0  0  0  0  0  0
    9.9393    9.0923   13.5669 C   0  0  0  0  0  0  0  0  0  0  0  0
   10.6630   10.1104   14.3552 N   0  0  0  0  0  0  0  0  0  0  0  0
   10.1007   11.5056   14.0601 C   0  0  0  0  0  0  0  0  0  0  0  0
   11.1522   12.5683   14.4017 C   0  0  0  0  0  0  0  0  0  0  0  0
   11.3846   12.5887   15.8588 C   0  0  0  0  0  0  0  0  0  0  0  0
   10.1833   13.1075   16.5474 N   0  0  0  0  0  0  0  0  0  0  0  0
  1  2  1  0  0  0  0
  2  3  1  0  0  0  0
  3  4  1  0  0  0  0
  4  5  1  0  0  0  0
  5  6  1  0  0  0  0
  6  7  1  0  0  0  0
  7  8  1  0  0  0  0
  8  9  1  0  0  0  0
  9 10  1  0  0  0  0
 10 11  1  0  0  0  0
 11 12  1  0  0  0  0
 12 13  1  0  0  0  0
 13 14  1  0  0  0  0
M  END
>  <CHROM.1>
179.07691867,65.46034988,179.32124858,-175.37677181,61.57618128,-175.33251380
63.00844783,88.85076804,-157.47142054,-66.82769020,-68.57000529,11.99080363
10.74821707,12.24052562,-0.52437857,0.97008482,0.48693672

>  <Name>
ligand

>  <RI>
0

>  <Rbt.Current_Directory>
/home/itssahil/PROJECTS/Mol_Feturizer/New_Systems/rnas/2O3Y

>  <Rbt.Executable>
rbdock ($Id: //depot/dev/client3/rdock/2013.1/src/exe/rbdock.cxx#4 $)

>  <Rbt.Library>
libRbt.so (2013.1, Build901 2013/11/27)

>  <Rbt.Parameter_File>
/export/apps/rDock/src/rDock_2013.1_src/data/scripts/dock_solv.prm

>  <Rbt.Receptor>
prm/pocket_docking_3.prm

>  <SCORE>
-3.51783

>  <SCORE.INTER>
5.4955

>  <SCORE.INTER.CONST>
1

>  <SCORE.INTER.POLAR>
0

>  <SCORE.INTER.ROT>
11

>  <SCORE.INTER.SOLV>
3.54949

>  <SCORE.INTER.VDW>
-8.45283

>  <SCORE.INTER.norm>
0.392536

>  <SCORE.INTRA>
-9.01332

>  <SCORE.INTRA.DIHEDRAL>
-22.4726

>  <SCORE.INTRA.DIHEDRAL.0>
24.1231

>  <SCORE.INTRA.POLAR>
0

>  <SCORE.INTRA.POLAR.0>
0

>  <SCORE.INTRA.REPUL>
0

>  <SCORE.INTRA.REPUL.0>
0

>  <SCORE.INTRA.SOLV>
2.11769

>  <SCORE.INTRA.SOLV.lig_0>
-48.2216

>  <SCORE.INTRA.VDW>
1.16413

>  <SCORE.INTRA.VDW.0>
-1.3967

>  <SCORE.INTRA.norm>
-0.643809

>  <SCORE.RESTR>
0

>  <SCORE.RESTR.CAVITY>
0

>  <SCORE.RESTR.norm>
0

>  <SCORE.SYSTEM>
0

>  <SCORE.SYSTEM.CONST>
0

>  <SCORE.SYSTEM.DIHEDRAL>
0

>  <SCORE.SYSTEM.SOLV>
0

>  <SCORE.SYSTEM.norm>
0

>  <SCORE.heavy>
14

>  <SCORE.norm>
-0.251273

>  <RMSD>
2.683

$$$$
ligand
 OpenBabel11021811463D
libRbt.so/2013.1/901 2013/11/27
 14 13  0  0  0  0  0  0  0  0999 V2000
    8.9145   14.9561   13.0614 N   0  0  0  0  0  0  0  0  0  0  0  0
    8.7764   13.4988   13.1855 C   0  0  0  0  0  0  0  0  0  0  0  0
    9.7902   12.9804   14.2002 C   0  0  0  0  0  0  0  0  0  0  0  0
    9.5654   11.4899   14.3950 C   0  0  0  0  0  0  0  0  0  0  0  0
    9.9406   10.7860   13.1634 N   0  0  0  0  0  0  0  0  0  0  0  0
    9.9229    9.3449   13.4691 C   0  0  0  0  0  0  0  0  0  0  0  0
   10.6342    8.5513   12.3672 C   0  0  0  0  0  0  0  0  0  0  0  0
   12.1125    8.9685   12.3508 C   0  0  0  0  0  0  0  0  0  0  0  0
   12.7910    8.3807   11.1843 C   0  0  0  0  0  0  0  0  0  0  0  0
   14.1960    8.8360   11.2097 N   0  0  0  0  0  0  0  0  0  0  0  0
   14.7897    8.7978    9.7970 C   0  0  0  0  0  0  0  0  0  0  0  0
   16.3005    9.0520    9.8653 C   0  0  0  0  0  0  0  0  0  0  0  0
   16.5542   10.4066   10.3927 C   0  0  0  0  0  0  0  0  0  0  0  0
   18.0084   10.6747   10.3977 N   0  0  0  0  0  0  0  0  0  0  0  0
  1  2  1  0  0  0  0
  2  3  1  0  0  0  0
  3  4  1  0  0  0  0
  4  5  1  0  0  0  0
  5  6  1  0  0  0  0
  6  7  1  0  0  0  0
  7  8  1  0  0  0  0
  8  9  1  0  0  0  0
  9 10  1  0  0  0  0
 10 11  1  0  0  0  0
 11 12  1  0  0  0  0
 12 13  1  0  0  0  0
 13 14  1  0  0  0  0
M  END
>  <CHROM.1>
175.79121847,68.42017504,170.74266282,-165.71202418,63.99697687,-171.75274842
178.97443407,-155.57548911,-170.93101784,-63.23679721,-177.31753839,12.30670653
10.47992934,12.07427932,-2.72228003,-0.41732127,-3.05747261

>  <Name>
ligand

>  <RI>
0

>  <Rbt.Current_Directory>
/home/itssahil/PROJECTS/Mol_Feturizer/New_Systems/rnas/2O3Y

>  <Rbt.Executable>
rbdock ($Id: //depot/dev/client3/rdock/2013.1/src/exe/rbdock.cxx#4 $)

>  <Rbt.Library>
libRbt.so (2013.1, Build901 2013/11/27)

>  <Rbt.Parameter_File>
/export/apps/rDock/src/rDock_2013.1_src/data/scripts/dock_solv.prm

>  <Rbt.Receptor>
prm/pocket_docking_3.prm

>  <SCORE>
-4.02493

>  <SCORE.INTER>
6.72647

>  <SCORE.INTER.CONST>
1

>  <SCORE.INTER.POLAR>
0

>  <SCORE.INTER.ROT>
11

>  <SCORE.INTER.SOLV>
6.5505

>  <SCORE.INTER.VDW>
-8.63252

>  <SCORE.INTER.norm>
0.480462

>  <SCORE.INTRA>
-10.7514

>  <SCORE.INTRA.DIHEDRAL>
-22.6576

>  <SCORE.INTRA.DIHEDRAL.0>
24.1231

>  <SCORE.INTRA.POLAR>
0

>  <SCORE.INTRA.POLAR.0>
0

>  <SCORE.INTRA.REPUL>
0

>  <SCORE.INTRA.REPUL.0>
0

>  <SCORE.INTRA.SOLV>
0.310444

>  <SCORE.INTRA.SOLV.lig_0>
-48.2216

>  <SCORE.INTRA.VDW>
0.422174

>  <SCORE.INTRA.VDW.0>
-1.3967

>  <SCORE.INTRA.norm>
-0.767957

>  <SCORE.RESTR>
0

>  <SCORE.RESTR.CAVITY>
0

>  <SCORE.RESTR.norm>
0

>  <SCORE.SYSTEM>
0

>  <SCORE.SYSTEM.CONST>
0

>  <SCORE.SYSTEM.DIHEDRAL>
0

>  <SCORE.SYSTEM.SOLV>
0

>  <SCORE.SYSTEM.norm>
0

>  <SCORE.heavy>
14

>  <SCORE.norm>
-0.287495

>  <RMSD>
2.700

$$$$
ligand
 OpenBabel11021811463D
libRbt.so/2013.1/901 2013/11/27
 14 13  0  0  0  0  0  0  0  0999 V2000
    8.6333   15.3965   13.3605 N   0  0  0  0  0  0  0  0  0  0  0  0
    8.9738   13.9899   13.6128 C   0  0  0  0  0  0  0  0  0  0  0  0
   10.1222   13.5767   12.6980 C   0  0  0  0  0  0  0  0  0  0  0  0
   10.4827   12.1299   12.9925 C   0  0  0  0  0  0  0  0  0  0  0  0
   11.5620   11.7141   12.0896 N   0  0  0  0  0  0  0  0  0  0  0  0
   10.9324   10.9912   10.9708 C   0  0  0  0  0  0  0  0  0  0  0  0
   11.8756    9.9116   10.4278 C   0  0  0  0  0  0  0  0  0  0  0  0
   12.0655    8.8455   11.5172 C   0  0  0  0  0  0  0  0  0  0  0  0
   13.2979    9.1122   12.2767 C   0  0  0  0  0  0  0  0  0  0  0  0
   14.4390    8.9037   11.3622 N   0  0  0  0  0  0  0  0  0  0  0  0
   15.7598    9.1487   12.1006 C   0  0  0  0  0  0  0  0  0  0  0  0
   16.8067    9.6895   11.1193 C   0  0  0  0  0  0  0  0  0  0  0  0
   18.0830    9.9127   11.8255 C   0  0  0  0  0  0  0  0  0  0  0  0
   19.0733   10.4926   10.8930 N   0  0  0  0  0  0  0  0  0  0  0  0
  1  2  1  0  0  0  0
  2  3  1  0  0  0  0
  3  4  1  0  0  0  0
  4  5  1  0  0  0  0
  5  6  1  0  0  0  0
  6  7  1  0  0  0  0
  7  8  1  0  0  0  0
  8  9  1  0  0  0  0
  9 10  1  0  0  0  0
 10 11  1  0  0  0  0
 11 12  1  0  0  0  0
 12 13  1  0  0  0  0
 13 14  1  0  0  0  0
M  END
>  <CHROM.1>
178.75747786,178.42832603,-97.86123651,-148.99637682,66.03104719,-96.24102212
-67.03779312,-179.24473812,-149.01059650,-179.41741197,-177.40908800,13.00749981
10.98652150,11.94618569,-2.63221134,-0.02287230,-2.81503823

>  <Name>
ligand

>  <RI>
0

>  <Rbt.Current_Directory>
/home/itssahil/PROJECTS/Mol_Feturizer/New_Systems/rnas/2O3Y

>  <Rbt.Executable>
rbdock ($Id: //depot/dev/client3/rdock/2013.1/src/exe/rbdock.cxx#4 $)

>  <Rbt.Library>
libRbt.so (2013.1, Build901 2013/11/27)

>  <Rbt.Parameter_File>
/export/apps/rDock/src/rDock_2013.1_src/data/scripts/dock_solv.prm

>  <Rbt.Receptor>
prm/pocket_docking_3.prm

>  <SCORE>
-1.5997

>  <SCORE.INTER>
6.26599

>  <SCORE.INTER.CONST>
1

>  <SCORE.INTER.POLAR>
0

>  <SCORE.INTER.ROT>
11

>  <SCORE.INTER.SOLV>
5.28198

>  <SCORE.INTER.VDW>
-8.51667

>  <SCORE.INTER.norm>
0.447571

>  <SCORE.INTRA>
-7.86801

>  <SCORE.INTRA.DIHEDRAL>
-17.6142

>  <SCORE.INTRA.DIHEDRAL.0>
24.1231

>  <SCORE.INTRA.POLAR>
0

>  <SCORE.INTRA.POLAR.0>
0

>  <SCORE.INTRA.REPUL>
0

>  <SCORE.INTRA.REPUL.0>
0

>  <SCORE.INTRA.SOLV>
0.572604

>  <SCORE.INTRA.SOLV.lig_0>
-48.2216

>  <SCORE.INTRA.VDW>
0.652782

>  <SCORE.INTRA.VDW.0>
-1.3967

>  <SCORE.INTRA.norm>
-0.562001

>  <SCORE.RESTR>
0.00232192

>  <SCORE.RESTR.CAVITY>
0.00232192

>  <SCORE.RESTR.norm>
0.000165851

>  <SCORE.SYSTEM>
0

>  <SCORE.SYSTEM.CONST>
0

>  <SCORE.SYSTEM.DIHEDRAL>
0

>  <SCORE.SYSTEM.SOLV>
0

>  <SCORE.SYSTEM.norm>
0

>  <SCORE.heavy>
14

>  <SCORE.norm>
-0.114264

>  <RMSD>
2.715

$$$$
ligand
 OpenBabel11021811463D
libRbt.so/2013.1/901 2013/11/27
 14 13  0  0  0  0  0  0  0  0999 V2000
   11.1332   14.1606   12.6089 N   0  0  0  0  0  0  0  0  0  0  0  0
    9.9134   13.3531   12.4739 C   0  0  0  0  0  0  0  0  0  0  0  0
   10.2961   11.8911   12.2683 C   0  0  0  0  0  0  0  0  0  0  0  0
   11.0123   11.7584   10.9343 C   0  0  0  0  0  0  0  0  0  0  0  0
   11.4278   10.3629   10.7530 N   0  0  0  0  0  0  0  0  0  0  0  0
   12.4576   10.3542    9.6993 C   0  0  0  0  0  0  0  0  0  0  0  0
   13.4226    9.1799    9.8984 C   0  0  0  0  0  0  0  0  0  0  0  0
   14.5951    9.3487    8.9205 C   0  0  0  0  0  0  0  0  0  0  0  0
   15.6472    8.3629    9.2172 C   0  0  0  0  0  0  0  0  0  0  0  0
   16.1939    8.6823   10.5517 N   0  0  0  0  0  0  0  0  0  0  0  0
   17.3951    9.6253   10.4191 C   0  0  0  0  0  0  0  0  0  0  0  0
   17.5156   10.4878   11.6813 C   0  0  0  0  0  0  0  0  0  0  0  0
   16.2958   11.3015   11.8469 C   0  0  0  0  0  0  0  0  0  0  0  0
   16.4363   12.1739   13.0324 N   0  0  0  0  0  0  0  0  0  0  0  0
  1  2  1  0  0  0  0
  2  3  1  0  0  0  0
  3  4  1  0  0  0  0
  4  5  1  0  0  0  0
  5  6  1  0  0  0  0
  6  7  1  0  0  0  0
  7  8  1  0  0  0  0
  8  9  1  0  0  0  0
  9 10  1  0  0  0  0
 10 11  1  0  0  0  0
 11 12  1  0  0  0  0
 12 13  1  0  0  0  0
 13 14  1  0  0  0  0
M  END
>  <CHROM.1>
-65.64864453,177.90455792,-162.50409889,151.66868787,-170.95475362,171.27200393
-65.40398568,-91.70293371,151.70572364,-60.85126379,-177.65196411,13.83872367
10.78853166,11.02150946,-2.66074077,0.15949385,-2.41580516

>  <Name>
ligand

>  <RI>
0

>  <Rbt.Current_Directory>
/home/itssahil/PROJECTS/Mol_Feturizer/New_Systems/rnas/2O3Y

>  <Rbt.Executable>
rbdock ($Id: //depot/dev/client3/rdock/2013.1/src/exe/rbdock.cxx#4 $)

>  <Rbt.Library>
libRbt.so (2013.1, Build901 2013/11/27)

>  <Rbt.Parameter_File>
/export/apps/rDock/src/rDock_2013.1_src/data/scripts/dock_solv.prm

>  <Rbt.Receptor>
prm/pocket_docking_3.prm

>  <SCORE>
-3.11201

>  <SCORE.INTER>
6.46155

>  <SCORE.INTER.CONST>
1

>  <SCORE.INTER.POLAR>
0

>  <SCORE.INTER.ROT>
11

>  <SCORE.INTER.SOLV>
7.05563

>  <SCORE.INTER.VDW>
-8.97751

>  <SCORE.INTER.norm>
0.461539

>  <SCORE.INTRA>
-9.57356

>  <SCORE.INTRA.DIHEDRAL>
-21.2533

>  <SCORE.INTRA.DIHEDRAL.0>
24.1231

>  <SCORE.INTRA.POLAR>
0

>  <SCORE.INTRA.POLAR.0>
0

>  <SCORE.INTRA.REPUL>
0

>  <SCORE.INTRA.REPUL.0>
0

>  <SCORE.INTRA.SOLV>
0.847974

>  <SCORE.INTRA.SOLV.lig_0>
-48.2216

>  <SCORE.INTRA.VDW>
0.629129

>  <SCORE.INTRA.VDW.0>
-1.3967

>  <SCORE.INTRA.norm>
-0.683825

>  <SCORE.RESTR>
0

>  <SCORE.RESTR.CAVITY>
0

>  <SCORE.RESTR.norm>
0

>  <SCORE.SYSTEM>
0

>  <SCORE.SYSTEM.CONST>
0

>  <SCORE.SYSTEM.DIHEDRAL>
0

>  <SCORE.SYSTEM.SOLV>
0

>  <SCORE.SYSTEM.norm>
0

>  <SCORE.heavy>
14

>  <SCORE.norm>
-0.222286

>  <RMSD>
2.735

$$$$
ligand
 OpenBabel11021811463D
libRbt.so/2013.1/901 2013/11/27
 14 13  0  0  0  0  0  0  0  0999 V2000
   14.4913   12.0105    8.4242 N   0  0  0  0  0  0  0  0  0  0  0  0
   14.2154   10.5917    8.6867 C   0  0  0  0  0  0  0  0  0  0  0  0
   15.2240   10.0604    9.6999 C   0  0  0  0  0  0  0  0  0  0  0  0
   14.8828    8.6129   10.0134 C   0  0  0  0  0  0  0  0  0  0  0  0
   13.5496    8.5586   10.6238 N   0  0  0  0  0  0  0  0  0  0  0  0
   13.7411    8.6344   12.0827 C   0  0  0  0  0  0  0  0  0  0  0  0
   12.4413    8.2837   12.8159 C   0  0  0  0  0  0  0  0  0  0  0  0
   11.3887    9.3461   12.4651 C   0  0  0  0  0  0  0  0  0  0  0  0
   11.6855   10.6041   13.1694 C   0  0  0  0  0  0  0  0  0  0  0  0
   10.5773   11.5411   12.8945 N   0  0  0  0  0  0  0  0  0  0  0  0
   10.9269   12.9404   13.4137 C   0  0  0  0  0  0  0  0  0  0  0  0
    9.6396   13.7395   13.6497 C   0  0  0  0  0  0  0  0  0  0  0  0
    9.9745   15.0887   14.1446 C   0  0  0  0  0  0  0  0  0  0  0  0
   10.5228   14.9947   15.5146 N   0  0  0  0  0  0  0  0  0  0  0  0
  1  2  1  0  0  0  0
  2  3  1  0  0  0  0
  3  4  1  0  0  0  0
  4  5  1  0  0  0  0
  5  6  1  0  0  0  0
  6  7  1  0  0  0  0
  7  8  1  0  0  0  0
  8  9  1  0  0  0  0
  9 10  1  0  0  0  0
 10 11  1  0  0  0  0
 11 12  1  0  0  0  0
 12 13  1  0  0  0  0
 13 14  1  0  0  0  0
M  END
>  <CHROM.1>
177.18549567,-62.35039975,-91.97719481,-167.81353989,-63.98635796,-74.02579875
-174.81445961,-171.10335354,-157.35262228,-179.77913958,-69.14466089,12.37581849
11.07161961,11.97134278,-0.44941652,0.91295131,-0.26982990

>  <Name>
ligand

>  <RI>
0

>  <Rbt.Current_Directory>
/home/itssahil/PROJECTS/Mol_Feturizer/New_Systems/rnas/2O3Y

>  <Rbt.Executable>
rbdock ($Id: //depot/dev/client3/rdock/2013.1/src/exe/rbdock.cxx#4 $)

>  <Rbt.Library>
libRbt.so (2013.1, Build901 2013/11/27)

>  <Rbt.Parameter_File>
/export/apps/rDock/src/rDock_2013.1_src/data/scripts/dock_solv.prm

>  <Rbt.Receptor>
prm/pocket_docking_2.prm

>  <SCORE>
0.813857

>  <SCORE.INTER>
9.48683

>  <SCORE.INTER.CONST>
1

>  <SCORE.INTER.POLAR>
0

>  <SCORE.INTER.ROT>
11

>  <SCORE.INTER.SOLV>
4.28978

>  <SCORE.INTER.VDW>
-6.03871

>  <SCORE.INTER.norm>
0.67763

>  <SCORE.INTRA>
-8.68187

>  <SCORE.INTRA.DIHEDRAL>
-21.5933

>  <SCORE.INTRA.DIHEDRAL.0>
24.1231

>  <SCORE.INTRA.POLAR>
0

>  <SCORE.INTRA.POLAR.0>
0

>  <SCORE.INTRA.REPUL>
0

>  <SCORE.INTRA.REPUL.0>
0

>  <SCORE.INTRA.SOLV>
1.03667

>  <SCORE.INTRA.SOLV.lig_0>
-48.2216

>  <SCORE.INTRA.VDW>
1.59646

>  <SCORE.INTRA.VDW.0>
-1.3967

>  <SCORE.INTRA.norm>
-0.620134

>  <SCORE.RESTR>
0.00890456

>  <SCORE.RESTR.CAVITY>
0.00890456

>  <SCORE.RESTR.norm>
0.00063604

>  <SCORE.SYSTEM>
0

>  <SCORE.SYSTEM.CONST>
0

>  <SCORE.SYSTEM.DIHEDRAL>
0

>  <SCORE.SYSTEM.SOLV>
0

>  <SCORE.SYSTEM.norm>
0

>  <SCORE.heavy>
14

>  <SCORE.norm>
0.0581327

>  <RMSD>
2.759

$$$$
ligand
 OpenBabel11021811463D
libRbt.so/2013.1/901 2013/11/27
 14 13  0  0  0  0  0  0  0  0999 V2000
   10.5093   15.2364   15.8701 N   0  0  0  0  0  0  0  0  0  0  0  0
   11.5414   14.2178   16.1051 C   0  0  0  0  0  0  0  0  0  0  0  0
   11.0621   12.8777   15.5568 C   0  0  0  0  0  0  0  0  0  0  0  0
   10.9934   12.9683   14.0412 C   0  0  0  0  0  0  0  0  0  0  0  0
   10.4795   11.7006   13.5104 N   0  0  0  0  0  0  0  0  0  0  0  0
   10.6602   11.7414   12.0488 C   0  0  0  0  0  0  0  0  0  0  0  0
   11.1616   10.3890   11.5296 C   0  0  0  0  0  0  0  0  0  0  0  0
   11.4583   10.5289   10.0290 C   0  0  0  0  0  0  0  0  0  0  0  0
   12.6350   11.3892    9.8241 C   0  0  0  0  0  0  0  0  0  0  0  0
   12.9257   11.4093    8.3760 N   0  0  0  0  0  0  0  0  0  0  0  0
   14.0398   12.4182    8.0744 C   0  0  0  0  0  0  0  0  0  0  0  0
   15.2518   11.6871    7.4845 C   0  0  0  0  0  0  0  0  0  0  0  0
   15.7940   10.7399    8.4777 C   0  0  0  0  0  0  0  0  0  0  0  0
   16.9897   10.0684    7.9244 N   0  0  0  0  0  0  0  0  0  0  0  0
  1  2  1  0  0  0  0
  2  3  1  0  0  0  0
  3  4  1  0  0  0  0
  4  5  1  0  0  0  0
  5  6  1  0  0  0  0
  6  7  1  0  0  0  0
  7  8  1  0  0  0  0
  8  9  1  0  0  0  0
  9 10  1  0  0  0  0
 10 11  1  0  0  0  0
 11 12  1  0  0  0  0
 12 13  1  0  0  0  0
 13 14  1  0  0  0  0
M  END
>  <CHROM.1>
67.73849399,-177.66585507,-169.90103721,138.20865544,-174.70276022,69.32890576
176.13739399,173.37659570,117.64632017,-63.08022328,-178.12284041,12.53577376
11.95509492,11.34653918,-2.13242673,-0.39537952,-2.14783055

>  <Name>
ligand

>  <RI>
0

>  <Rbt.Current_Directory>
/home/itssahil/PROJECTS/Mol_Feturizer/New_Systems/rnas/2O3Y

>  <Rbt.Executable>
rbdock ($Id: //depot/dev/client3/rdock/2013.1/src/exe/rbdock.cxx#4 $)

>  <Rbt.Library>
libRbt.so (2013.1, Build901 2013/11/27)

>  <Rbt.Parameter_File>
/export/apps/rDock/src/rDock_2013.1_src/data/scripts/dock_solv.prm

>  <Rbt.Receptor>
prm/pocket_docking_3.prm

>  <SCORE>
-2.78801

>  <SCORE.INTER>
6.10855

>  <SCORE.INTER.CONST>
1

>  <SCORE.INTER.POLAR>
0

>  <SCORE.INTER.ROT>
11

>  <SCORE.INTER.SOLV>
3.23959

>  <SCORE.INTER.VDW>
-7.94083

>  <SCORE.INTER.norm>
0.436325

>  <SCORE.INTRA>
-8.90319

>  <SCORE.INTRA.DIHEDRAL>
-21.0499

>  <SCORE.INTRA.DIHEDRAL.0>
24.1231

>  <SCORE.INTRA.POLAR>
0

>  <SCORE.INTRA.POLAR.0>
0

>  <SCORE.INTRA.REPUL>
0

>  <SCORE.INTRA.REPUL.0>
0

>  <SCORE.INTRA.SOLV>
0.587641

>  <SCORE.INTRA.SOLV.lig_0>
-48.2216

>  <SCORE.INTRA.VDW>
1.32791

>  <SCORE.INTRA.VDW.0>
-1.3967

>  <SCORE.INTRA.norm>
-0.635942

>  <SCORE.RESTR>
0.00663996

>  <SCORE.RESTR.CAVITY>
0.00663996

>  <SCORE.RESTR.norm>
0.000474283

>  <SCORE.SYSTEM>
0

>  <SCORE.SYSTEM.CONST>
0

>  <SCORE.SYSTEM.DIHEDRAL>
0

>  <SCORE.SYSTEM.SOLV>
0

>  <SCORE.SYSTEM.norm>
0

>  <SCORE.heavy>
14

>  <SCORE.norm>
-0.199143

>  <RMSD>
2.818

$$$$
ligand
 OpenBabel11021811463D
libRbt.so/2013.1/901 2013/11/27
 14 13  0  0  0  0  0  0  0  0999 V2000
   10.8605   14.2066   16.0012 N   0  0  0  0  0  0  0  0  0  0  0  0
   11.1563   12.8556   15.5059 C   0  0  0  0  0  0  0  0  0  0  0  0
   10.0653   11.8970   15.9720 C   0  0  0  0  0  0  0  0  0  0  0  0
   10.4092   10.4970   15.4907 C   0  0  0  0  0  0  0  0  0  0  0  0
   10.3731   10.4747   14.0240 N   0  0  0  0  0  0  0  0  0  0  0  0
    9.9789    9.1125   13.6241 C   0  0  0  0  0  0  0  0  0  0  0  0
   10.6781    8.7099   12.3206 C   0  0  0  0  0  0  0  0  0  0  0  0
   12.1712    8.5054   12.6180 C   0  0  0  0  0  0  0  0  0  0  0  0
   12.9190    8.3380   11.3613 C   0  0  0  0  0  0  0  0  0  0  0  0
   12.8751    9.6270   10.6414 N   0  0  0  0  0  0  0  0  0  0  0  0
   13.5526    9.4916    9.2729 C   0  0  0  0  0  0  0  0  0  0  0  0
   13.5411   10.8468    8.5554 C   0  0  0  0  0  0  0  0  0  0  0  0
   14.4788   11.7711    9.2216 C   0  0  0  0  0  0  0  0  0  0  0  0
   14.5098   13.0585    8.4949 N   0  0  0  0  0  0  0  0  0  0  0  0
  1  2  1  0  0  0  0
  2  3  1  0  0  0  0
  3  4  1  0  0  0  0
  4  5  1  0  0  0  0
  5  6  1  0  0  0  0
  6  7  1  0  0  0  0
  7  8  1  0  0  0  0
  8  9  1  0  0  0  0
  9 10  1  0  0  0  0
 10 11  1  0  0  0  0
 11 12  1  0  0  0  0
 12 13  1  0  0  0  0
 13 14  1  0  0  0  0
M  END
>  <CHROM.1>
-178.17030858,-64.73361875,-149.85328863,-145.74409315,70.28630918,-170.61107678
67.46500680,-175.95593767,-178.15571763,70.83205958,177.61909620,11.96913840
10.67037080,12.36461158,-2.64272693,-1.00137830,-2.72372164

>  <Name>
ligand

>  <RI>
0

>  <Rbt.Current_Directory>
/home/itssahil/PROJECTS/Mol_Feturizer/New_Systems/rnas/2O3Y

>  <Rbt.Executable>
rbdock ($Id: //depot/dev/client3/rdock/2013.1/src/exe/rbdock.cxx#4 $)

>  <Rbt.Library>
libRbt.so (2013.1, Build901 2013/11/27)

>  <Rbt.Parameter_File>
/export/apps/rDock/src/rDock_2013.1_src/data/scripts/dock_solv.prm

>  <Rbt.Receptor>
prm/pocket_docking_3.prm

>  <SCORE>
-4.14865

>  <SCORE.INTER>
5.63954

>  <SCORE.INTER.CONST>
1

>  <SCORE.INTER.POLAR>
0

>  <SCORE.INTER.ROT>
11

>  <SCORE.INTER.SOLV>
3.87323

>  <SCORE.INTER.VDW>
-8.46471

>  <SCORE.INTER.norm>
0.402825

>  <SCORE.INTRA>
-9.7882

>  <SCORE.INTRA.DIHEDRAL>
-21.2579

>  <SCORE.INTRA.DIHEDRAL.0>
24.1231

>  <SCORE.INTRA.POLAR>
0

>  <SCORE.INTRA.POLAR.0>
0

>  <SCORE.INTRA.REPUL>
0

>  <SCORE.INTRA.REPUL.0>
0

>  <SCORE.INTRA.SOLV>
0.78682

>  <SCORE.INTRA.SOLV.lig_0>
-48.2216

>  <SCORE.INTRA.VDW>
0.447337

>  <SCORE.INTRA.VDW.0>
-1.3967

>  <SCORE.INTRA.norm>
-0.699157

>  <SCORE.RESTR>
0

>  <SCORE.RESTR.CAVITY>
0

>  <SCORE.RESTR.norm>
0

>  <SCORE.SYSTEM>
0

>  <SCORE.SYSTEM.CONST>
0

>  <SCORE.SYSTEM.DIHEDRAL>
0

>  <SCORE.SYSTEM.SOLV>
0

>  <SCORE.SYSTEM.norm>
0

>  <SCORE.heavy>
14

>  <SCORE.norm>
-0.296332

>  <RMSD>
2.823

$$$$
ligand
 OpenBabel11021811463D
libRbt.so/2013.1/901 2013/11/27
 14 13  0  0  0  0  0  0  0  0999 V2000
   18.7719    9.8760   12.0572 N   0  0  0  0  0  0  0  0  0  0  0  0
   17.3686    9.7140   12.4606 C   0  0  0  0  0  0  0  0  0  0  0  0
   16.4781    9.7707   11.2236 C   0  0  0  0  0  0  0  0  0  0  0  0
   15.0256    9.7033   11.6659 C   0  0  0  0  0  0  0  0  0  0  0  0
   14.1628    9.7654   10.4808 N   0  0  0  0  0  0  0  0  0  0  0  0
   12.7943   10.0299   10.9583 C   0  0  0  0  0  0  0  0  0  0  0  0
   11.8266   10.1593    9.7764 C   0  0  0  0  0  0  0  0  0  0  0  0
   10.4019   10.2992   10.3334 C   0  0  0  0  0  0  0  0  0  0  0  0
   10.1134   11.7106   10.6359 C   0  0  0  0  0  0  0  0  0  0  0  0
   10.7875   12.0406   11.9081 N   0  0  0  0  0  0  0  0  0  0  0  0
   10.3186   13.4090   12.4154 C   0  0  0  0  0  0  0  0  0  0  0  0
   10.7771   13.6065   13.8654 C   0  0  0  0  0  0  0  0  0  0  0  0
   10.2720   14.8953   14.3764 C   0  0  0  0  0  0  0  0  0  0  0  0
   10.6919   15.0721   15.7832 N   0  0  0  0  0  0  0  0  0  0  0  0
  1  2  1  0  0  0  0
  2  3  1  0  0  0  0
  3  4  1  0  0  0  0
  4  5  1  0  0  0  0
  5  6  1  0  0  0  0
  6  7  1  0  0  0  0
  7  8  1  0  0  0  0
  8  9  1  0  0  0  0
  9 10  1  0  0  0  0
 10 11  1  0  0  0  0
 11 12  1  0  0  0  0
 12 13  1  0  0  0  0
 13 14  1  0  0  0  0
M  END
>  <CHROM.1>
-175.94132261,179.66856597,-166.39948124,178.06103961,174.67447790,86.04024198
-77.46656627,-169.47445281,167.67814962,-177.32365066,178.87159117,12.84183576
11.43217374,11.99553085,-0.55846674,-0.27245006,0.84910712

>  <Name>
ligand

>  <RI>
0

>  <Rbt.Current_Directory>
/home/itssahil/PROJECTS/Mol_Feturizer/New_Systems/rnas/2O3Y

>  <Rbt.Executable>
rbdock ($Id: //depot/dev/client3/rdock/2013.1/src/exe/rbdock.cxx#4 $)

>  <Rbt.Library>
libRbt.so (2013.1, Build901 2013/11/27)

>  <Rbt.Parameter_File>
/export/apps/rDock/src/rDock_2013.1_src/data/scripts/dock_solv.prm

>  <Rbt.Receptor>
prm/pocket_docking_4.prm

>  <SCORE>
-4.01156

>  <SCORE.INTER>
5.56962

>  <SCORE.INTER.CONST>
1

>  <SCORE.INTER.POLAR>
0

>  <SCORE.INTER.ROT>
11

>  <SCORE.INTER.SOLV>
6.67819

>  <SCORE.INTER.VDW>
-9.44632

>  <SCORE.INTER.norm>
0.39783

>  <SCORE.INTRA>
-9.58118

>  <SCORE.INTRA.DIHEDRAL>
-20.0577

>  <SCORE.INTRA.DIHEDRAL.0>
24.1231

>  <SCORE.INTRA.POLAR>
0

>  <SCORE.INTRA.POLAR.0>
0

>  <SCORE.INTRA.REPUL>
0

>  <SCORE.INTRA.REPUL.0>
0

>  <SCORE.INTRA.SOLV>
0.0045121

>  <SCORE.INTRA.SOLV.lig_0>
-48.2216

>  <SCORE.INTRA.VDW>
0.445416

>  <SCORE.INTRA.VDW.0>
-1.3967

>  <SCORE.INTRA.norm>
-0.68437

>  <SCORE.RESTR>
0

>  <SCORE.RESTR.CAVITY>
0

>  <SCORE.RESTR.norm>
0

>  <SCORE.SYSTEM>
0

>  <SCORE.SYSTEM.CONST>
0

>  <SCORE.SYSTEM.DIHEDRAL>
0

>  <SCORE.SYSTEM.SOLV>
0

>  <SCORE.SYSTEM.norm>
0

>  <SCORE.heavy>
14

>  <SCORE.norm>
-0.28654

>  <RMSD>
2.864

$$$$
ligand
 OpenBabel11021811463D
libRbt.so/2013.1/901 2013/11/27
 14 13  0  0  0  0  0  0  0  0999 V2000
   10.4856   15.9535   13.3066 N   0  0  0  0  0  0  0  0  0  0  0  0
   10.8547   14.7056   12.6250 C   0  0  0  0  0  0  0  0  0  0  0  0
    9.6320   13.7982   12.5362 C   0  0  0  0  0  0  0  0  0  0  0  0
   10.0474   12.4825   11.8987 C   0  0  0  0  0  0  0  0  0  0  0  0
   10.9225   11.7580   12.8273 N   0  0  0  0  0  0  0  0  0  0  0  0
   10.3142   10.4343   13.0475 C   0  0  0  0  0  0  0  0  0  0  0  0
   10.8365    9.4234   12.0201 C   0  0  0  0  0  0  0  0  0  0  0  0
   12.3646    9.3452   12.1550 C   0  0  0  0  0  0  0  0  0  0  0  0
   12.9164    8.4358   11.1376 C   0  0  0  0  0  0  0  0  0  0  0  0
   12.6368    9.0265    9.8130 N   0  0  0  0  0  0  0  0  0  0  0  0
   13.9304    9.5630    9.1896 C   0  0  0  0  0  0  0  0  0  0  0  0
   13.7636   11.0503    8.8551 C   0  0  0  0  0  0  0  0  0  0  0  0
   14.9997   11.5625    8.2328 C   0  0  0  0  0  0  0  0  0  0  0  0
   14.8793   13.0197    8.0124 N   0  0  0  0  0  0  0  0  0  0  0  0
  1  2  1  0  0  0  0
  2  3  1  0  0  0  0
  3  4  1  0  0  0  0
  4  5  1  0  0  0  0
  5  6  1  0  0  0  0
  6  7  1  0  0  0  0
  7  8  1  0  0  0  0
  8  9  1  0  0  0  0
  9 10  1  0  0  0  0
 10 11  1  0  0  0  0
 11 12  1  0  0  0  0
 12 13  1  0  0  0  0
 13 14  1  0  0  0  0
M  END
>  <CHROM.1>
-176.90364813,68.70936976,124.11916002,90.12619403,58.67384016,-177.07427754
64.09611488,108.03569434,-123.51708333,-178.99532253,-175.37987729,12.04160785
11.46806432,11.11840511,-2.58556948,-0.81459529,3.07620790

>  <Name>
ligand

>  <RI>
0

>  <Rbt.Current_Directory>
/home/itssahil/PROJECTS/Mol_Feturizer/New_Systems/rnas/2O3Y

>  <Rbt.Executable>
rbdock ($Id: //depot/dev/client3/rdock/2013.1/src/exe/rbdock.cxx#4 $)

>  <Rbt.Library>
libRbt.so (2013.1, Build901 2013/11/27)

>  <Rbt.Parameter_File>
/export/apps/rDock/src/rDock_2013.1_src/data/scripts/dock_solv.prm

>  <Rbt.Receptor>
prm/pocket_docking_3.prm

>  <SCORE>
-2.72636

>  <SCORE.INTER>
5.86238

>  <SCORE.INTER.CONST>
1

>  <SCORE.INTER.POLAR>
0

>  <SCORE.INTER.ROT>
11

>  <SCORE.INTER.SOLV>
7.00863

>  <SCORE.INTER.VDW>
-9.36129

>  <SCORE.INTER.norm>
0.418742

>  <SCORE.INTRA>
-8.58875

>  <SCORE.INTRA.DIHEDRAL>
-19.549

>  <SCORE.INTRA.DIHEDRAL.0>
24.1231

>  <SCORE.INTRA.POLAR>
0

>  <SCORE.INTRA.POLAR.0>
0

>  <SCORE.INTRA.REPUL>
0

>  <SCORE.INTRA.REPUL.0>
0

>  <SCORE.INTRA.SOLV>
0.436652

>  <SCORE.INTRA.SOLV.lig_0>
-48.2216

>  <SCORE.INTRA.VDW>
0.967422

>  <SCORE.INTRA.VDW.0>
-1.3967

>  <SCORE.INTRA.norm>
-0.613482

>  <SCORE.RESTR>
0

>  <SCORE.RESTR.CAVITY>
0

>  <SCORE.RESTR.norm>
0

>  <SCORE.SYSTEM>
0

>  <SCORE.SYSTEM.CONST>
0

>  <SCORE.SYSTEM.DIHEDRAL>
0

>  <SCORE.SYSTEM.SOLV>
0

>  <SCORE.SYSTEM.norm>
0

>  <SCORE.heavy>
14

>  <SCORE.norm>
-0.19474

>  <RMSD>
2.867

$$$$
ligand
 OpenBabel11021811463D
libRbt.so/2013.1/901 2013/11/27
 14 13  0  0  0  0  0  0  0  0999 V2000
   14.4803   14.5491    9.5840 N   0  0  0  0  0  0  0  0  0  0  0  0
   13.9223   13.2142    9.3293 C   0  0  0  0  0  0  0  0  0  0  0  0
   14.4503   12.6923    7.9970 C   0  0  0  0  0  0  0  0  0  0  0  0
   13.8936   11.2971    7.7657 C   0  0  0  0  0  0  0  0  0  0  0  0
   14.3904   10.4047    8.8191 N   0  0  0  0  0  0  0  0  0  0  0  0
   13.4222    9.3008    8.9398 C   0  0  0  0  0  0  0  0  0  0  0  0
   12.6290    9.4198   10.2462 C   0  0  0  0  0  0  0  0  0  0  0  0
   11.8167   10.7227   10.1996 C   0  0  0  0  0  0  0  0  0  0  0  0
   11.1216   10.9315   11.4802 C   0  0  0  0  0  0  0  0  0  0  0  0
   10.4773   12.2596   11.4263 N   0  0  0  0  0  0  0  0  0  0  0  0
    9.9206   12.6334   12.8048 C   0  0  0  0  0  0  0  0  0  0  0  0
    9.6494   14.1417   12.8598 C   0  0  0  0  0  0  0  0  0  0  0  0
   10.9260   14.8797   12.8040 C   0  0  0  0  0  0  0  0  0  0  0  0
   10.6659   16.3324   12.8964 N   0  0  0  0  0  0  0  0  0  0  0  0
  1  2  1  0  0  0  0
  2  3  1  0  0  0  0
  3  4  1  0  0  0  0
  4  5  1  0  0  0  0
  5  6  1  0  0  0  0
  6  7  1  0  0  0  0
  7  8  1  0  0  0  0
  8  9  1  0  0  0  0
  9 10  1  0  0  0  0
 10 11  1  0  0  0  0
 11 12  1  0  0  0  0
 12 13  1  0  0  0  0
 13 14  1  0  0  0  0
M  END
>  <CHROM.1>
178.52670400,-63.05757840,155.21224243,-108.67912958,63.19815230,-175.51241532
174.17522326,-171.19384343,162.74690074,-67.46601012,-178.37923188,12.26887628
12.34092931,10.51080069,-0.74352482,0.73022800,0.21540207

>  <Name>
ligand

>  <RI>
0

>  <Rbt.Current_Directory>
/home/itssahil/PROJECTS/Mol_Feturizer/New_Systems/rnas/2O3Y

>  <Rbt.Executable>
rbdock ($Id: //depot/dev/client3/rdock/2013.1/src/exe/rbdock.cxx#4 $)

>  <Rbt.Library>
libRbt.so (2013.1, Build901 2013/11/27)

>  <Rbt.Parameter_File>
/export/apps/rDock/src/rDock_2013.1_src/data/scripts/dock_solv.prm

>  <Rbt.Receptor>
prm/pocket_docking_3.prm

>  <SCORE>
-5.28365

>  <SCORE.INTER>
5.0051

>  <SCORE.INTER.CONST>
1

>  <SCORE.INTER.POLAR>
0

>  <SCORE.INTER.ROT>
11

>  <SCORE.INTER.SOLV>
5.64415

>  <SCORE.INTER.VDW>
-9.47798

>  <SCORE.INTER.norm>
0.357507

>  <SCORE.INTRA>
-10.2887

>  <SCORE.INTRA.DIHEDRAL>
-21.7842

>  <SCORE.INTRA.DIHEDRAL.0>
24.1231

>  <SCORE.INTRA.POLAR>
0

>  <SCORE.INTRA.POLAR.0>
0

>  <SCORE.INTRA.REPUL>
0

>  <SCORE.INTRA.REPUL.0>
0

>  <SCORE.INTRA.SOLV>
0.586233

>  <SCORE.INTRA.SOLV.lig_0>
-48.2216

>  <SCORE.INTRA.VDW>
0.310237

>  <SCORE.INTRA.VDW.0>
-1.3967

>  <SCORE.INTRA.norm>
-0.73491

>  <SCORE.RESTR>
0

>  <SCORE.RESTR.CAVITY>
0

>  <SCORE.RESTR.norm>
0

>  <SCORE.SYSTEM>
0

>  <SCORE.SYSTEM.CONST>
0

>  <SCORE.SYSTEM.DIHEDRAL>
0

>  <SCORE.SYSTEM.SOLV>
0

>  <SCORE.SYSTEM.norm>
0

>  <SCORE.heavy>
14

>  <SCORE.norm>
-0.377403

>  <RMSD>
2.872

$$$$
ligand
 OpenBabel11021811463D
libRbt.so/2013.1/901 2013/11/27
 14 13  0  0  0  0  0  0  0  0999 V2000
   17.4359   10.0488   13.4978 N   0  0  0  0  0  0  0  0  0  0  0  0
   16.7132    9.4129   12.3881 C   0  0  0  0  0  0  0  0  0  0  0  0
   17.1955   10.0038   11.0673 C   0  0  0  0  0  0  0  0  0  0  0  0
   16.3194    9.4694    9.9462 C   0  0  0  0  0  0  0  0  0  0  0  0
   14.9589    9.9928   10.1134 N   0  0  0  0  0  0  0  0  0  0  0  0
   14.1569    9.4721    8.9925 C   0  0  0  0  0  0  0  0  0  0  0  0
   12.7071    9.2358    9.4310 C   0  0  0  0  0  0  0  0  0  0  0  0
   12.0694   10.5984    9.7412 C   0  0  0  0  0  0  0  0  0  0  0  0
   10.6789   10.4161   10.1882 C   0  0  0  0  0  0  0  0  0  0  0  0
   10.1236   11.7545   10.4745 N   0  0  0  0  0  0  0  0  0  0  0  0
   10.2972   12.0923   11.9597 C   0  0  0  0  0  0  0  0  0  0  0  0
    9.4996   13.3577   12.2975 C   0  0  0  0  0  0  0  0  0  0  0  0
    9.6366   13.6641   13.7345 C   0  0  0  0  0  0  0  0  0  0  0  0
    8.8823   14.8947   14.0554 N   0  0  0  0  0  0  0  0  0  0  0  0
  1  2  1  0  0  0  0
  2  3  1  0  0  0  0
  3  4  1  0  0  0  0
  4  5  1  0  0  0  0
  5  6  1  0  0  0  0
  6  7  1  0  0  0  0
  7  8  1  0  0  0  0
  8  9  1  0  0  0  0
  9 10  1  0  0  0  0
 10 11  1  0  0  0  0
 11 12  1  0  0  0  0
 12 13  1  0  0  0  0
 13 14  1  0  0  0  0
M  END
>  <CHROM.1>
-172.84172064,66.45864969,178.85046783,147.11235526,66.71611723,-179.09787537
179.79903387,-93.57750347,-169.79389933,178.50635393,179.23080000,12.90534449
11.02927384,11.27734363,-0.42822703,-0.32297825,1.01155975

>  <Name>
ligand

>  <RI>
0

>  <Rbt.Current_Directory>
/home/itssahil/PROJECTS/Mol_Feturizer/New_Systems/rnas/2O3Y

>  <Rbt.Executable>
rbdock ($Id: //depot/dev/client3/rdock/2013.1/src/exe/rbdock.cxx#4 $)

>  <Rbt.Library>
libRbt.so (2013.1, Build901 2013/11/27)

>  <Rbt.Parameter_File>
/export/apps/rDock/src/rDock_2013.1_src/data/scripts/dock_solv.prm

>  <Rbt.Receptor>
prm/pocket_docking_4.prm

>  <SCORE>
-6.04587

>  <SCORE.INTER>
4.46739

>  <SCORE.INTER.CONST>
1

>  <SCORE.INTER.POLAR>
0

>  <SCORE.INTER.ROT>
11

>  <SCORE.INTER.SOLV>
8.15506

>  <SCORE.INTER.VDW>
-10.6734

>  <SCORE.INTER.norm>
0.319099

>  <SCORE.INTRA>
-10.5133

>  <SCORE.INTRA.DIHEDRAL>
-22.1052

>  <SCORE.INTRA.DIHEDRAL.0>
24.1231

>  <SCORE.INTRA.POLAR>
0

>  <SCORE.INTRA.POLAR.0>
0

>  <SCORE.INTRA.REPUL>
0

>  <SCORE.INTRA.REPUL.0>
0

>  <SCORE.INTRA.SOLV>
-0.0543098

>  <SCORE.INTRA.SOLV.lig_0>
-48.2216

>  <SCORE.INTRA.VDW>
0.566498

>  <SCORE.INTRA.VDW.0>
-1.3967

>  <SCORE.INTRA.norm>
-0.750947

>  <SCORE.RESTR>
0

>  <SCORE.RESTR.CAVITY>
0

>  <SCORE.RESTR.norm>
0

>  <SCORE.SYSTEM>
0

>  <SCORE.SYSTEM.CONST>
0

>  <SCORE.SYSTEM.DIHEDRAL>
0

>  <SCORE.SYSTEM.SOLV>
0

>  <SCORE.SYSTEM.norm>
0

>  <SCORE.heavy>
14

>  <SCORE.norm>
-0.431848

>  <RMSD>
2.908

$$$$
ligand
 OpenBabel11021811463D
libRbt.so/2013.1/901 2013/11/27
 14 13  0  0  0  0  0  0  0  0999 V2000
   11.1114   13.6741   15.4653 N   0  0  0  0  0  0  0  0  0  0  0  0
   10.6100   13.6385   14.0850 C   0  0  0  0  0  0  0  0  0  0  0  0
    9.2342   12.9805   14.0646 C   0  0  0  0  0  0  0  0  0  0  0  0
    9.3987   11.4989   14.3613 C   0  0  0  0  0  0  0  0  0  0  0  0
   10.0999   10.8630   13.2402 N   0  0  0  0  0  0  0  0  0  0  0  0
    9.9310    9.4078   13.3970 C   0  0  0  0  0  0  0  0  0  0  0  0
   10.6459    8.6574   12.2675 C   0  0  0  0  0  0  0  0  0  0  0  0
   12.1563    8.8980   12.4098 C   0  0  0  0  0  0  0  0  0  0  0  0
   12.8642    8.3834   11.2263 C   0  0  0  0  0  0  0  0  0  0  0  0
   12.4698    9.2179   10.0731 N   0  0  0  0  0  0  0  0  0  0  0  0
   13.6804    9.4769    9.1692 C   0  0  0  0  0  0  0  0  0  0  0  0
   13.5650   10.8703    8.5393 C   0  0  0  0  0  0  0  0  0  0  0  0
   14.6931   11.0939    7.6146 C   0  0  0  0  0  0  0  0  0  0  0  0
   15.9564   11.1696    8.3795 N   0  0  0  0  0  0  0  0  0  0  0  0
  1  2  1  0  0  0  0
  2  3  1  0  0  0  0
  3  4  1  0  0  0  0
  4  5  1  0  0  0  0
  5  6  1  0  0  0  0
  6  7  1  0  0  0  0
  7  8  1  0  0  0  0
  8  9  1  0  0  0  0
  9 10  1  0  0  0  0
 10 11  1  0  0  0  0
 11 12  1  0  0  0  0
 12 13  1  0  0  0  0
 13 14  1  0  0  0  0
M  END
>  <CHROM.1>
-70.20232606,-67.83582086,-165.63465328,-179.54932246,65.55367185,-170.72582203
66.97403996,140.52714338,-146.61974216,-177.07443860,-67.16921903,11.88667500
10.70193471,11.73516985,-2.66318142,-0.84487955,-2.85932084

>  <Name>
ligand

>  <RI>
0

>  <Rbt.Current_Directory>
/home/itssahil/PROJECTS/Mol_Feturizer/New_Systems/rnas/2O3Y

>  <Rbt.Executable>
rbdock ($Id: //depot/dev/client3/rdock/2013.1/src/exe/rbdock.cxx#4 $)

>  <Rbt.Library>
libRbt.so (2013.1, Build901 2013/11/27)

>  <Rbt.Parameter_File>
/export/apps/rDock/src/rDock_2013.1_src/data/scripts/dock_solv.prm

>  <Rbt.Receptor>
prm/pocket_docking_3.prm

>  <SCORE>
-3.45448

>  <SCORE.INTER>
4.94649

>  <SCORE.INTER.CONST>
1

>  <SCORE.INTER.POLAR>
0

>  <SCORE.INTER.ROT>
11

>  <SCORE.INTER.SOLV>
5.39061

>  <SCORE.INTER.VDW>
-9.43255

>  <SCORE.INTER.norm>
0.35332

>  <SCORE.INTRA>
-8.40317

>  <SCORE.INTRA.DIHEDRAL>
-20.8802

>  <SCORE.INTRA.DIHEDRAL.0>
24.1231

>  <SCORE.INTRA.POLAR>
0

>  <SCORE.INTRA.POLAR.0>
0

>  <SCORE.INTRA.REPUL>
0.00652088

>  <SCORE.INTRA.REPUL.0>
0

>  <SCORE.INTRA.SOLV>
2.45142

>  <SCORE.INTRA.SOLV.lig_0>
-48.2216

>  <SCORE.INTRA.VDW>
0.778621

>  <SCORE.INTRA.VDW.0>
-1.3967

>  <SCORE.INTRA.norm>
-0.600227

>  <SCORE.RESTR>
0.00220547

>  <SCORE.RESTR.CAVITY>
0.00220547

>  <SCORE.RESTR.norm>
0.000157533

>  <SCORE.SYSTEM>
0

>  <SCORE.SYSTEM.CONST>
0

>  <SCORE.SYSTEM.DIHEDRAL>
0

>  <SCORE.SYSTEM.SOLV>
0

>  <SCORE.SYSTEM.norm>
0

>  <SCORE.heavy>
14

>  <SCORE.norm>
-0.246749

>  <RMSD>
2.921

$$$$
ligand
 OpenBabel11021811463D
libRbt.so/2013.1/901 2013/11/27
 14 13  0  0  0  0  0  0  0  0999 V2000
   15.1673   14.5921    9.4983 N   0  0  0  0  0  0  0  0  0  0  0  0
   14.4466   13.3320    9.7234 C   0  0  0  0  0  0  0  0  0  0  0  0
   13.5988   13.0095    8.4972 C   0  0  0  0  0  0  0  0  0  0  0  0
   12.8962   11.6814    8.7267 C   0  0  0  0  0  0  0  0  0  0  0  0
   11.8980   11.8474    9.7892 N   0  0  0  0  0  0  0  0  0  0  0  0
   11.4576   10.4970   10.1805 C   0  0  0  0  0  0  0  0  0  0  0  0
   10.5980   10.5565   11.4484 C   0  0  0  0  0  0  0  0  0  0  0  0
   11.4584   11.1236   12.5875 C   0  0  0  0  0  0  0  0  0  0  0  0
   10.6607   11.2281   13.8202 C   0  0  0  0  0  0  0  0  0  0  0  0
   11.5233   11.8245   14.8603 N   0  0  0  0  0  0  0  0  0  0  0  0
   10.6989   12.1416   16.1131 C   0  0  0  0  0  0  0  0  0  0  0  0
   11.5172   13.0300   17.0579 C   0  0  0  0  0  0  0  0  0  0  0  0
   11.7070   14.3612   16.4502 C   0  0  0  0  0  0  0  0  0  0  0  0
   10.4126   15.0743   16.3989 N   0  0  0  0  0  0  0  0  0  0  0  0
  1  2  1  0  0  0  0
  2  3  1  0  0  0  0
  3  4  1  0  0  0  0
  4  5  1  0  0  0  0
  5  6  1  0  0  0  0
  6  7  1  0  0  0  0
  7  8  1  0  0  0  0
  8  9  1  0  0  0  0
  9 10  1  0  0  0  0
 10 11  1  0  0  0  0
 11 12  1  0  0  0  0
 12 13  1  0  0  0  0
 13 14  1  0  0  0  0
M  END
>  <CHROM.1>
178.14368078,68.24542319,-167.86369405,170.14016748,-61.86308797,178.67337234
-177.88888332,172.13975236,-167.63368739,67.95559731,68.64282123,12.00279634
12.44957282,12.51078973,-1.06108659,0.88159887,1.05936462

>  <Name>
ligand

>  <RI>
0

>  <Rbt.Current_Directory>
/home/itssahil/PROJECTS/Mol_Feturizer/New_Systems/rnas/2O3Y

>  <Rbt.Executable>
rbdock ($Id: //depot/dev/client3/rdock/2013.1/src/exe/rbdock.cxx#4 $)

>  <Rbt.Library>
libRbt.so (2013.1, Build901 2013/11/27)

>  <Rbt.Parameter_File>
/export/apps/rDock/src/rDock_2013.1_src/data/scripts/dock_solv.prm

>  <Rbt.Receptor>
prm/pocket_docking_3.prm

>  <SCORE>
-5.28008

>  <SCORE.INTER>
4.89734

>  <SCORE.INTER.CONST>
1

>  <SCORE.INTER.POLAR>
0

>  <SCORE.INTER.ROT>
11

>  <SCORE.INTER.SOLV>
4.47284

>  <SCORE.INTER.VDW>
-9.15939

>  <SCORE.INTER.norm>
0.34981

>  <SCORE.INTRA>
-10.1794

>  <SCORE.INTRA.DIHEDRAL>
-22.9388

>  <SCORE.INTRA.DIHEDRAL.0>
24.1231

>  <SCORE.INTRA.POLAR>
0

>  <SCORE.INTRA.POLAR.0>
0

>  <SCORE.INTRA.REPUL>
0

>  <SCORE.INTRA.REPUL.0>
0

>  <SCORE.INTRA.SOLV>
1.60818

>  <SCORE.INTRA.SOLV.lig_0>
-48.2216

>  <SCORE.INTRA.VDW>
0.485866

>  <SCORE.INTRA.VDW.0>
-1.3967

>  <SCORE.INTRA.norm>
-0.727103

>  <SCORE.RESTR>
0.0020247

>  <SCORE.RESTR.CAVITY>
0.0020247

>  <SCORE.RESTR.norm>
0.000144621

>  <SCORE.SYSTEM>
0

>  <SCORE.SYSTEM.CONST>
0

>  <SCORE.SYSTEM.DIHEDRAL>
0

>  <SCORE.SYSTEM.SOLV>
0

>  <SCORE.SYSTEM.norm>
0

>  <SCORE.heavy>
14

>  <SCORE.norm>
-0.377148

>  <RMSD>
2.935

$$$$
ligand
 OpenBabel11021811463D
libRbt.so/2013.1/901 2013/11/27
 14 13  0  0  0  0  0  0  0  0999 V2000
   12.2039   12.2611   17.0681 N   0  0  0  0  0  0  0  0  0  0  0  0
   11.5103   12.8051   15.8929 C   0  0  0  0  0  0  0  0  0  0  0  0
   11.4946   11.7562   14.7857 C   0  0  0  0  0  0  0  0  0  0  0  0
   10.7176   12.3091   13.6023 C   0  0  0  0  0  0  0  0  0  0  0  0
   10.6684   11.2914   12.5465 N   0  0  0  0  0  0  0  0  0  0  0  0
   10.2814   11.9800   11.3028 C   0  0  0  0  0  0  0  0  0  0  0  0
   10.2398   10.9929   10.1307 C   0  0  0  0  0  0  0  0  0  0  0  0
   11.6828   10.5990    9.7811 C   0  0  0  0  0  0  0  0  0  0  0  0
   12.1605    9.5568   10.7042 C   0  0  0  0  0  0  0  0  0  0  0  0
   13.5252    9.1799   10.2834 N   0  0  0  0  0  0  0  0  0  0  0  0
   14.4244    8.9932   11.5108 C   0  0  0  0  0  0  0  0  0  0  0  0
   15.7280    9.7777   11.3194 C   0  0  0  0  0  0  0  0  0  0  0  0
   16.5594    9.6660   12.5334 C   0  0  0  0  0  0  0  0  0  0  0  0
   17.7808   10.4847   12.3774 N   0  0  0  0  0  0  0  0  0  0  0  0
  1  2  1  0  0  0  0
  2  3  1  0  0  0  0
  3  4  1  0  0  0  0
  4  5  1  0  0  0  0
  5  6  1  0  0  0  0
  6  7  1  0  0  0  0
  7  8  1  0  0  0  0
  8  9  1  0  0  0  0
  9 10  1  0  0  0  0
 10 11  1  0  0  0  0
 11 12  1  0  0  0  0
 12 13  1  0  0  0  0
 13 14  1  0  0  0  0
M  END
>  <CHROM.1>
177.35810969,-178.52729953,-163.37815160,178.54060834,-71.31585741,80.95260756
177.59905343,138.93278480,-130.53434035,176.58604023,-176.82386498,12.78377105
10.83237186,12.41677505,-2.49352296,0.26937972,-1.93918548

>  <Name>
ligand

>  <RI>
0

>  <Rbt.Current_Directory>
/home/itssahil/PROJECTS/Mol_Feturizer/New_Systems/rnas/2O3Y

>  <Rbt.Executable>
rbdock ($Id: //depot/dev/client3/rdock/2013.1/src/exe/rbdock.cxx#4 $)

>  <Rbt.Library>
libRbt.so (2013.1, Build901 2013/11/27)

>  <Rbt.Parameter_File>
/export/apps/rDock/src/rDock_2013.1_src/data/scripts/dock_solv.prm

>  <Rbt.Receptor>
prm/pocket_docking_4.prm

>  <SCORE>
-3.76067

>  <SCORE.INTER>
5.43658

>  <SCORE.INTER.CONST>
1

>  <SCORE.INTER.POLAR>
0

>  <SCORE.INTER.ROT>
11

>  <SCORE.INTER.SOLV>
7.44552

>  <SCORE.INTER.VDW>
-9.79079

>  <SCORE.INTER.norm>
0.388327

>  <SCORE.INTRA>
-9.19725

>  <SCORE.INTRA.DIHEDRAL>
-19.5957

>  <SCORE.INTRA.DIHEDRAL.0>
24.1231

>  <SCORE.INTRA.POLAR>
0

>  <SCORE.INTRA.POLAR.0>
0

>  <SCORE.INTRA.REPUL>
0

>  <SCORE.INTRA.REPUL.0>
0

>  <SCORE.INTRA.SOLV>
0.173429

>  <SCORE.INTRA.SOLV.lig_0>
-48.2216

>  <SCORE.INTRA.VDW>
0.513866

>  <SCORE.INTRA.VDW.0>
-1.3967

>  <SCORE.INTRA.norm>
-0.656946

>  <SCORE.RESTR>
0

>  <SCORE.RESTR.CAVITY>
0

>  <SCORE.RESTR.norm>
0

>  <SCORE.SYSTEM>
0

>  <SCORE.SYSTEM.CONST>
0

>  <SCORE.SYSTEM.DIHEDRAL>
0

>  <SCORE.SYSTEM.SOLV>
0

>  <SCORE.SYSTEM.norm>
0

>  <SCORE.heavy>
14

>  <SCORE.norm>
-0.268619

>  <RMSD>
2.950

$$$$
ligand
 OpenBabel11021811463D
libRbt.so/2013.1/901 2013/11/27
 14 13  0  0  0  0  0  0  0  0999 V2000
   14.0855   13.0617    8.2834 N   0  0  0  0  0  0  0  0  0  0  0  0
   13.6744   11.7045    8.6670 C   0  0  0  0  0  0  0  0  0  0  0  0
   12.3456   11.7714    9.4127 C   0  0  0  0  0  0  0  0  0  0  0  0
   11.9664   10.3688    9.8585 C   0  0  0  0  0  0  0  0  0  0  0  0
   12.9134    9.9227   10.8867 N   0  0  0  0  0  0  0  0  0  0  0  0
   12.5699    8.5274   11.2117 C   0  0  0  0  0  0  0  0  0  0  0  0
   11.9909    8.4306   12.6277 C   0  0  0  0  0  0  0  0  0  0  0  0
   10.6561    9.1903   12.6554 C   0  0  0  0  0  0  0  0  0  0  0  0
   10.1275    9.2343   14.0285 C   0  0  0  0  0  0  0  0  0  0  0  0
   11.1101    9.9570   14.8615 N   0  0  0  0  0  0  0  0  0  0  0  0
   10.8046   11.4592   14.8561 C   0  0  0  0  0  0  0  0  0  0  0  0
   11.8825   12.2077   15.6494 C   0  0  0  0  0  0  0  0  0  0  0  0
   11.6216   13.6591   15.5974 C   0  0  0  0  0  0  0  0  0  0  0  0
   10.3490   13.9613   16.2872 N   0  0  0  0  0  0  0  0  0  0  0  0
  1  2  1  0  0  0  0
  2  3  1  0  0  0  0
  3  4  1  0  0  0  0
  4  5  1  0  0  0  0
  5  6  1  0  0  0  0
  6  7  1  0  0  0  0
  7  8  1  0  0  0  0
  8  9  1  0  0  0  0
  9 10  1  0  0  0  0
 10 11  1  0  0  0  0
 11 12  1  0  0  0  0
 12 13  1  0  0  0  0
 13 14  1  0  0  0  0
M  END
>  <CHROM.1>
-177.40659982,67.88893439,-175.76387040,-110.94330771,65.24702423,-174.54699980
61.32950957,89.57908553,-176.38761951,177.62730509,64.78765175,11.86400293
10.96082781,12.49162799,-0.57949318,1.16675147,0.47354775

>  <Name>
ligand

>  <RI>
0

>  <Rbt.Current_Directory>
/home/itssahil/PROJECTS/Mol_Feturizer/New_Systems/rnas/2O3Y

>  <Rbt.Executable>
rbdock ($Id: //depot/dev/client3/rdock/2013.1/src/exe/rbdock.cxx#4 $)

>  <Rbt.Library>
libRbt.so (2013.1, Build901 2013/11/27)

>  <Rbt.Parameter_File>
/export/apps/rDock/src/rDock_2013.1_src/data/scripts/dock_solv.prm

>  <Rbt.Receptor>
prm/pocket_docking_3.prm

>  <SCORE>
-4.18031

>  <SCORE.INTER>
4.78067

>  <SCORE.INTER.CONST>
1

>  <SCORE.INTER.POLAR>
0

>  <SCORE.INTER.ROT>
11

>  <SCORE.INTER.SOLV>
3.86492

>  <SCORE.INTER.VDW>
-9.03453

>  <SCORE.INTER.norm>
0.341476

>  <SCORE.INTRA>
-8.96098

>  <SCORE.INTRA.DIHEDRAL>
-21.778

>  <SCORE.INTRA.DIHEDRAL.0>
24.1231

>  <SCORE.INTRA.POLAR>
0

>  <SCORE.INTRA.POLAR.0>
0

>  <SCORE.INTRA.REPUL>
0

>  <SCORE.INTRA.REPUL.0>
0

>  <SCORE.INTRA.SOLV>
1.28379

>  <SCORE.INTRA.SOLV.lig_0>
-48.2216

>  <SCORE.INTRA.VDW>
1.28612

>  <SCORE.INTRA.VDW.0>
-1.3967

>  <SCORE.INTRA.norm>
-0.64007

>  <SCORE.RESTR>
0

>  <SCORE.RESTR.CAVITY>
0

>  <SCORE.RESTR.norm>
0

>  <SCORE.SYSTEM>
0

>  <SCORE.SYSTEM.CONST>
0

>  <SCORE.SYSTEM.DIHEDRAL>
0

>  <SCORE.SYSTEM.SOLV>
0

>  <SCORE.SYSTEM.norm>
0

>  <SCORE.heavy>
14

>  <SCORE.norm>
-0.298594

>  <RMSD>
2.960

$$$$
ligand
 OpenBabel11021811463D
libRbt.so/2013.1/901 2013/11/27
 14 13  0  0  0  0  0  0  0  0999 V2000
   18.6520    9.8217   10.4897 N   0  0  0  0  0  0  0  0  0  0  0  0
   17.5031    9.7927   11.4047 C   0  0  0  0  0  0  0  0  0  0  0  0
   16.3146   10.4843   10.7447 C   0  0  0  0  0  0  0  0  0  0  0  0
   15.8162    9.6124    9.6038 C   0  0  0  0  0  0  0  0  0  0  0  0
   14.7545   10.3270    8.8862 N   0  0  0  0  0  0  0  0  0  0  0  0
   13.4714    9.7774    9.3577 C   0  0  0  0  0  0  0  0  0  0  0  0
   12.4515   10.9008    9.5760 C   0  0  0  0  0  0  0  0  0  0  0  0
   11.1351   10.2701   10.0547 C   0  0  0  0  0  0  0  0  0  0  0  0
   10.1476   11.3216   10.3477 C   0  0  0  0  0  0  0  0  0  0  0  0
   10.6056   12.0394   11.5546 N   0  0  0  0  0  0  0  0  0  0  0  0
    9.5545   13.0670   11.9894 C   0  0  0  0  0  0  0  0  0  0  0  0
    9.4653   13.0977   13.5200 C   0  0  0  0  0  0  0  0  0  0  0  0
    8.3916   14.0195   13.9380 C   0  0  0  0  0  0  0  0  0  0  0  0
    8.2965   14.0367   15.4135 N   0  0  0  0  0  0  0  0  0  0  0  0
  1  2  1  0  0  0  0
  2  3  1  0  0  0  0
  3  4  1  0  0  0  0
  4  5  1  0  0  0  0
  5  6  1  0  0  0  0
  6  7  1  0  0  0  0
  7  8  1  0  0  0  0
  8  9  1  0  0  0  0
  9 10  1  0  0  0  0
 10 11  1  0  0  0  0
 11 12  1  0  0  0  0
 12 13  1  0  0  0  0
 13 14  1  0  0  0  0
M  END
>  <CHROM.1>
70.00022939,-174.80442230,-100.47402848,138.06408629,179.55941003,176.92017481
-69.44076577,-174.84982567,141.44285865,-176.22588451,179.37277011,12.61121048
11.32620468,11.20560375,-0.51960937,-0.20165884,1.10171653

>  <Name>
ligand

>  <RI>
0

>  <Rbt.Current_Directory>
/home/itssahil/PROJECTS/Mol_Feturizer/New_Systems/rnas/2O3Y

>  <Rbt.Executable>
rbdock ($Id: //depot/dev/client3/rdock/2013.1/src/exe/rbdock.cxx#4 $)

>  <Rbt.Library>
libRbt.so (2013.1, Build901 2013/11/27)

>  <Rbt.Parameter_File>
/export/apps/rDock/src/rDock_2013.1_src/data/scripts/dock_solv.prm

>  <Rbt.Receptor>
prm/pocket_docking_4.prm

>  <SCORE>
-4.77227

>  <SCORE.INTER>
4.776

>  <SCORE.INTER.CONST>
1

>  <SCORE.INTER.POLAR>
0

>  <SCORE.INTER.ROT>
11

>  <SCORE.INTER.SOLV>
5.00959

>  <SCORE.INTER.VDW>
-9.4192

>  <SCORE.INTER.norm>
0.341143

>  <SCORE.INTRA>
-9.54827

>  <SCORE.INTRA.DIHEDRAL>
-20.4803

>  <SCORE.INTRA.DIHEDRAL.0>
24.1231

>  <SCORE.INTRA.POLAR>
0

>  <SCORE.INTRA.POLAR.0>
0

>  <SCORE.INTRA.REPUL>
0

>  <SCORE.INTRA.REPUL.0>
0

>  <SCORE.INTRA.SOLV>
0.288588

>  <SCORE.INTRA.SOLV.lig_0>
-48.2216

>  <SCORE.INTRA.VDW>
0.547603

>  <SCORE.INTRA.VDW.0>
-1.3967

>  <SCORE.INTRA.norm>
-0.68202

>  <SCORE.RESTR>
0

>  <SCORE.RESTR.CAVITY>
0

>  <SCORE.RESTR.norm>
0

>  <SCORE.SYSTEM>
0

>  <SCORE.SYSTEM.CONST>
0

>  <SCORE.SYSTEM.DIHEDRAL>
0

>  <SCORE.SYSTEM.SOLV>
0

>  <SCORE.SYSTEM.norm>
0

>  <SCORE.heavy>
14

>  <SCORE.norm>
-0.340877

>  <RMSD>
2.960

$$$$
ligand
 OpenBabel11021811463D
libRbt.so/2013.1/901 2013/11/27
 14 13  0  0  0  0  0  0  0  0999 V2000
   15.1431   12.2723    7.4321 N   0  0  0  0  0  0  0  0  0  0  0  0
   14.6643   10.9247    7.7682 C   0  0  0  0  0  0  0  0  0  0  0  0
   13.7689   11.0001    9.0006 C   0  0  0  0  0  0  0  0  0  0  0  0
   13.4389    9.5861    9.4498 C   0  0  0  0  0  0  0  0  0  0  0  0
   12.6279    9.6506   10.6709 N   0  0  0  0  0  0  0  0  0  0  0  0
   12.7542    8.3444   11.3407 C   0  0  0  0  0  0  0  0  0  0  0  0
   12.0853    8.3788   12.7196 C   0  0  0  0  0  0  0  0  0  0  0  0
   10.5651    8.2851   12.5201 C   0  0  0  0  0  0  0  0  0  0  0  0
   10.0529    9.5374   11.9404 C   0  0  0  0  0  0  0  0  0  0  0  0
   10.3464   10.6242   12.8967 N   0  0  0  0  0  0  0  0  0  0  0  0
   10.2542   11.9844   12.1958 C   0  0  0  0  0  0  0  0  0  0  0  0
   10.5657   13.1029   13.1976 C   0  0  0  0  0  0  0  0  0  0  0  0
   10.4827   14.4128   12.5232 C   0  0  0  0  0  0  0  0  0  0  0  0
   10.7897   15.4901   13.4885 N   0  0  0  0  0  0  0  0  0  0  0  0
  1  2  1  0  0  0  0
  2  3  1  0  0  0  0
  3  4  1  0  0  0  0
  4  5  1  0  0  0  0
  5  6  1  0  0  0  0
  6  7  1  0  0  0  0
  7  8  1  0  0  0  0
  8  9  1  0  0  0  0
  9 10  1  0  0  0  0
 10 11  1  0  0  0  0
 11 12  1  0  0  0  0
 12 13  1  0  0  0  0
 13 14  1  0  0  0  0
M  END
>  <CHROM.1>
-172.24863887,177.45602590,-159.21752130,172.68640086,76.99350155,-70.94707827
-61.34195489,162.15527098,-179.80400685,179.76886465,-179.72716457,11.96697367
10.97056452,11.22462203,-0.38323505,0.86324079,-0.03060904

>  <Name>
ligand

>  <RI>
0

>  <Rbt.Current_Directory>
/home/itssahil/PROJECTS/Mol_Feturizer/New_Systems/rnas/2O3Y

>  <Rbt.Executable>
rbdock ($Id: //depot/dev/client3/rdock/2013.1/src/exe/rbdock.cxx#4 $)

>  <Rbt.Library>
libRbt.so (2013.1, Build901 2013/11/27)

>  <Rbt.Parameter_File>
/export/apps/rDock/src/rDock_2013.1_src/data/scripts/dock_solv.prm

>  <Rbt.Receptor>
prm/pocket_docking_4.prm

>  <SCORE>
-5.35769

>  <SCORE.INTER>
3.59109

>  <SCORE.INTER.CONST>
1

>  <SCORE.INTER.POLAR>
0

>  <SCORE.INTER.ROT>
11

>  <SCORE.INTER.SOLV>
6.1259

>  <SCORE.INTER.VDW>
-10.5812

>  <SCORE.INTER.norm>
0.256507

>  <SCORE.INTRA>
-8.94879

>  <SCORE.INTRA.DIHEDRAL>
-21.7473

>  <SCORE.INTRA.DIHEDRAL.0>
24.1231

>  <SCORE.INTRA.POLAR>
0

>  <SCORE.INTRA.POLAR.0>
0

>  <SCORE.INTRA.REPUL>
0

>  <SCORE.INTRA.REPUL.0>
0

>  <SCORE.INTRA.SOLV>
1.55416

>  <SCORE.INTRA.SOLV.lig_0>
-48.2216

>  <SCORE.INTRA.VDW>
1.1478

>  <SCORE.INTRA.VDW.0>
-1.3967

>  <SCORE.INTRA.norm>
-0.639199

>  <SCORE.RESTR>
0

>  <SCORE.RESTR.CAVITY>
0

>  <SCORE.RESTR.norm>
0

>  <SCORE.SYSTEM>
0

>  <SCORE.SYSTEM.CONST>
0

>  <SCORE.SYSTEM.DIHEDRAL>
0

>  <SCORE.SYSTEM.SOLV>
0

>  <SCORE.SYSTEM.norm>
0

>  <SCORE.heavy>
14

>  <SCORE.norm>
-0.382692

>  <RMSD>
2.970

$$$$
ligand
 OpenBabel11021811463D
libRbt.so/2013.1/901 2013/11/27
 14 13  0  0  0  0  0  0  0  0999 V2000
   15.1280   11.4704    8.5922 N   0  0  0  0  0  0  0  0  0  0  0  0
   15.3534   10.0482    8.3010 C   0  0  0  0  0  0  0  0  0  0  0  0
   14.1131    9.2505    8.6904 C   0  0  0  0  0  0  0  0  0  0  0  0
   13.9464    9.3159   10.1997 C   0  0  0  0  0  0  0  0  0  0  0  0
   12.7756    8.5198   10.5851 N   0  0  0  0  0  0  0  0  0  0  0  0
   12.6045    8.6825   12.0394 C   0  0  0  0  0  0  0  0  0  0  0  0
   11.1168    8.6985   12.4087 C   0  0  0  0  0  0  0  0  0  0  0  0
   10.4507    9.8718   11.6744 C   0  0  0  0  0  0  0  0  0  0  0  0
   10.9141   11.1500   12.2383 C   0  0  0  0  0  0  0  0  0  0  0  0
   10.5032   11.1867   13.6566 N   0  0  0  0  0  0  0  0  0  0  0  0
   11.1584   12.3770   14.3663 C   0  0  0  0  0  0  0  0  0  0  0  0
   10.9002   12.2838   15.8750 C   0  0  0  0  0  0  0  0  0  0  0  0
   11.4725   13.4634   16.5521 C   0  0  0  0  0  0  0  0  0  0  0  0
   10.7075   14.6722   16.1780 N   0  0  0  0  0  0  0  0  0  0  0  0
  1  2  1  0  0  0  0
  2  3  1  0  0  0  0
  3  4  1  0  0  0  0
  4  5  1  0  0  0  0
  5  6  1  0  0  0  0
  6  7  1  0  0  0  0
  7  8  1  0  0  0  0
  8  9  1  0  0  0  0
  9 10  1  0  0  0  0
 10 11  1  0  0  0  0
 11 12  1  0  0  0  0
 12 13  1  0  0  0  0
 13 14  1  0  0  0  0
M  END
>  <CHROM.1>
-66.16509436,-178.46501962,-176.47566394,144.54629558,-59.78005121,-69.51849362
-61.79857192,170.33197795,-171.40252425,-177.20865438,68.47970201,12.22457504
10.78477522,12.23979652,-0.95154547,0.76319666,0.62164934

>  <Name>
ligand

>  <RI>
0

>  <Rbt.Current_Directory>
/home/itssahil/PROJECTS/Mol_Feturizer/New_Systems/rnas/2O3Y

>  <Rbt.Executable>
rbdock ($Id: //depot/dev/client3/rdock/2013.1/src/exe/rbdock.cxx#4 $)

>  <Rbt.Library>
libRbt.so (2013.1, Build901 2013/11/27)

>  <Rbt.Parameter_File>
/export/apps/rDock/src/rDock_2013.1_src/data/scripts/dock_solv.prm

>  <Rbt.Receptor>
prm/pocket_docking_3.prm

>  <SCORE>
-3.07965

>  <SCORE.INTER>
5.31825

>  <SCORE.INTER.CONST>
1

>  <SCORE.INTER.POLAR>
0

>  <SCORE.INTER.ROT>
11

>  <SCORE.INTER.SOLV>
5.74293

>  <SCORE.INTER.VDW>
-9.30214

>  <SCORE.INTER.norm>
0.379875

>  <SCORE.INTRA>
-8.3979

>  <SCORE.INTRA.DIHEDRAL>
-22.3757

>  <SCORE.INTRA.DIHEDRAL.0>
24.1231

>  <SCORE.INTRA.POLAR>
0

>  <SCORE.INTRA.POLAR.0>
0

>  <SCORE.INTRA.REPUL>
0

>  <SCORE.INTRA.REPUL.0>
0

>  <SCORE.INTRA.SOLV>
2.07521

>  <SCORE.INTRA.SOLV.lig_0>
-48.2216

>  <SCORE.INTRA.VDW>
1.75236

>  <SCORE.INTRA.VDW.0>
-1.3967

>  <SCORE.INTRA.norm>
-0.59985

>  <SCORE.RESTR>
0

>  <SCORE.RESTR.CAVITY>
0

>  <SCORE.RESTR.norm>
0

>  <SCORE.SYSTEM>
0

>  <SCORE.SYSTEM.CONST>
0

>  <SCORE.SYSTEM.DIHEDRAL>
0

>  <SCORE.SYSTEM.SOLV>
0

>  <SCORE.SYSTEM.norm>
0

>  <SCORE.heavy>
14

>  <SCORE.norm>
-0.219975

>  <RMSD>
2.978

$$$$
ligand
 OpenBabel11021811463D
libRbt.so/2013.1/901 2013/11/27
 14 13  0  0  0  0  0  0  0  0999 V2000
    9.8968   16.3982   12.6471 N   0  0  0  0  0  0  0  0  0  0  0  0
    8.8352   15.7044   13.3886 C   0  0  0  0  0  0  0  0  0  0  0  0
    8.7582   14.2545   12.9217 C   0  0  0  0  0  0  0  0  0  0  0  0
   10.0585   13.5563   13.2848 C   0  0  0  0  0  0  0  0  0  0  0  0
    9.9419   12.1308   12.9574 N   0  0  0  0  0  0  0  0  0  0  0  0
   10.6115   11.9312   11.6603 C   0  0  0  0  0  0  0  0  0  0  0  0
   10.8432   10.4388   11.3973 C   0  0  0  0  0  0  0  0  0  0  0  0
   11.4004   10.2812    9.9745 C   0  0  0  0  0  0  0  0  0  0  0  0
   12.7971   10.7431    9.9242 C   0  0  0  0  0  0  0  0  0  0  0  0
   13.2506   10.6393    8.5223 N   0  0  0  0  0  0  0  0  0  0  0  0
   14.5960   11.3529    8.3477 C   0  0  0  0  0  0  0  0  0  0  0  0
   14.3585   12.8462    8.0922 C   0  0  0  0  0  0  0  0  0  0  0  0
   15.6530   13.5362    7.9322 C   0  0  0  0  0  0  0  0  0  0  0  0
   16.4025   13.4903    9.2060 N   0  0  0  0  0  0  0  0  0  0  0  0
  1  2  1  0  0  0  0
  2  3  1  0  0  0  0
  3  4  1  0  0  0  0
  4  5  1  0  0  0  0
  5  6  1  0  0  0  0
  6  7  1  0  0  0  0
  7  8  1  0  0  0  0
  8  9  1  0  0  0  0
  9 10  1  0  0  0  0
 10 11  1  0  0  0  0
 11 12  1  0  0  0  0
 12 13  1  0  0  0  0
 13 14  1  0  0  0  0
M  END
>  <CHROM.1>
64.37210966,174.53421329,99.27416161,166.17630423,173.92735931,72.78425831
-176.84803463,169.08550877,-85.20665989,179.65128633,-65.61528428,11.95720818
12.66432194,10.73255222,-2.69408088,-0.62528893,-2.90631835

>  <Name>
ligand

>  <RI>
0

>  <Rbt.Current_Directory>
/home/itssahil/PROJECTS/Mol_Feturizer/New_Systems/rnas/2O3Y

>  <Rbt.Executable>
rbdock ($Id: //depot/dev/client3/rdock/2013.1/src/exe/rbdock.cxx#4 $)

>  <Rbt.Library>
libRbt.so (2013.1, Build901 2013/11/27)

>  <Rbt.Parameter_File>
/export/apps/rDock/src/rDock_2013.1_src/data/scripts/dock_solv.prm

>  <Rbt.Receptor>
prm/pocket_docking_3.prm

>  <SCORE>
-2.81969

>  <SCORE.INTER>
5.57421

>  <SCORE.INTER.CONST>
1

>  <SCORE.INTER.POLAR>
0

>  <SCORE.INTER.ROT>
11

>  <SCORE.INTER.SOLV>
5.53046

>  <SCORE.INTER.VDW>
-9.06068

>  <SCORE.INTER.norm>
0.398158

>  <SCORE.INTRA>
-8.39772

>  <SCORE.INTRA.DIHEDRAL>
-21.407

>  <SCORE.INTRA.DIHEDRAL.0>
24.1231

>  <SCORE.INTRA.POLAR>
0

>  <SCORE.INTRA.POLAR.0>
0

>  <SCORE.INTRA.REPUL>
0

>  <SCORE.INTRA.REPUL.0>
0

>  <SCORE.INTRA.SOLV>
1.07752

>  <SCORE.INTRA.SOLV.lig_0>
-48.2216

>  <SCORE.INTRA.VDW>
1.767

>  <SCORE.INTRA.VDW.0>
-1.3967

>  <SCORE.INTRA.norm>
-0.599837

>  <SCORE.RESTR>
0.00382846

>  <SCORE.RESTR.CAVITY>
0.00382846

>  <SCORE.RESTR.norm>
0.000273462

>  <SCORE.SYSTEM>
0

>  <SCORE.SYSTEM.CONST>
0

>  <SCORE.SYSTEM.DIHEDRAL>
0

>  <SCORE.SYSTEM.SOLV>
0

>  <SCORE.SYSTEM.norm>
0

>  <SCORE.heavy>
14

>  <SCORE.norm>
-0.201406

>  <RMSD>
2.987

$$$$
ligand
 OpenBabel11021811463D
libRbt.so/2013.1/901 2013/11/27
 14 13  0  0  0  0  0  0  0  0999 V2000
   13.9806   10.6804   14.5724 N   0  0  0  0  0  0  0  0  0  0  0  0
   12.8159    9.7941   14.6996 C   0  0  0  0  0  0  0  0  0  0  0  0
   13.1790    8.4061   14.1819 C   0  0  0  0  0  0  0  0  0  0  0  0
   13.4378    8.4965   12.6869 C   0  0  0  0  0  0  0  0  0  0  0  0
   12.2197    8.9702   12.0199 N   0  0  0  0  0  0  0  0  0  0  0  0
   12.5491    9.1421   10.5942 C   0  0  0  0  0  0  0  0  0  0  0  0
   12.9591   10.5910   10.3066 C   0  0  0  0  0  0  0  0  0  0  0  0
   13.3397   10.6984    8.8223 C   0  0  0  0  0  0  0  0  0  0  0  0
   13.8351   12.0520    8.5238 C   0  0  0  0  0  0  0  0  0  0  0  0
   15.1047   12.2337    9.2565 N   0  0  0  0  0  0  0  0  0  0  0  0
   15.0305   13.4835   10.1409 C   0  0  0  0  0  0  0  0  0  0  0  0
   16.0684   13.3822   11.2652 C   0  0  0  0  0  0  0  0  0  0  0  0
   17.4234   13.3024   10.6864 C   0  0  0  0  0  0  0  0  0  0  0  0
   17.7751   14.5958   10.0618 N   0  0  0  0  0  0  0  0  0  0  0  0
  1  2  1  0  0  0  0
  2  3  1  0  0  0  0
  3  4  1  0  0  0  0
  4  5  1  0  0  0  0
  5  6  1  0  0  0  0
  6  7  1  0  0  0  0
  7  8  1  0  0  0  0
  8  9  1  0  0  0  0
  9 10  1  0  0  0  0
 10 11  1  0  0  0  0
 11 12  1  0  0  0  0
 12 13  1  0  0  0  0
 13 14  1  0  0  0  0
M  END
>  <CHROM.1>
-66.11390258,-60.49649213,175.66811667,-94.21048591,177.93559031,-175.86133774
66.19019074,-124.92927647,158.30108070,61.10227285,68.82086613,14.26538418
11.13040683,11.27267791,-2.39485363,-0.77838105,-1.29869941

>  <Name>
ligand

>  <RI>
0

>  <Rbt.Current_Directory>
/home/itssahil/PROJECTS/Mol_Feturizer/New_Systems/rnas/2O3Y

>  <Rbt.Executable>
rbdock ($Id: //depot/dev/client3/rdock/2013.1/src/exe/rbdock.cxx#4 $)

>  <Rbt.Library>
libRbt.so (2013.1, Build901 2013/11/27)

>  <Rbt.Parameter_File>
/export/apps/rDock/src/rDock_2013.1_src/data/scripts/dock_solv.prm

>  <Rbt.Receptor>
prm/pocket_docking_2.prm

>  <SCORE>
1.37575

>  <SCORE.INTER>
9.04476

>  <SCORE.INTER.CONST>
1

>  <SCORE.INTER.POLAR>
0

>  <SCORE.INTER.ROT>
11

>  <SCORE.INTER.SOLV>
3.02295

>  <SCORE.INTER.VDW>
-5.91114

>  <SCORE.INTER.norm>
0.646054

>  <SCORE.INTRA>
-7.66901

>  <SCORE.INTRA.DIHEDRAL>
-21.1828

>  <SCORE.INTRA.DIHEDRAL.0>
24.1231

>  <SCORE.INTRA.POLAR>
0

>  <SCORE.INTRA.POLAR.0>
0

>  <SCORE.INTRA.REPUL>
0

>  <SCORE.INTRA.REPUL.0>
0

>  <SCORE.INTRA.SOLV>
3.54794

>  <SCORE.INTRA.SOLV.lig_0>
-48.2216

>  <SCORE.INTRA.VDW>
1.1484

>  <SCORE.INTRA.VDW.0>
-1.3967

>  <SCORE.INTRA.norm>
-0.547786

>  <SCORE.RESTR>
0

>  <SCORE.RESTR.CAVITY>
0

>  <SCORE.RESTR.norm>
0

>  <SCORE.SYSTEM>
0

>  <SCORE.SYSTEM.CONST>
0

>  <SCORE.SYSTEM.DIHEDRAL>
0

>  <SCORE.SYSTEM.SOLV>
0

>  <SCORE.SYSTEM.norm>
0

>  <SCORE.heavy>
14

>  <SCORE.norm>
0.098268

>  <RMSD>
3.006

$$$$
ligand
 OpenBabel11021811463D
libRbt.so/2013.1/901 2013/11/27
 14 13  0  0  0  0  0  0  0  0999 V2000
   12.1032   11.5957   15.3012 N   0  0  0  0  0  0  0  0  0  0  0  0
   10.7772   11.0401   15.6031 C   0  0  0  0  0  0  0  0  0  0  0  0
   10.8917    9.5297   15.7819 C   0  0  0  0  0  0  0  0  0  0  0  0
   11.1834    8.9001   14.4297 C   0  0  0  0  0  0  0  0  0  0  0  0
    9.9640    8.9347   13.6144 N   0  0  0  0  0  0  0  0  0  0  0  0
   10.3859    8.8487   12.2054 C   0  0  0  0  0  0  0  0  0  0  0  0
   10.5960   10.2495   11.6192 C   0  0  0  0  0  0  0  0  0  0  0  0
   11.5835   10.1385   10.4479 C   0  0  0  0  0  0  0  0  0  0  0  0
   11.8506   11.4713    9.8833 C   0  0  0  0  0  0  0  0  0  0  0  0
   12.9434   11.3281    8.8999 N   0  0  0  0  0  0  0  0  0  0  0  0
   13.0418   12.5877    8.0318 C   0  0  0  0  0  0  0  0  0  0  0  0
   14.4884   13.0966    8.0235 C   0  0  0  0  0  0  0  0  0  0  0  0
   14.8479   13.5975    9.3641 C   0  0  0  0  0  0  0  0  0  0  0  0
   16.2621   14.0294    9.3716 N   0  0  0  0  0  0  0  0  0  0  0  0
  1  2  1  0  0  0  0
  2  3  1  0  0  0  0
  3  4  1  0  0  0  0
  4  5  1  0  0  0  0
  5  6  1  0  0  0  0
  6  7  1  0  0  0  0
  7  8  1  0  0  0  0
  8  9  1  0  0  0  0
  9 10  1  0  0  0  0
 10 11  1  0  0  0  0
 11 12  1  0  0  0  0
 12 13  1  0  0  0  0
 13 14  1  0  0  0  0
M  END
>  <CHROM.1>
-70.02429953,-73.46705454,157.41040528,-91.11374006,155.25386305,-178.05536383
172.00324587,166.14322668,128.75218336,-67.90382281,177.37276361,12.20826518
11.09611447,11.61256161,-2.28595467,-0.76718774,-1.60557535

>  <Name>
ligand

>  <RI>
0

>  <Rbt.Current_Directory>
/home/itssahil/PROJECTS/Mol_Feturizer/New_Systems/rnas/2O3Y

>  <Rbt.Executable>
rbdock ($Id: //depot/dev/client3/rdock/2013.1/src/exe/rbdock.cxx#4 $)

>  <Rbt.Library>
libRbt.so (2013.1, Build901 2013/11/27)

>  <Rbt.Parameter_File>
/export/apps/rDock/src/rDock_2013.1_src/data/scripts/dock_solv.prm

>  <Rbt.Receptor>
prm/pocket_docking_3.prm

>  <SCORE>
-3.40385

>  <SCORE.INTER>
4.55266

>  <SCORE.INTER.CONST>
1

>  <SCORE.INTER.POLAR>
0

>  <SCORE.INTER.ROT>
11

>  <SCORE.INTER.SOLV>
3.28519

>  <SCORE.INTER.VDW>
-8.99329

>  <SCORE.INTER.norm>
0.32519

>  <SCORE.INTRA>
-8.00942

>  <SCORE.INTRA.DIHEDRAL>
-18.2726

>  <SCORE.INTRA.DIHEDRAL.0>
24.1231

>  <SCORE.INTRA.POLAR>
0

>  <SCORE.INTRA.POLAR.0>
0

>  <SCORE.INTRA.REPUL>
0

>  <SCORE.INTRA.REPUL.0>
0

>  <SCORE.INTRA.SOLV>
1.53844

>  <SCORE.INTRA.SOLV.lig_0>
-48.2216

>  <SCORE.INTRA.VDW>
0.357662

>  <SCORE.INTRA.VDW.0>
-1.3967

>  <SCORE.INTRA.norm>
-0.572101

>  <SCORE.RESTR>
0.0529066

>  <SCORE.RESTR.CAVITY>
0.0529066

>  <SCORE.RESTR.norm>
0.00377905

>  <SCORE.SYSTEM>
0

>  <SCORE.SYSTEM.CONST>
0

>  <SCORE.SYSTEM.DIHEDRAL>
0

>  <SCORE.SYSTEM.SOLV>
0

>  <SCORE.SYSTEM.norm>
0

>  <SCORE.heavy>
14

>  <SCORE.norm>
-0.243132

>  <RMSD>
3.007

$$$$
ligand
 OpenBabel11021811463D
libRbt.so/2013.1/901 2013/11/27
 14 13  0  0  0  0  0  0  0  0999 V2000
    8.7878   14.9267   13.4044 N   0  0  0  0  0  0  0  0  0  0  0  0
    8.6693   13.4695   13.5484 C   0  0  0  0  0  0  0  0  0  0  0  0
    9.8179   12.9522   14.4082 C   0  0  0  0  0  0  0  0  0  0  0  0
    9.6455   11.4545   14.6009 C   0  0  0  0  0  0  0  0  0  0  0  0
    9.8965   10.7773   13.3237 N   0  0  0  0  0  0  0  0  0  0  0  0
    9.9500    9.3323   13.6062 C   0  0  0  0  0  0  0  0  0  0  0  0
   10.6175    8.5811   12.4486 C   0  0  0  0  0  0  0  0  0  0  0  0
   12.0358    9.1417   12.2647 C   0  0  0  0  0  0  0  0  0  0  0  0
   12.7209    8.4352   11.1700 C   0  0  0  0  0  0  0  0  0  0  0  0
   13.9840    9.1514   10.8990 N   0  0  0  0  0  0  0  0  0  0  0  0
   14.1530    9.3734    9.3917 C   0  0  0  0  0  0  0  0  0  0  0  0
   13.3758   10.6243    8.9643 C   0  0  0  0  0  0  0  0  0  0  0  0
   13.9680   11.8189    9.5964 C   0  0  0  0  0  0  0  0  0  0  0  0
   13.2075   13.0224    9.1968 N   0  0  0  0  0  0  0  0  0  0  0  0
  1  2  1  0  0  0  0
  2  3  1  0  0  0  0
  3  4  1  0  0  0  0
  4  5  1  0  0  0  0
  5  6  1  0  0  0  0
  6  7  1  0  0  0  0
  7  8  1  0  0  0  0
  8  9  1  0  0  0  0
  9 10  1  0  0  0  0
 10 11  1  0  0  0  0
 11 12  1  0  0  0  0
 12 13  1  0  0  0  0
 13 14  1  0  0  0  0
M  END
>  <CHROM.1>
177.41718231,69.79552027,170.37681871,-162.80269884,59.01240636,179.32394735
171.19149793,-132.88207183,83.32175358,65.09363237,-179.30814108,11.48784263
10.93249284,11.91603756,-2.91196228,-0.80754565,2.86716795

>  <Name>
ligand

>  <RI>
0

>  <Rbt.Current_Directory>
/home/itssahil/PROJECTS/Mol_Feturizer/New_Systems/rnas/2O3Y

>  <Rbt.Executable>
rbdock ($Id: //depot/dev/client3/rdock/2013.1/src/exe/rbdock.cxx#4 $)

>  <Rbt.Library>
libRbt.so (2013.1, Build901 2013/11/27)

>  <Rbt.Parameter_File>
/export/apps/rDock/src/rDock_2013.1_src/data/scripts/dock_solv.prm

>  <Rbt.Receptor>
prm/pocket_docking_3.prm

>  <SCORE>
-4.10748

>  <SCORE.INTER>
5.89302

>  <SCORE.INTER.CONST>
1

>  <SCORE.INTER.POLAR>
0

>  <SCORE.INTER.ROT>
11

>  <SCORE.INTER.SOLV>
5.29734

>  <SCORE.INTER.VDW>
-8.77043

>  <SCORE.INTER.norm>
0.42093

>  <SCORE.INTRA>
-10.0005

>  <SCORE.INTRA.DIHEDRAL>
-21.5845

>  <SCORE.INTRA.DIHEDRAL.0>
24.1231

>  <SCORE.INTRA.POLAR>
0

>  <SCORE.INTRA.POLAR.0>
0

>  <SCORE.INTRA.REPUL>
0

>  <SCORE.INTRA.REPUL.0>
0

>  <SCORE.INTRA.SOLV>
0.320413

>  <SCORE.INTRA.SOLV.lig_0>
-48.2216

>  <SCORE.INTRA.VDW>
0.631552

>  <SCORE.INTRA.VDW.0>
-1.3967

>  <SCORE.INTRA.norm>
-0.714322

>  <SCORE.RESTR>
0

>  <SCORE.RESTR.CAVITY>
0

>  <SCORE.RESTR.norm>
0

>  <SCORE.SYSTEM>
0

>  <SCORE.SYSTEM.CONST>
0

>  <SCORE.SYSTEM.DIHEDRAL>
0

>  <SCORE.SYSTEM.SOLV>
0

>  <SCORE.SYSTEM.norm>
0

>  <SCORE.heavy>
14

>  <SCORE.norm>
-0.293392

>  <RMSD>
3.015

$$$$
ligand
 OpenBabel11021811463D
libRbt.so/2013.1/901 2013/11/27
 14 13  0  0  0  0  0  0  0  0999 V2000
   10.7602   16.0594   15.4047 N   0  0  0  0  0  0  0  0  0  0  0  0
   10.6514   15.3136   14.1437 C   0  0  0  0  0  0  0  0  0  0  0  0
    9.4500   14.3766   14.2135 C   0  0  0  0  0  0  0  0  0  0  0  0
    9.3538   13.6102   12.9045 C   0  0  0  0  0  0  0  0  0  0  0  0
   10.5001   12.7003   12.7993 N   0  0  0  0  0  0  0  0  0  0  0  0
   10.4359   12.0801   11.4644 C   0  0  0  0  0  0  0  0  0  0  0  0
   11.5572   11.0486   11.2948 C   0  0  0  0  0  0  0  0  0  0  0  0
   11.4526   10.4510    9.8836 C   0  0  0  0  0  0  0  0  0  0  0  0
   12.5380    9.4815    9.6631 C   0  0  0  0  0  0  0  0  0  0  0  0
   13.8035   10.2392    9.5850 N   0  0  0  0  0  0  0  0  0  0  0  0
   14.8927    9.3831    8.9287 C   0  0  0  0  0  0  0  0  0  0  0  0
   15.5370    8.4726    9.9810 C   0  0  0  0  0  0  0  0  0  0  0  0
   16.1756    9.2946   11.0271 C   0  0  0  0  0  0  0  0  0  0  0  0
   17.3119   10.0428   10.4479 N   0  0  0  0  0  0  0  0  0  0  0  0
  1  2  1  0  0  0  0
  2  3  1  0  0  0  0
  3  4  1  0  0  0  0
  4  5  1  0  0  0  0
  5  6  1  0  0  0  0
  6  7  1  0  0  0  0
  7  8  1  0  0  0  0
  8  9  1  0  0  0  0
  9 10  1  0  0  0  0
 10 11  1  0  0  0  0
 11 12  1  0  0  0  0
 12 13  1  0  0  0  0
 13 14  1  0  0  0  0
M  END
>  <CHROM.1>
-179.83172636,67.57253088,-174.56251988,-176.79019756,-179.24227331,178.32712017
-69.53342318,-162.14849796,-83.70894315,-61.67458000,-66.03700807,12.45829466
11.61070297,11.55275370,-2.24498828,0.14102920,-2.36551062

>  <Name>
ligand

>  <RI>
0

>  <Rbt.Current_Directory>
/home/itssahil/PROJECTS/Mol_Feturizer/New_Systems/rnas/2O3Y

>  <Rbt.Executable>
rbdock ($Id: //depot/dev/client3/rdock/2013.1/src/exe/rbdock.cxx#4 $)

>  <Rbt.Library>
libRbt.so (2013.1, Build901 2013/11/27)

>  <Rbt.Parameter_File>
/export/apps/rDock/src/rDock_2013.1_src/data/scripts/dock_solv.prm

>  <Rbt.Receptor>
prm/pocket_docking_3.prm

>  <SCORE>
-3.32037

>  <SCORE.INTER>
6.13345

>  <SCORE.INTER.CONST>
1

>  <SCORE.INTER.POLAR>
0

>  <SCORE.INTER.ROT>
11

>  <SCORE.INTER.SOLV>
4.705

>  <SCORE.INTER.VDW>
-8.4127

>  <SCORE.INTER.norm>
0.438104

>  <SCORE.INTRA>
-9.45383

>  <SCORE.INTRA.DIHEDRAL>
-22.7288

>  <SCORE.INTRA.DIHEDRAL.0>
24.1231

>  <SCORE.INTRA.POLAR>
0

>  <SCORE.INTRA.POLAR.0>
0

>  <SCORE.INTRA.REPUL>
0

>  <SCORE.INTRA.REPUL.0>
0

>  <SCORE.INTRA.SOLV>
1.75718

>  <SCORE.INTRA.SOLV.lig_0>
-48.2216

>  <SCORE.INTRA.VDW>
1.03197

>  <SCORE.INTRA.VDW.0>
-1.3967

>  <SCORE.INTRA.norm>
-0.675273

>  <SCORE.RESTR>
0

>  <SCORE.RESTR.CAVITY>
0

>  <SCORE.RESTR.norm>
0

>  <SCORE.SYSTEM>
0

>  <SCORE.SYSTEM.CONST>
0

>  <SCORE.SYSTEM.DIHEDRAL>
0

>  <SCORE.SYSTEM.SOLV>
0

>  <SCORE.SYSTEM.norm>
0

>  <SCORE.heavy>
14

>  <SCORE.norm>
-0.23717

>  <RMSD>
3.024

$$$$
ligand
 OpenBabel11021811463D
libRbt.so/2013.1/901 2013/11/27
 14 13  0  0  0  0  0  0  0  0999 V2000
   10.7175   16.5173   16.0698 N   0  0  0  0  0  0  0  0  0  0  0  0
   10.9259   15.0633   16.0441 C   0  0  0  0  0  0  0  0  0  0  0  0
   11.8606   14.7078   14.8925 C   0  0  0  0  0  0  0  0  0  0  0  0
   11.8874   13.1962   14.7363 C   0  0  0  0  0  0  0  0  0  0  0  0
   10.5777   12.7431   14.2545 N   0  0  0  0  0  0  0  0  0  0  0  0
   10.7943   11.4618   13.5603 C   0  0  0  0  0  0  0  0  0  0  0  0
   10.9253   11.6828   12.0490 C   0  0  0  0  0  0  0  0  0  0  0  0
   11.1933   10.3240   11.3848 C   0  0  0  0  0  0  0  0  0  0  0  0
   11.4157   10.5019    9.9407 C   0  0  0  0  0  0  0  0  0  0  0  0
   12.6588   11.2820    9.7739 N   0  0  0  0  0  0  0  0  0  0  0  0
   12.4489   12.3973    8.7434 C   0  0  0  0  0  0  0  0  0  0  0  0
   13.8035   13.0011    8.3536 C   0  0  0  0  0  0  0  0  0  0  0  0
   14.6293   11.9795    7.6815 C   0  0  0  0  0  0  0  0  0  0  0  0
   15.9896   12.5115    7.4509 N   0  0  0  0  0  0  0  0  0  0  0  0
  1  2  1  0  0  0  0
  2  3  1  0  0  0  0
  3  4  1  0  0  0  0
  4  5  1  0  0  0  0
  5  6  1  0  0  0  0
  6  7  1  0  0  0  0
  7  8  1  0  0  0  0
  8  9  1  0  0  0  0
  9 10  1  0  0  0  0
 10 11  1  0  0  0  0
 11 12  1  0  0  0  0
 12 13  1  0  0  0  0
 13 14  1  0  0  0  0
M  END
>  <CHROM.1>
-170.88452204,68.30493826,155.19938714,-96.42984273,178.22622555,-176.22719926
65.22099420,-134.09373365,-167.83919758,64.06469458,-173.28846623,12.13040840
12.66902305,11.78105212,-2.14191053,-0.83489387,-2.36234352

>  <Name>
ligand

>  <RI>
0

>  <Rbt.Current_Directory>
/home/itssahil/PROJECTS/Mol_Feturizer/New_Systems/rnas/2O3Y

>  <Rbt.Executable>
rbdock ($Id: //depot/dev/client3/rdock/2013.1/src/exe/rbdock.cxx#4 $)

>  <Rbt.Library>
libRbt.so (2013.1, Build901 2013/11/27)

>  <Rbt.Parameter_File>
/export/apps/rDock/src/rDock_2013.1_src/data/scripts/dock_solv.prm

>  <Rbt.Receptor>
prm/pocket_docking_3.prm

>  <SCORE>
-4.52421

>  <SCORE.INTER>
4.88364

>  <SCORE.INTER.CONST>
1

>  <SCORE.INTER.POLAR>
0

>  <SCORE.INTER.ROT>
11

>  <SCORE.INTER.SOLV>
3.24189

>  <SCORE.INTER.VDW>
-8.7582

>  <SCORE.INTER.norm>
0.348831

>  <SCORE.INTRA>
-9.40785

>  <SCORE.INTRA.DIHEDRAL>
-20.7546

>  <SCORE.INTRA.DIHEDRAL.0>
24.1231

>  <SCORE.INTRA.POLAR>
0

>  <SCORE.INTRA.POLAR.0>
0

>  <SCORE.INTRA.REPUL>
0

>  <SCORE.INTRA.REPUL.0>
0

>  <SCORE.INTRA.SOLV>
0.507793

>  <SCORE.INTRA.SOLV.lig_0>
-48.2216

>  <SCORE.INTRA.VDW>
0.715559

>  <SCORE.INTRA.VDW.0>
-1.3967

>  <SCORE.INTRA.norm>
-0.671989

>  <SCORE.RESTR>
0

>  <SCORE.RESTR.CAVITY>
0

>  <SCORE.RESTR.norm>
0

>  <SCORE.SYSTEM>
0

>  <SCORE.SYSTEM.CONST>
0

>  <SCORE.SYSTEM.DIHEDRAL>
0

>  <SCORE.SYSTEM.SOLV>
0

>  <SCORE.SYSTEM.norm>
0

>  <SCORE.heavy>
14

>  <SCORE.norm>
-0.323158

>  <RMSD>
3.068

$$$$
ligand
 OpenBabel11021811463D
libRbt.so/2013.1/901 2013/11/27
 14 13  0  0  0  0  0  0  0  0999 V2000
   13.9696   14.0339    9.4723 N   0  0  0  0  0  0  0  0  0  0  0  0
   14.1834   12.9680    8.4842 C   0  0  0  0  0  0  0  0  0  0  0  0
   15.2683   12.0223    8.9888 C   0  0  0  0  0  0  0  0  0  0  0  0
   15.4228   10.8836    7.9939 C   0  0  0  0  0  0  0  0  0  0  0  0
   16.3896    9.9154    8.5236 N   0  0  0  0  0  0  0  0  0  0  0  0
   15.7319    8.5971    8.5061 C   0  0  0  0  0  0  0  0  0  0  0  0
   15.2542    8.2144    9.9115 C   0  0  0  0  0  0  0  0  0  0  0  0
   13.9771    9.0105   10.2196 C   0  0  0  0  0  0  0  0  0  0  0  0
   13.3249    8.4737   11.4251 C   0  0  0  0  0  0  0  0  0  0  0  0
   12.0435    9.1886   11.5945 N   0  0  0  0  0  0  0  0  0  0  0  0
   11.1848    8.4905   12.6552 C   0  0  0  0  0  0  0  0  0  0  0  0
    9.9975    9.3861   13.0289 C   0  0  0  0  0  0  0  0  0  0  0  0
   10.4898   10.6417   13.6277 C   0  0  0  0  0  0  0  0  0  0  0  0
   11.1188   10.3567   14.9353 N   0  0  0  0  0  0  0  0  0  0  0  0
  1  2  1  0  0  0  0
  2  3  1  0  0  0  0
  3  4  1  0  0  0  0
  4  5  1  0  0  0  0
  5  6  1  0  0  0  0
  6  7  1  0  0  0  0
  7  8  1  0  0  0  0
  8  9  1  0  0  0  0
  9 10  1  0  0  0  0
 10 11  1  0  0  0  0
 11 12  1  0  0  0  0
 12 13  1  0  0  0  0
 13 14  1  0  0  0  0
M  END
>  <CHROM.1>
176.86100925,-175.62862274,126.48482803,-102.09792063,76.65057052,167.98622743
-174.61334379,168.49049368,168.53607214,-62.66241073,-67.43296231,13.45404069
10.15559243,10.66885311,0.35035853,0.77671210,-0.21757620

>  <Name>
ligand

>  <RI>
0

>  <Rbt.Current_Directory>
/home/itssahil/PROJECTS/Mol_Feturizer/New_Systems/rnas/2O3Y

>  <Rbt.Executable>
rbdock ($Id: //depot/dev/client3/rdock/2013.1/src/exe/rbdock.cxx#4 $)

>  <Rbt.Library>
libRbt.so (2013.1, Build901 2013/11/27)

>  <Rbt.Parameter_File>
/export/apps/rDock/src/rDock_2013.1_src/data/scripts/dock_solv.prm

>  <Rbt.Receptor>
prm/pocket_docking_3.prm

>  <SCORE>
-2.23619

>  <SCORE.INTER>
6.55756

>  <SCORE.INTER.CONST>
1

>  <SCORE.INTER.POLAR>
0

>  <SCORE.INTER.ROT>
11

>  <SCORE.INTER.SOLV>
4.82983

>  <SCORE.INTER.VDW>
-8.17157

>  <SCORE.INTER.norm>
0.468397

>  <SCORE.INTRA>
-8.80327

>  <SCORE.INTRA.DIHEDRAL>
-19.7704

>  <SCORE.INTRA.DIHEDRAL.0>
24.1231

>  <SCORE.INTRA.POLAR>
0

>  <SCORE.INTRA.POLAR.0>
0

>  <SCORE.INTRA.REPUL>
0

>  <SCORE.INTRA.REPUL.0>
0

>  <SCORE.INTRA.SOLV>
1.25073

>  <SCORE.INTRA.SOLV.lig_0>
-48.2216

>  <SCORE.INTRA.VDW>
0.456561

>  <SCORE.INTRA.VDW.0>
-1.3967

>  <SCORE.INTRA.norm>
-0.628805

>  <SCORE.RESTR>
0.00952173

>  <SCORE.RESTR.CAVITY>
0.00952173

>  <SCORE.RESTR.norm>
0.000680123

>  <SCORE.SYSTEM>
0

>  <SCORE.SYSTEM.CONST>
0

>  <SCORE.SYSTEM.DIHEDRAL>
0

>  <SCORE.SYSTEM.SOLV>
0

>  <SCORE.SYSTEM.norm>
0

>  <SCORE.heavy>
14

>  <SCORE.norm>
-0.159728

>  <RMSD>
3.112

$$$$
ligand
 OpenBabel11021811463D
libRbt.so/2013.1/901 2013/11/27
 14 13  0  0  0  0  0  0  0  0999 V2000
   14.1647   12.5600    8.3521 N   0  0  0  0  0  0  0  0  0  0  0  0
   13.9373   11.5300    9.3746 C   0  0  0  0  0  0  0  0  0  0  0  0
   14.2500   10.1577    8.7870 C   0  0  0  0  0  0  0  0  0  0  0  0
   14.0745    9.1108    9.8747 C   0  0  0  0  0  0  0  0  0  0  0  0
   12.6576    9.0468   10.2507 N   0  0  0  0  0  0  0  0  0  0  0  0
   12.5873    8.3472   11.5454 C   0  0  0  0  0  0  0  0  0  0  0  0
   11.3054    8.7278   12.2949 C   0  0  0  0  0  0  0  0  0  0  0  0
   11.3853   10.2177   12.6602 C   0  0  0  0  0  0  0  0  0  0  0  0
   10.1387   10.6453   13.3158 C   0  0  0  0  0  0  0  0  0  0  0  0
   10.2454   12.0958   13.5735 N   0  0  0  0  0  0  0  0  0  0  0  0
    9.7550   12.8867   12.3553 C   0  0  0  0  0  0  0  0  0  0  0  0
    9.6884   14.3790   12.7019 C   0  0  0  0  0  0  0  0  0  0  0  0
   11.0496   14.8958   12.9420 C   0  0  0  0  0  0  0  0  0  0  0  0
   10.9874   16.3428   13.2402 N   0  0  0  0  0  0  0  0  0  0  0  0
  1  2  1  0  0  0  0
  2  3  1  0  0  0  0
  3  4  1  0  0  0  0
  4  5  1  0  0  0  0
  5  6  1  0  0  0  0
  6  7  1  0  0  0  0
  7  8  1  0  0  0  0
  8  9  1  0  0  0  0
  9 10  1  0  0  0  0
 10 11  1  0  0  0  0
 11 12  1  0  0  0  0
 12 13  1  0  0  0  0
 13 14  1  0  0  0  0
M  END
>  <CHROM.1>
177.31923295,66.19764788,-163.35829889,156.20850680,-65.80120742,176.80151851
-176.90339531,87.61674016,172.27852541,66.23128494,178.48221933,11.87327109
11.49554798,11.51923065,-0.75489989,0.83550039,-0.06856153

>  <Name>
ligand

>  <RI>
0

>  <Rbt.Current_Directory>
/home/itssahil/PROJECTS/Mol_Feturizer/New_Systems/rnas/2O3Y

>  <Rbt.Executable>
rbdock ($Id: //depot/dev/client3/rdock/2013.1/src/exe/rbdock.cxx#4 $)

>  <Rbt.Library>
libRbt.so (2013.1, Build901 2013/11/27)

>  <Rbt.Parameter_File>
/export/apps/rDock/src/rDock_2013.1_src/data/scripts/dock_solv.prm

>  <Rbt.Receptor>
prm/pocket_docking_3.prm

>  <SCORE>
-4.19309

>  <SCORE.INTER>
6.24474

>  <SCORE.INTER.CONST>
1

>  <SCORE.INTER.POLAR>
0

>  <SCORE.INTER.ROT>
11

>  <SCORE.INTER.SOLV>
5.87708

>  <SCORE.INTER.VDW>
-8.7292

>  <SCORE.INTER.norm>
0.446053

>  <SCORE.INTRA>
-10.4378

>  <SCORE.INTRA.DIHEDRAL>
-22.3964

>  <SCORE.INTRA.DIHEDRAL.0>
24.1231

>  <SCORE.INTRA.POLAR>
0

>  <SCORE.INTRA.POLAR.0>
0

>  <SCORE.INTRA.REPUL>
0

>  <SCORE.INTRA.REPUL.0>
0

>  <SCORE.INTRA.SOLV>
0.30218

>  <SCORE.INTRA.SOLV.lig_0>
-48.2216

>  <SCORE.INTRA.VDW>
0.609306

>  <SCORE.INTRA.VDW.0>
-1.3967

>  <SCORE.INTRA.norm>
-0.745559

>  <SCORE.RESTR>
0

>  <SCORE.RESTR.CAVITY>
0

>  <SCORE.RESTR.norm>
0

>  <SCORE.SYSTEM>
0

>  <SCORE.SYSTEM.CONST>
0

>  <SCORE.SYSTEM.DIHEDRAL>
0

>  <SCORE.SYSTEM.SOLV>
0

>  <SCORE.SYSTEM.norm>
0

>  <SCORE.heavy>
14

>  <SCORE.norm>
-0.299507

>  <RMSD>
3.115

$$$$
ligand
 OpenBabel11021811463D
libRbt.so/2013.1/901 2013/11/27
 14 13  0  0  0  0  0  0  0  0999 V2000
   10.7096   14.0778   16.0355 N   0  0  0  0  0  0  0  0  0  0  0  0
   10.9957   13.0628   17.0582 C   0  0  0  0  0  0  0  0  0  0  0  0
   11.5762   11.8214   16.3888 C   0  0  0  0  0  0  0  0  0  0  0  0
   10.4967   11.1806   15.5319 C   0  0  0  0  0  0  0  0  0  0  0  0
   11.0198    9.9358   14.9578 N   0  0  0  0  0  0  0  0  0  0  0  0
   10.0641    9.5045   13.9227 C   0  0  0  0  0  0  0  0  0  0  0  0
   10.7123    8.4812   12.9833 C   0  0  0  0  0  0  0  0  0  0  0  0
   11.8580    9.1754   12.2315 C   0  0  0  0  0  0  0  0  0  0  0  0
   12.5811    8.2000   11.3993 C   0  0  0  0  0  0  0  0  0  0  0  0
   13.6133    8.9379   10.6430 N   0  0  0  0  0  0  0  0  0  0  0  0
   13.0629    9.3674    9.2783 C   0  0  0  0  0  0  0  0  0  0  0  0
   14.1329   10.1586    8.5164 C   0  0  0  0  0  0  0  0  0  0  0  0
   15.2569    9.2683    8.1680 C   0  0  0  0  0  0  0  0  0  0  0  0
   16.3022   10.0392    7.4611 N   0  0  0  0  0  0  0  0  0  0  0  0
  1  2  1  0  0  0  0
  2  3  1  0  0  0  0
  3  4  1  0  0  0  0
  4  5  1  0  0  0  0
  5  6  1  0  0  0  0
  6  7  1  0  0  0  0
  7  8  1  0  0  0  0
  8  9  1  0  0  0  0
  9 10  1  0  0  0  0
 10 11  1  0  0  0  0
 11 12  1  0  0  0  0
 12 13  1  0  0  0  0
 13 14  1  0  0  0  0
M  END
>  <CHROM.1>
-67.26063748,-176.16724257,-168.17061071,162.57079305,-64.50880666,175.31825325
176.66623956,-92.37975879,178.75235968,67.03425811,-178.68801684,12.31273049
10.22913432,12.46979276,-2.30170929,-0.84145858,-2.48999827

>  <Name>
ligand

>  <RI>
0

>  <Rbt.Current_Directory>
/home/itssahil/PROJECTS/Mol_Feturizer/New_Systems/rnas/2O3Y

>  <Rbt.Executable>
rbdock ($Id: //depot/dev/client3/rdock/2013.1/src/exe/rbdock.cxx#4 $)

>  <Rbt.Library>
libRbt.so (2013.1, Build901 2013/11/27)

>  <Rbt.Parameter_File>
/export/apps/rDock/src/rDock_2013.1_src/data/scripts/dock_solv.prm

>  <Rbt.Receptor>
prm/pocket_docking_3.prm

>  <SCORE>
-5.36065

>  <SCORE.INTER>
4.81098

>  <SCORE.INTER.CONST>
1

>  <SCORE.INTER.POLAR>
0

>  <SCORE.INTER.ROT>
11

>  <SCORE.INTER.SOLV>
4.7062

>  <SCORE.INTER.VDW>
-9.29475

>  <SCORE.INTER.norm>
0.343641

>  <SCORE.INTRA>
-10.1716

>  <SCORE.INTRA.DIHEDRAL>
-22.4488

>  <SCORE.INTRA.DIHEDRAL.0>
24.1231

>  <SCORE.INTRA.POLAR>
0

>  <SCORE.INTRA.POLAR.0>
0

>  <SCORE.INTRA.REPUL>
0

>  <SCORE.INTRA.REPUL.0>
0

>  <SCORE.INTRA.SOLV>
0.691129

>  <SCORE.INTRA.SOLV.lig_0>
-48.2216

>  <SCORE.INTRA.VDW>
0.707203

>  <SCORE.INTRA.VDW.0>
-1.3967

>  <SCORE.INTRA.norm>
-0.726545

>  <SCORE.RESTR>
0

>  <SCORE.RESTR.CAVITY>
0

>  <SCORE.RESTR.norm>
0

>  <SCORE.SYSTEM>
0

>  <SCORE.SYSTEM.CONST>
0

>  <SCORE.SYSTEM.DIHEDRAL>
0

>  <SCORE.SYSTEM.SOLV>
0

>  <SCORE.SYSTEM.norm>
0

>  <SCORE.heavy>
14

>  <SCORE.norm>
-0.382903

>  <RMSD>
3.132

$$$$
ligand
 OpenBabel11021811463D
libRbt.so/2013.1/901 2013/11/27
 14 13  0  0  0  0  0  0  0  0999 V2000
   16.0136   11.0407    7.5264 N   0  0  0  0  0  0  0  0  0  0  0  0
   15.2573    9.9451    8.1477 C   0  0  0  0  0  0  0  0  0  0  0  0
   13.9259   10.4805    8.6645 C   0  0  0  0  0  0  0  0  0  0  0  0
   13.1963    9.3580    9.3841 C   0  0  0  0  0  0  0  0  0  0  0  0
   11.8932    9.8530    9.8422 N   0  0  0  0  0  0  0  0  0  0  0  0
   11.8538    9.6718   11.3038 C   0  0  0  0  0  0  0  0  0  0  0  0
   10.4052    9.6419   11.8044 C   0  0  0  0  0  0  0  0  0  0  0  0
   10.4271    9.5447   13.3373 C   0  0  0  0  0  0  0  0  0  0  0  0
   10.7446   10.8573   13.9229 C   0  0  0  0  0  0  0  0  0  0  0  0
   10.7667   10.6969   15.3911 N   0  0  0  0  0  0  0  0  0  0  0  0
   10.4775   12.0385   16.0739 C   0  0  0  0  0  0  0  0  0  0  0  0
   11.7935   12.7864   16.3197 C   0  0  0  0  0  0  0  0  0  0  0  0
   11.5274   14.0298   17.0684 C   0  0  0  0  0  0  0  0  0  0  0  0
   10.6965   14.9370   16.2479 N   0  0  0  0  0  0  0  0  0  0  0  0
  1  2  1  0  0  0  0
  2  3  1  0  0  0  0
  3  4  1  0  0  0  0
  4  5  1  0  0  0  0
  5  6  1  0  0  0  0
  6  7  1  0  0  0  0
  7  8  1  0  0  0  0
  8  9  1  0  0  0  0
  9 10  1  0  0  0  0
 10 11  1  0  0  0  0
 11 12  1  0  0  0  0
 12 13  1  0  0  0  0
 13 14  1  0  0  0  0
M  END
>  <CHROM.1>
-176.31578739,-177.99282517,-121.94102510,-158.31090371,-176.32243621,77.10156824
-179.34451102,-155.28127583,-90.20516102,-175.71158623,-64.21458380,12.06980511
11.06274924,12.50256844,-1.04647751,0.71206365,0.85718929

>  <Name>
ligand

>  <RI>
0

>  <Rbt.Current_Directory>
/home/itssahil/PROJECTS/Mol_Feturizer/New_Systems/rnas/2O3Y

>  <Rbt.Executable>
rbdock ($Id: //depot/dev/client3/rdock/2013.1/src/exe/rbdock.cxx#4 $)

>  <Rbt.Library>
libRbt.so (2013.1, Build901 2013/11/27)

>  <Rbt.Parameter_File>
/export/apps/rDock/src/rDock_2013.1_src/data/scripts/dock_solv.prm

>  <Rbt.Receptor>
prm/pocket_docking_3.prm

>  <SCORE>
-3.81182

>  <SCORE.INTER>
5.06437

>  <SCORE.INTER.CONST>
1

>  <SCORE.INTER.POLAR>
0

>  <SCORE.INTER.ROT>
11

>  <SCORE.INTER.SOLV>
6.1344

>  <SCORE.INTER.VDW>
-9.60188

>  <SCORE.INTER.norm>
0.361741

>  <SCORE.INTRA>
-8.87619

>  <SCORE.INTRA.DIHEDRAL>
-20.1343

>  <SCORE.INTRA.DIHEDRAL.0>
24.1231

>  <SCORE.INTRA.POLAR>
0

>  <SCORE.INTRA.POLAR.0>
0

>  <SCORE.INTRA.REPUL>
0

>  <SCORE.INTRA.REPUL.0>
0

>  <SCORE.INTRA.SOLV>
0.0682383

>  <SCORE.INTRA.SOLV.lig_0>
-48.2216

>  <SCORE.INTRA.VDW>
1.15683

>  <SCORE.INTRA.VDW.0>
-1.3967

>  <SCORE.INTRA.norm>
-0.634013

>  <SCORE.RESTR>
0

>  <SCORE.RESTR.CAVITY>
0

>  <SCORE.RESTR.norm>
0

>  <SCORE.SYSTEM>
0

>  <SCORE.SYSTEM.CONST>
0

>  <SCORE.SYSTEM.DIHEDRAL>
0

>  <SCORE.SYSTEM.SOLV>
0

>  <SCORE.SYSTEM.norm>
0

>  <SCORE.heavy>
14

>  <SCORE.norm>
-0.272273

>  <RMSD>
3.153

$$$$
ligand
 OpenBabel11021811463D
libRbt.so/2013.1/901 2013/11/27
 14 13  0  0  0  0  0  0  0  0999 V2000
   15.8682   11.1589    7.3822 N   0  0  0  0  0  0  0  0  0  0  0  0
   14.4216   11.2726    7.6110 C   0  0  0  0  0  0  0  0  0  0  0  0
   14.1042   10.8665    9.0465 C   0  0  0  0  0  0  0  0  0  0  0  0
   12.6153   11.0540    9.2876 C   0  0  0  0  0  0  0  0  0  0  0  0
   12.3139   10.7285   10.6862 N   0  0  0  0  0  0  0  0  0  0  0  0
   10.9456   11.2047   10.9535 C   0  0  0  0  0  0  0  0  0  0  0  0
   10.6412   11.1551   12.4551 C   0  0  0  0  0  0  0  0  0  0  0  0
   10.6873    9.6879   12.9078 C   0  0  0  0  0  0  0  0  0  0  0  0
   10.3627    9.5901   14.3402 C   0  0  0  0  0  0  0  0  0  0  0  0
   11.4616   10.2307   15.0911 N   0  0  0  0  0  0  0  0  0  0  0  0
   10.9234   11.4040   15.9179 C   0  0  0  0  0  0  0  0  0  0  0  0
   12.0802   12.3297   16.3135 C   0  0  0  0  0  0  0  0  0  0  0  0
   11.5561   13.4921   17.0562 C   0  0  0  0  0  0  0  0  0  0  0  0
   10.7192   14.3191   16.1606 N   0  0  0  0  0  0  0  0  0  0  0  0
  1  2  1  0  0  0  0
  2  3  1  0  0  0  0
  3  4  1  0  0  0  0
  4  5  1  0  0  0  0
  5  6  1  0  0  0  0
  6  7  1  0  0  0  0
  7  8  1  0  0  0  0
  8  9  1  0  0  0  0
  9 10  1  0  0  0  0
 10 11  1  0  0  0  0
 11 12  1  0  0  0  0
 12 13  1  0  0  0  0
 13 14  1  0  0  0  0
M  END
>  <CHROM.1>
177.27687402,-177.22742107,167.65348463,-169.03875914,-63.73085231,-178.42015903
-67.28184447,119.98998610,-161.47629063,177.40878580,-66.08755639,12.04982362
11.32087589,12.51505554,-1.01273961,0.80592584,0.99437018

>  <Name>
ligand

>  <RI>
0

>  <Rbt.Current_Directory>
/home/itssahil/PROJECTS/Mol_Feturizer/New_Systems/rnas/2O3Y

>  <Rbt.Executable>
rbdock ($Id: //depot/dev/client3/rdock/2013.1/src/exe/rbdock.cxx#4 $)

>  <Rbt.Library>
libRbt.so (2013.1, Build901 2013/11/27)

>  <Rbt.Parameter_File>
/export/apps/rDock/src/rDock_2013.1_src/data/scripts/dock_solv.prm

>  <Rbt.Receptor>
prm/pocket_docking_3.prm

>  <SCORE>
-4.42585

>  <SCORE.INTER>
5.6859

>  <SCORE.INTER.CONST>
1

>  <SCORE.INTER.POLAR>
0

>  <SCORE.INTER.ROT>
11

>  <SCORE.INTER.SOLV>
3.28275

>  <SCORE.INTER.VDW>
-8.23699

>  <SCORE.INTER.norm>
0.406135

>  <SCORE.INTRA>
-10.1117

>  <SCORE.INTRA.DIHEDRAL>
-21.9626

>  <SCORE.INTRA.DIHEDRAL.0>
24.1231

>  <SCORE.INTRA.POLAR>
0

>  <SCORE.INTRA.POLAR.0>
0

>  <SCORE.INTRA.REPUL>
0

>  <SCORE.INTRA.REPUL.0>
0

>  <SCORE.INTRA.SOLV>
0.738371

>  <SCORE.INTRA.SOLV.lig_0>
-48.2216

>  <SCORE.INTRA.VDW>
0.500348

>  <SCORE.INTRA.VDW.0>
-1.3967

>  <SCORE.INTRA.norm>
-0.722268

>  <SCORE.RESTR>
0

>  <SCORE.RESTR.CAVITY>
0

>  <SCORE.RESTR.norm>
0

>  <SCORE.SYSTEM>
0

>  <SCORE.SYSTEM.CONST>
0

>  <SCORE.SYSTEM.DIHEDRAL>
0

>  <SCORE.SYSTEM.SOLV>
0

>  <SCORE.SYSTEM.norm>
0

>  <SCORE.heavy>
14

>  <SCORE.norm>
-0.316132

>  <RMSD>
3.170

$$$$
ligand
 OpenBabel11021811463D
libRbt.so/2013.1/901 2013/11/27
 14 13  0  0  0  0  0  0  0  0999 V2000
   10.3274   15.0128   13.5951 N   0  0  0  0  0  0  0  0  0  0  0  0
    9.8282   13.6376   13.7277 C   0  0  0  0  0  0  0  0  0  0  0  0
   10.7411   12.8578   14.6684 C   0  0  0  0  0  0  0  0  0  0  0  0
   12.0839   12.6545   13.9862 C   0  0  0  0  0  0  0  0  0  0  0  0
   12.9429   11.8434   14.8562 N   0  0  0  0  0  0  0  0  0  0  0  0
   13.9958   11.2652   14.0031 C   0  0  0  0  0  0  0  0  0  0  0  0
   14.4464    9.9057   14.5496 C   0  0  0  0  0  0  0  0  0  0  0  0
   13.2598    8.9341   14.4625 C   0  0  0  0  0  0  0  0  0  0  0  0
   13.2286    8.2911   13.1388 C   0  0  0  0  0  0  0  0  0  0  0  0
   12.8648    9.3255   12.1491 N   0  0  0  0  0  0  0  0  0  0  0  0
   12.7978    8.7137   10.7452 C   0  0  0  0  0  0  0  0  0  0  0  0
   13.4708    9.6554    9.7394 C   0  0  0  0  0  0  0  0  0  0  0  0
   12.7240   10.9262    9.6701 C   0  0  0  0  0  0  0  0  0  0  0  0
   13.4079   11.8559    8.7457 N   0  0  0  0  0  0  0  0  0  0  0  0
  1  2  1  0  0  0  0
  2  3  1  0  0  0  0
  3  4  1  0  0  0  0
  4  5  1  0  0  0  0
  5  6  1  0  0  0  0
  6  7  1  0  0  0  0
  7  8  1  0  0  0  0
  8  9  1  0  0  0  0
  9 10  1  0  0  0  0
 10 11  1  0  0  0  0
 11 12  1  0  0  0  0
 12 13  1  0  0  0  0
 13 14  1  0  0  0  0
M  END
>  <CHROM.1>
-68.92366501,-177.00625151,159.80683026,-149.45635799,64.59962929,86.96649298
-69.16751613,-179.29595584,-136.89991964,-63.75011855,177.48143082,12.58004321
11.06238893,12.71709476,2.53360713,-1.03702213,1.58558251

>  <Name>
ligand

>  <RI>
0

>  <Rbt.Current_Directory>
/home/itssahil/PROJECTS/Mol_Feturizer/New_Systems/rnas/2O3Y

>  <Rbt.Executable>
rbdock ($Id: //depot/dev/client3/rdock/2013.1/src/exe/rbdock.cxx#4 $)

>  <Rbt.Library>
libRbt.so (2013.1, Build901 2013/11/27)

>  <Rbt.Parameter_File>
/export/apps/rDock/src/rDock_2013.1_src/data/scripts/dock_solv.prm

>  <Rbt.Receptor>
prm/pocket_docking_2.prm

>  <SCORE>
1.61503

>  <SCORE.INTER>
9.22061

>  <SCORE.INTER.CONST>
1

>  <SCORE.INTER.POLAR>
0

>  <SCORE.INTER.ROT>
11

>  <SCORE.INTER.SOLV>
3.50267

>  <SCORE.INTER.VDW>
-5.95382

>  <SCORE.INTER.norm>
0.658615

>  <SCORE.INTRA>
-7.60607

>  <SCORE.INTRA.DIHEDRAL>
-18.8461

>  <SCORE.INTRA.DIHEDRAL.0>
24.1231

>  <SCORE.INTRA.POLAR>
0

>  <SCORE.INTRA.POLAR.0>
0

>  <SCORE.INTRA.REPUL>
0

>  <SCORE.INTRA.REPUL.0>
0

>  <SCORE.INTRA.SOLV>
2.39376

>  <SCORE.INTRA.SOLV.lig_0>
-48.2216

>  <SCORE.INTRA.VDW>
0.620089

>  <SCORE.INTRA.VDW.0>
-1.3967

>  <SCORE.INTRA.norm>
-0.543291

>  <SCORE.RESTR>
0.000485582

>  <SCORE.RESTR.CAVITY>
0.000485582

>  <SCORE.RESTR.norm>
3.46844e-05

>  <SCORE.SYSTEM>
0

>  <SCORE.SYSTEM.CONST>
0

>  <SCORE.SYSTEM.DIHEDRAL>
0

>  <SCORE.SYSTEM.SOLV>
0

>  <SCORE.SYSTEM.norm>
0

>  <SCORE.heavy>
14

>  <SCORE.norm>
0.115359

>  <RMSD>
3.221

$$$$
ligand
 OpenBabel11021811463D
libRbt.so/2013.1/901 2013/11/27
 14 13  0  0  0  0  0  0  0  0999 V2000
   10.6201   15.1691   16.3675 N   0  0  0  0  0  0  0  0  0  0  0  0
   11.0787   13.8925   15.8035 C   0  0  0  0  0  0  0  0  0  0  0  0
   11.4899   12.9586   16.9371 C   0  0  0  0  0  0  0  0  0  0  0  0
   11.9413   11.6363   16.3389 C   0  0  0  0  0  0  0  0  0  0  0  0
   10.7854   10.9695   15.7289 N   0  0  0  0  0  0  0  0  0  0  0  0
   11.2303   10.4428   14.4268 C   0  0  0  0  0  0  0  0  0  0  0  0
   10.0407    9.8882   13.6348 C   0  0  0  0  0  0  0  0  0  0  0  0
   10.5421    9.4646   12.2460 C   0  0  0  0  0  0  0  0  0  0  0  0
   10.8906   10.6527   11.4499 C   0  0  0  0  0  0  0  0  0  0  0  0
   11.4955   10.1816   10.1874 N   0  0  0  0  0  0  0  0  0  0  0  0
   12.1779   11.3464    9.4612 C   0  0  0  0  0  0  0  0  0  0  0  0
   13.7007   11.1881    9.5495 C   0  0  0  0  0  0  0  0  0  0  0  0
   14.1258   10.0138    8.7635 C   0  0  0  0  0  0  0  0  0  0  0  0
   15.5887    9.8361    8.8855 N   0  0  0  0  0  0  0  0  0  0  0  0
  1  2  1  0  0  0  0
  2  3  1  0  0  0  0
  3  4  1  0  0  0  0
  4  5  1  0  0  0  0
  5  6  1  0  0  0  0
  6  7  1  0  0  0  0
  7  8  1  0  0  0  0
  8  9  1  0  0  0  0
  9 10  1  0  0  0  0
 10 11  1  0  0  0  0
 11 12  1  0  0  0  0
 12 13  1  0  0  0  0
 13 14  1  0  0  0  0
M  END
>  <CHROM.1>
179.14718306,-67.19720922,136.26745605,-172.59044957,175.26934224,-70.06411294
174.17040343,-166.68732235,108.08439565,67.61237608,-178.15195917,11.83614725
11.25990133,12.84147565,-2.03882898,-0.77941994,-2.27276725

>  <Name>
ligand

>  <RI>
0

>  <Rbt.Current_Directory>
/home/itssahil/PROJECTS/Mol_Feturizer/New_Systems/rnas/2O3Y

>  <Rbt.Executable>
rbdock ($Id: //depot/dev/client3/rdock/2013.1/src/exe/rbdock.cxx#4 $)

>  <Rbt.Library>
libRbt.so (2013.1, Build901 2013/11/27)

>  <Rbt.Parameter_File>
/export/apps/rDock/src/rDock_2013.1_src/data/scripts/dock_solv.prm

>  <Rbt.Receptor>
prm/pocket_docking_3.prm

>  <SCORE>
-3.42632

>  <SCORE.INTER>
5.74749

>  <SCORE.INTER.CONST>
1

>  <SCORE.INTER.POLAR>
0

>  <SCORE.INTER.ROT>
11

>  <SCORE.INTER.SOLV>
4.05838

>  <SCORE.INTER.VDW>
-8.45447

>  <SCORE.INTER.norm>
0.410535

>  <SCORE.INTRA>
-9.1738

>  <SCORE.INTRA.DIHEDRAL>
-20.8038

>  <SCORE.INTRA.DIHEDRAL.0>
24.1231

>  <SCORE.INTRA.POLAR>
0

>  <SCORE.INTRA.POLAR.0>
0

>  <SCORE.INTRA.REPUL>
0

>  <SCORE.INTRA.REPUL.0>
0

>  <SCORE.INTRA.SOLV>
0.194193

>  <SCORE.INTRA.SOLV.lig_0>
-48.2216

>  <SCORE.INTRA.VDW>
1.131

>  <SCORE.INTRA.VDW.0>
-1.3967

>  <SCORE.INTRA.norm>
-0.655272

>  <SCORE.RESTR>
0

>  <SCORE.RESTR.CAVITY>
0

>  <SCORE.RESTR.norm>
0

>  <SCORE.SYSTEM>
0

>  <SCORE.SYSTEM.CONST>
0

>  <SCORE.SYSTEM.DIHEDRAL>
0

>  <SCORE.SYSTEM.SOLV>
0

>  <SCORE.SYSTEM.norm>
0

>  <SCORE.heavy>
14

>  <SCORE.norm>
-0.244737

>  <RMSD>
3.230

$$$$
ligand
 OpenBabel11021811463D
libRbt.so/2013.1/901 2013/11/27
 14 13  0  0  0  0  0  0  0  0999 V2000
   16.3900   10.4576    7.4704 N   0  0  0  0  0  0  0  0  0  0  0  0
   15.4253    9.5139    8.0507 C   0  0  0  0  0  0  0  0  0  0  0  0
   14.2698   10.2916    8.6721 C   0  0  0  0  0  0  0  0  0  0  0  0
   13.3073    9.3048    9.3123 C   0  0  0  0  0  0  0  0  0  0  0  0
   12.2140   10.0489    9.9479 N   0  0  0  0  0  0  0  0  0  0  0  0
   11.8640    9.3272   11.1838 C   0  0  0  0  0  0  0  0  0  0  0  0
   10.7097   10.0284   11.9089 C   0  0  0  0  0  0  0  0  0  0  0  0
   10.3946    9.2395   13.1887 C   0  0  0  0  0  0  0  0  0  0  0  0
    9.4724   10.0067   14.0418 C   0  0  0  0  0  0  0  0  0  0  0  0
   10.1840   11.2220   14.4872 N   0  0  0  0  0  0  0  0  0  0  0  0
    9.1987   12.3869   14.6363 C   0  0  0  0  0  0  0  0  0  0  0  0
    8.9943   13.0666   13.2770 C   0  0  0  0  0  0  0  0  0  0  0  0
   10.2636   13.6683   12.8251 C   0  0  0  0  0  0  0  0  0  0  0  0
   10.6125   14.8094   13.6984 N   0  0  0  0  0  0  0  0  0  0  0  0
  1  2  1  0  0  0  0
  2  3  1  0  0  0  0
  3  4  1  0  0  0  0
  4  5  1  0  0  0  0
  5  6  1  0  0  0  0
  6  7  1  0  0  0  0
  7  8  1  0  0  0  0
  8  9  1  0  0  0  0
  9 10  1  0  0  0  0
 10 11  1  0  0  0  0
 11 12  1  0  0  0  0
 12 13  1  0  0  0  0
 13 14  1  0  0  0  0
M  END
>  <CHROM.1>
-177.93943795,178.28413407,-143.47796466,-179.25439793,-179.68266747,169.40562354
-65.32161803,147.05872059,-84.62300135,-64.16008929,-68.37660085,11.66402001
10.95486068,11.62156025,-0.38495431,0.79592206,0.09749107

>  <Name>
ligand

>  <RI>
0

>  <Rbt.Current_Directory>
/home/itssahil/PROJECTS/Mol_Feturizer/New_Systems/rnas/2O3Y

>  <Rbt.Executable>
rbdock ($Id: //depot/dev/client3/rdock/2013.1/src/exe/rbdock.cxx#4 $)

>  <Rbt.Library>
libRbt.so (2013.1, Build901 2013/11/27)

>  <Rbt.Parameter_File>
/export/apps/rDock/src/rDock_2013.1_src/data/scripts/dock_solv.prm

>  <Rbt.Receptor>
prm/pocket_docking_3.prm

>  <SCORE>
-3.19972

>  <SCORE.INTER>
6.30994

>  <SCORE.INTER.CONST>
1

>  <SCORE.INTER.POLAR>
0

>  <SCORE.INTER.ROT>
11

>  <SCORE.INTER.SOLV>
4.20829

>  <SCORE.INTER.VDW>
-8.12947

>  <SCORE.INTER.norm>
0.45071

>  <SCORE.INTRA>
-9.50966

>  <SCORE.INTRA.DIHEDRAL>
-21.2771

>  <SCORE.INTRA.DIHEDRAL.0>
24.1231

>  <SCORE.INTRA.POLAR>
0

>  <SCORE.INTRA.POLAR.0>
0

>  <SCORE.INTRA.REPUL>
0

>  <SCORE.INTRA.REPUL.0>
0

>  <SCORE.INTRA.SOLV>
1.22297

>  <SCORE.INTRA.SOLV.lig_0>
-48.2216

>  <SCORE.INTRA.VDW>
0.517383

>  <SCORE.INTRA.VDW.0>
-1.3967

>  <SCORE.INTRA.norm>
-0.679261

>  <SCORE.RESTR>
0

>  <SCORE.RESTR.CAVITY>
0

>  <SCORE.RESTR.norm>
0

>  <SCORE.SYSTEM>
0

>  <SCORE.SYSTEM.CONST>
0

>  <SCORE.SYSTEM.DIHEDRAL>
0

>  <SCORE.SYSTEM.SOLV>
0

>  <SCORE.SYSTEM.norm>
0

>  <SCORE.heavy>
14

>  <SCORE.norm>
-0.228552

>  <RMSD>
3.247

$$$$
ligand
 OpenBabel11021811463D
libRbt.so/2013.1/901 2013/11/27
 14 13  0  0  0  0  0  0  0  0999 V2000
   11.5875   15.3209   13.0940 N   0  0  0  0  0  0  0  0  0  0  0  0
   11.4817   14.0139   13.7564 C   0  0  0  0  0  0  0  0  0  0  0  0
   10.0269   13.5562   13.7405 C   0  0  0  0  0  0  0  0  0  0  0  0
    9.6488   13.1851   12.3160 C   0  0  0  0  0  0  0  0  0  0  0  0
   10.3521   11.9530   11.9415 N   0  0  0  0  0  0  0  0  0  0  0  0
   10.0700   11.7130   10.5155 C   0  0  0  0  0  0  0  0  0  0  0  0
   10.7060   10.3967   10.0543 C   0  0  0  0  0  0  0  0  0  0  0  0
   12.2301   10.5209   10.2002 C   0  0  0  0  0  0  0  0  0  0  0  0
   12.8838    9.2799    9.7537 C   0  0  0  0  0  0  0  0  0  0  0  0
   14.3129    9.3741   10.1148 N   0  0  0  0  0  0  0  0  0  0  0  0
   15.1880    9.0622    8.8954 C   0  0  0  0  0  0  0  0  0  0  0  0
   16.6278    8.7925    9.3491 C   0  0  0  0  0  0  0  0  0  0  0  0
   17.5004    8.6345    8.1697 C   0  0  0  0  0  0  0  0  0  0  0  0
   17.6510    9.9359    7.4839 N   0  0  0  0  0  0  0  0  0  0  0  0
  1  2  1  0  0  0  0
  2  3  1  0  0  0  0
  3  4  1  0  0  0  0
  4  5  1  0  0  0  0
  5  6  1  0  0  0  0
  6  7  1  0  0  0  0
  7  8  1  0  0  0  0
  8  9  1  0  0  0  0
  9 10  1  0  0  0  0
 10 11  1  0  0  0  0
 11 12  1  0  0  0  0
 12 13  1  0  0  0  0
 13 14  1  0  0  0  0
M  END
>  <CHROM.1>
70.83826575,69.98055306,-174.08704235,-176.89528798,-62.86617842,-179.41558108
-171.15980970,-128.92305193,-164.92950076,-173.99510615,69.52884400,12.87596212
11.12396820,10.67035500,-2.36174378,-0.13173140,-2.50951806

>  <Name>
ligand

>  <RI>
0

>  <Rbt.Current_Directory>
/home/itssahil/PROJECTS/Mol_Feturizer/New_Systems/rnas/2O3Y

>  <Rbt.Executable>
rbdock ($Id: //depot/dev/client3/rdock/2013.1/src/exe/rbdock.cxx#4 $)

>  <Rbt.Library>
libRbt.so (2013.1, Build901 2013/11/27)

>  <Rbt.Parameter_File>
/export/apps/rDock/src/rDock_2013.1_src/data/scripts/dock_solv.prm

>  <Rbt.Receptor>
prm/pocket_docking_4.prm

>  <SCORE>
-4.92642

>  <SCORE.INTER>
4.14469

>  <SCORE.INTER.CONST>
1

>  <SCORE.INTER.POLAR>
0

>  <SCORE.INTER.ROT>
11

>  <SCORE.INTER.SOLV>
5.4101

>  <SCORE.INTER.VDW>
-9.97357

>  <SCORE.INTER.norm>
0.296049

>  <SCORE.INTRA>
-9.07111

>  <SCORE.INTRA.DIHEDRAL>
-21.178

>  <SCORE.INTRA.DIHEDRAL.0>
24.1231

>  <SCORE.INTRA.POLAR>
0

>  <SCORE.INTRA.POLAR.0>
0

>  <SCORE.INTRA.REPUL>
0

>  <SCORE.INTRA.REPUL.0>
0

>  <SCORE.INTRA.SOLV>
1.86375

>  <SCORE.INTRA.SOLV.lig_0>
-48.2216

>  <SCORE.INTRA.VDW>
0.586036

>  <SCORE.INTRA.VDW.0>
-1.3967

>  <SCORE.INTRA.norm>
-0.647936

>  <SCORE.RESTR>
0

>  <SCORE.RESTR.CAVITY>
0

>  <SCORE.RESTR.norm>
0

>  <SCORE.SYSTEM>
0

>  <SCORE.SYSTEM.CONST>
0

>  <SCORE.SYSTEM.DIHEDRAL>
0

>  <SCORE.SYSTEM.SOLV>
0

>  <SCORE.SYSTEM.norm>
0

>  <SCORE.heavy>
14

>  <SCORE.norm>
-0.351887

>  <RMSD>
3.275

$$$$
ligand
 OpenBabel11021811463D
libRbt.so/2013.1/901 2013/11/27
 14 13  0  0  0  0  0  0  0  0999 V2000
    7.3613   14.8737   13.1907 N   0  0  0  0  0  0  0  0  0  0  0  0
    8.7321   14.4888   12.8290 C   0  0  0  0  0  0  0  0  0  0  0  0
    9.1779   13.3246   13.7077 C   0  0  0  0  0  0  0  0  0  0  0  0
   10.6008   12.9467   13.3302 C   0  0  0  0  0  0  0  0  0  0  0  0
   10.6083   12.4280   11.9577 N   0  0  0  0  0  0  0  0  0  0  0  0
   10.3916   10.9734   12.0463 C   0  0  0  0  0  0  0  0  0  0  0  0
   10.1179   10.3837   10.6580 C   0  0  0  0  0  0  0  0  0  0  0  0
   11.4573   10.2531    9.9174 C   0  0  0  0  0  0  0  0  0  0  0  0
   11.9307   11.5799    9.4906 C   0  0  0  0  0  0  0  0  0  0  0  0
   13.1404   11.3781    8.6675 N   0  0  0  0  0  0  0  0  0  0  0  0
   13.6633   12.7255    8.1568 C   0  0  0  0  0  0  0  0  0  0  0  0
   15.0997   12.5611    7.6454 C   0  0  0  0  0  0  0  0  0  0  0  0
   15.6687   13.8842    7.3246 C   0  0  0  0  0  0  0  0  0  0  0  0
   17.0865   13.7347    6.9321 N   0  0  0  0  0  0  0  0  0  0  0  0
  1  2  1  0  0  0  0
  2  3  1  0  0  0  0
  3  4  1  0  0  0  0
  4  5  1  0  0  0  0
  5  6  1  0  0  0  0
  6  7  1  0  0  0  0
  7  8  1  0  0  0  0
  8  9  1  0  0  0  0
  9 10  1  0  0  0  0
 10 11  1  0  0  0  0
 11 12  1  0  0  0  0
 12 13  1  0  0  0  0
 13 14  1  0  0  0  0
M  END
>  <CHROM.1>
-179.49753447,-65.48629344,-89.86578217,169.21764690,78.07495740,-73.75975587
-174.19926867,178.43285824,164.45152450,-172.37570194,175.62504793,11.78821544
12.53802632,10.41824433,-2.94898666,-0.68607731,-2.90579834

>  <Name>
ligand

>  <RI>
0

>  <Rbt.Current_Directory>
/home/itssahil/PROJECTS/Mol_Feturizer/New_Systems/rnas/2O3Y

>  <Rbt.Executable>
rbdock ($Id: //depot/dev/client3/rdock/2013.1/src/exe/rbdock.cxx#4 $)

>  <Rbt.Library>
libRbt.so (2013.1, Build901 2013/11/27)

>  <Rbt.Parameter_File>
/export/apps/rDock/src/rDock_2013.1_src/data/scripts/dock_solv.prm

>  <Rbt.Receptor>
prm/pocket_docking_4.prm

>  <SCORE>
-5.20613

>  <SCORE.INTER>
3.39893

>  <SCORE.INTER.CONST>
1

>  <SCORE.INTER.POLAR>
0

>  <SCORE.INTER.ROT>
11

>  <SCORE.INTER.SOLV>
5.59908

>  <SCORE.INTER.VDW>
-10.5337

>  <SCORE.INTER.norm>
0.242781

>  <SCORE.INTRA>
-8.61031

>  <SCORE.INTRA.DIHEDRAL>
-20.8077

>  <SCORE.INTRA.DIHEDRAL.0>
24.1231

>  <SCORE.INTRA.POLAR>
0

>  <SCORE.INTRA.POLAR.0>
0

>  <SCORE.INTRA.REPUL>
0

>  <SCORE.INTRA.REPUL.0>
0

>  <SCORE.INTRA.SOLV>
0.520112

>  <SCORE.INTRA.SOLV.lig_0>
-48.2216

>  <SCORE.INTRA.VDW>
1.53349

>  <SCORE.INTRA.VDW.0>
-1.3967

>  <SCORE.INTRA.norm>
-0.615022

>  <SCORE.RESTR>
0.00524088

>  <SCORE.RESTR.CAVITY>
0.00524088

>  <SCORE.RESTR.norm>
0.000374348

>  <SCORE.SYSTEM>
0

>  <SCORE.SYSTEM.CONST>
0

>  <SCORE.SYSTEM.DIHEDRAL>
0

>  <SCORE.SYSTEM.SOLV>
0

>  <SCORE.SYSTEM.norm>
0

>  <SCORE.heavy>
14

>  <SCORE.norm>
-0.371867

>  <RMSD>
3.279

$$$$
ligand
 OpenBabel11021811463D
libRbt.so/2013.1/901 2013/11/27
 14 13  0  0  0  0  0  0  0  0999 V2000
    9.1837   13.6185   16.5053 N   0  0  0  0  0  0  0  0  0  0  0  0
    8.9064   12.4405   15.6724 C   0  0  0  0  0  0  0  0  0  0  0  0
    9.4176   11.1901   16.3806 C   0  0  0  0  0  0  0  0  0  0  0  0
    9.1444    9.9841   15.4969 C   0  0  0  0  0  0  0  0  0  0  0  0
    9.9685   10.0830   14.2869 N   0  0  0  0  0  0  0  0  0  0  0  0
    9.5098    9.0280   13.3665 C   0  0  0  0  0  0  0  0  0  0  0  0
   10.3739    9.0039   12.1005 C   0  0  0  0  0  0  0  0  0  0  0  0
   11.7945    8.5732   12.4950 C   0  0  0  0  0  0  0  0  0  0  0  0
   12.6436    8.4721   11.2969 C   0  0  0  0  0  0  0  0  0  0  0  0
   12.7668    9.8273   10.7223 N   0  0  0  0  0  0  0  0  0  0  0  0
   13.3848    9.7533    9.3214 C   0  0  0  0  0  0  0  0  0  0  0  0
   13.8480   11.1494    8.8877 C   0  0  0  0  0  0  0  0  0  0  0  0
   14.4696   11.0751    7.5514 C   0  0  0  0  0  0  0  0  0  0  0  0
   15.0543   12.3872    7.2006 N   0  0  0  0  0  0  0  0  0  0  0  0
  1  2  1  0  0  0  0
  2  3  1  0  0  0  0
  3  4  1  0  0  0  0
  4  5  1  0  0  0  0
  5  6  1  0  0  0  0
  6  7  1  0  0  0  0
  7  8  1  0  0  0  0
  8  9  1  0  0  0  0
  9 10  1  0  0  0  0
 10 11  1  0  0  0  0
 11 12  1  0  0  0  0
 12 13  1  0  0  0  0
 13 14  1  0  0  0  0
M  END
>  <CHROM.1>
-179.07007010,66.72380228,-170.66265724,-176.71484489,66.25759635,177.21502291
64.62420740,-168.09728003,-165.15088157,178.78451623,-173.52132738,11.46172656
10.46999745,12.23461775,-2.93303629,-0.96203170,-2.95520498

>  <Name>
ligand

>  <RI>
0

>  <Rbt.Current_Directory>
/home/itssahil/PROJECTS/Mol_Feturizer/New_Systems/rnas/2O3Y

>  <Rbt.Executable>
rbdock ($Id: //depot/dev/client3/rdock/2013.1/src/exe/rbdock.cxx#4 $)

>  <Rbt.Library>
libRbt.so (2013.1, Build901 2013/11/27)

>  <Rbt.Parameter_File>
/export/apps/rDock/src/rDock_2013.1_src/data/scripts/dock_solv.prm

>  <Rbt.Receptor>
prm/pocket_docking_4.prm

>  <SCORE>
-5.66568

>  <SCORE.INTER>
5.19365

>  <SCORE.INTER.CONST>
1

>  <SCORE.INTER.POLAR>
0

>  <SCORE.INTER.ROT>
11

>  <SCORE.INTER.SOLV>
6.32645

>  <SCORE.INTER.VDW>
-9.57971

>  <SCORE.INTER.norm>
0.370975

>  <SCORE.INTRA>
-10.8593

>  <SCORE.INTRA.DIHEDRAL>
-23.1635

>  <SCORE.INTRA.DIHEDRAL.0>
24.1231

>  <SCORE.INTRA.POLAR>
0

>  <SCORE.INTRA.POLAR.0>
0

>  <SCORE.INTRA.REPUL>
0

>  <SCORE.INTRA.REPUL.0>
0

>  <SCORE.INTRA.SOLV>
0.372861

>  <SCORE.INTRA.SOLV.lig_0>
-48.2216

>  <SCORE.INTRA.VDW>
0.536

>  <SCORE.INTRA.VDW.0>
-1.3967

>  <SCORE.INTRA.norm>
-0.775667

>  <SCORE.RESTR>
0

>  <SCORE.RESTR.CAVITY>
0

>  <SCORE.RESTR.norm>
0

>  <SCORE.SYSTEM>
0

>  <SCORE.SYSTEM.CONST>
0

>  <SCORE.SYSTEM.DIHEDRAL>
0

>  <SCORE.SYSTEM.SOLV>
0

>  <SCORE.SYSTEM.norm>
0

>  <SCORE.heavy>
14

>  <SCORE.norm>
-0.404692

>  <RMSD>
3.368

$$$$
ligand
 OpenBabel11021811463D
libRbt.so/2013.1/901 2013/11/27
 14 13  0  0  0  0  0  0  0  0999 V2000
   10.2205   16.1972   16.4104 N   0  0  0  0  0  0  0  0  0  0  0  0
   11.4734   15.4474   16.5719 C   0  0  0  0  0  0  0  0  0  0  0  0
   11.8064   14.7337   15.2657 C   0  0  0  0  0  0  0  0  0  0  0  0
   10.7359   13.6893   14.9950 C   0  0  0  0  0  0  0  0  0  0  0  0
   11.0545   12.9931   13.7433 N   0  0  0  0  0  0  0  0  0  0  0  0
   10.0523   11.9260   13.5775 C   0  0  0  0  0  0  0  0  0  0  0  0
   10.5059   10.9214   12.5121 C   0  0  0  0  0  0  0  0  0  0  0  0
   10.4438   11.6118   11.1413 C   0  0  0  0  0  0  0  0  0  0  0  0
   10.8650   10.6775   10.0848 C   0  0  0  0  0  0  0  0  0  0  0  0
   12.3199   10.4673   10.2297 N   0  0  0  0  0  0  0  0  0  0  0  0
   12.7889    9.3509    9.2898 C   0  0  0  0  0  0  0  0  0  0  0  0
   14.2995    9.4739    9.0563 C   0  0  0  0  0  0  0  0  0  0  0  0
   15.0198    9.2422   10.3231 C   0  0  0  0  0  0  0  0  0  0  0  0
   16.4729    9.4118   10.1080 N   0  0  0  0  0  0  0  0  0  0  0  0
  1  2  1  0  0  0  0
  2  3  1  0  0  0  0
  3  4  1  0  0  0  0
  4  5  1  0  0  0  0
  5  6  1  0  0  0  0
  6  7  1  0  0  0  0
  7  8  1  0  0  0  0
  8  9  1  0  0  0  0
  9 10  1  0  0  0  0
 10 11  1  0  0  0  0
 11 12  1  0  0  0  0
 12 13  1  0  0  0  0
 13 14  1  0  0  0  0
M  END
>  <CHROM.1>
-65.16014628,-179.66412865,175.71775806,-165.13671464,-69.73652010,-179.67132968
-70.75855237,171.85991090,159.48632660,64.88767999,-177.85974965,12.00398814
11.86723699,12.37910660,-1.95436206,0.05920791,-2.27366990

>  <Name>
ligand

>  <RI>
0

>  <Rbt.Current_Directory>
/home/itssahil/PROJECTS/Mol_Feturizer/New_Systems/rnas/2O3Y

>  <Rbt.Executable>
rbdock ($Id: //depot/dev/client3/rdock/2013.1/src/exe/rbdock.cxx#4 $)

>  <Rbt.Library>
libRbt.so (2013.1, Build901 2013/11/27)

>  <Rbt.Parameter_File>
/export/apps/rDock/src/rDock_2013.1_src/data/scripts/dock_solv.prm

>  <Rbt.Receptor>
prm/pocket_docking_4.prm

>  <SCORE>
-5.82115

>  <SCORE.INTER>
4.31957

>  <SCORE.INTER.CONST>
1

>  <SCORE.INTER.POLAR>
0

>  <SCORE.INTER.ROT>
11

>  <SCORE.INTER.SOLV>
5.47672

>  <SCORE.INTER.VDW>
-9.87919

>  <SCORE.INTER.norm>
0.308541

>  <SCORE.INTRA>
-10.1407

>  <SCORE.INTRA.DIHEDRAL>
-22.582

>  <SCORE.INTRA.DIHEDRAL.0>
24.1231

>  <SCORE.INTRA.POLAR>
0

>  <SCORE.INTRA.POLAR.0>
0

>  <SCORE.INTRA.REPUL>
0

>  <SCORE.INTRA.REPUL.0>
0

>  <SCORE.INTRA.SOLV>
1.16118

>  <SCORE.INTRA.SOLV.lig_0>
-48.2216

>  <SCORE.INTRA.VDW>
0.569694

>  <SCORE.INTRA.VDW.0>
-1.3967

>  <SCORE.INTRA.norm>
-0.724337

>  <SCORE.RESTR>
0

>  <SCORE.RESTR.CAVITY>
0

>  <SCORE.RESTR.norm>
0

>  <SCORE.SYSTEM>
0

>  <SCORE.SYSTEM.CONST>
0

>  <SCORE.SYSTEM.DIHEDRAL>
0

>  <SCORE.SYSTEM.SOLV>
0

>  <SCORE.SYSTEM.norm>
0

>  <SCORE.heavy>
14

>  <SCORE.norm>
-0.415796

>  <RMSD>
3.398

$$$$
ligand
 OpenBabel11021811463D
libRbt.so/2013.1/901 2013/11/27
 14 13  0  0  0  0  0  0  0  0999 V2000
   10.6489   10.0052   14.2836 N   0  0  0  0  0  0  0  0  0  0  0  0
    9.9778    9.0155   13.4303 C   0  0  0  0  0  0  0  0  0  0  0  0
   11.0105    8.3363   12.5368 C   0  0  0  0  0  0  0  0  0  0  0  0
   11.5253    9.3513   11.5294 C   0  0  0  0  0  0  0  0  0  0  0  0
   12.5782    8.7279   10.7197 N   0  0  0  0  0  0  0  0  0  0  0  0
   12.8571    9.6423    9.5987 C   0  0  0  0  0  0  0  0  0  0  0  0
   14.3521    9.9754    9.5339 C   0  0  0  0  0  0  0  0  0  0  0  0
   15.1258    8.6719    9.2856 C   0  0  0  0  0  0  0  0  0  0  0  0
   16.5690    8.9487    9.2006 C   0  0  0  0  0  0  0  0  0  0  0  0
   17.0126    9.4147   10.5302 N   0  0  0  0  0  0  0  0  0  0  0  0
   18.4655    9.8989   10.4631 C   0  0  0  0  0  0  0  0  0  0  0  0
   18.5261   11.3953   10.7929 C   0  0  0  0  0  0  0  0  0  0  0  0
   17.7885   12.1611    9.7698 C   0  0  0  0  0  0  0  0  0  0  0  0
   17.8800   13.6066   10.0676 N   0  0  0  0  0  0  0  0  0  0  0  0
  1  2  1  0  0  0  0
  2  3  1  0  0  0  0
  3  4  1  0  0  0  0
  4  5  1  0  0  0  0
  5  6  1  0  0  0  0
  6  7  1  0  0  0  0
  7  8  1  0  0  0  0
  8  9  1  0  0  0  0
  9 10  1  0  0  0  0
 10 11  1  0  0  0  0
 11 12  1  0  0  0  0
 12 13  1  0  0  0  0
 13 14  1  0  0  0  0
M  END
>  <CHROM.1>
-68.63710988,176.58442425,169.04875297,126.14338879,61.90554883,179.34874459
65.89196290,-172.44373799,116.70832537,-63.68128774,-178.40789063,14.59412316
9.93916674,10.83849927,-3.12556440,-0.44464808,-2.42516571

>  <Name>
ligand

>  <RI>
0

>  <Rbt.Current_Directory>
/home/itssahil/PROJECTS/Mol_Feturizer/New_Systems/rnas/2O3Y

>  <Rbt.Executable>
rbdock ($Id: //depot/dev/client3/rdock/2013.1/src/exe/rbdock.cxx#4 $)

>  <Rbt.Library>
libRbt.so (2013.1, Build901 2013/11/27)

>  <Rbt.Parameter_File>
/export/apps/rDock/src/rDock_2013.1_src/data/scripts/dock_solv.prm

>  <Rbt.Receptor>
prm/pocket_docking_3.prm

>  <SCORE>
-3.68884

>  <SCORE.INTER>
5.66009

>  <SCORE.INTER.CONST>
1

>  <SCORE.INTER.POLAR>
0

>  <SCORE.INTER.ROT>
11

>  <SCORE.INTER.SOLV>
6.27129

>  <SCORE.INTER.VDW>
-9.25037

>  <SCORE.INTER.norm>
0.404292

>  <SCORE.INTRA>
-9.35002

>  <SCORE.INTRA.DIHEDRAL>
-21.0925

>  <SCORE.INTRA.DIHEDRAL.0>
24.1231

>  <SCORE.INTRA.POLAR>
0

>  <SCORE.INTRA.POLAR.0>
0

>  <SCORE.INTRA.REPUL>
0

>  <SCORE.INTRA.REPUL.0>
0

>  <SCORE.INTRA.SOLV>
1.21575

>  <SCORE.INTRA.SOLV.lig_0>
-48.2216

>  <SCORE.INTRA.VDW>
0.588338

>  <SCORE.INTRA.VDW.0>
-1.3967

>  <SCORE.INTRA.norm>
-0.667859

>  <SCORE.RESTR>
0.00108673

>  <SCORE.RESTR.CAVITY>
0.00108673

>  <SCORE.RESTR.norm>
7.76238e-05

>  <SCORE.SYSTEM>
0

>  <SCORE.SYSTEM.CONST>
0

>  <SCORE.SYSTEM.DIHEDRAL>
0

>  <SCORE.SYSTEM.SOLV>
0

>  <SCORE.SYSTEM.norm>
0

>  <SCORE.heavy>
14

>  <SCORE.norm>
-0.263489

>  <RMSD>
3.407

$$$$
ligand
 OpenBabel11021811463D
libRbt.so/2013.1/901 2013/11/27
 14 13  0  0  0  0  0  0  0  0999 V2000
   13.9164   12.4875    8.7244 N   0  0  0  0  0  0  0  0  0  0  0  0
   13.3558   11.2357    9.2503 C   0  0  0  0  0  0  0  0  0  0  0  0
   11.9513   11.4968    9.7845 C   0  0  0  0  0  0  0  0  0  0  0  0
   11.4002   10.2019   10.3587 C   0  0  0  0  0  0  0  0  0  0  0  0
   12.1112    9.8918   11.6041 N   0  0  0  0  0  0  0  0  0  0  0  0
   11.7955    8.4932   11.9429 C   0  0  0  0  0  0  0  0  0  0  0  0
   10.4802    8.4119   12.7260 C   0  0  0  0  0  0  0  0  0  0  0  0
   10.7214    8.9787   14.1331 C   0  0  0  0  0  0  0  0  0  0  0  0
   10.7464   10.4498   14.0885 C   0  0  0  0  0  0  0  0  0  0  0  0
   11.0293   10.9325   15.4555 N   0  0  0  0  0  0  0  0  0  0  0  0
   11.3148   12.4385   15.4359 C   0  0  0  0  0  0  0  0  0  0  0  0
   11.5324   12.9410   16.8683 C   0  0  0  0  0  0  0  0  0  0  0  0
   11.7539   14.3998   16.8562 C   0  0  0  0  0  0  0  0  0  0  0  0
   10.5218   15.0869   16.4128 N   0  0  0  0  0  0  0  0  0  0  0  0
  1  2  1  0  0  0  0
  2  3  1  0  0  0  0
  3  4  1  0  0  0  0
  4  5  1  0  0  0  0
  5  6  1  0  0  0  0
  6  7  1  0  0  0  0
  7  8  1  0  0  0  0
  8  9  1  0  0  0  0
  9 10  1  0  0  0  0
 10 11  1  0  0  0  0
 11 12  1  0  0  0  0
 12 13  1  0  0  0  0
 13 14  1  0  0  0  0
M  END
>  <CHROM.1>
-178.48339878,71.16374373,-166.21428906,-85.28197901,-71.39517106,77.64433861
-177.99355128,170.00328472,176.98236128,-177.75351136,66.05332449,11.61636195
11.24580127,13.11724770,-1.09416301,1.15903293,0.71567213

>  <Name>
ligand

>  <RI>
0

>  <Rbt.Current_Directory>
/home/itssahil/PROJECTS/Mol_Feturizer/New_Systems/rnas/2O3Y

>  <Rbt.Executable>
rbdock ($Id: //depot/dev/client3/rdock/2013.1/src/exe/rbdock.cxx#4 $)

>  <Rbt.Library>
libRbt.so (2013.1, Build901 2013/11/27)

>  <Rbt.Parameter_File>
/export/apps/rDock/src/rDock_2013.1_src/data/scripts/dock_solv.prm

>  <Rbt.Receptor>
prm/pocket_docking_3.prm

>  <SCORE>
-4.99882

>  <SCORE.INTER>
3.22342

>  <SCORE.INTER.CONST>
1

>  <SCORE.INTER.POLAR>
0

>  <SCORE.INTER.ROT>
11

>  <SCORE.INTER.SOLV>
4.32771

>  <SCORE.INTER.VDW>
-10.227

>  <SCORE.INTER.norm>
0.230244

>  <SCORE.INTRA>
-8.22224

>  <SCORE.INTRA.DIHEDRAL>
-21.1012

>  <SCORE.INTRA.DIHEDRAL.0>
24.1231

>  <SCORE.INTRA.POLAR>
0

>  <SCORE.INTRA.POLAR.0>
0

>  <SCORE.INTRA.REPUL>
0

>  <SCORE.INTRA.REPUL.0>
0

>  <SCORE.INTRA.SOLV>
1.45496

>  <SCORE.INTRA.SOLV.lig_0>
-48.2216

>  <SCORE.INTRA.VDW>
1.6009

>  <SCORE.INTRA.VDW.0>
-1.3967

>  <SCORE.INTRA.norm>
-0.587303

>  <SCORE.RESTR>
0

>  <SCORE.RESTR.CAVITY>
0

>  <SCORE.RESTR.norm>
0

>  <SCORE.SYSTEM>
0

>  <SCORE.SYSTEM.CONST>
0

>  <SCORE.SYSTEM.DIHEDRAL>
0

>  <SCORE.SYSTEM.SOLV>
0

>  <SCORE.SYSTEM.norm>
0

>  <SCORE.heavy>
14

>  <SCORE.norm>
-0.357059

>  <RMSD>
3.417

$$$$
ligand
 OpenBabel11021811463D
libRbt.so/2013.1/901 2013/11/27
 14 13  0  0  0  0  0  0  0  0999 V2000
   14.7218   11.9249    8.4176 N   0  0  0  0  0  0  0  0  0  0  0  0
   13.4091   12.3542    7.9168 C   0  0  0  0  0  0  0  0  0  0  0  0
   12.4635   12.5645    9.0948 C   0  0  0  0  0  0  0  0  0  0  0  0
   12.1386   11.2112    9.7058 C   0  0  0  0  0  0  0  0  0  0  0  0
   11.2453   11.4080   10.8530 N   0  0  0  0  0  0  0  0  0  0  0  0
   11.0373   10.0854   11.4681 C   0  0  0  0  0  0  0  0  0  0  0  0
   10.6292   10.2329   12.9384 C   0  0  0  0  0  0  0  0  0  0  0  0
   11.7595   10.9609   13.6814 C   0  0  0  0  0  0  0  0  0  0  0  0
   11.3792   11.1856   15.0855 C   0  0  0  0  0  0  0  0  0  0  0  0
   12.4615   11.9641   15.7214 N   0  0  0  0  0  0  0  0  0  0  0  0
   12.0041   12.4869   17.0879 C   0  0  0  0  0  0  0  0  0  0  0  0
   11.6937   13.9854   16.9893 C   0  0  0  0  0  0  0  0  0  0  0  0
   10.5394   14.1972   16.0947 C   0  0  0  0  0  0  0  0  0  0  0  0
   10.2583   15.6443   15.9787 N   0  0  0  0  0  0  0  0  0  0  0  0
  1  2  1  0  0  0  0
  2  3  1  0  0  0  0
  3  4  1  0  0  0  0
  4  5  1  0  0  0  0
  5  6  1  0  0  0  0
  6  7  1  0  0  0  0
  7  8  1  0  0  0  0
  8  9  1  0  0  0  0
  9 10  1  0  0  0  0
 10 11  1  0  0  0  0
 11 12  1  0  0  0  0
 12 13  1  0  0  0  0
 13 14  1  0  0  0  0
M  END
>  <CHROM.1>
-69.55967212,179.13354766,-176.02233335,156.68414086,-60.50016951,177.11441396
-176.31353823,168.02347788,-104.61925115,65.21925360,-178.85864548,11.83847881
12.15731347,12.93102484,-0.79580194,1.26148412,0.58897360

>  <Name>
ligand

>  <RI>
0

>  <Rbt.Current_Directory>
/home/itssahil/PROJECTS/Mol_Feturizer/New_Systems/rnas/2O3Y

>  <Rbt.Executable>
rbdock ($Id: //depot/dev/client3/rdock/2013.1/src/exe/rbdock.cxx#4 $)

>  <Rbt.Library>
libRbt.so (2013.1, Build901 2013/11/27)

>  <Rbt.Parameter_File>
/export/apps/rDock/src/rDock_2013.1_src/data/scripts/dock_solv.prm

>  <Rbt.Receptor>
prm/pocket_docking_3.prm

>  <SCORE>
-5.77429

>  <SCORE.INTER>
4.23586

>  <SCORE.INTER.CONST>
1

>  <SCORE.INTER.POLAR>
0

>  <SCORE.INTER.ROT>
11

>  <SCORE.INTER.SOLV>
3.56437

>  <SCORE.INTER.VDW>
-9.29755

>  <SCORE.INTER.norm>
0.302562

>  <SCORE.INTRA>
-10.0603

>  <SCORE.INTRA.DIHEDRAL>
-22.0502

>  <SCORE.INTRA.DIHEDRAL.0>
24.1231

>  <SCORE.INTRA.POLAR>
0

>  <SCORE.INTRA.POLAR.0>
0

>  <SCORE.INTRA.REPUL>
0

>  <SCORE.INTRA.REPUL.0>
0

>  <SCORE.INTRA.SOLV>
0.756619

>  <SCORE.INTRA.SOLV.lig_0>
-48.2216

>  <SCORE.INTRA.VDW>
0.586495

>  <SCORE.INTRA.VDW.0>
-1.3967

>  <SCORE.INTRA.norm>
-0.718591

>  <SCORE.RESTR>
0.0501137

>  <SCORE.RESTR.CAVITY>
0.0501137

>  <SCORE.RESTR.norm>
0.00357955

>  <SCORE.SYSTEM>
0

>  <SCORE.SYSTEM.CONST>
0

>  <SCORE.SYSTEM.DIHEDRAL>
0

>  <SCORE.SYSTEM.SOLV>
0

>  <SCORE.SYSTEM.norm>
0

>  <SCORE.heavy>
14

>  <SCORE.norm>
-0.41245

>  <RMSD>
3.423

$$$$
ligand
 OpenBabel11021811463D
libRbt.so/2013.1/901 2013/11/27
 14 13  0  0  0  0  0  0  0  0999 V2000
   16.2147   13.6814    8.1061 N   0  0  0  0  0  0  0  0  0  0  0  0
   15.0597   12.7752    8.1610 C   0  0  0  0  0  0  0  0  0  0  0  0
   13.7837   13.5935    8.3297 C   0  0  0  0  0  0  0  0  0  0  0  0
   12.6102   12.6397    8.4816 C   0  0  0  0  0  0  0  0  0  0  0  0
   12.7048   11.9708    9.7841 N   0  0  0  0  0  0  0  0  0  0  0  0
   11.9578   10.7057    9.6733 C   0  0  0  0  0  0  0  0  0  0  0  0
   10.4963   10.9043   10.0913 C   0  0  0  0  0  0  0  0  0  0  0  0
   10.4653   11.2414   11.5896 C   0  0  0  0  0  0  0  0  0  0  0  0
   10.7555   12.6701   11.7927 C   0  0  0  0  0  0  0  0  0  0  0  0
   10.7255   12.9288   13.2466 N   0  0  0  0  0  0  0  0  0  0  0  0
   10.4473   14.4123   13.5141 C   0  0  0  0  0  0  0  0  0  0  0  0
    8.9389   14.6325   13.6804 C   0  0  0  0  0  0  0  0  0  0  0  0
    8.4544   13.8907   14.8604 C   0  0  0  0  0  0  0  0  0  0  0  0
    6.9845   14.0180   14.9597 N   0  0  0  0  0  0  0  0  0  0  0  0
  1  2  1  0  0  0  0
  2  3  1  0  0  0  0
  3  4  1  0  0  0  0
  4  5  1  0  0  0  0
  5  6  1  0  0  0  0
  6  7  1  0  0  0  0
  7  8  1  0  0  0  0
  8  9  1  0  0  0  0
  9 10  1  0  0  0  0
 10 11  1  0  0  0  0
 11 12  1  0  0  0  0
 12 13  1  0  0  0  0
 13 14  1  0  0  0  0
M  END
>  <CHROM.1>
-176.11742050,70.13727691,-156.25531024,-91.20862649,-65.97757429,81.46252391
-179.41412562,-156.97324659,92.32362608,63.10802637,-175.64893948,11.39978780
12.86162937,11.16202190,-0.52798136,0.63445384,0.59300130

>  <Name>
ligand

>  <RI>
0

>  <Rbt.Current_Directory>
/home/itssahil/PROJECTS/Mol_Feturizer/New_Systems/rnas/2O3Y

>  <Rbt.Executable>
rbdock ($Id: //depot/dev/client3/rdock/2013.1/src/exe/rbdock.cxx#4 $)

>  <Rbt.Library>
libRbt.so (2013.1, Build901 2013/11/27)

>  <Rbt.Parameter_File>
/export/apps/rDock/src/rDock_2013.1_src/data/scripts/dock_solv.prm

>  <Rbt.Receptor>
prm/pocket_docking_4.prm

>  <SCORE>
-4.39092

>  <SCORE.INTER>
3.38036

>  <SCORE.INTER.CONST>
1

>  <SCORE.INTER.POLAR>
0

>  <SCORE.INTER.ROT>
11

>  <SCORE.INTER.SOLV>
2.54307

>  <SCORE.INTER.VDW>
-9.52745

>  <SCORE.INTER.norm>
0.241454

>  <SCORE.INTRA>
-7.79541

>  <SCORE.INTRA.DIHEDRAL>
-19.6026

>  <SCORE.INTRA.DIHEDRAL.0>
24.1231

>  <SCORE.INTRA.POLAR>
0

>  <SCORE.INTRA.POLAR.0>
0

>  <SCORE.INTRA.REPUL>
0

>  <SCORE.INTRA.REPUL.0>
0

>  <SCORE.INTRA.SOLV>
1.1585

>  <SCORE.INTRA.SOLV.lig_0>
-48.2216

>  <SCORE.INTRA.VDW>
1.42666

>  <SCORE.INTRA.VDW.0>
-1.3967

>  <SCORE.INTRA.norm>
-0.556815

>  <SCORE.RESTR>
0.0241294

>  <SCORE.RESTR.CAVITY>
0.0241294

>  <SCORE.RESTR.norm>
0.00172353

>  <SCORE.SYSTEM>
0

>  <SCORE.SYSTEM.CONST>
0

>  <SCORE.SYSTEM.DIHEDRAL>
0

>  <SCORE.SYSTEM.SOLV>
0

>  <SCORE.SYSTEM.norm>
0

>  <SCORE.heavy>
14

>  <SCORE.norm>
-0.313637

>  <RMSD>
3.423

$$$$
ligand
 OpenBabel11021811463D
libRbt.so/2013.1/901 2013/11/27
 14 13  0  0  0  0  0  0  0  0999 V2000
   13.3423   11.5573    9.0333 N   0  0  0  0  0  0  0  0  0  0  0  0
   12.9780   10.7413   10.1993 C   0  0  0  0  0  0  0  0  0  0  0  0
   13.2801    9.2758    9.9041 C   0  0  0  0  0  0  0  0  0  0  0  0
   12.9572    8.4535   11.1409 C   0  0  0  0  0  0  0  0  0  0  0  0
   13.8991    8.8080   12.2086 N   0  0  0  0  0  0  0  0  0  0  0  0
   13.4606    8.0976   13.4225 C   0  0  0  0  0  0  0  0  0  0  0  0
   12.4028    8.9149   14.1729 C   0  0  0  0  0  0  0  0  0  0  0  0
   12.9978   10.2942   14.4937 C   0  0  0  0  0  0  0  0  0  0  0  0
   11.9737   11.1573   15.1044 C   0  0  0  0  0  0  0  0  0  0  0  0
   10.8460   11.2513   14.1550 N   0  0  0  0  0  0  0  0  0  0  0  0
   10.7465   12.6734   13.5915 C   0  0  0  0  0  0  0  0  0  0  0  0
    9.4964   13.3635   14.1507 C   0  0  0  0  0  0  0  0  0  0  0  0
    9.4958   14.7863   13.7594 C   0  0  0  0  0  0  0  0  0  0  0  0
   10.5758   15.4998   14.4744 N   0  0  0  0  0  0  0  0  0  0  0  0
  1  2  1  0  0  0  0
  2  3  1  0  0  0  0
  3  4  1  0  0  0  0
  4  5  1  0  0  0  0
  5  6  1  0  0  0  0
  6  7  1  0  0  0  0
  7  8  1  0  0  0  0
  8  9  1  0  0  0  0
  9 10  1  0  0  0  0
 10 11  1  0  0  0  0
 11 12  1  0  0  0  0
 12 13  1  0  0  0  0
 13 14  1  0  0  0  0
M  END
>  <CHROM.1>
177.46996851,-67.00412270,174.08762496,-86.11418577,-56.81939087,174.77264375
-57.84196269,-111.81339913,-109.87835770,172.30016922,-69.14597114,12.03223206
11.06215293,12.84377231,0.05750042,1.05627521,-1.10038203

>  <Name>
ligand

>  <RI>
0

>  <Rbt.Current_Directory>
/home/itssahil/PROJECTS/Mol_Feturizer/New_Systems/rnas/2O3Y

>  <Rbt.Executable>
rbdock ($Id: //depot/dev/client3/rdock/2013.1/src/exe/rbdock.cxx#4 $)

>  <Rbt.Library>
libRbt.so (2013.1, Build901 2013/11/27)

>  <Rbt.Parameter_File>
/export/apps/rDock/src/rDock_2013.1_src/data/scripts/dock_solv.prm

>  <Rbt.Receptor>
prm/pocket_docking_2.prm

>  <SCORE>
1.5847

>  <SCORE.INTER>
9.67451

>  <SCORE.INTER.CONST>
1

>  <SCORE.INTER.POLAR>
0

>  <SCORE.INTER.ROT>
11

>  <SCORE.INTER.SOLV>
3.89557

>  <SCORE.INTER.VDW>
-5.78218

>  <SCORE.INTER.norm>
0.691036

>  <SCORE.INTRA>
-8.13602

>  <SCORE.INTRA.DIHEDRAL>
-20.4433

>  <SCORE.INTRA.DIHEDRAL.0>
24.1231

>  <SCORE.INTRA.POLAR>
0

>  <SCORE.INTRA.POLAR.0>
0

>  <SCORE.INTRA.REPUL>
0

>  <SCORE.INTRA.REPUL.0>
0

>  <SCORE.INTRA.SOLV>
1.54525

>  <SCORE.INTRA.SOLV.lig_0>
-48.2216

>  <SCORE.INTRA.VDW>
1.31298

>  <SCORE.INTRA.VDW.0>
-1.3967

>  <SCORE.INTRA.norm>
-0.581145

>  <SCORE.RESTR>
0.046216

>  <SCORE.RESTR.CAVITY>
0.046216

>  <SCORE.RESTR.norm>
0.00330114

>  <SCORE.SYSTEM>
0

>  <SCORE.SYSTEM.CONST>
0

>  <SCORE.SYSTEM.DIHEDRAL>
0

>  <SCORE.SYSTEM.SOLV>
0

>  <SCORE.SYSTEM.norm>
0

>  <SCORE.heavy>
14

>  <SCORE.norm>
0.113193

>  <RMSD>
3.426

$$$$
ligand
 OpenBabel11021811463D
libRbt.so/2013.1/901 2013/11/27
 14 13  0  0  0  0  0  0  0  0999 V2000
   18.9383   12.5626    9.5039 N   0  0  0  0  0  0  0  0  0  0  0  0
   17.6298   13.2269    9.4356 C   0  0  0  0  0  0  0  0  0  0  0  0
   16.9555   12.8787    8.1126 C   0  0  0  0  0  0  0  0  0  0  0  0
   15.6283   13.6153    8.0340 C   0  0  0  0  0  0  0  0  0  0  0  0
   14.7439   13.1190    9.0943 N   0  0  0  0  0  0  0  0  0  0  0  0
   13.4108   12.9391    8.4935 C   0  0  0  0  0  0  0  0  0  0  0  0
   12.6555   11.8003    9.1883 C   0  0  0  0  0  0  0  0  0  0  0  0
   13.4073   10.4883    8.9180 C   0  0  0  0  0  0  0  0  0  0  0  0
   12.7267    9.3681    9.5879 C   0  0  0  0  0  0  0  0  0  0  0  0
   12.8433    9.5826   11.0446 N   0  0  0  0  0  0  0  0  0  0  0  0
   12.3614    8.3401   11.8022 C   0  0  0  0  0  0  0  0  0  0  0  0
   11.0029    8.6275   12.4529 C   0  0  0  0  0  0  0  0  0  0  0  0
   11.1573    9.6650   13.4908 C   0  0  0  0  0  0  0  0  0  0  0  0
    9.8629    9.8856   14.1709 N   0  0  0  0  0  0  0  0  0  0  0  0
  1  2  1  0  0  0  0
  2  3  1  0  0  0  0
  3  4  1  0  0  0  0
  4  5  1  0  0  0  0
  5  6  1  0  0  0  0
  6  7  1  0  0  0  0
  7  8  1  0  0  0  0
  8  9  1  0  0  0  0
  9 10  1  0  0  0  0
 10 11  1  0  0  0  0
 11 12  1  0  0  0  0
 12 13  1  0  0  0  0
 13 14  1  0  0  0  0
M  END
>  <CHROM.1>
-177.84787613,-64.38856486,-136.59696581,149.71047788,-64.89523709,179.05818924
-66.10977205,-170.64526676,-107.09213568,-65.42060642,-176.75944445,13.80874582
11.14989021,10.23752179,-0.75080169,0.18216022,2.14861106

>  <Name>
ligand

>  <RI>
0

>  <Rbt.Current_Directory>
/home/itssahil/PROJECTS/Mol_Feturizer/New_Systems/rnas/2O3Y

>  <Rbt.Executable>
rbdock ($Id: //depot/dev/client3/rdock/2013.1/src/exe/rbdock.cxx#4 $)

>  <Rbt.Library>
libRbt.so (2013.1, Build901 2013/11/27)

>  <Rbt.Parameter_File>
/export/apps/rDock/src/rDock_2013.1_src/data/scripts/dock_solv.prm

>  <Rbt.Receptor>
prm/pocket_docking_3.prm

>  <SCORE>
-4.43216

>  <SCORE.INTER>
5.02032

>  <SCORE.INTER.CONST>
1

>  <SCORE.INTER.POLAR>
0

>  <SCORE.INTER.ROT>
11

>  <SCORE.INTER.SOLV>
3.35919

>  <SCORE.INTER.VDW>
-8.70618

>  <SCORE.INTER.norm>
0.358594

>  <SCORE.INTRA>
-9.46779

>  <SCORE.INTRA.DIHEDRAL>
-20.914

>  <SCORE.INTRA.DIHEDRAL.0>
24.1231

>  <SCORE.INTRA.POLAR>
0

>  <SCORE.INTRA.POLAR.0>
0

>  <SCORE.INTRA.REPUL>
0

>  <SCORE.INTRA.REPUL.0>
0

>  <SCORE.INTRA.SOLV>
0.77235

>  <SCORE.INTRA.SOLV.lig_0>
-48.2216

>  <SCORE.INTRA.VDW>
0.603036

>  <SCORE.INTRA.VDW.0>
-1.3967

>  <SCORE.INTRA.norm>
-0.67627

>  <SCORE.RESTR>
0.015305

>  <SCORE.RESTR.CAVITY>
0.015305

>  <SCORE.RESTR.norm>
0.00109322

>  <SCORE.SYSTEM>
0

>  <SCORE.SYSTEM.CONST>
0

>  <SCORE.SYSTEM.DIHEDRAL>
0

>  <SCORE.SYSTEM.SOLV>
0

>  <SCORE.SYSTEM.norm>
0

>  <SCORE.heavy>
14

>  <SCORE.norm>
-0.316583

>  <RMSD>
3.435

$$$$
ligand
 OpenBabel11021811463D
libRbt.so/2013.1/901 2013/11/27
 14 13  0  0  0  0  0  0  0  0999 V2000
   17.3610   14.6730    6.4031 N   0  0  0  0  0  0  0  0  0  0  0  0
   16.0951   13.9329    6.4917 C   0  0  0  0  0  0  0  0  0  0  0  0
   16.3839   12.4810    6.8587 C   0  0  0  0  0  0  0  0  0  0  0  0
   15.0629   11.7429    7.0014 C   0  0  0  0  0  0  0  0  0  0  0  0
   14.3307   12.2931    8.1477 N   0  0  0  0  0  0  0  0  0  0  0  0
   13.4206   11.2369    8.6240 C   0  0  0  0  0  0  0  0  0  0  0  0
   12.2677   11.8428    9.4325 C   0  0  0  0  0  0  0  0  0  0  0  0
   11.3701   10.6975    9.9244 C   0  0  0  0  0  0  0  0  0  0  0  0
   10.1853   11.2413   10.6080 C   0  0  0  0  0  0  0  0  0  0  0  0
   10.6494   11.9092   11.8410 N   0  0  0  0  0  0  0  0  0  0  0  0
    9.7042   13.0591   12.2072 C   0  0  0  0  0  0  0  0  0  0  0  0
   10.2844   13.8478   13.3874 C   0  0  0  0  0  0  0  0  0  0  0  0
    9.3850   14.9665   13.7292 C   0  0  0  0  0  0  0  0  0  0  0  0
    9.9651   15.7500   14.8411 N   0  0  0  0  0  0  0  0  0  0  0  0
  1  2  1  0  0  0  0
  2  3  1  0  0  0  0
  3  4  1  0  0  0  0
  4  5  1  0  0  0  0
  5  6  1  0  0  0  0
  6  7  1  0  0  0  0
  7  8  1  0  0  0  0
  8  9  1  0  0  0  0
  9 10  1  0  0  0  0
 10 11  1  0  0  0  0
 11 12  1  0  0  0  0
 12 13  1  0  0  0  0
 13 14  1  0  0  0  0
M  END
>  <CHROM.1>
177.74243001,-65.77729963,-155.10426944,-158.47708422,-178.91170589,-175.13533031
-66.48640270,150.68664631,-173.28294666,179.21602084,-178.33634184,12.60446741
12.83351986,9.96395204,-0.48137825,0.68223832,0.55425630

>  <Name>
ligand

>  <RI>
0

>  <Rbt.Current_Directory>
/home/itssahil/PROJECTS/Mol_Feturizer/New_Systems/rnas/2O3Y

>  <Rbt.Executable>
rbdock ($Id: //depot/dev/client3/rdock/2013.1/src/exe/rbdock.cxx#4 $)

>  <Rbt.Library>
libRbt.so (2013.1, Build901 2013/11/27)

>  <Rbt.Parameter_File>
/export/apps/rDock/src/rDock_2013.1_src/data/scripts/dock_solv.prm

>  <Rbt.Receptor>
prm/pocket_docking_7.prm

>  <SCORE>
-7.13149

>  <SCORE.INTER>
3.61108

>  <SCORE.INTER.CONST>
1

>  <SCORE.INTER.POLAR>
0

>  <SCORE.INTER.ROT>
11

>  <SCORE.INTER.SOLV>
5.29192

>  <SCORE.INTER.VDW>
-10.2899

>  <SCORE.INTER.norm>
0.257935

>  <SCORE.INTRA>
-10.7426

>  <SCORE.INTRA.DIHEDRAL>
-22.3058

>  <SCORE.INTRA.DIHEDRAL.0>
24.1231

>  <SCORE.INTRA.POLAR>
0

>  <SCORE.INTRA.POLAR.0>
0

>  <SCORE.INTRA.REPUL>
0

>  <SCORE.INTRA.REPUL.0>
0

>  <SCORE.INTRA.SOLV>
-0.0463958

>  <SCORE.INTRA.SOLV.lig_0>
-48.2216

>  <SCORE.INTRA.VDW>
0.433536

>  <SCORE.INTRA.VDW.0>
-1.3967

>  <SCORE.INTRA.norm>
-0.767327

>  <SCORE.RESTR>
0

>  <SCORE.RESTR.CAVITY>
0

>  <SCORE.RESTR.norm>
0

>  <SCORE.SYSTEM>
0

>  <SCORE.SYSTEM.CONST>
0

>  <SCORE.SYSTEM.DIHEDRAL>
0

>  <SCORE.SYSTEM.SOLV>
0

>  <SCORE.SYSTEM.norm>
0

>  <SCORE.heavy>
14

>  <SCORE.norm>
-0.509392

>  <RMSD>
3.438

$$$$
ligand
 OpenBabel11021811463D
libRbt.so/2013.1/901 2013/11/27
 14 13  0  0  0  0  0  0  0  0999 V2000
   10.5800   15.9421   16.6553 N   0  0  0  0  0  0  0  0  0  0  0  0
   11.1762   14.8312   15.9013 C   0  0  0  0  0  0  0  0  0  0  0  0
   10.3577   14.5813   14.6389 C   0  0  0  0  0  0  0  0  0  0  0  0
   10.9147   13.3564   13.9321 C   0  0  0  0  0  0  0  0  0  0  0  0
   10.1362   13.1146   12.7121 N   0  0  0  0  0  0  0  0  0  0  0  0
   10.6721   11.8884   12.0957 C   0  0  0  0  0  0  0  0  0  0  0  0
   10.1129   11.7080   10.6798 C   0  0  0  0  0  0  0  0  0  0  0  0
   10.7179   10.4288   10.0823 C   0  0  0  0  0  0  0  0  0  0  0  0
   12.1489   10.6291    9.8017 C   0  0  0  0  0  0  0  0  0  0  0  0
   12.6663    9.3789    9.2093 N   0  0  0  0  0  0  0  0  0  0  0  0
   14.0839    9.0985    9.7208 C   0  0  0  0  0  0  0  0  0  0  0  0
   15.0676    9.1064    8.5444 C   0  0  0  0  0  0  0  0  0  0  0  0
   16.4259    8.7934    9.0289 C   0  0  0  0  0  0  0  0  0  0  0  0
   17.3947    8.9348    7.9208 N   0  0  0  0  0  0  0  0  0  0  0  0
  1  2  1  0  0  0  0
  2  3  1  0  0  0  0
  3  4  1  0  0  0  0
  4  5  1  0  0  0  0
  5  6  1  0  0  0  0
  6  7  1  0  0  0  0
  7  8  1  0  0  0  0
  8  9  1  0  0  0  0
  9 10  1  0  0  0  0
 10 11  1  0  0  0  0
 11 12  1  0  0  0  0
 12 13  1  0  0  0  0
 13 14  1  0  0  0  0
M  END
>  <CHROM.1>
-175.21691491,-179.68465675,-177.53447139,-168.78004745,179.27768014,-70.18048140
-179.00492369,-142.13404644,-117.78642434,-178.17685059,-174.32154372,12.31806829
11.55645182,11.49448005,-2.08897438,0.09028993,-2.23789857

>  <Name>
ligand

>  <RI>
0

>  <Rbt.Current_Directory>
/home/itssahil/PROJECTS/Mol_Feturizer/New_Systems/rnas/2O3Y

>  <Rbt.Executable>
rbdock ($Id: //depot/dev/client3/rdock/2013.1/src/exe/rbdock.cxx#4 $)

>  <Rbt.Library>
libRbt.so (2013.1, Build901 2013/11/27)

>  <Rbt.Parameter_File>
/export/apps/rDock/src/rDock_2013.1_src/data/scripts/dock_solv.prm

>  <Rbt.Receptor>
prm/pocket_docking_4.prm

>  <SCORE>
-5.7441

>  <SCORE.INTER>
4.28628

>  <SCORE.INTER.CONST>
1

>  <SCORE.INTER.POLAR>
0

>  <SCORE.INTER.ROT>
11

>  <SCORE.INTER.SOLV>
8.14978

>  <SCORE.INTER.VDW>
-10.7924

>  <SCORE.INTER.norm>
0.306163

>  <SCORE.INTRA>
-10.0304

>  <SCORE.INTRA.DIHEDRAL>
-21.331

>  <SCORE.INTRA.DIHEDRAL.0>
24.1231

>  <SCORE.INTRA.POLAR>
0

>  <SCORE.INTRA.POLAR.0>
0

>  <SCORE.INTRA.REPUL>
0

>  <SCORE.INTRA.REPUL.0>
0

>  <SCORE.INTRA.SOLV>
-0.733681

>  <SCORE.INTRA.SOLV.lig_0>
-48.2216

>  <SCORE.INTRA.VDW>
1.00194

>  <SCORE.INTRA.VDW.0>
-1.3967

>  <SCORE.INTRA.norm>
-0.716456

>  <SCORE.RESTR>
0

>  <SCORE.RESTR.CAVITY>
0

>  <SCORE.RESTR.norm>
0

>  <SCORE.SYSTEM>
0

>  <SCORE.SYSTEM.CONST>
0

>  <SCORE.SYSTEM.DIHEDRAL>
0

>  <SCORE.SYSTEM.SOLV>
0

>  <SCORE.SYSTEM.norm>
0

>  <SCORE.heavy>
14

>  <SCORE.norm>
-0.410293

>  <RMSD>
3.452

$$$$
ligand
 OpenBabel11021811463D
libRbt.so/2013.1/901 2013/11/27
 14 13  0  0  0  0  0  0  0  0999 V2000
   15.7981   10.0192    7.6773 N   0  0  0  0  0  0  0  0  0  0  0  0
   15.4470    9.2201    8.8589 C   0  0  0  0  0  0  0  0  0  0  0  0
   14.0153    9.5392    9.2768 C   0  0  0  0  0  0  0  0  0  0  0  0
   13.7198    8.8257   10.5858 C   0  0  0  0  0  0  0  0  0  0  0  0
   12.3176    9.0586   10.9499 N   0  0  0  0  0  0  0  0  0  0  0  0
   12.0431    8.2448   12.1471 C   0  0  0  0  0  0  0  0  0  0  0  0
   10.5634    8.3401   12.5360 C   0  0  0  0  0  0  0  0  0  0  0  0
   10.3360    9.6863   13.2400 C   0  0  0  0  0  0  0  0  0  0  0  0
   10.3449   10.7801   12.2550 C   0  0  0  0  0  0  0  0  0  0  0  0
   10.1939   12.0487   12.9962 N   0  0  0  0  0  0  0  0  0  0  0  0
   10.4790   13.2381   12.0721 C   0  0  0  0  0  0  0  0  0  0  0  0
   10.3711   14.5456   12.8661 C   0  0  0  0  0  0  0  0  0  0  0  0
    8.9949   14.7084   13.3730 C   0  0  0  0  0  0  0  0  0  0  0  0
    8.9039   15.9451   14.1785 N   0  0  0  0  0  0  0  0  0  0  0  0
  1  2  1  0  0  0  0
  2  3  1  0  0  0  0
  3  4  1  0  0  0  0
  4  5  1  0  0  0  0
  5  6  1  0  0  0  0
  6  7  1  0  0  0  0
  7  8  1  0  0  0  0
  8  9  1  0  0  0  0
  9 10  1  0  0  0  0
 10 11  1  0  0  0  0
 11 12  1  0  0  0  0
 12 13  1  0  0  0  0
 13 14  1  0  0  0  0
M  END
>  <CHROM.1>
-173.74174795,-176.42924523,174.57555320,-175.51490065,-77.37069227,74.57060918
-177.06595121,168.52625218,-177.86940829,-62.55905221,178.01198558,11.68051979
11.01398142,11.64384258,-0.62272622,0.73641913,-0.09709386

>  <Name>
ligand

>  <RI>
0

>  <Rbt.Current_Directory>
/home/itssahil/PROJECTS/Mol_Feturizer/New_Systems/rnas/2O3Y

>  <Rbt.Executable>
rbdock ($Id: //depot/dev/client3/rdock/2013.1/src/exe/rbdock.cxx#4 $)

>  <Rbt.Library>
libRbt.so (2013.1, Build901 2013/11/27)

>  <Rbt.Parameter_File>
/export/apps/rDock/src/rDock_2013.1_src/data/scripts/dock_solv.prm

>  <Rbt.Receptor>
prm/pocket_docking_3.prm

>  <SCORE>
-4.1921

>  <SCORE.INTER>
5.41827

>  <SCORE.INTER.CONST>
1

>  <SCORE.INTER.POLAR>
0

>  <SCORE.INTER.ROT>
11

>  <SCORE.INTER.SOLV>
5.72229

>  <SCORE.INTER.VDW>
-9.22859

>  <SCORE.INTER.norm>
0.387019

>  <SCORE.INTRA>
-9.61036

>  <SCORE.INTRA.DIHEDRAL>
-21.7935

>  <SCORE.INTRA.DIHEDRAL.0>
24.1231

>  <SCORE.INTRA.POLAR>
0

>  <SCORE.INTRA.POLAR.0>
0

>  <SCORE.INTRA.REPUL>
0

>  <SCORE.INTRA.REPUL.0>
0

>  <SCORE.INTRA.SOLV>
0.618458

>  <SCORE.INTRA.SOLV.lig_0>
-48.2216

>  <SCORE.INTRA.VDW>
0.97715

>  <SCORE.INTRA.VDW.0>
-1.3967

>  <SCORE.INTRA.norm>
-0.686455

>  <SCORE.RESTR>
0

>  <SCORE.RESTR.CAVITY>
0

>  <SCORE.RESTR.norm>
0

>  <SCORE.SYSTEM>
0

>  <SCORE.SYSTEM.CONST>
0

>  <SCORE.SYSTEM.DIHEDRAL>
0

>  <SCORE.SYSTEM.SOLV>
0

>  <SCORE.SYSTEM.norm>
0

>  <SCORE.heavy>
14

>  <SCORE.norm>
-0.299436

>  <RMSD>
3.453

$$$$
ligand
 OpenBabel11021811463D
libRbt.so/2013.1/901 2013/11/27
 14 13  0  0  0  0  0  0  0  0999 V2000
   13.1108   11.2573   17.3022 N   0  0  0  0  0  0  0  0  0  0  0  0
   11.7517   11.7854   17.4814 C   0  0  0  0  0  0  0  0  0  0  0  0
   11.1573   12.1223   16.1178 C   0  0  0  0  0  0  0  0  0  0  0  0
   10.8721   10.8259   15.3774 C   0  0  0  0  0  0  0  0  0  0  0  0
   10.3587   11.1436   14.0400 N   0  0  0  0  0  0  0  0  0  0  0  0
   10.4060    9.8983   13.2541 C   0  0  0  0  0  0  0  0  0  0  0  0
   10.2732   10.2003   11.7571 C   0  0  0  0  0  0  0  0  0  0  0  0
   11.4724   11.0604   11.3309 C   0  0  0  0  0  0  0  0  0  0  0  0
   11.3297   11.4651    9.9228 C   0  0  0  0  0  0  0  0  0  0  0  0
   12.5410   12.2248    9.5524 N   0  0  0  0  0  0  0  0  0  0  0  0
   12.3430   12.9057    8.1933 C   0  0  0  0  0  0  0  0  0  0  0  0
   13.5502   13.7991    7.8832 C   0  0  0  0  0  0  0  0  0  0  0  0
   14.7455   12.9624    7.6630 C   0  0  0  0  0  0  0  0  0  0  0  0
   15.8889   13.8185    7.2804 N   0  0  0  0  0  0  0  0  0  0  0  0
  1  2  1  0  0  0  0
  2  3  1  0  0  0  0
  3  4  1  0  0  0  0
  4  5  1  0  0  0  0
  5  6  1  0  0  0  0
  6  7  1  0  0  0  0
  7  8  1  0  0  0  0
  8  9  1  0  0  0  0
  9 10  1  0  0  0  0
 10 11  1  0  0  0  0
 11 12  1  0  0  0  0
 12 13  1  0  0  0  0
 13 14  1  0  0  0  0
M  END
>  <CHROM.1>
70.49866379,-177.37258564,166.59341989,-163.93289060,62.49885733,-175.47039154
-177.04019620,-169.06621254,174.53779121,67.60841344,176.44898273,12.12826303
11.81910921,11.93967752,-1.92082319,-0.55093977,-1.52788704

>  <Name>
ligand

>  <RI>
0

>  <Rbt.Current_Directory>
/home/itssahil/PROJECTS/Mol_Feturizer/New_Systems/rnas/2O3Y

>  <Rbt.Executable>
rbdock ($Id: //depot/dev/client3/rdock/2013.1/src/exe/rbdock.cxx#4 $)

>  <Rbt.Library>
libRbt.so (2013.1, Build901 2013/11/27)

>  <Rbt.Parameter_File>
/export/apps/rDock/src/rDock_2013.1_src/data/scripts/dock_solv.prm

>  <Rbt.Receptor>
prm/pocket_docking_5.prm

>  <SCORE>
-7.88844

>  <SCORE.INTER>
2.80313

>  <SCORE.INTER.CONST>
1

>  <SCORE.INTER.POLAR>
0

>  <SCORE.INTER.ROT>
11

>  <SCORE.INTER.SOLV>
4.62215

>  <SCORE.INTER.VDW>
-10.6053

>  <SCORE.INTER.norm>
0.200224

>  <SCORE.INTRA>
-10.6916

>  <SCORE.INTRA.DIHEDRAL>
-22.8224

>  <SCORE.INTRA.DIHEDRAL.0>
24.1231

>  <SCORE.INTRA.POLAR>
0

>  <SCORE.INTRA.POLAR.0>
0

>  <SCORE.INTRA.REPUL>
0

>  <SCORE.INTRA.REPUL.0>
0

>  <SCORE.INTRA.SOLV>
0.649623

>  <SCORE.INTRA.SOLV.lig_0>
-48.2216

>  <SCORE.INTRA.VDW>
0.394825

>  <SCORE.INTRA.VDW.0>
-1.3967

>  <SCORE.INTRA.norm>
-0.763683

>  <SCORE.RESTR>
0

>  <SCORE.RESTR.CAVITY>
0

>  <SCORE.RESTR.norm>
0

>  <SCORE.SYSTEM>
0

>  <SCORE.SYSTEM.CONST>
0

>  <SCORE.SYSTEM.DIHEDRAL>
0

>  <SCORE.SYSTEM.SOLV>
0

>  <SCORE.SYSTEM.norm>
0

>  <SCORE.heavy>
14

>  <SCORE.norm>
-0.56346

>  <RMSD>
3.466

$$$$
ligand
 OpenBabel11021811463D
libRbt.so/2013.1/901 2013/11/27
 14 13  0  0  0  0  0  0  0  0999 V2000
    7.4690   11.5377   15.9104 N   0  0  0  0  0  0  0  0  0  0  0  0
    7.8109   10.3595   15.1024 C   0  0  0  0  0  0  0  0  0  0  0  0
    9.1514   10.5920   14.4129 C   0  0  0  0  0  0  0  0  0  0  0  0
    9.4711    9.3826   13.5497 C   0  0  0  0  0  0  0  0  0  0  0  0
   10.7521    9.6069   12.8703 N   0  0  0  0  0  0  0  0  0  0  0  0
   11.1207    8.3385   12.2176 C   0  0  0  0  0  0  0  0  0  0  0  0
   12.4590    8.4791   11.4833 C   0  0  0  0  0  0  0  0  0  0  0  0
   12.2782    9.4913   10.3420 C   0  0  0  0  0  0  0  0  0  0  0  0
   13.5174    9.5917    9.5540 C   0  0  0  0  0  0  0  0  0  0  0  0
   13.2716   10.5497    8.4569 N   0  0  0  0  0  0  0  0  0  0  0  0
   13.6634   11.9658    8.8940 C   0  0  0  0  0  0  0  0  0  0  0  0
   12.7871   12.9916    8.1649 C   0  0  0  0  0  0  0  0  0  0  0  0
   13.2087   14.3572    8.5320 C   0  0  0  0  0  0  0  0  0  0  0  0
   13.0079   14.5676    9.9818 N   0  0  0  0  0  0  0  0  0  0  0  0
  1  2  1  0  0  0  0
  2  3  1  0  0  0  0
  3  4  1  0  0  0  0
  4  5  1  0  0  0  0
  5  6  1  0  0  0  0
  6  7  1  0  0  0  0
  7  8  1  0  0  0  0
  8  9  1  0  0  0  0
  9 10  1  0  0  0  0
 10 11  1  0  0  0  0
 11 12  1  0  0  0  0
 12 13  1  0  0  0  0
 13 14  1  0  0  0  0
M  END
>  <CHROM.1>
-178.35652798,179.30798933,171.41821830,-179.75158430,-64.84279930,-176.31421501
178.61317325,91.37237308,-150.06852378,-177.12375949,-62.66120448,11.42644498
10.84335290,11.39070157,2.70990203,-0.85485490,2.94794569

>  <Name>
ligand

>  <RI>
0

>  <Rbt.Current_Directory>
/home/itssahil/PROJECTS/Mol_Feturizer/New_Systems/rnas/2O3Y

>  <Rbt.Executable>
rbdock ($Id: //depot/dev/client3/rdock/2013.1/src/exe/rbdock.cxx#4 $)

>  <Rbt.Library>
libRbt.so (2013.1, Build901 2013/11/27)

>  <Rbt.Parameter_File>
/export/apps/rDock/src/rDock_2013.1_src/data/scripts/dock_solv.prm

>  <Rbt.Receptor>
prm/pocket_docking_5.prm

>  <SCORE>
-9.4339

>  <SCORE.INTER>
1.03154

>  <SCORE.INTER.CONST>
1

>  <SCORE.INTER.POLAR>
0

>  <SCORE.INTER.ROT>
11

>  <SCORE.INTER.SOLV>
7.33402

>  <SCORE.INTER.VDW>
-12.6903

>  <SCORE.INTER.norm>
0.0736811

>  <SCORE.INTRA>
-10.4688

>  <SCORE.INTRA.DIHEDRAL>
-22.6002

>  <SCORE.INTRA.DIHEDRAL.0>
24.1231

>  <SCORE.INTRA.POLAR>
0

>  <SCORE.INTRA.POLAR.0>
0

>  <SCORE.INTRA.REPUL>
0

>  <SCORE.INTRA.REPUL.0>
0

>  <SCORE.INTRA.SOLV>
0.279138

>  <SCORE.INTRA.SOLV.lig_0>
-48.2216

>  <SCORE.INTRA.VDW>
0.691728

>  <SCORE.INTRA.VDW.0>
-1.3967

>  <SCORE.INTRA.norm>
-0.747773

>  <SCORE.RESTR>
0.00337751

>  <SCORE.RESTR.CAVITY>
0.00337751

>  <SCORE.RESTR.norm>
0.00024125

>  <SCORE.SYSTEM>
0

>  <SCORE.SYSTEM.CONST>
0

>  <SCORE.SYSTEM.DIHEDRAL>
0

>  <SCORE.SYSTEM.SOLV>
0

>  <SCORE.SYSTEM.norm>
0

>  <SCORE.heavy>
14

>  <SCORE.norm>
-0.67385

>  <RMSD>
3.477

$$$$
ligand
 OpenBabel11021811463D
libRbt.so/2013.1/901 2013/11/27
 14 13  0  0  0  0  0  0  0  0999 V2000
   10.3139   16.0573   16.8204 N   0  0  0  0  0  0  0  0  0  0  0  0
   11.6486   15.5083   16.5462 C   0  0  0  0  0  0  0  0  0  0  0  0
   11.5287   14.0189   16.2405 C   0  0  0  0  0  0  0  0  0  0  0  0
   10.8391   13.8519   14.8963 C   0  0  0  0  0  0  0  0  0  0  0  0
   10.6662   12.4206   14.6236 N   0  0  0  0  0  0  0  0  0  0  0  0
   10.0191   12.3090   13.3047 C   0  0  0  0  0  0  0  0  0  0  0  0
   11.0193   11.8144   12.2536 C   0  0  0  0  0  0  0  0  0  0  0  0
   10.2809   11.6752   10.9138 C   0  0  0  0  0  0  0  0  0  0  0  0
   11.2117   11.2204    9.8681 C   0  0  0  0  0  0  0  0  0  0  0  0
   12.1528   12.3262    9.5974 N   0  0  0  0  0  0  0  0  0  0  0  0
   13.1496   11.9172    8.5071 C   0  0  0  0  0  0  0  0  0  0  0  0
   14.1338   13.0650    8.2511 C   0  0  0  0  0  0  0  0  0  0  0  0
   15.0914   12.6745    7.1985 C   0  0  0  0  0  0  0  0  0  0  0  0
   16.0845   13.7528    7.0039 N   0  0  0  0  0  0  0  0  0  0  0  0
  1  2  1  0  0  0  0
  2  3  1  0  0  0  0
  3  4  1  0  0  0  0
  4  5  1  0  0  0  0
  5  6  1  0  0  0  0
  6  7  1  0  0  0  0
  7  8  1  0  0  0  0
  8  9  1  0  0  0  0
  9 10  1  0  0  0  0
 10 11  1  0  0  0  0
 11 12  1  0  0  0  0
 12 13  1  0  0  0  0
 13 14  1  0  0  0  0
M  END
>  <CHROM.1>
69.56735443,-177.48835302,-178.97561809,107.05930793,178.22961505,179.15154530
-69.19391279,-179.73026043,-179.12638096,-179.81320351,-176.95280091,12.00986272
13.04344241,11.85888737,-2.07967320,-0.66481474,-2.11928118

>  <Name>
ligand

>  <RI>
0

>  <Rbt.Current_Directory>
/home/itssahil/PROJECTS/Mol_Feturizer/New_Systems/rnas/2O3Y

>  <Rbt.Executable>
rbdock ($Id: //depot/dev/client3/rdock/2013.1/src/exe/rbdock.cxx#4 $)

>  <Rbt.Library>
libRbt.so (2013.1, Build901 2013/11/27)

>  <Rbt.Parameter_File>
/export/apps/rDock/src/rDock_2013.1_src/data/scripts/dock_solv.prm

>  <Rbt.Receptor>
prm/pocket_docking_4.prm

>  <SCORE>
-7.19629

>  <SCORE.INTER>
3.37203

>  <SCORE.INTER.CONST>
1

>  <SCORE.INTER.POLAR>
0

>  <SCORE.INTER.ROT>
11

>  <SCORE.INTER.SOLV>
5.4923

>  <SCORE.INTER.VDW>
-10.5161

>  <SCORE.INTER.norm>
0.240859

>  <SCORE.INTRA>
-10.5683

>  <SCORE.INTRA.DIHEDRAL>
-22.3274

>  <SCORE.INTRA.DIHEDRAL.0>
24.1231

>  <SCORE.INTRA.POLAR>
0

>  <SCORE.INTRA.POLAR.0>
0

>  <SCORE.INTRA.REPUL>
0

>  <SCORE.INTRA.REPUL.0>
0

>  <SCORE.INTRA.SOLV>
0.266814

>  <SCORE.INTRA.SOLV.lig_0>
-48.2216

>  <SCORE.INTRA.VDW>
0.461979

>  <SCORE.INTRA.VDW.0>
-1.3967

>  <SCORE.INTRA.norm>
-0.75488

>  <SCORE.RESTR>
0

>  <SCORE.RESTR.CAVITY>
0

>  <SCORE.RESTR.norm>
0

>  <SCORE.SYSTEM>
0

>  <SCORE.SYSTEM.CONST>
0

>  <SCORE.SYSTEM.DIHEDRAL>
0

>  <SCORE.SYSTEM.SOLV>
0

>  <SCORE.SYSTEM.norm>
0

>  <SCORE.heavy>
14

>  <SCORE.norm>
-0.514021

>  <RMSD>
3.479

$$$$
ligand
 OpenBabel11021811463D
libRbt.so/2013.1/901 2013/11/27
 14 13  0  0  0  0  0  0  0  0999 V2000
   18.7713   11.7860   10.0504 N   0  0  0  0  0  0  0  0  0  0  0  0
   17.9306   12.6428    9.2035 C   0  0  0  0  0  0  0  0  0  0  0  0
   16.7168   13.1066   10.0022 C   0  0  0  0  0  0  0  0  0  0  0  0
   15.8620   13.9972    9.1155 C   0  0  0  0  0  0  0  0  0  0  0  0
   15.3101   13.1914    8.0206 N   0  0  0  0  0  0  0  0  0  0  0  0
   13.9616   12.7675    8.4359 C   0  0  0  0  0  0  0  0  0  0  0  0
   13.9593   11.2857    8.8287 C   0  0  0  0  0  0  0  0  0  0  0  0
   12.6344   10.9786    9.5426 C   0  0  0  0  0  0  0  0  0  0  0  0
   12.6498    9.6037   10.0680 C   0  0  0  0  0  0  0  0  0  0  0  0
   11.4700    9.4476   10.9430 N   0  0  0  0  0  0  0  0  0  0  0  0
   11.7533    8.4062   12.0316 C   0  0  0  0  0  0  0  0  0  0  0  0
   10.4469    8.0369   12.7446 C   0  0  0  0  0  0  0  0  0  0  0  0
    9.9538    9.1963   13.5129 C   0  0  0  0  0  0  0  0  0  0  0  0
   10.8731    9.4765   14.6366 N   0  0  0  0  0  0  0  0  0  0  0  0
  1  2  1  0  0  0  0
  2  3  1  0  0  0  0
  3  4  1  0  0  0  0
  4  5  1  0  0  0  0
  5  6  1  0  0  0  0
  6  7  1  0  0  0  0
  7  8  1  0  0  0  0
  8  9  1  0  0  0  0
  9 10  1  0  0  0  0
 10 11  1  0  0  0  0
 11 12  1  0  0  0  0
 12 13  1  0  0  0  0
 13 14  1  0  0  0  0
M  END
>  <CHROM.1>
179.68817830,66.12800113,95.51221387,-105.38688948,167.47295521,-173.82883895
169.98317031,-151.42712079,-168.21705590,-67.49415013,-67.74869149,13.73506612
10.99450474,10.50955919,-0.69387013,0.29139185,2.05816292

>  <Name>
ligand

>  <RI>
0

>  <Rbt.Current_Directory>
/home/itssahil/PROJECTS/Mol_Feturizer/New_Systems/rnas/2O3Y

>  <Rbt.Executable>
rbdock ($Id: //depot/dev/client3/rdock/2013.1/src/exe/rbdock.cxx#4 $)

>  <Rbt.Library>
libRbt.so (2013.1, Build901 2013/11/27)

>  <Rbt.Parameter_File>
/export/apps/rDock/src/rDock_2013.1_src/data/scripts/dock_solv.prm

>  <Rbt.Receptor>
prm/pocket_docking_3.prm

>  <SCORE>
-3.52651

>  <SCORE.INTER>
5.12425

>  <SCORE.INTER.CONST>
1

>  <SCORE.INTER.POLAR>
0

>  <SCORE.INTER.ROT>
11

>  <SCORE.INTER.SOLV>
3.97991

>  <SCORE.INTER.VDW>
-8.84381

>  <SCORE.INTER.norm>
0.366018

>  <SCORE.INTRA>
-8.65626

>  <SCORE.INTRA.DIHEDRAL>
-19.9766

>  <SCORE.INTRA.DIHEDRAL.0>
24.1231

>  <SCORE.INTRA.POLAR>
0

>  <SCORE.INTRA.POLAR.0>
0

>  <SCORE.INTRA.REPUL>
0

>  <SCORE.INTRA.REPUL.0>
0

>  <SCORE.INTRA.SOLV>
1.17573

>  <SCORE.INTRA.SOLV.lig_0>
-48.2216

>  <SCORE.INTRA.VDW>
0.744177

>  <SCORE.INTRA.VDW.0>
-1.3967

>  <SCORE.INTRA.norm>
-0.618304

>  <SCORE.RESTR>
0.00549972

>  <SCORE.RESTR.CAVITY>
0.00549972

>  <SCORE.RESTR.norm>
0.000392837

>  <SCORE.SYSTEM>
0

>  <SCORE.SYSTEM.CONST>
0

>  <SCORE.SYSTEM.DIHEDRAL>
0

>  <SCORE.SYSTEM.SOLV>
0

>  <SCORE.SYSTEM.norm>
0

>  <SCORE.heavy>
14

>  <SCORE.norm>
-0.251894

>  <RMSD>
3.491

$$$$
ligand
 OpenBabel11021811463D
libRbt.so/2013.1/901 2013/11/27
 14 13  0  0  0  0  0  0  0  0999 V2000
   17.1983   12.3322   11.2479 N   0  0  0  0  0  0  0  0  0  0  0  0
   16.1914   13.3081   11.6860 C   0  0  0  0  0  0  0  0  0  0  0  0
   16.1194   14.4475   10.6746 C   0  0  0  0  0  0  0  0  0  0  0  0
   15.5205   13.9150    9.3832 C   0  0  0  0  0  0  0  0  0  0  0  0
   14.0893   13.6653    9.5887 N   0  0  0  0  0  0  0  0  0  0  0  0
   13.5927   12.9880    8.3782 C   0  0  0  0  0  0  0  0  0  0  0  0
   13.4510   11.4814    8.6233 C   0  0  0  0  0  0  0  0  0  0  0  0
   12.3484   11.2653    9.6708 C   0  0  0  0  0  0  0  0  0  0  0  0
   12.2565    9.8386   10.0215 C   0  0  0  0  0  0  0  0  0  0  0  0
   11.2517    9.7077   11.0962 N   0  0  0  0  0  0  0  0  0  0  0  0
   11.6546    8.5885   12.0631 C   0  0  0  0  0  0  0  0  0  0  0  0
   10.4168    8.0881   12.8175 C   0  0  0  0  0  0  0  0  0  0  0  0
    9.9373    9.1364   13.7386 C   0  0  0  0  0  0  0  0  0  0  0  0
   10.9371    9.3572   14.8055 N   0  0  0  0  0  0  0  0  0  0  0  0
  1  2  1  0  0  0  0
  2  3  1  0  0  0  0
  3  4  1  0  0  0  0
  4  5  1  0  0  0  0
  5  6  1  0  0  0  0
  6  7  1  0  0  0  0
  7  8  1  0  0  0  0
  8  9  1  0  0  0  0
  9 10  1  0  0  0  0
 10 11  1  0  0  0  0
 11 12  1  0  0  0  0
 12 13  1  0  0  0  0
 13 14  1  0  0  0  0
M  END
>  <CHROM.1>
68.88793552,71.91824285,-172.66686734,101.41163560,65.83247473,-175.21206621
176.05668452,-145.49129781,-158.06014850,-68.57228001,-66.50859007,13.21172453
11.29424033,10.98508810,-0.60139552,0.63713090,1.85890128

>  <Name>
ligand

>  <RI>
0

>  <Rbt.Current_Directory>
/home/itssahil/PROJECTS/Mol_Feturizer/New_Systems/rnas/2O3Y

>  <Rbt.Executable>
rbdock ($Id: //depot/dev/client3/rdock/2013.1/src/exe/rbdock.cxx#4 $)

>  <Rbt.Library>
libRbt.so (2013.1, Build901 2013/11/27)

>  <Rbt.Parameter_File>
/export/apps/rDock/src/rDock_2013.1_src/data/scripts/dock_solv.prm

>  <Rbt.Receptor>
prm/pocket_docking_3.prm

>  <SCORE>
-4.56766

>  <SCORE.INTER>
3.60148

>  <SCORE.INTER.CONST>
1

>  <SCORE.INTER.POLAR>
0

>  <SCORE.INTER.ROT>
11

>  <SCORE.INTER.SOLV>
3.51243

>  <SCORE.INTER.VDW>
-9.70316

>  <SCORE.INTER.norm>
0.257249

>  <SCORE.INTRA>
-8.16914

>  <SCORE.INTRA.DIHEDRAL>
-20.5195

>  <SCORE.INTRA.DIHEDRAL.0>
24.1231

>  <SCORE.INTRA.POLAR>
0

>  <SCORE.INTRA.POLAR.0>
0

>  <SCORE.INTRA.REPUL>
0

>  <SCORE.INTRA.REPUL.0>
0

>  <SCORE.INTRA.SOLV>
2.83061

>  <SCORE.INTRA.SOLV.lig_0>
-48.2216

>  <SCORE.INTRA.VDW>
0.675312

>  <SCORE.INTRA.VDW.0>
-1.3967

>  <SCORE.INTRA.norm>
-0.58351

>  <SCORE.RESTR>
0

>  <SCORE.RESTR.CAVITY>
0

>  <SCORE.RESTR.norm>
0

>  <SCORE.SYSTEM>
0

>  <SCORE.SYSTEM.CONST>
0

>  <SCORE.SYSTEM.DIHEDRAL>
0

>  <SCORE.SYSTEM.SOLV>
0

>  <SCORE.SYSTEM.norm>
0

>  <SCORE.heavy>
14

>  <SCORE.norm>
-0.326261

>  <RMSD>
3.500

$$$$
ligand
 OpenBabel11021811463D
libRbt.so/2013.1/901 2013/11/27
 14 13  0  0  0  0  0  0  0  0999 V2000
   16.0212   11.3845    7.8148 N   0  0  0  0  0  0  0  0  0  0  0  0
   14.6553   11.0183    8.2128 C   0  0  0  0  0  0  0  0  0  0  0  0
   14.6700    9.6339    8.8525 C   0  0  0  0  0  0  0  0  0  0  0  0
   13.2506    9.2685    9.2550 C   0  0  0  0  0  0  0  0  0  0  0  0
   12.8078   10.1767   10.3189 N   0  0  0  0  0  0  0  0  0  0  0  0
   11.3938   10.4938   10.0529 C   0  0  0  0  0  0  0  0  0  0  0  0
   10.8945   11.5784   11.0144 C   0  0  0  0  0  0  0  0  0  0  0  0
   10.8805   10.9937   12.4348 C   0  0  0  0  0  0  0  0  0  0  0  0
   10.4612   12.0220   13.4010 C   0  0  0  0  0  0  0  0  0  0  0  0
   11.5300   13.0396   13.4609 N   0  0  0  0  0  0  0  0  0  0  0  0
   12.2837   12.9370   14.7918 C   0  0  0  0  0  0  0  0  0  0  0  0
   13.4172   11.9120   14.6650 C   0  0  0  0  0  0  0  0  0  0  0  0
   14.4346   12.4090   13.7187 C   0  0  0  0  0  0  0  0  0  0  0  0
   15.5072   11.4026   13.5669 N   0  0  0  0  0  0  0  0  0  0  0  0
  1  2  1  0  0  0  0
  2  3  1  0  0  0  0
  3  4  1  0  0  0  0
  4  5  1  0  0  0  0
  5  6  1  0  0  0  0
  6  7  1  0  0  0  0
  7  8  1  0  0  0  0
  8  9  1  0  0  0  0
  9 10  1  0  0  0  0
 10 11  1  0  0  0  0
 11 12  1  0  0  0  0
 12 13  1  0  0  0  0
 13 14  1  0  0  0  0
M  END
>  <CHROM.1>
-179.85603154,-65.97323998,140.88820239,-172.82914249,-66.78514239,177.58122987
-68.02566569,-108.16519825,87.08365146,66.47045803,-178.34737602,13.01442633
11.30492072,11.54012417,-1.19157578,0.06388010,1.19961762

>  <Name>
ligand

>  <RI>
0

>  <Rbt.Current_Directory>
/home/itssahil/PROJECTS/Mol_Feturizer/New_Systems/rnas/2O3Y

>  <Rbt.Executable>
rbdock ($Id: //depot/dev/client3/rdock/2013.1/src/exe/rbdock.cxx#4 $)

>  <Rbt.Library>
libRbt.so (2013.1, Build901 2013/11/27)

>  <Rbt.Parameter_File>
/export/apps/rDock/src/rDock_2013.1_src/data/scripts/dock_solv.prm

>  <Rbt.Receptor>
prm/pocket_docking_3.prm

>  <SCORE>
-3.49162

>  <SCORE.INTER>
6.00988

>  <SCORE.INTER.CONST>
1

>  <SCORE.INTER.POLAR>
0

>  <SCORE.INTER.ROT>
11

>  <SCORE.INTER.SOLV>
2.80972

>  <SCORE.INTER.VDW>
-7.86332

>  <SCORE.INTER.norm>
0.429277

>  <SCORE.INTRA>
-9.51278

>  <SCORE.INTRA.DIHEDRAL>
-20.8704

>  <SCORE.INTRA.DIHEDRAL.0>
24.1231

>  <SCORE.INTRA.POLAR>
0

>  <SCORE.INTRA.POLAR.0>
0

>  <SCORE.INTRA.REPUL>
0

>  <SCORE.INTRA.REPUL.0>
0

>  <SCORE.INTRA.SOLV>
0.891937

>  <SCORE.INTRA.SOLV.lig_0>
-48.2216

>  <SCORE.INTRA.VDW>
0.476476

>  <SCORE.INTRA.VDW.0>
-1.3967

>  <SCORE.INTRA.norm>
-0.679484

>  <SCORE.RESTR>
0.0112681

>  <SCORE.RESTR.CAVITY>
0.0112681

>  <SCORE.RESTR.norm>
0.000804866

>  <SCORE.SYSTEM>
0

>  <SCORE.SYSTEM.CONST>
0

>  <SCORE.SYSTEM.DIHEDRAL>
0

>  <SCORE.SYSTEM.SOLV>
0

>  <SCORE.SYSTEM.norm>
0

>  <SCORE.heavy>
14

>  <SCORE.norm>
-0.249402

>  <RMSD>
3.501

$$$$
ligand
 OpenBabel11021811463D
libRbt.so/2013.1/901 2013/11/27
 14 13  0  0  0  0  0  0  0  0999 V2000
   16.4639   10.2295    9.9451 N   0  0  0  0  0  0  0  0  0  0  0  0
   15.0614    9.9764   10.3017 C   0  0  0  0  0  0  0  0  0  0  0  0
   14.2705    9.6508    9.0389 C   0  0  0  0  0  0  0  0  0  0  0  0
   12.8245    9.3860    9.4248 C   0  0  0  0  0  0  0  0  0  0  0  0
   12.2126   10.6423    9.8724 N   0  0  0  0  0  0  0  0  0  0  0  0
   10.8138   10.3391   10.2217 C   0  0  0  0  0  0  0  0  0  0  0  0
   10.0531   11.6249   10.5653 C   0  0  0  0  0  0  0  0  0  0  0  0
   10.6764   12.2294   11.8324 C   0  0  0  0  0  0  0  0  0  0  0  0
   10.3165   11.4208   13.0085 C   0  0  0  0  0  0  0  0  0  0  0  0
   10.8462   12.1103   14.2026 N   0  0  0  0  0  0  0  0  0  0  0  0
   10.3861   11.3912   15.4758 C   0  0  0  0  0  0  0  0  0  0  0  0
   10.6512   12.2820   16.6956 C   0  0  0  0  0  0  0  0  0  0  0  0
   12.1052   12.4479   16.8846 C   0  0  0  0  0  0  0  0  0  0  0  0
   12.7096   11.1519   17.2610 N   0  0  0  0  0  0  0  0  0  0  0  0
  1  2  1  0  0  0  0
  2  3  1  0  0  0  0
  3  4  1  0  0  0  0
  4  5  1  0  0  0  0
  5  6  1  0  0  0  0
  6  7  1  0  0  0  0
  7  8  1  0  0  0  0
  8  9  1  0  0  0  0
  9 10  1  0  0  0  0
 10 11  1  0  0  0  0
 11 12  1  0  0  0  0
 12 13  1  0  0  0  0
 13 14  1  0  0  0  0
M  END
>  <CHROM.1>
179.76657961,68.85187636,179.45696838,-174.20167888,-64.62339903,-72.49746337
-175.34498436,174.42276480,-166.67835465,-66.34389879,-66.76973322,12.09896840
11.06304788,12.48061348,-1.19439430,-0.22989749,1.37963804

>  <Name>
ligand

>  <RI>
0

>  <Rbt.Current_Directory>
/home/itssahil/PROJECTS/Mol_Feturizer/New_Systems/rnas/2O3Y

>  <Rbt.Executable>
rbdock ($Id: //depot/dev/client3/rdock/2013.1/src/exe/rbdock.cxx#4 $)

>  <Rbt.Library>
libRbt.so (2013.1, Build901 2013/11/27)

>  <Rbt.Parameter_File>
/export/apps/rDock/src/rDock_2013.1_src/data/scripts/dock_solv.prm

>  <Rbt.Receptor>
prm/pocket_docking_4.prm

>  <SCORE>
-4.73876

>  <SCORE.INTER>
4.23106

>  <SCORE.INTER.CONST>
1

>  <SCORE.INTER.POLAR>
0

>  <SCORE.INTER.ROT>
11

>  <SCORE.INTER.SOLV>
4.78128

>  <SCORE.INTER.VDW>
-9.70638

>  <SCORE.INTER.norm>
0.302219

>  <SCORE.INTRA>
-8.96982

>  <SCORE.INTRA.DIHEDRAL>
-22.5219

>  <SCORE.INTRA.DIHEDRAL.0>
24.1231

>  <SCORE.INTRA.POLAR>
0

>  <SCORE.INTRA.POLAR.0>
0

>  <SCORE.INTRA.REPUL>
0

>  <SCORE.INTRA.REPUL.0>
0

>  <SCORE.INTRA.SOLV>
1.92725

>  <SCORE.INTRA.SOLV.lig_0>
-48.2216

>  <SCORE.INTRA.VDW>
1.32751

>  <SCORE.INTRA.VDW.0>
-1.3967

>  <SCORE.INTRA.norm>
-0.640702

>  <SCORE.RESTR>
0

>  <SCORE.RESTR.CAVITY>
0

>  <SCORE.RESTR.norm>
0

>  <SCORE.SYSTEM>
0

>  <SCORE.SYSTEM.CONST>
0

>  <SCORE.SYSTEM.DIHEDRAL>
0

>  <SCORE.SYSTEM.SOLV>
0

>  <SCORE.SYSTEM.norm>
0

>  <SCORE.heavy>
14

>  <SCORE.norm>
-0.338483

>  <RMSD>
3.507

$$$$
ligand
 OpenBabel11021811463D
libRbt.so/2013.1/901 2013/11/27
 14 13  0  0  0  0  0  0  0  0999 V2000
   10.0041   16.8971   13.3700 N   0  0  0  0  0  0  0  0  0  0  0  0
    9.9235   15.6710   12.5649 C   0  0  0  0  0  0  0  0  0  0  0  0
    9.9847   14.4572   13.4865 C   0  0  0  0  0  0  0  0  0  0  0  0
    9.9425   13.1979   12.6364 C   0  0  0  0  0  0  0  0  0  0  0  0
    9.9545   12.0260   13.5192 N   0  0  0  0  0  0  0  0  0  0  0  0
   10.2550   10.8556   12.6764 C   0  0  0  0  0  0  0  0  0  0  0  0
   10.1391    9.5614   13.4899 C   0  0  0  0  0  0  0  0  0  0  0  0
   10.4260    8.3771   12.5546 C   0  0  0  0  0  0  0  0  0  0  0  0
   11.8609    8.3245   12.2306 C   0  0  0  0  0  0  0  0  0  0  0  0
   12.1117    9.3068   11.1565 N   0  0  0  0  0  0  0  0  0  0  0  0
   13.4023    8.9542   10.4083 C   0  0  0  0  0  0  0  0  0  0  0  0
   13.4819    9.7627    9.1078 C   0  0  0  0  0  0  0  0  0  0  0  0
   14.6819    9.3649    8.3466 C   0  0  0  0  0  0  0  0  0  0  0  0
   15.8971    9.7669    9.0869 N   0  0  0  0  0  0  0  0  0  0  0  0
  1  2  1  0  0  0  0
  2  3  1  0  0  0  0
  3  4  1  0  0  0  0
  4  5  1  0  0  0  0
  5  6  1  0  0  0  0
  6  7  1  0  0  0  0
  7  8  1  0  0  0  0
  8  9  1  0  0  0  0
  9 10  1  0  0  0  0
 10 11  1  0  0  0  0
 11 12  1  0  0  0  0
 12 13  1  0  0  0  0
 13 14  1  0  0  0  0
M  END
>  <CHROM.1>
-178.31526308,-178.07301006,-165.98920410,-173.89979690,178.54387889,72.50734264
-80.87351413,-158.44661252,166.69819124,-176.58017738,-66.58181439,11.57592055
11.17990497,11.75961034,-2.34309757,-0.74310359,3.09736056

>  <Name>
ligand

>  <RI>
0

>  <Rbt.Current_Directory>
/home/itssahil/PROJECTS/Mol_Feturizer/New_Systems/rnas/2O3Y

>  <Rbt.Executable>
rbdock ($Id: //depot/dev/client3/rdock/2013.1/src/exe/rbdock.cxx#4 $)

>  <Rbt.Library>
libRbt.so (2013.1, Build901 2013/11/27)

>  <Rbt.Parameter_File>
/export/apps/rDock/src/rDock_2013.1_src/data/scripts/dock_solv.prm

>  <Rbt.Receptor>
prm/pocket_docking_3.prm

>  <SCORE>
-3.95798

>  <SCORE.INTER>
4.72943

>  <SCORE.INTER.CONST>
1

>  <SCORE.INTER.POLAR>
0

>  <SCORE.INTER.ROT>
11

>  <SCORE.INTER.SOLV>
5.08894

>  <SCORE.INTER.VDW>
-9.47669

>  <SCORE.INTER.norm>
0.337816

>  <SCORE.INTRA>
-8.69308

>  <SCORE.INTRA.DIHEDRAL>
-21.0925

>  <SCORE.INTRA.DIHEDRAL.0>
24.1231

>  <SCORE.INTRA.POLAR>
0

>  <SCORE.INTRA.POLAR.0>
0

>  <SCORE.INTRA.REPUL>
0

>  <SCORE.INTRA.REPUL.0>
0

>  <SCORE.INTRA.SOLV>
0.94778

>  <SCORE.INTRA.SOLV.lig_0>
-48.2216

>  <SCORE.INTRA.VDW>
1.37928

>  <SCORE.INTRA.VDW.0>
-1.3967

>  <SCORE.INTRA.norm>
-0.620935

>  <SCORE.RESTR>
0.00567062

>  <SCORE.RESTR.CAVITY>
0.00567062

>  <SCORE.RESTR.norm>
0.000405044

>  <SCORE.SYSTEM>
0

>  <SCORE.SYSTEM.CONST>
0

>  <SCORE.SYSTEM.DIHEDRAL>
0

>  <SCORE.SYSTEM.SOLV>
0

>  <SCORE.SYSTEM.norm>
0

>  <SCORE.heavy>
14

>  <SCORE.norm>
-0.282713

>  <RMSD>
3.545

$$$$
ligand
 OpenBabel11021811463D
libRbt.so/2013.1/901 2013/11/27
 14 13  0  0  0  0  0  0  0  0999 V2000
   16.4061    9.9125    7.5871 N   0  0  0  0  0  0  0  0  0  0  0  0
   15.8143    8.5821    7.7816 C   0  0  0  0  0  0  0  0  0  0  0  0
   15.5126    8.3755    9.2623 C   0  0  0  0  0  0  0  0  0  0  0  0
   14.3892    9.3162    9.6661 C   0  0  0  0  0  0  0  0  0  0  0  0
   14.0849    9.1134   11.0871 N   0  0  0  0  0  0  0  0  0  0  0  0
   12.7595    8.4738   11.1562 C   0  0  0  0  0  0  0  0  0  0  0  0
   12.0503    8.8432   12.4641 C   0  0  0  0  0  0  0  0  0  0  0  0
   10.6518    8.2078   12.4499 C   0  0  0  0  0  0  0  0  0  0  0  0
    9.9062    8.5990   13.6573 C   0  0  0  0  0  0  0  0  0  0  0  0
    9.6507   10.0513   13.5724 N   0  0  0  0  0  0  0  0  0  0  0  0
    8.9291   10.5359   14.8351 C   0  0  0  0  0  0  0  0  0  0  0  0
    8.5799   12.0221   14.6913 C   0  0  0  0  0  0  0  0  0  0  0  0
    7.9246   12.5013   15.9236 C   0  0  0  0  0  0  0  0  0  0  0  0
    7.5635   13.9273   15.7733 N   0  0  0  0  0  0  0  0  0  0  0  0
  1  2  1  0  0  0  0
  2  3  1  0  0  0  0
  3  4  1  0  0  0  0
  4  5  1  0  0  0  0
  5  6  1  0  0  0  0
  6  7  1  0  0  0  0
  7  8  1  0  0  0  0
  8  9  1  0  0  0  0
  9 10  1  0  0  0  0
 10 11  1  0  0  0  0
 11 12  1  0  0  0  0
 12 13  1  0  0  0  0
 13 14  1  0  0  0  0
M  END
>  <CHROM.1>
68.09209702,179.46178411,-110.30092351,-151.41549536,177.23802217,-176.89418765
66.81812466,-177.46177002,-175.94233223,-178.16191551,-178.85447139,11.73011326
9.88974557,12.13629135,-0.29741192,0.73554156,-0.00811105

>  <Name>
ligand

>  <RI>
0

>  <Rbt.Current_Directory>
/home/itssahil/PROJECTS/Mol_Feturizer/New_Systems/rnas/2O3Y

>  <Rbt.Executable>
rbdock ($Id: //depot/dev/client3/rdock/2013.1/src/exe/rbdock.cxx#4 $)

>  <Rbt.Library>
libRbt.so (2013.1, Build901 2013/11/27)

>  <Rbt.Parameter_File>
/export/apps/rDock/src/rDock_2013.1_src/data/scripts/dock_solv.prm

>  <Rbt.Receptor>
prm/pocket_docking_4.prm

>  <SCORE>
-5.14651

>  <SCORE.INTER>
5.08859

>  <SCORE.INTER.CONST>
1

>  <SCORE.INTER.POLAR>
0

>  <SCORE.INTER.ROT>
11

>  <SCORE.INTER.SOLV>
4.92913

>  <SCORE.INTER.VDW>
-9.18398

>  <SCORE.INTER.norm>
0.363471

>  <SCORE.INTRA>
-10.2351

>  <SCORE.INTRA.DIHEDRAL>
-21.9184

>  <SCORE.INTRA.DIHEDRAL.0>
24.1231

>  <SCORE.INTRA.POLAR>
0

>  <SCORE.INTRA.POLAR.0>
0

>  <SCORE.INTRA.REPUL>
0

>  <SCORE.INTRA.REPUL.0>
0

>  <SCORE.INTRA.SOLV>
0.29699

>  <SCORE.INTRA.SOLV.lig_0>
-48.2216

>  <SCORE.INTRA.VDW>
0.575594

>  <SCORE.INTRA.VDW.0>
-1.3967

>  <SCORE.INTRA.norm>
-0.731079

>  <SCORE.RESTR>
0

>  <SCORE.RESTR.CAVITY>
0

>  <SCORE.RESTR.norm>
0

>  <SCORE.SYSTEM>
0

>  <SCORE.SYSTEM.CONST>
0

>  <SCORE.SYSTEM.DIHEDRAL>
0

>  <SCORE.SYSTEM.SOLV>
0

>  <SCORE.SYSTEM.norm>
0

>  <SCORE.heavy>
14

>  <SCORE.norm>
-0.367608

>  <RMSD>
3.547

$$$$
ligand
 OpenBabel11021811463D
libRbt.so/2013.1/901 2013/11/27
 14 13  0  0  0  0  0  0  0  0999 V2000
    7.5817   10.0117   14.8827 N   0  0  0  0  0  0  0  0  0  0  0  0
    9.0358    9.9440   14.6847 C   0  0  0  0  0  0  0  0  0  0  0  0
    9.3363    9.1502   13.4176 C   0  0  0  0  0  0  0  0  0  0  0  0
   10.8436    9.0653   13.2422 C   0  0  0  0  0  0  0  0  0  0  0  0
   11.1401    8.2888   12.0330 N   0  0  0  0  0  0  0  0  0  0  0  0
   12.5977    8.3523   11.8277 C   0  0  0  0  0  0  0  0  0  0  0  0
   12.9234    8.9703   10.4631 C   0  0  0  0  0  0  0  0  0  0  0  0
   12.4313   10.4254   10.4634 C   0  0  0  0  0  0  0  0  0  0  0  0
   12.7019   11.0512    9.1589 C   0  0  0  0  0  0  0  0  0  0  0  0
   12.3368   12.4785    9.2648 N   0  0  0  0  0  0  0  0  0  0  0  0
   12.4093   13.1465    7.8870 C   0  0  0  0  0  0  0  0  0  0  0  0
   13.7391   13.8973    7.7471 C   0  0  0  0  0  0  0  0  0  0  0  0
   14.8409   12.9311    7.5745 C   0  0  0  0  0  0  0  0  0  0  0  0
   16.1101   13.6572    7.3548 N   0  0  0  0  0  0  0  0  0  0  0  0
  1  2  1  0  0  0  0
  2  3  1  0  0  0  0
  3  4  1  0  0  0  0
  4  5  1  0  0  0  0
  5  6  1  0  0  0  0
  6  7  1  0  0  0  0
  7  8  1  0  0  0  0
  8  9  1  0  0  0  0
  9 10  1  0  0  0  0
 10 11  1  0  0  0  0
 11 12  1  0  0  0  0
 12 13  1  0  0  0  0
 13 14  1  0  0  0  0
M  END
>  <CHROM.1>
-178.86906547,179.33381710,174.23027233,-120.95230451,64.23130062,-178.93456966
-174.29067135,-172.13496578,-98.86744488,73.05494869,176.46881420,12.00208647
10.81201853,10.71432611,2.33779470,-0.63254107,2.65945382

>  <Name>
ligand

>  <RI>
0

>  <Rbt.Current_Directory>
/home/itssahil/PROJECTS/Mol_Feturizer/New_Systems/rnas/2O3Y

>  <Rbt.Executable>
rbdock ($Id: //depot/dev/client3/rdock/2013.1/src/exe/rbdock.cxx#4 $)

>  <Rbt.Library>
libRbt.so (2013.1, Build901 2013/11/27)

>  <Rbt.Parameter_File>
/export/apps/rDock/src/rDock_2013.1_src/data/scripts/dock_solv.prm

>  <Rbt.Receptor>
prm/pocket_docking_6.prm

>  <SCORE>
-9.05109

>  <SCORE.INTER>
1.18549

>  <SCORE.INTER.CONST>
1

>  <SCORE.INTER.POLAR>
0

>  <SCORE.INTER.ROT>
11

>  <SCORE.INTER.SOLV>
10.3545

>  <SCORE.INTER.VDW>
-13.5945

>  <SCORE.INTER.norm>
0.0846776

>  <SCORE.INTRA>
-10.2366

>  <SCORE.INTRA.DIHEDRAL>
-21.1096

>  <SCORE.INTRA.DIHEDRAL.0>
24.1231

>  <SCORE.INTRA.POLAR>
0

>  <SCORE.INTRA.POLAR.0>
0

>  <SCORE.INTRA.REPUL>
0

>  <SCORE.INTRA.REPUL.0>
0

>  <SCORE.INTRA.SOLV>
-0.192681

>  <SCORE.INTRA.SOLV.lig_0>
-48.2216

>  <SCORE.INTRA.VDW>
0.414548

>  <SCORE.INTRA.VDW.0>
-1.3967

>  <SCORE.INTRA.norm>
-0.731184

>  <SCORE.RESTR>
0

>  <SCORE.RESTR.CAVITY>
0

>  <SCORE.RESTR.norm>
0

>  <SCORE.SYSTEM>
0

>  <SCORE.SYSTEM.CONST>
0

>  <SCORE.SYSTEM.DIHEDRAL>
0

>  <SCORE.SYSTEM.SOLV>
0

>  <SCORE.SYSTEM.norm>
0

>  <SCORE.heavy>
14

>  <SCORE.norm>
-0.646507

>  <RMSD>
3.562

$$$$
ligand
 OpenBabel11021811463D
libRbt.so/2013.1/901 2013/11/27
 14 13  0  0  0  0  0  0  0  0999 V2000
   15.8308   14.7305    8.8399 N   0  0  0  0  0  0  0  0  0  0  0  0
   14.4421   14.3500    9.1312 C   0  0  0  0  0  0  0  0  0  0  0  0
   13.9270   13.4345    8.0254 C   0  0  0  0  0  0  0  0  0  0  0  0
   12.5164   12.9916    8.3778 C   0  0  0  0  0  0  0  0  0  0  0  0
   12.5527   12.2427    9.6390 N   0  0  0  0  0  0  0  0  0  0  0  0
   11.2878   11.4928    9.7306 C   0  0  0  0  0  0  0  0  0  0  0  0
   11.3802   10.4101   10.8119 C   0  0  0  0  0  0  0  0  0  0  0  0
   12.5279    9.4580   10.4436 C   0  0  0  0  0  0  0  0  0  0  0  0
   12.5560    8.3164   11.3724 C   0  0  0  0  0  0  0  0  0  0  0  0
   12.8438    8.8459   12.7209 N   0  0  0  0  0  0  0  0  0  0  0  0
   11.8005    8.3374   13.7223 C   0  0  0  0  0  0  0  0  0  0  0  0
   12.0100    9.0226   15.0781 C   0  0  0  0  0  0  0  0  0  0  0  0
   11.0075    8.5329   16.0439 C   0  0  0  0  0  0  0  0  0  0  0  0
    9.6645    9.0137   15.6544 N   0  0  0  0  0  0  0  0  0  0  0  0
  1  2  1  0  0  0  0
  2  3  1  0  0  0  0
  3  4  1  0  0  0  0
  4  5  1  0  0  0  0
  5  6  1  0  0  0  0
  6  7  1  0  0  0  0
  7  8  1  0  0  0  0
  8  9  1  0  0  0  0
  9 10  1  0  0  0  0
 10 11  1  0  0  0  0
 11 12  1  0  0  0  0
 12 13  1  0  0  0  0
 13 14  1  0  0  0  0
M  END
>  <CHROM.1>
177.06655887,-61.36525520,-162.92496028,165.19485916,-59.49719936,-173.62743255
-63.51822888,128.11452761,-173.33672223,-179.92403177,-68.46113881,12.45327210
10.79835732,11.39925070,-0.96953876,0.94547149,1.75417264

>  <Name>
ligand

>  <RI>
0

>  <Rbt.Current_Directory>
/home/itssahil/PROJECTS/Mol_Feturizer/New_Systems/rnas/2O3Y

>  <Rbt.Executable>
rbdock ($Id: //depot/dev/client3/rdock/2013.1/src/exe/rbdock.cxx#4 $)

>  <Rbt.Library>
libRbt.so (2013.1, Build901 2013/11/27)

>  <Rbt.Parameter_File>
/export/apps/rDock/src/rDock_2013.1_src/data/scripts/dock_solv.prm

>  <Rbt.Receptor>
prm/pocket_docking_4.prm

>  <SCORE>
-5.96513

>  <SCORE.INTER>
3.50173

>  <SCORE.INTER.CONST>
1

>  <SCORE.INTER.POLAR>
0

>  <SCORE.INTER.ROT>
11

>  <SCORE.INTER.SOLV>
5.34153

>  <SCORE.INTER.VDW>
-10.3794

>  <SCORE.INTER.norm>
0.250123

>  <SCORE.INTRA>
-9.46686

>  <SCORE.INTRA.DIHEDRAL>
-22.0222

>  <SCORE.INTRA.DIHEDRAL.0>
24.1231

>  <SCORE.INTRA.POLAR>
0

>  <SCORE.INTRA.POLAR.0>
0

>  <SCORE.INTRA.REPUL>
0

>  <SCORE.INTRA.REPUL.0>
0

>  <SCORE.INTRA.SOLV>
1.25343

>  <SCORE.INTRA.SOLV.lig_0>
-48.2216

>  <SCORE.INTRA.VDW>
0.917524

>  <SCORE.INTRA.VDW.0>
-1.3967

>  <SCORE.INTRA.norm>
-0.676204

>  <SCORE.RESTR>
0

>  <SCORE.RESTR.CAVITY>
0

>  <SCORE.RESTR.norm>
0

>  <SCORE.SYSTEM>
0

>  <SCORE.SYSTEM.CONST>
0

>  <SCORE.SYSTEM.DIHEDRAL>
0

>  <SCORE.SYSTEM.SOLV>
0

>  <SCORE.SYSTEM.norm>
0

>  <SCORE.heavy>
14

>  <SCORE.norm>
-0.426081

>  <RMSD>
3.565

$$$$
ligand
 OpenBabel11021811463D
libRbt.so/2013.1/901 2013/11/27
 14 13  0  0  0  0  0  0  0  0999 V2000
   13.9093   12.9614    9.2145 N   0  0  0  0  0  0  0  0  0  0  0  0
   12.8174   12.2811    9.9237 C   0  0  0  0  0  0  0  0  0  0  0  0
   12.6022   10.9002    9.3132 C   0  0  0  0  0  0  0  0  0  0  0  0
   11.3917   10.2597    9.9724 C   0  0  0  0  0  0  0  0  0  0  0  0
   11.7182    9.9477   11.3684 N   0  0  0  0  0  0  0  0  0  0  0  0
   10.4411    9.7383   12.0725 C   0  0  0  0  0  0  0  0  0  0  0  0
   10.6816    9.5117   13.5694 C   0  0  0  0  0  0  0  0  0  0  0  0
   11.3247   10.7795   14.1513 C   0  0  0  0  0  0  0  0  0  0  0  0
   11.6563   10.5729   15.5705 C   0  0  0  0  0  0  0  0  0  0  0  0
   12.3514   11.7859   16.0471 N   0  0  0  0  0  0  0  0  0  0  0  0
   11.3509   12.7463   16.7002 C   0  0  0  0  0  0  0  0  0  0  0  0
   11.5208   14.1501   16.1066 C   0  0  0  0  0  0  0  0  0  0  0  0
   10.5472   15.0723   16.7223 C   0  0  0  0  0  0  0  0  0  0  0  0
   10.6589   16.4063   16.0941 N   0  0  0  0  0  0  0  0  0  0  0  0
  1  2  1  0  0  0  0
  2  3  1  0  0  0  0
  3  4  1  0  0  0  0
  4  5  1  0  0  0  0
  5  6  1  0  0  0  0
  6  7  1  0  0  0  0
  7  8  1  0  0  0  0
  8  9  1  0  0  0  0
  9 10  1  0  0  0  0
 10 11  1  0  0  0  0
 11 12  1  0  0  0  0
 12 13  1  0  0  0  0
 13 14  1  0  0  0  0
M  END
>  <CHROM.1>
-174.98416785,-68.80640711,162.50885643,-175.64440454,62.56736889,-176.22762171
176.21163450,94.59608073,-129.55685908,179.30871268,-176.75682811,11.64063027
11.93633467,13.34480245,-1.02302996,1.26347896,0.58424650

>  <Name>
ligand

>  <RI>
0

>  <Rbt.Current_Directory>
/home/itssahil/PROJECTS/Mol_Feturizer/New_Systems/rnas/2O3Y

>  <Rbt.Executable>
rbdock ($Id: //depot/dev/client3/rdock/2013.1/src/exe/rbdock.cxx#4 $)

>  <Rbt.Library>
libRbt.so (2013.1, Build901 2013/11/27)

>  <Rbt.Parameter_File>
/export/apps/rDock/src/rDock_2013.1_src/data/scripts/dock_solv.prm

>  <Rbt.Receptor>
prm/pocket_docking_3.prm

>  <SCORE>
-4.75091

>  <SCORE.INTER>
5.61576

>  <SCORE.INTER.CONST>
1

>  <SCORE.INTER.POLAR>
0

>  <SCORE.INTER.ROT>
11

>  <SCORE.INTER.SOLV>
3.53111

>  <SCORE.INTER.VDW>
-8.36653

>  <SCORE.INTER.norm>
0.401125

>  <SCORE.INTRA>
-10.3766

>  <SCORE.INTRA.DIHEDRAL>
-21.4407

>  <SCORE.INTRA.DIHEDRAL.0>
24.1231

>  <SCORE.INTRA.POLAR>
0

>  <SCORE.INTRA.POLAR.0>
0

>  <SCORE.INTRA.REPUL>
0

>  <SCORE.INTRA.REPUL.0>
0

>  <SCORE.INTRA.SOLV>
-0.140431

>  <SCORE.INTRA.SOLV.lig_0>
-48.2216

>  <SCORE.INTRA.VDW>
0.414013

>  <SCORE.INTRA.VDW.0>
-1.3967

>  <SCORE.INTRA.norm>
-0.741183

>  <SCORE.RESTR>
0.00988548

>  <SCORE.RESTR.CAVITY>
0.00988548

>  <SCORE.RESTR.norm>
0.000706106

>  <SCORE.SYSTEM>
0

>  <SCORE.SYSTEM.CONST>
0

>  <SCORE.SYSTEM.DIHEDRAL>
0

>  <SCORE.SYSTEM.SOLV>
0

>  <SCORE.SYSTEM.norm>
0

>  <SCORE.heavy>
14

>  <SCORE.norm>
-0.339351

>  <RMSD>
3.577

$$$$
ligand
 OpenBabel11021811463D
libRbt.so/2013.1/901 2013/11/27
 14 13  0  0  0  0  0  0  0  0999 V2000
   13.6994    8.5880   14.6938 N   0  0  0  0  0  0  0  0  0  0  0  0
   12.4718    9.1662   14.1308 C   0  0  0  0  0  0  0  0  0  0  0  0
   11.6836    8.0758   13.4125 C   0  0  0  0  0  0  0  0  0  0  0  0
   10.4274    8.6931   12.8202 C   0  0  0  0  0  0  0  0  0  0  0  0
   10.7990    9.5088   11.6586 N   0  0  0  0  0  0  0  0  0  0  0  0
   10.7448   10.9175   12.0870 C   0  0  0  0  0  0  0  0  0  0  0  0
   10.9970   11.8524   10.8986 C   0  0  0  0  0  0  0  0  0  0  0  0
   12.3803   11.5277   10.3152 C   0  0  0  0  0  0  0  0  0  0  0  0
   12.7067   12.4703    9.2327 C   0  0  0  0  0  0  0  0  0  0  0  0
   14.0698   12.1523    8.7607 N   0  0  0  0  0  0  0  0  0  0  0  0
   14.8726   13.4421    8.5558 C   0  0  0  0  0  0  0  0  0  0  0  0
   15.7300   13.7185    9.7968 C   0  0  0  0  0  0  0  0  0  0  0  0
   16.4210   15.0137    9.6463 C   0  0  0  0  0  0  0  0  0  0  0  0
   17.2417   15.2826   10.8466 N   0  0  0  0  0  0  0  0  0  0  0  0
  1  2  1  0  0  0  0
  2  3  1  0  0  0  0
  3  4  1  0  0  0  0
  4  5  1  0  0  0  0
  5  6  1  0  0  0  0
  6  7  1  0  0  0  0
  7  8  1  0  0  0  0
  8  9  1  0  0  0  0
  9 10  1  0  0  0  0
 10 11  1  0  0  0  0
 11 12  1  0  0  0  0
 12 13  1  0  0  0  0
 13 14  1  0  0  0  0
M  END
>  <CHROM.1>
-179.24182027,73.15513341,-103.45795897,-174.89730295,-59.13748789,-175.80144233
177.16809621,-136.49878469,96.66535319,-175.52916246,179.69192384,13.16004047
11.45781227,11.20385674,-2.23633294,-0.44336633,-0.93022949

>  <Name>
ligand

>  <RI>
0

>  <Rbt.Current_Directory>
/home/itssahil/PROJECTS/Mol_Feturizer/New_Systems/rnas/2O3Y

>  <Rbt.Executable>
rbdock ($Id: //depot/dev/client3/rdock/2013.1/src/exe/rbdock.cxx#4 $)

>  <Rbt.Library>
libRbt.so (2013.1, Build901 2013/11/27)

>  <Rbt.Parameter_File>
/export/apps/rDock/src/rDock_2013.1_src/data/scripts/dock_solv.prm

>  <Rbt.Receptor>
prm/pocket_docking_3.prm

>  <SCORE>
-3.29918

>  <SCORE.INTER>
6.19726

>  <SCORE.INTER.CONST>
1

>  <SCORE.INTER.POLAR>
0

>  <SCORE.INTER.ROT>
11

>  <SCORE.INTER.SOLV>
2.11127

>  <SCORE.INTER.VDW>
-7.50558

>  <SCORE.INTER.norm>
0.442662

>  <SCORE.INTRA>
-9.50061

>  <SCORE.INTRA.DIHEDRAL>
-20.5045

>  <SCORE.INTRA.DIHEDRAL.0>
24.1231

>  <SCORE.INTRA.POLAR>
0

>  <SCORE.INTRA.POLAR.0>
0

>  <SCORE.INTRA.REPUL>
0

>  <SCORE.INTRA.REPUL.0>
0

>  <SCORE.INTRA.SOLV>
-0.0365978

>  <SCORE.INTRA.SOLV.lig_0>
-48.2216

>  <SCORE.INTRA.VDW>
0.769931

>  <SCORE.INTRA.VDW.0>
-1.3967

>  <SCORE.INTRA.norm>
-0.678615

>  <SCORE.RESTR>
0.00416254

>  <SCORE.RESTR.CAVITY>
0.00416254

>  <SCORE.RESTR.norm>
0.000297324

>  <SCORE.SYSTEM>
0

>  <SCORE.SYSTEM.CONST>
0

>  <SCORE.SYSTEM.DIHEDRAL>
0

>  <SCORE.SYSTEM.SOLV>
0

>  <SCORE.SYSTEM.norm>
0

>  <SCORE.heavy>
14

>  <SCORE.norm>
-0.235656

>  <RMSD>
3.607

$$$$
ligand
 OpenBabel11021811463D
libRbt.so/2013.1/901 2013/11/27
 14 13  0  0  0  0  0  0  0  0999 V2000
    8.7592   14.2172   16.7373 N   0  0  0  0  0  0  0  0  0  0  0  0
    8.3118   12.9049   16.2516 C   0  0  0  0  0  0  0  0  0  0  0  0
    9.4382   12.2491   15.4595 C   0  0  0  0  0  0  0  0  0  0  0  0
    8.9458   10.9130   14.9281 C   0  0  0  0  0  0  0  0  0  0  0  0
   10.0390   10.2561   14.2027 N   0  0  0  0  0  0  0  0  0  0  0  0
    9.4225    9.2809   13.2864 C   0  0  0  0  0  0  0  0  0  0  0  0
   10.2460    9.1549   11.9996 C   0  0  0  0  0  0  0  0  0  0  0  0
   10.2425   10.5173   11.2900 C   0  0  0  0  0  0  0  0  0  0  0  0
   10.9959   10.4325   10.0284 C   0  0  0  0  0  0  0  0  0  0  0  0
   12.4029   10.1381   10.3683 N   0  0  0  0  0  0  0  0  0  0  0  0
   13.1016    9.4587    9.1851 C   0  0  0  0  0  0  0  0  0  0  0  0
   14.6088    9.3749    9.4550 C   0  0  0  0  0  0  0  0  0  0  0  0
   15.2896    8.7675    8.2952 C   0  0  0  0  0  0  0  0  0  0  0  0
   16.7405    8.6716    8.5636 N   0  0  0  0  0  0  0  0  0  0  0  0
  1  2  1  0  0  0  0
  2  3  1  0  0  0  0
  3  4  1  0  0  0  0
  4  5  1  0  0  0  0
  5  6  1  0  0  0  0
  6  7  1  0  0  0  0
  7  8  1  0  0  0  0
  8  9  1  0  0  0  0
  9 10  1  0  0  0  0
 10 11  1  0  0  0  0
 11 12  1  0  0  0  0
 12 13  1  0  0  0  0
 13 14  1  0  0  0  0
M  END
>  <CHROM.1>
-178.26789279,-178.12936138,-158.22888962,146.82297697,-62.59857633,-178.57955546
-64.24829317,155.82229388,170.41045395,-177.87091717,-179.28682898,11.32431894
10.45247519,12.14633840,-2.29507191,-0.36372216,-2.31855837

>  <Name>
ligand

>  <RI>
0

>  <Rbt.Current_Directory>
/home/itssahil/PROJECTS/Mol_Feturizer/New_Systems/rnas/2O3Y

>  <Rbt.Executable>
rbdock ($Id: //depot/dev/client3/rdock/2013.1/src/exe/rbdock.cxx#4 $)

>  <Rbt.Library>
libRbt.so (2013.1, Build901 2013/11/27)

>  <Rbt.Parameter_File>
/export/apps/rDock/src/rDock_2013.1_src/data/scripts/dock_solv.prm

>  <Rbt.Receptor>
prm/pocket_docking_4.prm

>  <SCORE>
-6.39067

>  <SCORE.INTER>
4.48826

>  <SCORE.INTER.CONST>
1

>  <SCORE.INTER.POLAR>
0

>  <SCORE.INTER.ROT>
11

>  <SCORE.INTER.SOLV>
6.34007

>  <SCORE.INTER.VDW>
-10.0545

>  <SCORE.INTER.norm>
0.32059

>  <SCORE.INTRA>
-10.8789

>  <SCORE.INTRA.DIHEDRAL>
-22.4348

>  <SCORE.INTRA.DIHEDRAL.0>
24.1231

>  <SCORE.INTRA.POLAR>
0

>  <SCORE.INTRA.POLAR.0>
0

>  <SCORE.INTRA.REPUL>
0

>  <SCORE.INTRA.REPUL.0>
0

>  <SCORE.INTRA.SOLV>
-0.0686597

>  <SCORE.INTRA.SOLV.lig_0>
-48.2216

>  <SCORE.INTRA.VDW>
0.372793

>  <SCORE.INTRA.VDW.0>
-1.3967

>  <SCORE.INTRA.norm>
-0.777067

>  <SCORE.RESTR>
0

>  <SCORE.RESTR.CAVITY>
0

>  <SCORE.RESTR.norm>
0

>  <SCORE.SYSTEM>
0

>  <SCORE.SYSTEM.CONST>
0

>  <SCORE.SYSTEM.DIHEDRAL>
0

>  <SCORE.SYSTEM.SOLV>
0

>  <SCORE.SYSTEM.norm>
0

>  <SCORE.heavy>
14

>  <SCORE.norm>
-0.456477

>  <RMSD>
3.614

$$$$
ligand
 OpenBabel11021811463D
libRbt.so/2013.1/901 2013/11/27
 14 13  0  0  0  0  0  0  0  0999 V2000
   11.8720   12.8290   16.4039 N   0  0  0  0  0  0  0  0  0  0  0  0
   10.8821   12.1167   17.2230 C   0  0  0  0  0  0  0  0  0  0  0  0
    9.8123   11.5185   16.3152 C   0  0  0  0  0  0  0  0  0  0  0  0
   10.4475   10.4292   15.4666 C   0  0  0  0  0  0  0  0  0  0  0  0
    9.4270    9.8604   14.5789 N   0  0  0  0  0  0  0  0  0  0  0  0
   10.0837    8.8031   13.7905 C   0  0  0  0  0  0  0  0  0  0  0  0
    9.7496    8.9543   12.3020 C   0  0  0  0  0  0  0  0  0  0  0  0
   10.3473   10.2796   11.8063 C   0  0  0  0  0  0  0  0  0  0  0  0
   10.0713   10.4535   10.3709 C   0  0  0  0  0  0  0  0  0  0  0  0
   10.6834   11.7304    9.9507 N   0  0  0  0  0  0  0  0  0  0  0  0
   12.1258   11.4979    9.4869 C   0  0  0  0  0  0  0  0  0  0  0  0
   12.6111   12.7105    8.6834 C   0  0  0  0  0  0  0  0  0  0  0  0
   13.9847   12.4708    8.2006 C   0  0  0  0  0  0  0  0  0  0  0  0
   14.4910   13.6810    7.5183 N   0  0  0  0  0  0  0  0  0  0  0  0
  1  2  1  0  0  0  0
  2  3  1  0  0  0  0
  3  4  1  0  0  0  0
  4  5  1  0  0  0  0
  5  6  1  0  0  0  0
  6  7  1  0  0  0  0
  7  8  1  0  0  0  0
  8  9  1  0  0  0  0
  9 10  1  0  0  0  0
 10 11  1  0  0  0  0
 11 12  1  0  0  0  0
 12 13  1  0  0  0  0
 13 14  1  0  0  0  0
M  END
>  <CHROM.1>
66.85895843,-179.31580990,-179.37426724,-131.91885424,64.45573224,178.92531907
-179.25959947,89.77884635,163.55610187,-178.25215648,-175.54733439,11.18474151
11.23787021,12.29273121,-2.11534842,-0.85413409,-1.79344047

>  <Name>
ligand

>  <RI>
0

>  <Rbt.Current_Directory>
/home/itssahil/PROJECTS/Mol_Feturizer/New_Systems/rnas/2O3Y

>  <Rbt.Executable>
rbdock ($Id: //depot/dev/client3/rdock/2013.1/src/exe/rbdock.cxx#4 $)

>  <Rbt.Library>
libRbt.so (2013.1, Build901 2013/11/27)

>  <Rbt.Parameter_File>
/export/apps/rDock/src/rDock_2013.1_src/data/scripts/dock_solv.prm

>  <Rbt.Receptor>
prm/pocket_docking_7.prm

>  <SCORE>
-8.00159

>  <SCORE.INTER>
2.12457

>  <SCORE.INTER.CONST>
1

>  <SCORE.INTER.POLAR>
0

>  <SCORE.INTER.ROT>
11

>  <SCORE.INTER.SOLV>
9.82217

>  <SCORE.INTER.VDW>
-12.791

>  <SCORE.INTER.norm>
0.151755

>  <SCORE.INTRA>
-10.1262

>  <SCORE.INTRA.DIHEDRAL>
-21.8881

>  <SCORE.INTRA.DIHEDRAL.0>
24.1231

>  <SCORE.INTRA.POLAR>
0

>  <SCORE.INTRA.POLAR.0>
0

>  <SCORE.INTRA.REPUL>
0

>  <SCORE.INTRA.REPUL.0>
0

>  <SCORE.INTRA.SOLV>
0.289456

>  <SCORE.INTRA.SOLV.lig_0>
-48.2216

>  <SCORE.INTRA.VDW>
0.673149

>  <SCORE.INTRA.VDW.0>
-1.3967

>  <SCORE.INTRA.norm>
-0.723297

>  <SCORE.RESTR>
0

>  <SCORE.RESTR.CAVITY>
0

>  <SCORE.RESTR.norm>
0

>  <SCORE.SYSTEM>
0

>  <SCORE.SYSTEM.CONST>
0

>  <SCORE.SYSTEM.DIHEDRAL>
0

>  <SCORE.SYSTEM.SOLV>
0

>  <SCORE.SYSTEM.norm>
0

>  <SCORE.heavy>
14

>  <SCORE.norm>
-0.571542

>  <RMSD>
3.653

$$$$
ligand
 OpenBabel11021811463D
libRbt.so/2013.1/901 2013/11/27
 14 13  0  0  0  0  0  0  0  0999 V2000
   16.1869   16.0143   10.8618 N   0  0  0  0  0  0  0  0  0  0  0  0
   15.4053   15.0451   10.0823 C   0  0  0  0  0  0  0  0  0  0  0  0
   13.9826   15.5669    9.9089 C   0  0  0  0  0  0  0  0  0  0  0  0
   13.2110   14.5945    9.0319 C   0  0  0  0  0  0  0  0  0  0  0  0
   13.0206   13.3383    9.7658 N   0  0  0  0  0  0  0  0  0  0  0  0
   12.7896   12.2846    8.7623 C   0  0  0  0  0  0  0  0  0  0  0  0
   12.5916   10.9256    9.4434 C   0  0  0  0  0  0  0  0  0  0  0  0
   11.2775   10.9716   10.2374 C   0  0  0  0  0  0  0  0  0  0  0  0
   11.1571    9.7748   11.0860 C   0  0  0  0  0  0  0  0  0  0  0  0
    9.8066    9.7865   11.6841 N   0  0  0  0  0  0  0  0  0  0  0  0
    9.6427    8.6017   12.6428 C   0  0  0  0  0  0  0  0  0  0  0  0
   10.0377    9.0281   14.0619 C   0  0  0  0  0  0  0  0  0  0  0  0
    9.0499    9.9911   14.5857 C   0  0  0  0  0  0  0  0  0  0  0  0
    9.4705   10.4572   15.9246 N   0  0  0  0  0  0  0  0  0  0  0  0
  1  2  1  0  0  0  0
  2  3  1  0  0  0  0
  3  4  1  0  0  0  0
  4  5  1  0  0  0  0
  5  6  1  0  0  0  0
  6  7  1  0  0  0  0
  7  8  1  0  0  0  0
  8  9  1  0  0  0  0
  9 10  1  0  0  0  0
 10 11  1  0  0  0  0
 11 12  1  0  0  0  0
 12 13  1  0  0  0  0
 13 14  1  0  0  0  0
M  END
>  <CHROM.1>
176.67004002,68.19000696,-157.43511037,179.49150560,66.83527671,-170.56981278
-172.69341997,-176.93493578,91.64633397,68.53565184,-176.95714429,11.97347142
11.88407961,11.29103174,-0.24187049,0.91377311,1.24173793

>  <Name>
ligand

>  <RI>
0

>  <Rbt.Current_Directory>
/home/itssahil/PROJECTS/Mol_Feturizer/New_Systems/rnas/2O3Y

>  <Rbt.Executable>
rbdock ($Id: //depot/dev/client3/rdock/2013.1/src/exe/rbdock.cxx#4 $)

>  <Rbt.Library>
libRbt.so (2013.1, Build901 2013/11/27)

>  <Rbt.Parameter_File>
/export/apps/rDock/src/rDock_2013.1_src/data/scripts/dock_solv.prm

>  <Rbt.Receptor>
prm/pocket_docking_4.prm

>  <SCORE>
-8.6013

>  <SCORE.INTER>
1.66278

>  <SCORE.INTER.CONST>
1

>  <SCORE.INTER.POLAR>
0

>  <SCORE.INTER.ROT>
11

>  <SCORE.INTER.SOLV>
5.08808

>  <SCORE.INTER.VDW>
-11.5208

>  <SCORE.INTER.norm>
0.11877

>  <SCORE.INTRA>
-10.2641

>  <SCORE.INTRA.DIHEDRAL>
-21.7535

>  <SCORE.INTRA.DIHEDRAL.0>
24.1231

>  <SCORE.INTRA.POLAR>
0

>  <SCORE.INTRA.POLAR.0>
0

>  <SCORE.INTRA.REPUL>
0

>  <SCORE.INTRA.REPUL.0>
0

>  <SCORE.INTRA.SOLV>
0.293514

>  <SCORE.INTRA.SOLV.lig_0>
-48.2216

>  <SCORE.INTRA.VDW>
0.465942

>  <SCORE.INTRA.VDW.0>
-1.3967

>  <SCORE.INTRA.norm>
-0.733148

>  <SCORE.RESTR>
0

>  <SCORE.RESTR.CAVITY>
0

>  <SCORE.RESTR.norm>
0

>  <SCORE.SYSTEM>
0

>  <SCORE.SYSTEM.CONST>
0

>  <SCORE.SYSTEM.DIHEDRAL>
0

>  <SCORE.SYSTEM.SOLV>
0

>  <SCORE.SYSTEM.norm>
0

>  <SCORE.heavy>
14

>  <SCORE.norm>
-0.614378

>  <RMSD>
3.660

$$$$
ligand
 OpenBabel11021811463D
libRbt.so/2013.1/901 2013/11/27
 14 13  0  0  0  0  0  0  0  0999 V2000
    9.5611    9.1470   15.8446 N   0  0  0  0  0  0  0  0  0  0  0  0
   10.3616    9.2418   14.6165 C   0  0  0  0  0  0  0  0  0  0  0  0
    9.4458    9.1006   13.4050 C   0  0  0  0  0  0  0  0  0  0  0  0
   10.2916    9.1738   12.1443 C   0  0  0  0  0  0  0  0  0  0  0  0
   11.1374    7.9773   12.0672 N   0  0  0  0  0  0  0  0  0  0  0  0
   12.5078    8.4369   11.7820 C   0  0  0  0  0  0  0  0  0  0  0  0
   13.3976    8.2805   13.0205 C   0  0  0  0  0  0  0  0  0  0  0  0
   14.7614    8.9190   12.7177 C   0  0  0  0  0  0  0  0  0  0  0  0
   15.6461    8.8015   13.8883 C   0  0  0  0  0  0  0  0  0  0  0  0
   16.9128    9.4867   13.5602 N   0  0  0  0  0  0  0  0  0  0  0  0
   16.8522   10.9521   14.0061 C   0  0  0  0  0  0  0  0  0  0  0  0
   16.4248   11.8330   12.8258 C   0  0  0  0  0  0  0  0  0  0  0  0
   16.2963   13.2340   13.2709 C   0  0  0  0  0  0  0  0  0  0  0  0
   15.9736   14.0964   12.1139 N   0  0  0  0  0  0  0  0  0  0  0  0
  1  2  1  0  0  0  0
  2  3  1  0  0  0  0
  3  4  1  0  0  0  0
  4  5  1  0  0  0  0
  5  6  1  0  0  0  0
  6  7  1  0  0  0  0
  7  8  1  0  0  0  0
  8  9  1  0  0  0  0
  9 10  1  0  0  0  0
 10 11  1  0  0  0  0
 11 12  1  0  0  0  0
 12 13  1  0  0  0  0
 13 14  1  0  0  0  0
M  END
>  <CHROM.1>
-178.91952853,68.18239644,-131.41426765,107.73103732,-173.63868194,179.49872646
-177.36061136,91.73719796,-95.34832111,177.00957450,176.20231560,13.54078555
9.90566061,13.23301230,2.69386847,-0.09321173,-3.09618502

>  <Name>
ligand

>  <RI>
0

>  <Rbt.Current_Directory>
/home/itssahil/PROJECTS/Mol_Feturizer/New_Systems/rnas/2O3Y

>  <Rbt.Executable>
rbdock ($Id: //depot/dev/client3/rdock/2013.1/src/exe/rbdock.cxx#4 $)

>  <Rbt.Library>
libRbt.so (2013.1, Build901 2013/11/27)

>  <Rbt.Parameter_File>
/export/apps/rDock/src/rDock_2013.1_src/data/scripts/dock_solv.prm

>  <Rbt.Receptor>
prm/pocket_docking_4.prm

>  <SCORE>
-5.8302

>  <SCORE.INTER>
3.95479

>  <SCORE.INTER.CONST>
1

>  <SCORE.INTER.POLAR>
0

>  <SCORE.INTER.ROT>
11

>  <SCORE.INTER.SOLV>
7.43466

>  <SCORE.INTER.VDW>
-10.775

>  <SCORE.INTER.norm>
0.282485

>  <SCORE.INTRA>
-9.78499

>  <SCORE.INTRA.DIHEDRAL>
-20.0053

>  <SCORE.INTRA.DIHEDRAL.0>
24.1231

>  <SCORE.INTRA.POLAR>
0

>  <SCORE.INTRA.POLAR.0>
0

>  <SCORE.INTRA.REPUL>
0

>  <SCORE.INTRA.REPUL.0>
0

>  <SCORE.INTRA.SOLV>
-0.536312

>  <SCORE.INTRA.SOLV.lig_0>
-48.2216

>  <SCORE.INTRA.VDW>
0.485825

>  <SCORE.INTRA.VDW.0>
-1.3967

>  <SCORE.INTRA.norm>
-0.698928

>  <SCORE.RESTR>
0

>  <SCORE.RESTR.CAVITY>
0

>  <SCORE.RESTR.norm>
0

>  <SCORE.SYSTEM>
0

>  <SCORE.SYSTEM.CONST>
0

>  <SCORE.SYSTEM.DIHEDRAL>
0

>  <SCORE.SYSTEM.SOLV>
0

>  <SCORE.SYSTEM.norm>
0

>  <SCORE.heavy>
14

>  <SCORE.norm>
-0.416443

>  <RMSD>
3.705

$$$$
ligand
 OpenBabel11021811463D
libRbt.so/2013.1/901 2013/11/27
 14 13  0  0  0  0  0  0  0  0999 V2000
   15.9816   14.5221    8.7440 N   0  0  0  0  0  0  0  0  0  0  0  0
   14.9810   13.4464    8.7470 C   0  0  0  0  0  0  0  0  0  0  0  0
   13.8344   13.8211    7.8137 C   0  0  0  0  0  0  0  0  0  0  0  0
   12.7934   12.7143    7.8529 C   0  0  0  0  0  0  0  0  0  0  0  0
   12.1800   12.6834    9.1854 N   0  0  0  0  0  0  0  0  0  0  0  0
   12.3386   11.3121    9.7003 C   0  0  0  0  0  0  0  0  0  0  0  0
   11.1178   10.9043   10.5329 C   0  0  0  0  0  0  0  0  0  0  0  0
   11.4557    9.6049   11.2791 C   0  0  0  0  0  0  0  0  0  0  0  0
   10.2833    9.1368   12.0361 C   0  0  0  0  0  0  0  0  0  0  0  0
   10.0293   10.1142   13.1140 N   0  0  0  0  0  0  0  0  0  0  0  0
    9.0790    9.5156   14.1573 C   0  0  0  0  0  0  0  0  0  0  0  0
    8.3937   10.6435   14.9381 C   0  0  0  0  0  0  0  0  0  0  0  0
    7.5031   10.0689   15.9648 C   0  0  0  0  0  0  0  0  0  0  0  0
    6.8023   11.1562   16.6811 N   0  0  0  0  0  0  0  0  0  0  0  0
  1  2  1  0  0  0  0
  2  3  1  0  0  0  0
  3  4  1  0  0  0  0
  4  5  1  0  0  0  0
  5  6  1  0  0  0  0
  6  7  1  0  0  0  0
  7  8  1  0  0  0  0
  8  9  1  0  0  0  0
  9 10  1  0  0  0  0
 10 11  1  0  0  0  0
 11 12  1  0  0  0  0
 12 13  1  0  0  0  0
 13 14  1  0  0  0  0
M  END
>  <CHROM.1>
-178.69249443,66.95329090,-124.94937539,-144.52232448,-168.32314978,-176.94457121
-67.21081193,-164.87433491,-157.92173469,-178.64001408,-177.77395315,11.19806002
11.40283399,11.48171332,-0.06611782,0.88568266,0.52380132

>  <Name>
ligand

>  <RI>
0

>  <Rbt.Current_Directory>
/home/itssahil/PROJECTS/Mol_Feturizer/New_Systems/rnas/2O3Y

>  <Rbt.Executable>
rbdock ($Id: //depot/dev/client3/rdock/2013.1/src/exe/rbdock.cxx#4 $)

>  <Rbt.Library>
libRbt.so (2013.1, Build901 2013/11/27)

>  <Rbt.Parameter_File>
/export/apps/rDock/src/rDock_2013.1_src/data/scripts/dock_solv.prm

>  <Rbt.Receptor>
prm/pocket_docking_7.prm

>  <SCORE>
-7.98995

>  <SCORE.INTER>
1.90628

>  <SCORE.INTER.CONST>
1

>  <SCORE.INTER.POLAR>
0

>  <SCORE.INTER.ROT>
11

>  <SCORE.INTER.SOLV>
4.85134

>  <SCORE.INTER.VDW>
-11.2796

>  <SCORE.INTER.norm>
0.136163

>  <SCORE.INTRA>
-9.89624

>  <SCORE.INTRA.DIHEDRAL>
-20.6901

>  <SCORE.INTRA.DIHEDRAL.0>
24.1231

>  <SCORE.INTRA.POLAR>
0

>  <SCORE.INTRA.POLAR.0>
0

>  <SCORE.INTRA.REPUL>
0

>  <SCORE.INTRA.REPUL.0>
0

>  <SCORE.INTRA.SOLV>
-0.0503536

>  <SCORE.INTRA.SOLV.lig_0>
-48.2216

>  <SCORE.INTRA.VDW>
0.473999

>  <SCORE.INTRA.VDW.0>
-1.3967

>  <SCORE.INTRA.norm>
-0.706874

>  <SCORE.RESTR>
0

>  <SCORE.RESTR.CAVITY>
0

>  <SCORE.RESTR.norm>
0

>  <SCORE.SYSTEM>
0

>  <SCORE.SYSTEM.CONST>
0

>  <SCORE.SYSTEM.DIHEDRAL>
0

>  <SCORE.SYSTEM.SOLV>
0

>  <SCORE.SYSTEM.norm>
0

>  <SCORE.heavy>
14

>  <SCORE.norm>
-0.570711

>  <RMSD>
3.709

$$$$
ligand
 OpenBabel11021811463D
libRbt.so/2013.1/901 2013/11/27
 14 13  0  0  0  0  0  0  0  0999 V2000
   16.9400   15.8413   11.8674 N   0  0  0  0  0  0  0  0  0  0  0  0
   17.6877   14.9580   10.9626 C   0  0  0  0  0  0  0  0  0  0  0  0
   16.8076   13.7758   10.5700 C   0  0  0  0  0  0  0  0  0  0  0  0
   15.6509   14.2886    9.7279 C   0  0  0  0  0  0  0  0  0  0  0  0
   14.8201   13.1515    9.3160 N   0  0  0  0  0  0  0  0  0  0  0  0
   13.6052   13.7087    8.6960 C   0  0  0  0  0  0  0  0  0  0  0  0
   12.5135   12.6375    8.5917 C   0  0  0  0  0  0  0  0  0  0  0  0
   12.1152   12.2155   10.0140 C   0  0  0  0  0  0  0  0  0  0  0  0
   10.9768   11.2836    9.9650 C   0  0  0  0  0  0  0  0  0  0  0  0
   10.5724   11.0004   11.3571 N   0  0  0  0  0  0  0  0  0  0  0  0
   10.6757    9.4978   11.6423 C   0  0  0  0  0  0  0  0  0  0  0  0
    9.6854    9.1135   12.7483 C   0  0  0  0  0  0  0  0  0  0  0  0
   10.0449    9.8052   14.0012 C   0  0  0  0  0  0  0  0  0  0  0  0
    9.0672    9.4638   15.0567 N   0  0  0  0  0  0  0  0  0  0  0  0
  1  2  1  0  0  0  0
  2  3  1  0  0  0  0
  3  4  1  0  0  0  0
  4  5  1  0  0  0  0
  5  6  1  0  0  0  0
  6  7  1  0  0  0  0
  7  8  1  0  0  0  0
  8  9  1  0  0  0  0
  9 10  1  0  0  0  0
 10 11  1  0  0  0  0
 11 12  1  0  0  0  0
 12 13  1  0  0  0  0
 13 14  1  0  0  0  0
M  END
>  <CHROM.1>
66.60274300,178.47175806,171.00739380,-164.11294902,63.97770396,174.48958775
-175.54187323,-120.79860659,-153.14495794,-63.27691418,178.41356945,12.94021893
12.19573732,11.03652387,-0.42231537,0.58389876,1.74770072

>  <Name>
ligand

>  <RI>
0

>  <Rbt.Current_Directory>
/home/itssahil/PROJECTS/Mol_Feturizer/New_Systems/rnas/2O3Y

>  <Rbt.Executable>
rbdock ($Id: //depot/dev/client3/rdock/2013.1/src/exe/rbdock.cxx#4 $)

>  <Rbt.Library>
libRbt.so (2013.1, Build901 2013/11/27)

>  <Rbt.Parameter_File>
/export/apps/rDock/src/rDock_2013.1_src/data/scripts/dock_solv.prm

>  <Rbt.Receptor>
prm/pocket_docking_4.prm

>  <SCORE>
-6.89209

>  <SCORE.INTER>
3.0309

>  <SCORE.INTER.CONST>
1

>  <SCORE.INTER.POLAR>
0

>  <SCORE.INTER.ROT>
11

>  <SCORE.INTER.SOLV>
3.8676

>  <SCORE.INTER.VDW>
-10.2019

>  <SCORE.INTER.norm>
0.216493

>  <SCORE.INTRA>
-9.92316

>  <SCORE.INTRA.DIHEDRAL>
-21.6776

>  <SCORE.INTRA.DIHEDRAL.0>
24.1231

>  <SCORE.INTRA.POLAR>
0

>  <SCORE.INTRA.POLAR.0>
0

>  <SCORE.INTRA.REPUL>
0

>  <SCORE.INTRA.REPUL.0>
0

>  <SCORE.INTRA.SOLV>
0.744768

>  <SCORE.INTRA.SOLV.lig_0>
-48.2216

>  <SCORE.INTRA.VDW>
0.543281

>  <SCORE.INTRA.VDW.0>
-1.3967

>  <SCORE.INTRA.norm>
-0.708797

>  <SCORE.RESTR>
0.000173413

>  <SCORE.RESTR.CAVITY>
0.000173413

>  <SCORE.RESTR.norm>
1.23866e-05

>  <SCORE.SYSTEM>
0

>  <SCORE.SYSTEM.CONST>
0

>  <SCORE.SYSTEM.DIHEDRAL>
0

>  <SCORE.SYSTEM.SOLV>
0

>  <SCORE.SYSTEM.norm>
0

>  <SCORE.heavy>
14

>  <SCORE.norm>
-0.492292

>  <RMSD>
3.747

$$$$
ligand
 OpenBabel11021811463D
libRbt.so/2013.1/901 2013/11/27
 14 13  0  0  0  0  0  0  0  0999 V2000
   13.0368   14.6251    9.9836 N   0  0  0  0  0  0  0  0  0  0  0  0
   13.4469   14.3733    8.5957 C   0  0  0  0  0  0  0  0  0  0  0  0
   12.5771   13.2684    8.0050 C   0  0  0  0  0  0  0  0  0  0  0  0
   12.9244   11.9568    8.6899 C   0  0  0  0  0  0  0  0  0  0  0  0
   12.3950   11.9785   10.0582 N   0  0  0  0  0  0  0  0  0  0  0  0
   11.0575   11.3623   10.0118 C   0  0  0  0  0  0  0  0  0  0  0  0
   10.5594   11.0482   11.4271 C   0  0  0  0  0  0  0  0  0  0  0  0
   10.5280   12.3581   12.2287 C   0  0  0  0  0  0  0  0  0  0  0  0
   10.1709   12.0851   13.6303 C   0  0  0  0  0  0  0  0  0  0  0  0
   10.2643   13.3598   14.3706 N   0  0  0  0  0  0  0  0  0  0  0  0
   11.0903   13.1700   15.6479 C   0  0  0  0  0  0  0  0  0  0  0  0
   11.4438   14.5390   16.2418 C   0  0  0  0  0  0  0  0  0  0  0  0
   10.2156   15.2131   16.7050 C   0  0  0  0  0  0  0  0  0  0  0  0
   10.5471   16.5661   17.2012 N   0  0  0  0  0  0  0  0  0  0  0  0
  1  2  1  0  0  0  0
  2  3  1  0  0  0  0
  3  4  1  0  0  0  0
  4  5  1  0  0  0  0
  5  6  1  0  0  0  0
  6  7  1  0  0  0  0
  7  8  1  0  0  0  0
  8  9  1  0  0  0  0
  9 10  1  0  0  0  0
 10 11  1  0  0  0  0
 11 12  1  0  0  0  0
 12 13  1  0  0  0  0
 13 14  1  0  0  0  0
M  END
>  <CHROM.1>
-69.02437751,72.44537653,92.81165506,167.02958974,58.47295673,-174.92664635
175.47317775,-130.53774292,167.52490089,66.25481030,-176.55248711,11.44688832
13.27849386,12.34239440,-1.08830910,1.01228465,0.88045463

>  <Name>
ligand

>  <RI>
0

>  <Rbt.Current_Directory>
/home/itssahil/PROJECTS/Mol_Feturizer/New_Systems/rnas/2O3Y

>  <Rbt.Executable>
rbdock ($Id: //depot/dev/client3/rdock/2013.1/src/exe/rbdock.cxx#4 $)

>  <Rbt.Library>
libRbt.so (2013.1, Build901 2013/11/27)

>  <Rbt.Parameter_File>
/export/apps/rDock/src/rDock_2013.1_src/data/scripts/dock_solv.prm

>  <Rbt.Receptor>
prm/pocket_docking_5.prm

>  <SCORE>
-6.54997

>  <SCORE.INTER>
1.09596

>  <SCORE.INTER.CONST>
1

>  <SCORE.INTER.POLAR>
0

>  <SCORE.INTER.ROT>
11

>  <SCORE.INTER.SOLV>
5.49937

>  <SCORE.INTER.VDW>
-12.0358

>  <SCORE.INTER.norm>
0.0782825

>  <SCORE.INTRA>
-7.64592

>  <SCORE.INTRA.DIHEDRAL>
-20.8147

>  <SCORE.INTRA.DIHEDRAL.0>
24.1231

>  <SCORE.INTRA.POLAR>
0

>  <SCORE.INTRA.POLAR.0>
0

>  <SCORE.INTRA.REPUL>
0

>  <SCORE.INTRA.REPUL.0>
0

>  <SCORE.INTRA.SOLV>
3.68417

>  <SCORE.INTRA.SOLV.lig_0>
-48.2216

>  <SCORE.INTRA.VDW>
0.919328

>  <SCORE.INTRA.VDW.0>
-1.3967

>  <SCORE.INTRA.norm>
-0.546137

>  <SCORE.RESTR>
0

>  <SCORE.RESTR.CAVITY>
0

>  <SCORE.RESTR.norm>
0

>  <SCORE.SYSTEM>
0

>  <SCORE.SYSTEM.CONST>
0

>  <SCORE.SYSTEM.DIHEDRAL>
0

>  <SCORE.SYSTEM.SOLV>
0

>  <SCORE.SYSTEM.norm>
0

>  <SCORE.heavy>
14

>  <SCORE.norm>
-0.467855

>  <RMSD>
3.772

$$$$
ligand
 OpenBabel11021811463D
libRbt.so/2013.1/901 2013/11/27
 14 13  0  0  0  0  0  0  0  0999 V2000
   13.6666   14.8631   11.4488 N   0  0  0  0  0  0  0  0  0  0  0  0
   13.3206   13.8921   10.4022 C   0  0  0  0  0  0  0  0  0  0  0  0
   13.2648   14.6021    9.0535 C   0  0  0  0  0  0  0  0  0  0  0  0
   12.8346   13.6010    7.9938 C   0  0  0  0  0  0  0  0  0  0  0  0
   13.8868   12.5905    7.8372 N   0  0  0  0  0  0  0  0  0  0  0  0
   13.3471   11.3230    8.3595 C   0  0  0  0  0  0  0  0  0  0  0  0
   14.4831   10.3454    8.6817 C   0  0  0  0  0  0  0  0  0  0  0  0
   13.8712    9.0891    9.3195 C   0  0  0  0  0  0  0  0  0  0  0  0
   13.4463    9.3779   10.6990 C   0  0  0  0  0  0  0  0  0  0  0  0
   12.7774    8.1691   11.2216 N   0  0  0  0  0  0  0  0  0  0  0  0
   12.0933    8.4795   12.5579 C   0  0  0  0  0  0  0  0  0  0  0  0
   10.5852    8.2298   12.4355 C   0  0  0  0  0  0  0  0  0  0  0  0
    9.9158    8.5949   13.6989 C   0  0  0  0  0  0  0  0  0  0  0  0
   10.0402   10.0507   13.9257 N   0  0  0  0  0  0  0  0  0  0  0  0
  1  2  1  0  0  0  0
  2  3  1  0  0  0  0
  3  4  1  0  0  0  0
  4  5  1  0  0  0  0
  5  6  1  0  0  0  0
  6  7  1  0  0  0  0
  7  8  1  0  0  0  0
  8  9  1  0  0  0  0
  9 10  1  0  0  0  0
 10 11  1  0  0  0  0
 11 12  1  0  0  0  0
 12 13  1  0  0  0  0
 13 14  1  0  0  0  0
M  END
>  <CHROM.1>
-177.05237025,-66.54576675,111.27781795,-160.79804047,175.75086459,-73.72993638
175.80702664,-170.01957267,119.43578298,-177.07363411,65.40163658,12.68095689
10.94324903,10.54510861,0.81752472,0.98318513,-0.01314107

>  <Name>
ligand

>  <RI>
0

>  <Rbt.Current_Directory>
/home/itssahil/PROJECTS/Mol_Feturizer/New_Systems/rnas/2O3Y

>  <Rbt.Executable>
rbdock ($Id: //depot/dev/client3/rdock/2013.1/src/exe/rbdock.cxx#4 $)

>  <Rbt.Library>
libRbt.so (2013.1, Build901 2013/11/27)

>  <Rbt.Parameter_File>
/export/apps/rDock/src/rDock_2013.1_src/data/scripts/dock_solv.prm

>  <Rbt.Receptor>
prm/pocket_docking_4.prm

>  <SCORE>
-6.73773

>  <SCORE.INTER>
1.81492

>  <SCORE.INTER.CONST>
1

>  <SCORE.INTER.POLAR>
0

>  <SCORE.INTER.ROT>
11

>  <SCORE.INTER.SOLV>
8.15893

>  <SCORE.INTER.VDW>
-12.443

>  <SCORE.INTER.norm>
0.129637

>  <SCORE.INTRA>
-8.56125

>  <SCORE.INTRA.DIHEDRAL>
-20.1994

>  <SCORE.INTRA.DIHEDRAL.0>
24.1231

>  <SCORE.INTRA.POLAR>
0

>  <SCORE.INTRA.POLAR.0>
0

>  <SCORE.INTRA.REPUL>
0

>  <SCORE.INTRA.REPUL.0>
0

>  <SCORE.INTRA.SOLV>
0.604257

>  <SCORE.INTRA.SOLV.lig_0>
-48.2216

>  <SCORE.INTRA.VDW>
1.23631

>  <SCORE.INTRA.VDW.0>
-1.3967

>  <SCORE.INTRA.norm>
-0.611518

>  <SCORE.RESTR>
0.00860121

>  <SCORE.RESTR.CAVITY>
0.00860121

>  <SCORE.RESTR.norm>
0.000614372

>  <SCORE.SYSTEM>
0

>  <SCORE.SYSTEM.CONST>
0

>  <SCORE.SYSTEM.DIHEDRAL>
0

>  <SCORE.SYSTEM.SOLV>
0

>  <SCORE.SYSTEM.norm>
0

>  <SCORE.heavy>
14

>  <SCORE.norm>
-0.481267

>  <RMSD>
3.783

$$$$
ligand
 OpenBabel11021811463D
libRbt.so/2013.1/901 2013/11/27
 14 13  0  0  0  0  0  0  0  0999 V2000
   18.4027   13.1162   10.5122 N   0  0  0  0  0  0  0  0  0  0  0  0
   19.7984   12.8212   10.1611 C   0  0  0  0  0  0  0  0  0  0  0  0
   19.9668   11.3157    9.9841 C   0  0  0  0  0  0  0  0  0  0  0  0
   19.9996   10.6648   11.3572 C   0  0  0  0  0  0  0  0  0  0  0  0
   18.6598   10.7368   11.9512 N   0  0  0  0  0  0  0  0  0  0  0  0
   18.6355    9.7837   13.0745 C   0  0  0  0  0  0  0  0  0  0  0  0
   17.3333    9.9228   13.8713 C   0  0  0  0  0  0  0  0  0  0  0  0
   17.4057   11.2205   14.6899 C   0  0  0  0  0  0  0  0  0  0  0  0
   16.1918   11.3704   15.5089 C   0  0  0  0  0  0  0  0  0  0  0  0
   15.0387   11.4390   14.5883 N   0  0  0  0  0  0  0  0  0  0  0  0
   13.7267   11.3814   15.3791 C   0  0  0  0  0  0  0  0  0  0  0  0
   12.5599   11.7930   14.4731 C   0  0  0  0  0  0  0  0  0  0  0  0
   11.3007   11.7719   15.2422 C   0  0  0  0  0  0  0  0  0  0  0  0
   11.3356   12.8211   16.2836 N   0  0  0  0  0  0  0  0  0  0  0  0
  1  2  1  0  0  0  0
  2  3  1  0  0  0  0
  3  4  1  0  0  0  0
  4  5  1  0  0  0  0
  5  6  1  0  0  0  0
  6  7  1  0  0  0  0
  7  8  1  0  0  0  0
  8  9  1  0  0  0  0
  9 10  1  0  0  0  0
 10 11  1  0  0  0  0
 11 12  1  0  0  0  0
 12 13  1  0  0  0  0
 13 14  1  0  0  0  0
M  END
>  <CHROM.1>
-76.05731184,70.41198025,164.24898311,172.57132257,-73.57850801,-178.02160738
-61.05020520,171.43131797,166.25286810,-178.54031087,66.23689881,16.45418035
11.43965568,13.36263227,0.40704531,0.41341526,-0.92215026

>  <Name>
ligand

>  <RI>
0

>  <Rbt.Current_Directory>
/home/itssahil/PROJECTS/Mol_Feturizer/New_Systems/rnas/2O3Y

>  <Rbt.Executable>
rbdock ($Id: //depot/dev/client3/rdock/2013.1/src/exe/rbdock.cxx#4 $)

>  <Rbt.Library>
libRbt.so (2013.1, Build901 2013/11/27)

>  <Rbt.Parameter_File>
/export/apps/rDock/src/rDock_2013.1_src/data/scripts/dock_solv.prm

>  <Rbt.Receptor>
prm/pocket_docking_6.prm

>  <SCORE>
-5.62752

>  <SCORE.INTER>
2.64655

>  <SCORE.INTER.CONST>
1

>  <SCORE.INTER.POLAR>
0

>  <SCORE.INTER.ROT>
11

>  <SCORE.INTER.SOLV>
5.69821

>  <SCORE.INTER.VDW>
-11.0684

>  <SCORE.INTER.norm>
0.189039

>  <SCORE.INTRA>
-8.27407

>  <SCORE.INTRA.DIHEDRAL>
-21.5147

>  <SCORE.INTRA.DIHEDRAL.0>
24.1231

>  <SCORE.INTRA.POLAR>
0

>  <SCORE.INTRA.POLAR.0>
0

>  <SCORE.INTRA.REPUL>
0

>  <SCORE.INTRA.REPUL.0>
0

>  <SCORE.INTRA.SOLV>
3.56883

>  <SCORE.INTRA.SOLV.lig_0>
-48.2216

>  <SCORE.INTRA.VDW>
0.698873

>  <SCORE.INTRA.VDW.0>
-1.3967

>  <SCORE.INTRA.norm>
-0.591005

>  <SCORE.RESTR>
0

>  <SCORE.RESTR.CAVITY>
0

>  <SCORE.RESTR.norm>
0

>  <SCORE.SYSTEM>
0

>  <SCORE.SYSTEM.CONST>
0

>  <SCORE.SYSTEM.DIHEDRAL>
0

>  <SCORE.SYSTEM.SOLV>
0

>  <SCORE.SYSTEM.norm>
0

>  <SCORE.heavy>
14

>  <SCORE.norm>
-0.401966

>  <RMSD>
3.787

$$$$
ligand
 OpenBabel11021811463D
libRbt.so/2013.1/901 2013/11/27
 14 13  0  0  0  0  0  0  0  0999 V2000
    9.9402    8.9808   13.8060 N   0  0  0  0  0  0  0  0  0  0  0  0
   10.6071    8.5923   12.5561 C   0  0  0  0  0  0  0  0  0  0  0  0
   12.1184    8.6248   12.7591 C   0  0  0  0  0  0  0  0  0  0  0  0
   12.7948    8.3704   11.4220 C   0  0  0  0  0  0  0  0  0  0  0  0
   12.5438    9.5124   10.5357 N   0  0  0  0  0  0  0  0  0  0  0  0
   13.4767    9.3902    9.4019 C   0  0  0  0  0  0  0  0  0  0  0  0
   13.5105   10.6895    8.5892 C   0  0  0  0  0  0  0  0  0  0  0  0
   13.9575   11.8278    9.5188 C   0  0  0  0  0  0  0  0  0  0  0  0
   13.9168   13.1124    8.8013 C   0  0  0  0  0  0  0  0  0  0  0  0
   14.3447   14.1643    9.7458 N   0  0  0  0  0  0  0  0  0  0  0  0
   15.8389   14.4576    9.5689 C   0  0  0  0  0  0  0  0  0  0  0  0
   16.3938   15.0972   10.8474 C   0  0  0  0  0  0  0  0  0  0  0  0
   16.4984   14.0780   11.9093 C   0  0  0  0  0  0  0  0  0  0  0  0
   15.1454   13.6924   12.3645 N   0  0  0  0  0  0  0  0  0  0  0  0
  1  2  1  0  0  0  0
  2  3  1  0  0  0  0
  3  4  1  0  0  0  0
  4  5  1  0  0  0  0
  5  6  1  0  0  0  0
  6  7  1  0  0  0  0
  7  8  1  0  0  0  0
  8  9  1  0  0  0  0
  9 10  1  0  0  0  0
 10 11  1  0  0  0  0
 11 12  1  0  0  0  0
 12 13  1  0  0  0  0
 13 14  1  0  0  0  0
M  END
>  <CHROM.1>
-173.87258519,67.87174831,166.03475459,-167.33308618,59.34783599,-176.20040243
179.55525430,95.91476609,-157.89753585,72.96784444,-70.42743457,13.64933088
11.47067675,10.84438837,-3.08932660,-0.94657993,-1.82019076

>  <Name>
ligand

>  <RI>
0

>  <Rbt.Current_Directory>
/home/itssahil/PROJECTS/Mol_Feturizer/New_Systems/rnas/2O3Y

>  <Rbt.Executable>
rbdock ($Id: //depot/dev/client3/rdock/2013.1/src/exe/rbdock.cxx#4 $)

>  <Rbt.Library>
libRbt.so (2013.1, Build901 2013/11/27)

>  <Rbt.Parameter_File>
/export/apps/rDock/src/rDock_2013.1_src/data/scripts/dock_solv.prm

>  <Rbt.Receptor>
prm/pocket_docking_3.prm

>  <SCORE>
-3.3763

>  <SCORE.INTER>
4.7431

>  <SCORE.INTER.CONST>
1

>  <SCORE.INTER.POLAR>
0

>  <SCORE.INTER.ROT>
11

>  <SCORE.INTER.SOLV>
4.56467

>  <SCORE.INTER.VDW>
-9.29282

>  <SCORE.INTER.norm>
0.338793

>  <SCORE.INTRA>
-8.13178

>  <SCORE.INTRA.DIHEDRAL>
-21.2527

>  <SCORE.INTRA.DIHEDRAL.0>
24.1231

>  <SCORE.INTRA.POLAR>
0

>  <SCORE.INTRA.POLAR.0>
0

>  <SCORE.INTRA.REPUL>
0

>  <SCORE.INTRA.REPUL.0>
0

>  <SCORE.INTRA.SOLV>
3.97345

>  <SCORE.INTRA.SOLV.lig_0>
-48.2216

>  <SCORE.INTRA.VDW>
0.50783

>  <SCORE.INTRA.VDW.0>
-1.3967

>  <SCORE.INTRA.norm>
-0.580842

>  <SCORE.RESTR>
0.0123881

>  <SCORE.RESTR.CAVITY>
0.0123881

>  <SCORE.RESTR.norm>
0.000884863

>  <SCORE.SYSTEM>
0

>  <SCORE.SYSTEM.CONST>
0

>  <SCORE.SYSTEM.DIHEDRAL>
0

>  <SCORE.SYSTEM.SOLV>
0

>  <SCORE.SYSTEM.norm>
0

>  <SCORE.heavy>
14

>  <SCORE.norm>
-0.241164

>  <RMSD>
3.831

$$$$
ligand
 OpenBabel11021811463D
libRbt.so/2013.1/901 2013/11/27
 14 13  0  0  0  0  0  0  0  0999 V2000
   10.2995   15.8160   16.0402 N   0  0  0  0  0  0  0  0  0  0  0  0
   10.4009   14.3681   16.2668 C   0  0  0  0  0  0  0  0  0  0  0  0
   11.8153   14.0266   16.7240 C   0  0  0  0  0  0  0  0  0  0  0  0
   11.9010   12.5281   16.9635 C   0  0  0  0  0  0  0  0  0  0  0  0
   11.7101   11.8295   15.6874 N   0  0  0  0  0  0  0  0  0  0  0  0
   12.2684   10.4759   15.8503 C   0  0  0  0  0  0  0  0  0  0  0  0
   12.1256    9.6740   14.5516 C   0  0  0  0  0  0  0  0  0  0  0  0
   10.6364    9.3630   14.3387 C   0  0  0  0  0  0  0  0  0  0  0  0
   10.4366    8.7163   13.0316 C   0  0  0  0  0  0  0  0  0  0  0  0
   10.7476    9.7145   11.9882 N   0  0  0  0  0  0  0  0  0  0  0  0
   11.9756    9.2733   11.1838 C   0  0  0  0  0  0  0  0  0  0  0  0
   12.0941   10.1255    9.9144 C   0  0  0  0  0  0  0  0  0  0  0  0
   13.2862    9.7144    9.1480 C   0  0  0  0  0  0  0  0  0  0  0  0
   14.5091   10.1130    9.8775 N   0  0  0  0  0  0  0  0  0  0  0  0
  1  2  1  0  0  0  0
  2  3  1  0  0  0  0
  3  4  1  0  0  0  0
  4  5  1  0  0  0  0
  5  6  1  0  0  0  0
  6  7  1  0  0  0  0
  7  8  1  0  0  0  0
  8  9  1  0  0  0  0
  9 10  1  0  0  0  0
 10 11  1  0  0  0  0
 11 12  1  0  0  0  0
 12 13  1  0  0  0  0
 13 14  1  0  0  0  0
M  END
>  <CHROM.1>
179.59914243,64.97809330,159.96029464,-179.36261047,-69.79967575,174.08772471
-67.21261040,115.10000730,166.78177355,179.23486227,-69.64305754,11.72899174
11.12384484,13.68341548,-2.18787973,-1.23185067,-2.77262025

>  <Name>
ligand

>  <RI>
0

>  <Rbt.Current_Directory>
/home/itssahil/PROJECTS/Mol_Feturizer/New_Systems/rnas/2O3Y

>  <Rbt.Executable>
rbdock ($Id: //depot/dev/client3/rdock/2013.1/src/exe/rbdock.cxx#4 $)

>  <Rbt.Library>
libRbt.so (2013.1, Build901 2013/11/27)

>  <Rbt.Parameter_File>
/export/apps/rDock/src/rDock_2013.1_src/data/scripts/dock_solv.prm

>  <Rbt.Receptor>
prm/pocket_docking_3.prm

>  <SCORE>
-4.27272

>  <SCORE.INTER>
5.12328

>  <SCORE.INTER.CONST>
1

>  <SCORE.INTER.POLAR>
0

>  <SCORE.INTER.ROT>
11

>  <SCORE.INTER.SOLV>
4.24846

>  <SCORE.INTER.VDW>
-8.93397

>  <SCORE.INTER.norm>
0.365948

>  <SCORE.INTRA>
-9.4035

>  <SCORE.INTRA.DIHEDRAL>
-21.3675

>  <SCORE.INTRA.DIHEDRAL.0>
24.1231

>  <SCORE.INTRA.POLAR>
0

>  <SCORE.INTRA.POLAR.0>
0

>  <SCORE.INTRA.REPUL>
0

>  <SCORE.INTRA.REPUL.0>
0

>  <SCORE.INTRA.SOLV>
1.16538

>  <SCORE.INTRA.SOLV.lig_0>
-48.2216

>  <SCORE.INTRA.VDW>
0.697537

>  <SCORE.INTRA.VDW.0>
-1.3967

>  <SCORE.INTRA.norm>
-0.671679

>  <SCORE.RESTR>
0.00750595

>  <SCORE.RESTR.CAVITY>
0.00750595

>  <SCORE.RESTR.norm>
0.000536139

>  <SCORE.SYSTEM>
0

>  <SCORE.SYSTEM.CONST>
0

>  <SCORE.SYSTEM.DIHEDRAL>
0

>  <SCORE.SYSTEM.SOLV>
0

>  <SCORE.SYSTEM.norm>
0

>  <SCORE.heavy>
14

>  <SCORE.norm>
-0.305194

>  <RMSD>
3.836

$$$$
ligand
 OpenBabel11021811463D
libRbt.so/2013.1/901 2013/11/27
 14 13  0  0  0  0  0  0  0  0999 V2000
   13.6352   16.0240   10.9245 N   0  0  0  0  0  0  0  0  0  0  0  0
   12.9088   15.2814    9.8857 C   0  0  0  0  0  0  0  0  0  0  0  0
   13.8811   14.3709    9.1429 C   0  0  0  0  0  0  0  0  0  0  0  0
   13.1013   13.5499    8.1291 C   0  0  0  0  0  0  0  0  0  0  0  0
   12.2089   12.6310    8.8447 N   0  0  0  0  0  0  0  0  0  0  0  0
   12.9852   11.4114    9.1287 C   0  0  0  0  0  0  0  0  0  0  0  0
   12.0744   10.3092    9.6817 C   0  0  0  0  0  0  0  0  0  0  0  0
   11.4694   10.8028   11.0046 C   0  0  0  0  0  0  0  0  0  0  0  0
   10.5717    9.7789   11.5635 C   0  0  0  0  0  0  0  0  0  0  0  0
   10.1191   10.2567   12.8858 N   0  0  0  0  0  0  0  0  0  0  0  0
    9.5739    9.0866   13.7125 C   0  0  0  0  0  0  0  0  0  0  0  0
    9.0657    9.6026   15.0642 C   0  0  0  0  0  0  0  0  0  0  0  0
    7.8458   10.4082   14.8631 C   0  0  0  0  0  0  0  0  0  0  0  0
    7.3296   10.8653   16.1712 N   0  0  0  0  0  0  0  0  0  0  0  0
  1  2  1  0  0  0  0
  2  3  1  0  0  0  0
  3  4  1  0  0  0  0
  4  5  1  0  0  0  0
  5  6  1  0  0  0  0
  6  7  1  0  0  0  0
  7  8  1  0  0  0  0
  8  9  1  0  0  0  0
  9 10  1  0  0  0  0
 10 11  1  0  0  0  0
 11 12  1  0  0  0  0
 12 13  1  0  0  0  0
 13 14  1  0  0  0  0
M  END
>  <CHROM.1>
176.66020563,-66.61935542,-87.04517913,-171.22762205,-61.96597904,179.27942247
174.98814306,-161.48777428,-178.16962517,69.54907456,178.00681102,11.19800901
11.74106546,11.49986414,0.18307605,0.95569490,0.40553959

>  <Name>
ligand

>  <RI>
0

>  <Rbt.Current_Directory>
/home/itssahil/PROJECTS/Mol_Feturizer/New_Systems/rnas/2O3Y

>  <Rbt.Executable>
rbdock ($Id: //depot/dev/client3/rdock/2013.1/src/exe/rbdock.cxx#4 $)

>  <Rbt.Library>
libRbt.so (2013.1, Build901 2013/11/27)

>  <Rbt.Parameter_File>
/export/apps/rDock/src/rDock_2013.1_src/data/scripts/dock_solv.prm

>  <Rbt.Receptor>
prm/pocket_docking_7.prm

>  <SCORE>
-8.97579

>  <SCORE.INTER>
1.23615

>  <SCORE.INTER.CONST>
1

>  <SCORE.INTER.POLAR>
0

>  <SCORE.INTER.ROT>
11

>  <SCORE.INTER.SOLV>
5.97392

>  <SCORE.INTER.VDW>
-12.1005

>  <SCORE.INTER.norm>
0.0882967

>  <SCORE.INTRA>
-10.2119

>  <SCORE.INTRA.DIHEDRAL>
-22.6198

>  <SCORE.INTRA.DIHEDRAL.0>
24.1231

>  <SCORE.INTRA.POLAR>
0

>  <SCORE.INTRA.POLAR.0>
0

>  <SCORE.INTRA.REPUL>
0

>  <SCORE.INTRA.REPUL.0>
0

>  <SCORE.INTRA.SOLV>
0.310957

>  <SCORE.INTRA.SOLV.lig_0>
-48.2216

>  <SCORE.INTRA.VDW>
0.942475

>  <SCORE.INTRA.VDW.0>
-1.3967

>  <SCORE.INTRA.norm>
-0.729425

>  <SCORE.RESTR>
0

>  <SCORE.RESTR.CAVITY>
0

>  <SCORE.RESTR.norm>
0

>  <SCORE.SYSTEM>
0

>  <SCORE.SYSTEM.CONST>
0

>  <SCORE.SYSTEM.DIHEDRAL>
0

>  <SCORE.SYSTEM.SOLV>
0

>  <SCORE.SYSTEM.norm>
0

>  <SCORE.heavy>
14

>  <SCORE.norm>
-0.641128

>  <RMSD>
3.865

$$$$
ligand
 OpenBabel11021811463D
libRbt.so/2013.1/901 2013/11/27
 14 13  0  0  0  0  0  0  0  0999 V2000
   11.9234    9.0776   14.6874 N   0  0  0  0  0  0  0  0  0  0  0  0
   11.7674    8.2324   13.4961 C   0  0  0  0  0  0  0  0  0  0  0  0
   10.2954    7.8736   13.3210 C   0  0  0  0  0  0  0  0  0  0  0  0
    9.5411    9.1159   12.8761 C   0  0  0  0  0  0  0  0  0  0  0  0
    9.8583    9.3882   11.4696 N   0  0  0  0  0  0  0  0  0  0  0  0
   10.4501   10.7363   11.4153 C   0  0  0  0  0  0  0  0  0  0  0  0
   11.2233   10.9333   10.1063 C   0  0  0  0  0  0  0  0  0  0  0  0
   12.3637    9.9053   10.0610 C   0  0  0  0  0  0  0  0  0  0  0  0
   13.1926   10.1217    8.8640 C   0  0  0  0  0  0  0  0  0  0  0  0
   13.9024   11.4051    9.0394 N   0  0  0  0  0  0  0  0  0  0  0  0
   13.3491   12.4525    8.0664 C   0  0  0  0  0  0  0  0  0  0  0  0
   13.9780   13.8185    8.3667 C   0  0  0  0  0  0  0  0  0  0  0  0
   13.6238   14.2398    9.7358 C   0  0  0  0  0  0  0  0  0  0  0  0
   14.3294   15.4960   10.0685 N   0  0  0  0  0  0  0  0  0  0  0  0
  1  2  1  0  0  0  0
  2  3  1  0  0  0  0
  3  4  1  0  0  0  0
  4  5  1  0  0  0  0
  5  6  1  0  0  0  0
  6  7  1  0  0  0  0
  7  8  1  0  0  0  0
  8  9  1  0  0  0  0
  9 10  1  0  0  0  0
 10 11  1  0  0  0  0
 11 12  1  0  0  0  0
 12 13  1  0  0  0  0
 13 14  1  0  0  0  0
M  END
>  <CHROM.1>
71.33472134,74.03592282,-120.89841591,161.42379661,-61.55662174,-175.95807103
68.24017183,-110.21539985,173.51825538,-61.66952291,174.89143282,12.12828919
10.91383541,10.82648615,-2.82175005,-1.08134002,-1.91450412

>  <Name>
ligand

>  <RI>
0

>  <Rbt.Current_Directory>
/home/itssahil/PROJECTS/Mol_Feturizer/New_Systems/rnas/2O3Y

>  <Rbt.Executable>
rbdock ($Id: //depot/dev/client3/rdock/2013.1/src/exe/rbdock.cxx#4 $)

>  <Rbt.Library>
libRbt.so (2013.1, Build901 2013/11/27)

>  <Rbt.Parameter_File>
/export/apps/rDock/src/rDock_2013.1_src/data/scripts/dock_solv.prm

>  <Rbt.Receptor>
prm/pocket_docking_4.prm

>  <SCORE>
-7.7564

>  <SCORE.INTER>
0.495178

>  <SCORE.INTER.CONST>
1

>  <SCORE.INTER.POLAR>
0

>  <SCORE.INTER.ROT>
11

>  <SCORE.INTER.SOLV>
7.48721

>  <SCORE.INTER.VDW>
-13.099

>  <SCORE.INTER.norm>
0.0353698

>  <SCORE.INTRA>
-8.25158

>  <SCORE.INTRA.DIHEDRAL>
-19.881

>  <SCORE.INTRA.DIHEDRAL.0>
24.1231

>  <SCORE.INTRA.POLAR>
0

>  <SCORE.INTRA.POLAR.0>
0

>  <SCORE.INTRA.REPUL>
0

>  <SCORE.INTRA.REPUL.0>
0

>  <SCORE.INTRA.SOLV>
2.50416

>  <SCORE.INTRA.SOLV.lig_0>
-48.2216

>  <SCORE.INTRA.VDW>
0.436854

>  <SCORE.INTRA.VDW.0>
-1.3967

>  <SCORE.INTRA.norm>
-0.589399

>  <SCORE.RESTR>
0

>  <SCORE.RESTR.CAVITY>
0

>  <SCORE.RESTR.norm>
0

>  <SCORE.SYSTEM>
0

>  <SCORE.SYSTEM.CONST>
0

>  <SCORE.SYSTEM.DIHEDRAL>
0

>  <SCORE.SYSTEM.SOLV>
0

>  <SCORE.SYSTEM.norm>
0

>  <SCORE.heavy>
14

>  <SCORE.norm>
-0.554029

>  <RMSD>
3.869

$$$$
ligand
 OpenBabel11021811463D
libRbt.so/2013.1/901 2013/11/27
 14 13  0  0  0  0  0  0  0  0999 V2000
   21.4062   12.9279    9.0429 N   0  0  0  0  0  0  0  0  0  0  0  0
   20.8569   12.3691   10.2855 C   0  0  0  0  0  0  0  0  0  0  0  0
   19.7252   11.4039    9.9479 C   0  0  0  0  0  0  0  0  0  0  0  0
   19.2005   10.7982   11.2393 C   0  0  0  0  0  0  0  0  0  0  0  0
   18.0751    9.9100   10.9267 N   0  0  0  0  0  0  0  0  0  0  0  0
   17.3283    9.7046   12.1800 C   0  0  0  0  0  0  0  0  0  0  0  0
   16.0939    8.8293   11.9346 C   0  0  0  0  0  0  0  0  0  0  0  0
   15.1059    9.6223   11.0660 C   0  0  0  0  0  0  0  0  0  0  0  0
   14.0054    8.7493   10.6262 C   0  0  0  0  0  0  0  0  0  0  0  0
   13.2489    8.3455   11.8289 N   0  0  0  0  0  0  0  0  0  0  0  0
   11.8581    8.9901   11.8197 C   0  0  0  0  0  0  0  0  0  0  0  0
   10.9145    8.1938   12.7292 C   0  0  0  0  0  0  0  0  0  0  0  0
    9.6134    8.8835   12.8230 C   0  0  0  0  0  0  0  0  0  0  0  0
    9.7806   10.1670   13.5379 N   0  0  0  0  0  0  0  0  0  0  0  0
  1  2  1  0  0  0  0
  2  3  1  0  0  0  0
  3  4  1  0  0  0  0
  4  5  1  0  0  0  0
  5  6  1  0  0  0  0
  6  7  1  0  0  0  0
  7  8  1  0  0  0  0
  8  9  1  0  0  0  0
  9 10  1  0  0  0  0
 10 11  1  0  0  0  0
 11 12  1  0  0  0  0
 12 13  1  0  0  0  0
 13 14  1  0  0  0  0
M  END
>  <CHROM.1>
178.04745204,177.71334865,-161.64231812,177.67517699,-67.70595112,170.98494237
65.18165451,111.40591861,158.77367306,174.66358230,-66.93312264,15.51514909
9.92085791,11.42775200,0.30248476,0.22597874,-0.09382032

>  <Name>
ligand

>  <RI>
0

>  <Rbt.Current_Directory>
/home/itssahil/PROJECTS/Mol_Feturizer/New_Systems/rnas/2O3Y

>  <Rbt.Executable>
rbdock ($Id: //depot/dev/client3/rdock/2013.1/src/exe/rbdock.cxx#4 $)

>  <Rbt.Library>
libRbt.so (2013.1, Build901 2013/11/27)

>  <Rbt.Parameter_File>
/export/apps/rDock/src/rDock_2013.1_src/data/scripts/dock_solv.prm

>  <Rbt.Receptor>
prm/pocket_docking_5.prm

>  <SCORE>
-5.98239

>  <SCORE.INTER>
3.67817

>  <SCORE.INTER.CONST>
1

>  <SCORE.INTER.POLAR>
0

>  <SCORE.INTER.ROT>
11

>  <SCORE.INTER.SOLV>
8.47666

>  <SCORE.INTER.VDW>
-11.3068

>  <SCORE.INTER.norm>
0.262726

>  <SCORE.INTRA>
-9.66056

>  <SCORE.INTRA.DIHEDRAL>
-21.4097

>  <SCORE.INTRA.DIHEDRAL.0>
24.1231

>  <SCORE.INTRA.POLAR>
0

>  <SCORE.INTRA.POLAR.0>
0

>  <SCORE.INTRA.REPUL>
0

>  <SCORE.INTRA.REPUL.0>
0

>  <SCORE.INTRA.SOLV>
0.752389

>  <SCORE.INTRA.SOLV.lig_0>
-48.2216

>  <SCORE.INTRA.VDW>
0.668077

>  <SCORE.INTRA.VDW.0>
-1.3967

>  <SCORE.INTRA.norm>
-0.69004

>  <SCORE.RESTR>
0

>  <SCORE.RESTR.CAVITY>
0

>  <SCORE.RESTR.norm>
0

>  <SCORE.SYSTEM>
0

>  <SCORE.SYSTEM.CONST>
0

>  <SCORE.SYSTEM.DIHEDRAL>
0

>  <SCORE.SYSTEM.SOLV>
0

>  <SCORE.SYSTEM.norm>
0

>  <SCORE.heavy>
14

>  <SCORE.norm>
-0.427314

>  <RMSD>
3.879

$$$$
ligand
 OpenBabel11021811463D
libRbt.so/2013.1/901 2013/11/27
 14 13  0  0  0  0  0  0  0  0999 V2000
   17.0077   14.9334    7.5544 N   0  0  0  0  0  0  0  0  0  0  0  0
   16.3190   14.3353    6.4029 C   0  0  0  0  0  0  0  0  0  0  0  0
   15.6821   13.0154    6.8255 C   0  0  0  0  0  0  0  0  0  0  0  0
   14.5194   13.3126    7.7582 C   0  0  0  0  0  0  0  0  0  0  0  0
   13.9549   12.0451    8.2354 N   0  0  0  0  0  0  0  0  0  0  0  0
   12.7651   12.3791    9.0376 C   0  0  0  0  0  0  0  0  0  0  0  0
   12.0372   11.1042    9.4789 C   0  0  0  0  0  0  0  0  0  0  0  0
   10.7354   11.5124   10.1847 C   0  0  0  0  0  0  0  0  0  0  0  0
    9.9186   10.3211   10.4681 C   0  0  0  0  0  0  0  0  0  0  0  0
   10.6397    9.5151   11.4741 N   0  0  0  0  0  0  0  0  0  0  0  0
    9.6732    9.0468   12.5679 C   0  0  0  0  0  0  0  0  0  0  0  0
    9.6415   10.0765   13.7038 C   0  0  0  0  0  0  0  0  0  0  0  0
    8.6593    9.6624   14.7242 C   0  0  0  0  0  0  0  0  0  0  0  0
    8.6081   10.6711   15.8043 N   0  0  0  0  0  0  0  0  0  0  0  0
  1  2  1  0  0  0  0
  2  3  1  0  0  0  0
  3  4  1  0  0  0  0
  4  5  1  0  0  0  0
  5  6  1  0  0  0  0
  6  7  1  0  0  0  0
  7  8  1  0  0  0  0
  8  9  1  0  0  0  0
  9 10  1  0  0  0  0
 10 11  1  0  0  0  0
 11 12  1  0  0  0  0
 12 13  1  0  0  0  0
 13 14  1  0  0  0  0
M  END
>  <CHROM.1>
69.85001488,-176.48652949,-175.19178556,175.09211401,-174.32406249,172.56211831
67.02333142,134.78830930,-90.78148213,177.05638821,-178.76081697,12.15421759
11.56638457,10.30124123,-0.48583775,0.74669852,1.18980297

>  <Name>
ligand

>  <RI>
0

>  <Rbt.Current_Directory>
/home/itssahil/PROJECTS/Mol_Feturizer/New_Systems/rnas/2O3Y

>  <Rbt.Executable>
rbdock ($Id: //depot/dev/client3/rdock/2013.1/src/exe/rbdock.cxx#4 $)

>  <Rbt.Library>
libRbt.so (2013.1, Build901 2013/11/27)

>  <Rbt.Parameter_File>
/export/apps/rDock/src/rDock_2013.1_src/data/scripts/dock_solv.prm

>  <Rbt.Receptor>
prm/pocket_docking_5.prm

>  <SCORE>
-9.95569

>  <SCORE.INTER>
0.0537109

>  <SCORE.INTER.CONST>
1

>  <SCORE.INTER.POLAR>
0

>  <SCORE.INTER.ROT>
11

>  <SCORE.INTER.SOLV>
5.75994

>  <SCORE.INTER.VDW>
-12.8175

>  <SCORE.INTER.norm>
0.0038365

>  <SCORE.INTRA>
-10.0094

>  <SCORE.INTRA.DIHEDRAL>
-21.4523

>  <SCORE.INTRA.DIHEDRAL.0>
24.1231

>  <SCORE.INTRA.POLAR>
0

>  <SCORE.INTRA.POLAR.0>
0

>  <SCORE.INTRA.REPUL>
0

>  <SCORE.INTRA.REPUL.0>
0

>  <SCORE.INTRA.SOLV>
0.267531

>  <SCORE.INTRA.SOLV.lig_0>
-48.2216

>  <SCORE.INTRA.VDW>
0.582955

>  <SCORE.INTRA.VDW.0>
-1.3967

>  <SCORE.INTRA.norm>
-0.714958

>  <SCORE.RESTR>
0

>  <SCORE.RESTR.CAVITY>
0

>  <SCORE.RESTR.norm>
0

>  <SCORE.SYSTEM>
0

>  <SCORE.SYSTEM.CONST>
0

>  <SCORE.SYSTEM.DIHEDRAL>
0

>  <SCORE.SYSTEM.SOLV>
0

>  <SCORE.SYSTEM.norm>
0

>  <SCORE.heavy>
14

>  <SCORE.norm>
-0.711121

>  <RMSD>
3.881

$$$$
ligand
 OpenBabel11021811463D
libRbt.so/2013.1/901 2013/11/27
 14 13  0  0  0  0  0  0  0  0999 V2000
   11.9115   12.2662   16.6209 N   0  0  0  0  0  0  0  0  0  0  0  0
   11.7931   11.1496   17.5682 C   0  0  0  0  0  0  0  0  0  0  0  0
   10.7998   10.1286   17.0230 C   0  0  0  0  0  0  0  0  0  0  0  0
   11.3995    9.4778   15.7873 C   0  0  0  0  0  0  0  0  0  0  0  0
   10.4473    8.4963   15.2555 N   0  0  0  0  0  0  0  0  0  0  0  0
   11.0798    7.8779   14.0773 C   0  0  0  0  0  0  0  0  0  0  0  0
   10.0752    7.7607   12.9254 C   0  0  0  0  0  0  0  0  0  0  0  0
    9.7213    9.1774   12.4489 C   0  0  0  0  0  0  0  0  0  0  0  0
   10.8461    9.7529   11.6938 C   0  0  0  0  0  0  0  0  0  0  0  0
   10.4750   11.1341   11.3245 N   0  0  0  0  0  0  0  0  0  0  0  0
   10.9562   11.4489    9.9035 C   0  0  0  0  0  0  0  0  0  0  0  0
   12.3282   12.1315    9.9630 C   0  0  0  0  0  0  0  0  0  0  0  0
   12.7012   12.6176    8.6206 C   0  0  0  0  0  0  0  0  0  0  0  0
   14.0445   13.2339    8.6697 N   0  0  0  0  0  0  0  0  0  0  0  0
  1  2  1  0  0  0  0
  2  3  1  0  0  0  0
  3  4  1  0  0  0  0
  4  5  1  0  0  0  0
  5  6  1  0  0  0  0
  6  7  1  0  0  0  0
  7  8  1  0  0  0  0
  8  9  1  0  0  0  0
  9 10  1  0  0  0  0
 10 11  1  0  0  0  0
 11 12  1  0  0  0  0
 12 13  1  0  0  0  0
 13 14  1  0  0  0  0
M  END
>  <CHROM.1>
67.88291532,-179.85907081,-179.04455509,-136.18992136,66.93546894,73.51667329
-177.11576648,-140.61450949,-94.26215878,-171.50938152,-178.05619314,11.32688972
10.47490900,12.99156255,-1.93705040,-1.04111713,-1.55259423

>  <Name>
ligand

>  <RI>
0

>  <Rbt.Current_Directory>
/home/itssahil/PROJECTS/Mol_Feturizer/New_Systems/rnas/2O3Y

>  <Rbt.Executable>
rbdock ($Id: //depot/dev/client3/rdock/2013.1/src/exe/rbdock.cxx#4 $)

>  <Rbt.Library>
libRbt.so (2013.1, Build901 2013/11/27)

>  <Rbt.Parameter_File>
/export/apps/rDock/src/rDock_2013.1_src/data/scripts/dock_solv.prm

>  <Rbt.Receptor>
prm/pocket_docking_4.prm

>  <SCORE>
-7.1291

>  <SCORE.INTER>
1.49413

>  <SCORE.INTER.CONST>
1

>  <SCORE.INTER.POLAR>
0

>  <SCORE.INTER.ROT>
11

>  <SCORE.INTER.SOLV>
4.80164

>  <SCORE.INTER.VDW>
-11.5378

>  <SCORE.INTER.norm>
0.106723

>  <SCORE.INTRA>
-8.62323

>  <SCORE.INTRA.DIHEDRAL>
-20.0487

>  <SCORE.INTRA.DIHEDRAL.0>
24.1231

>  <SCORE.INTRA.POLAR>
0

>  <SCORE.INTRA.POLAR.0>
0

>  <SCORE.INTRA.REPUL>
0

>  <SCORE.INTRA.REPUL.0>
0

>  <SCORE.INTRA.SOLV>
0.598596

>  <SCORE.INTRA.SOLV.lig_0>
-48.2216

>  <SCORE.INTRA.VDW>
1.10182

>  <SCORE.INTRA.VDW.0>
-1.3967

>  <SCORE.INTRA.norm>
-0.615945

>  <SCORE.RESTR>
0

>  <SCORE.RESTR.CAVITY>
0

>  <SCORE.RESTR.norm>
0

>  <SCORE.SYSTEM>
0

>  <SCORE.SYSTEM.CONST>
0

>  <SCORE.SYSTEM.DIHEDRAL>
0

>  <SCORE.SYSTEM.SOLV>
0

>  <SCORE.SYSTEM.norm>
0

>  <SCORE.heavy>
14

>  <SCORE.norm>
-0.509221

>  <RMSD>
3.930

$$$$
ligand
 OpenBabel11021811463D
libRbt.so/2013.1/901 2013/11/27
 14 13  0  0  0  0  0  0  0  0999 V2000
   17.3316   15.0126    8.4119 N   0  0  0  0  0  0  0  0  0  0  0  0
   16.1997   15.2451    9.3190 C   0  0  0  0  0  0  0  0  0  0  0  0
   15.5339   13.9127    9.6470 C   0  0  0  0  0  0  0  0  0  0  0  0
   14.8614   13.3823    8.3914 C   0  0  0  0  0  0  0  0  0  0  0  0
   14.1990   12.1114    8.7057 N   0  0  0  0  0  0  0  0  0  0  0  0
   12.8666   12.4415    9.2410 C   0  0  0  0  0  0  0  0  0  0  0  0
   12.1288   11.1691    9.6729 C   0  0  0  0  0  0  0  0  0  0  0  0
   10.7844   11.5786   10.2928 C   0  0  0  0  0  0  0  0  0  0  0  0
   10.0011   10.3813   10.6385 C   0  0  0  0  0  0  0  0  0  0  0  0
   10.6618    9.7335   11.7898 N   0  0  0  0  0  0  0  0  0  0  0  0
    9.7127    8.7232   12.4443 C   0  0  0  0  0  0  0  0  0  0  0  0
   10.4865    7.8690   13.4559 C   0  0  0  0  0  0  0  0  0  0  0  0
   11.0196    8.7294   14.5297 C   0  0  0  0  0  0  0  0  0  0  0  0
   11.7893    7.9089   15.4893 N   0  0  0  0  0  0  0  0  0  0  0  0
  1  2  1  0  0  0  0
  2  3  1  0  0  0  0
  3  4  1  0  0  0  0
  4  5  1  0  0  0  0
  5  6  1  0  0  0  0
  6  7  1  0  0  0  0
  7  8  1  0  0  0  0
  8  9  1  0  0  0  0
  9 10  1  0  0  0  0
 10 11  1  0  0  0  0
 11 12  1  0  0  0  0
 12 13  1  0  0  0  0
 13 14  1  0  0  0  0
M  END
>  <CHROM.1>
-68.31094496,-179.03887082,85.36415598,-176.79916111,176.87016221,176.13852207
70.58122722,164.36811123,169.15918842,62.38950910,-178.82234123,12.68370820
11.29994278,10.85914347,-0.87553513,0.44409185,2.10272171

>  <Name>
ligand

>  <RI>
0

>  <Rbt.Current_Directory>
/home/itssahil/PROJECTS/Mol_Feturizer/New_Systems/rnas/2O3Y

>  <Rbt.Executable>
rbdock ($Id: //depot/dev/client3/rdock/2013.1/src/exe/rbdock.cxx#4 $)

>  <Rbt.Library>
libRbt.so (2013.1, Build901 2013/11/27)

>  <Rbt.Parameter_File>
/export/apps/rDock/src/rDock_2013.1_src/data/scripts/dock_solv.prm

>  <Rbt.Receptor>
prm/pocket_docking_4.prm

>  <SCORE>
-7.77401

>  <SCORE.INTER>
2.00138

>  <SCORE.INTER.CONST>
1

>  <SCORE.INTER.POLAR>
0

>  <SCORE.INTER.ROT>
11

>  <SCORE.INTER.SOLV>
3.97989

>  <SCORE.INTER.VDW>
-10.9257

>  <SCORE.INTER.norm>
0.142956

>  <SCORE.INTRA>
-9.77539

>  <SCORE.INTRA.DIHEDRAL>
-22.5751

>  <SCORE.INTRA.DIHEDRAL.0>
24.1231

>  <SCORE.INTRA.POLAR>
0

>  <SCORE.INTRA.POLAR.0>
0

>  <SCORE.INTRA.REPUL>
0

>  <SCORE.INTRA.REPUL.0>
0

>  <SCORE.INTRA.SOLV>
0.704726

>  <SCORE.INTRA.SOLV.lig_0>
-48.2216

>  <SCORE.INTRA.VDW>
1.1598

>  <SCORE.INTRA.VDW.0>
-1.3967

>  <SCORE.INTRA.norm>
-0.698242

>  <SCORE.RESTR>
0

>  <SCORE.RESTR.CAVITY>
0

>  <SCORE.RESTR.norm>
0

>  <SCORE.SYSTEM>
0

>  <SCORE.SYSTEM.CONST>
0

>  <SCORE.SYSTEM.DIHEDRAL>
0

>  <SCORE.SYSTEM.SOLV>
0

>  <SCORE.SYSTEM.norm>
0

>  <SCORE.heavy>
14

>  <SCORE.norm>
-0.555286

>  <RMSD>
3.931

$$$$
ligand
 OpenBabel11021811463D
libRbt.so/2013.1/901 2013/11/27
 14 13  0  0  0  0  0  0  0  0999 V2000
   17.1852   16.5575    9.9000 N   0  0  0  0  0  0  0  0  0  0  0  0
   16.9867   15.2226   10.4805 C   0  0  0  0  0  0  0  0  0  0  0  0
   17.2491   14.1644    9.4140 C   0  0  0  0  0  0  0  0  0  0  0  0
   16.1360   14.2277    8.3810 C   0  0  0  0  0  0  0  0  0  0  0  0
   14.8738   13.8305    9.0151 N   0  0  0  0  0  0  0  0  0  0  0  0
   13.9323   13.5020    7.9306 C   0  0  0  0  0  0  0  0  0  0  0  0
   12.7799   12.6406    8.4597 C   0  0  0  0  0  0  0  0  0  0  0  0
   13.3728   11.3514    9.0480 C   0  0  0  0  0  0  0  0  0  0  0  0
   12.2941   10.4679    9.5198 C   0  0  0  0  0  0  0  0  0  0  0  0
   11.5585   11.1887   10.5786 N   0  0  0  0  0  0  0  0  0  0  0  0
   10.1567   10.5922   10.7484 C   0  0  0  0  0  0  0  0  0  0  0  0
   10.2014    9.4537   11.7747 C   0  0  0  0  0  0  0  0  0  0  0  0
   10.5040   10.0000   13.1117 C   0  0  0  0  0  0  0  0  0  0  0  0
   10.5121    8.9060   14.1065 N   0  0  0  0  0  0  0  0  0  0  0  0
  1  2  1  0  0  0  0
  2  3  1  0  0  0  0
  3  4  1  0  0  0  0
  4  5  1  0  0  0  0
  5  6  1  0  0  0  0
  6  7  1  0  0  0  0
  7  8  1  0  0  0  0
  8  9  1  0  0  0  0
  9 10  1  0  0  0  0
 10 11  1  0  0  0  0
 11 12  1  0  0  0  0
 12 13  1  0  0  0  0
 13 14  1  0  0  0  0
M  END
>  <CHROM.1>
-69.47487953,-65.85443878,-162.81622435,160.74446223,-59.45782337,-177.71192453
-61.22911286,158.94186512,89.15731244,67.10733017,178.53841839,13.41013061
12.29310547,10.17603001,-0.42755920,0.67609387,1.69226508

>  <Name>
ligand

>  <RI>
0

>  <Rbt.Current_Directory>
/home/itssahil/PROJECTS/Mol_Feturizer/New_Systems/rnas/2O3Y

>  <Rbt.Executable>
rbdock ($Id: //depot/dev/client3/rdock/2013.1/src/exe/rbdock.cxx#4 $)

>  <Rbt.Library>
libRbt.so (2013.1, Build901 2013/11/27)

>  <Rbt.Parameter_File>
/export/apps/rDock/src/rDock_2013.1_src/data/scripts/dock_solv.prm

>  <Rbt.Receptor>
prm/pocket_docking_4.prm

>  <SCORE>
-5.64511

>  <SCORE.INTER>
3.13959

>  <SCORE.INTER.CONST>
1

>  <SCORE.INTER.POLAR>
0

>  <SCORE.INTER.ROT>
11

>  <SCORE.INTER.SOLV>
3.34671

>  <SCORE.INTER.VDW>
-9.95584

>  <SCORE.INTER.norm>
0.224256

>  <SCORE.INTRA>
-8.81417

>  <SCORE.INTRA.DIHEDRAL>
-22.0263

>  <SCORE.INTRA.DIHEDRAL.0>
24.1231

>  <SCORE.INTRA.POLAR>
0

>  <SCORE.INTRA.POLAR.0>
0

>  <SCORE.INTRA.REPUL>
0

>  <SCORE.INTRA.REPUL.0>
0

>  <SCORE.INTRA.SOLV>
2.06323

>  <SCORE.INTRA.SOLV.lig_0>
-48.2216

>  <SCORE.INTRA.VDW>
1.16736

>  <SCORE.INTRA.VDW.0>
-1.3967

>  <SCORE.INTRA.norm>
-0.629584

>  <SCORE.RESTR>
0.0294729

>  <SCORE.RESTR.CAVITY>
0.0294729

>  <SCORE.RESTR.norm>
0.00210521

>  <SCORE.SYSTEM>
0

>  <SCORE.SYSTEM.CONST>
0

>  <SCORE.SYSTEM.DIHEDRAL>
0

>  <SCORE.SYSTEM.SOLV>
0

>  <SCORE.SYSTEM.norm>
0

>  <SCORE.heavy>
14

>  <SCORE.norm>
-0.403222

>  <RMSD>
3.939

$$$$
ligand
 OpenBabel11021811463D
libRbt.so/2013.1/901 2013/11/27
 14 13  0  0  0  0  0  0  0  0999 V2000
    9.8921   10.4658   13.5128 N   0  0  0  0  0  0  0  0  0  0  0  0
   10.7598   10.9081   12.4130 C   0  0  0  0  0  0  0  0  0  0  0  0
   10.5063   10.0356   11.1880 C   0  0  0  0  0  0  0  0  0  0  0  0
   11.5002   10.4183   10.1036 C   0  0  0  0  0  0  0  0  0  0  0  0
   11.1976   11.7761    9.6370 N   0  0  0  0  0  0  0  0  0  0  0  0
   12.4876   12.4552    9.4236 C   0  0  0  0  0  0  0  0  0  0  0  0
   12.5745   13.0115    7.9978 C   0  0  0  0  0  0  0  0  0  0  0  0
   13.8757   13.8185    7.8741 C   0  0  0  0  0  0  0  0  0  0  0  0
   15.0316   12.9089    7.8170 C   0  0  0  0  0  0  0  0  0  0  0  0
   15.3692   12.5296    9.2040 N   0  0  0  0  0  0  0  0  0  0  0  0
   16.7405   11.8456    9.2461 C   0  0  0  0  0  0  0  0  0  0  0  0
   17.2195   11.7395   10.6990 C   0  0  0  0  0  0  0  0  0  0  0  0
   16.3389   10.8225   11.4481 C   0  0  0  0  0  0  0  0  0  0  0  0
   16.7912   10.7347   12.8532 N   0  0  0  0  0  0  0  0  0  0  0  0
  1  2  1  0  0  0  0
  2  3  1  0  0  0  0
  3  4  1  0  0  0  0
  4  5  1  0  0  0  0
  5  6  1  0  0  0  0
  6  7  1  0  0  0  0
  7  8  1  0  0  0  0
  8  9  1  0  0  0  0
  9 10  1  0  0  0  0
 10 11  1  0  0  0  0
 11 12  1  0  0  0  0
 12 13  1  0  0  0  0
 13 14  1  0  0  0  0
M  END
>  <CHROM.1>
-174.73255392,-67.43435468,140.41122960,125.29034052,174.74347574,73.62255587
-82.25443981,-167.30326383,167.45384010,66.31249481,-179.26729021,13.59188118
11.67654970,10.24365455,-2.75015181,-0.04556458,-1.06341256

>  <Name>
ligand

>  <RI>
0

>  <Rbt.Current_Directory>
/home/itssahil/PROJECTS/Mol_Feturizer/New_Systems/rnas/2O3Y

>  <Rbt.Executable>
rbdock ($Id: //depot/dev/client3/rdock/2013.1/src/exe/rbdock.cxx#4 $)

>  <Rbt.Library>
libRbt.so (2013.1, Build901 2013/11/27)

>  <Rbt.Parameter_File>
/export/apps/rDock/src/rDock_2013.1_src/data/scripts/dock_solv.prm

>  <Rbt.Receptor>
prm/pocket_docking_5.prm

>  <SCORE>
-4.05497

>  <SCORE.INTER>
3.77118

>  <SCORE.INTER.CONST>
1

>  <SCORE.INTER.POLAR>
0

>  <SCORE.INTER.ROT>
11

>  <SCORE.INTER.SOLV>
4.59218

>  <SCORE.INTER.VDW>
-9.94994

>  <SCORE.INTER.norm>
0.26937

>  <SCORE.INTRA>
-7.82615

>  <SCORE.INTRA.DIHEDRAL>
-18.8214

>  <SCORE.INTRA.DIHEDRAL.0>
24.1231

>  <SCORE.INTRA.POLAR>
0

>  <SCORE.INTRA.POLAR.0>
0

>  <SCORE.INTRA.REPUL>
0

>  <SCORE.INTRA.REPUL.0>
0

>  <SCORE.INTRA.SOLV>
0.988947

>  <SCORE.INTRA.SOLV.lig_0>
-48.2216

>  <SCORE.INTRA.VDW>
1.0901

>  <SCORE.INTRA.VDW.0>
-1.3967

>  <SCORE.INTRA.norm>
-0.559011

>  <SCORE.RESTR>
0

>  <SCORE.RESTR.CAVITY>
0

>  <SCORE.RESTR.norm>
0

>  <SCORE.SYSTEM>
0

>  <SCORE.SYSTEM.CONST>
0

>  <SCORE.SYSTEM.DIHEDRAL>
0

>  <SCORE.SYSTEM.SOLV>
0

>  <SCORE.SYSTEM.norm>
0

>  <SCORE.heavy>
14

>  <SCORE.norm>
-0.289641

>  <RMSD>
3.943

$$$$
ligand
 OpenBabel11021811463D
libRbt.so/2013.1/901 2013/11/27
 14 13  0  0  0  0  0  0  0  0999 V2000
   10.4320    8.5145   15.2398 N   0  0  0  0  0  0  0  0  0  0  0  0
   10.5632    7.4135   14.2761 C   0  0  0  0  0  0  0  0  0  0  0  0
   10.3982    7.9588   12.8613 C   0  0  0  0  0  0  0  0  0  0  0  0
   11.5660    8.8825   12.5562 C   0  0  0  0  0  0  0  0  0  0  0  0
   11.4585    9.3445   11.1678 N   0  0  0  0  0  0  0  0  0  0  0  0
   10.6661   10.5864   11.1878 C   0  0  0  0  0  0  0  0  0  0  0  0
   10.8651   11.3739    9.8877 C   0  0  0  0  0  0  0  0  0  0  0  0
   12.3058   11.9062    9.8626 C   0  0  0  0  0  0  0  0  0  0  0  0
   12.5475   12.6530    8.6174 C   0  0  0  0  0  0  0  0  0  0  0  0
   13.8714   13.2975    8.7340 N   0  0  0  0  0  0  0  0  0  0  0  0
   13.7218   14.7136    9.3016 C   0  0  0  0  0  0  0  0  0  0  0  0
   15.0797   15.2107    9.8122 C   0  0  0  0  0  0  0  0  0  0  0  0
   15.4977   14.4082   10.9778 C   0  0  0  0  0  0  0  0  0  0  0  0
   16.7811   14.9226   11.5021 N   0  0  0  0  0  0  0  0  0  0  0  0
  1  2  1  0  0  0  0
  2  3  1  0  0  0  0
  3  4  1  0  0  0  0
  4  5  1  0  0  0  0
  5  6  1  0  0  0  0
  6  7  1  0  0  0  0
  7  8  1  0  0  0  0
  8  9  1  0  0  0  0
  9 10  1  0  0  0  0
 10 11  1  0  0  0  0
 11 12  1  0  0  0  0
 12 13  1  0  0  0  0
 13 14  1  0  0  0  0
M  END
>  <CHROM.1>
66.17035971,176.48846479,90.08813774,162.12645385,-68.70117407,179.10886677
172.11611460,-92.26325641,163.01248111,-66.67186528,-177.77045849,12.55362689
11.51328000,11.14151305,-2.31247006,-0.70243415,-1.05032979

>  <Name>
ligand

>  <RI>
0

>  <Rbt.Current_Directory>
/home/itssahil/PROJECTS/Mol_Feturizer/New_Systems/rnas/2O3Y

>  <Rbt.Executable>
rbdock ($Id: //depot/dev/client3/rdock/2013.1/src/exe/rbdock.cxx#4 $)

>  <Rbt.Library>
libRbt.so (2013.1, Build901 2013/11/27)

>  <Rbt.Parameter_File>
/export/apps/rDock/src/rDock_2013.1_src/data/scripts/dock_solv.prm

>  <Rbt.Receptor>
prm/pocket_docking_4.prm

>  <SCORE>
-7.60266

>  <SCORE.INTER>
1.69995

>  <SCORE.INTER.CONST>
1

>  <SCORE.INTER.POLAR>
0

>  <SCORE.INTER.ROT>
11

>  <SCORE.INTER.SOLV>
5.23729

>  <SCORE.INTER.VDW>
-11.5458

>  <SCORE.INTER.norm>
0.121425

>  <SCORE.INTRA>
-9.32232

>  <SCORE.INTRA.DIHEDRAL>
-21.4917

>  <SCORE.INTRA.DIHEDRAL.0>
24.1231

>  <SCORE.INTRA.POLAR>
0

>  <SCORE.INTRA.POLAR.0>
0

>  <SCORE.INTRA.REPUL>
0

>  <SCORE.INTRA.REPUL.0>
0

>  <SCORE.INTRA.SOLV>
0.772098

>  <SCORE.INTRA.SOLV.lig_0>
-48.2216

>  <SCORE.INTRA.VDW>
1.03747

>  <SCORE.INTRA.VDW.0>
-1.3967

>  <SCORE.INTRA.norm>
-0.66588

>  <SCORE.RESTR>
0.0197117

>  <SCORE.RESTR.CAVITY>
0.0197117

>  <SCORE.RESTR.norm>
0.00140798

>  <SCORE.SYSTEM>
0

>  <SCORE.SYSTEM.CONST>
0

>  <SCORE.SYSTEM.DIHEDRAL>
0

>  <SCORE.SYSTEM.SOLV>
0

>  <SCORE.SYSTEM.norm>
0

>  <SCORE.heavy>
14

>  <SCORE.norm>
-0.543047

>  <RMSD>
3.946

$$$$
ligand
 OpenBabel11021811463D
libRbt.so/2013.1/901 2013/11/27
 14 13  0  0  0  0  0  0  0  0999 V2000
    6.6833   10.9371   15.9793 N   0  0  0  0  0  0  0  0  0  0  0  0
    7.4827   10.1305   15.0474 C   0  0  0  0  0  0  0  0  0  0  0  0
    8.9451   10.1616   15.4794 C   0  0  0  0  0  0  0  0  0  0  0  0
    9.7457    9.2614   14.5526 C   0  0  0  0  0  0  0  0  0  0  0  0
    9.8420    9.8989   13.2345 N   0  0  0  0  0  0  0  0  0  0  0  0
   10.2961    8.8646   12.2886 C   0  0  0  0  0  0  0  0  0  0  0  0
   11.5134    9.3555   11.4966 C   0  0  0  0  0  0  0  0  0  0  0  0
   11.0656   10.5156   10.5949 C   0  0  0  0  0  0  0  0  0  0  0  0
   12.1993   10.9962    9.7884 C   0  0  0  0  0  0  0  0  0  0  0  0
   11.7463   12.1934    9.0514 N   0  0  0  0  0  0  0  0  0  0  0  0
   12.8816   12.7364    8.1761 C   0  0  0  0  0  0  0  0  0  0  0  0
   12.9601   14.2611    8.3204 C   0  0  0  0  0  0  0  0  0  0  0  0
   13.3301   14.6119    9.7051 C   0  0  0  0  0  0  0  0  0  0  0  0
   13.3383   16.0824    9.8610 N   0  0  0  0  0  0  0  0  0  0  0  0
  1  2  1  0  0  0  0
  2  3  1  0  0  0  0
  3  4  1  0  0  0  0
  4  5  1  0  0  0  0
  5  6  1  0  0  0  0
  6  7  1  0  0  0  0
  7  8  1  0  0  0  0
  8  9  1  0  0  0  0
  9 10  1  0  0  0  0
 10 11  1  0  0  0  0
 11 12  1  0  0  0  0
 12 13  1  0  0  0  0
 13 14  1  0  0  0  0
M  END
>  <CHROM.1>
176.87820992,71.33451828,-165.24848426,-128.11958249,-66.57127806,-178.54644060
-174.22622759,-179.37624171,-135.19898239,64.65933934,-177.13947381,10.85945884
11.42868169,11.68384836,2.74539277,-0.94681682,-3.02517859

>  <Name>
ligand

>  <RI>
0

>  <Rbt.Current_Directory>
/home/itssahil/PROJECTS/Mol_Feturizer/New_Systems/rnas/2O3Y

>  <Rbt.Executable>
rbdock ($Id: //depot/dev/client3/rdock/2013.1/src/exe/rbdock.cxx#4 $)

>  <Rbt.Library>
libRbt.so (2013.1, Build901 2013/11/27)

>  <Rbt.Parameter_File>
/export/apps/rDock/src/rDock_2013.1_src/data/scripts/dock_solv.prm

>  <Rbt.Receptor>
prm/pocket_docking_7.prm

>  <SCORE>
-9.12025

>  <SCORE.INTER>
0.838957

>  <SCORE.INTER.CONST>
1

>  <SCORE.INTER.POLAR>
0

>  <SCORE.INTER.ROT>
11

>  <SCORE.INTER.SOLV>
9.85737

>  <SCORE.INTER.VDW>
-13.6598

>  <SCORE.INTER.norm>
0.0599255

>  <SCORE.INTRA>
-9.9592

>  <SCORE.INTRA.DIHEDRAL>
-20.869

>  <SCORE.INTRA.DIHEDRAL.0>
24.1231

>  <SCORE.INTRA.POLAR>
0

>  <SCORE.INTRA.POLAR.0>
0

>  <SCORE.INTRA.REPUL>
0

>  <SCORE.INTRA.REPUL.0>
0

>  <SCORE.INTRA.SOLV>
0.27992

>  <SCORE.INTRA.SOLV.lig_0>
-48.2216

>  <SCORE.INTRA.VDW>
0.335322

>  <SCORE.INTRA.VDW.0>
-1.3967

>  <SCORE.INTRA.norm>
-0.711372

>  <SCORE.RESTR>
0

>  <SCORE.RESTR.CAVITY>
0

>  <SCORE.RESTR.norm>
0

>  <SCORE.SYSTEM>
0

>  <SCORE.SYSTEM.CONST>
0

>  <SCORE.SYSTEM.DIHEDRAL>
0

>  <SCORE.SYSTEM.SOLV>
0

>  <SCORE.SYSTEM.norm>
0

>  <SCORE.heavy>
14

>  <SCORE.norm>
-0.651446

>  <RMSD>
3.953

$$$$
ligand
 OpenBabel11021811463D
libRbt.so/2013.1/901 2013/11/27
 14 13  0  0  0  0  0  0  0  0999 V2000
   18.2611    8.0508    6.7394 N   0  0  0  0  0  0  0  0  0  0  0  0
   17.4623    8.0252    7.9721 C   0  0  0  0  0  0  0  0  0  0  0  0
   16.0555    8.5325    7.6725 C   0  0  0  0  0  0  0  0  0  0  0  0
   15.2709    8.5884    8.9730 C   0  0  0  0  0  0  0  0  0  0  0  0
   13.9095    9.0561    8.6889 N   0  0  0  0  0  0  0  0  0  0  0  0
   13.2880    9.3833    9.9841 C   0  0  0  0  0  0  0  0  0  0  0  0
   12.0379   10.2466    9.7793 C   0  0  0  0  0  0  0  0  0  0  0  0
   11.5273   10.6898   11.1585 C   0  0  0  0  0  0  0  0  0  0  0  0
   10.3828   11.6026   11.0049 C   0  0  0  0  0  0  0  0  0  0  0  0
   10.0540   12.1345   12.3430 N   0  0  0  0  0  0  0  0  0  0  0  0
    9.1908   13.3947   12.2136 C   0  0  0  0  0  0  0  0  0  0  0  0
    8.8397   13.9249   13.6090 C   0  0  0  0  0  0  0  0  0  0  0  0
    8.0252   15.1493   13.4862 C   0  0  0  0  0  0  0  0  0  0  0  0
    6.6632   14.7976   13.0302 N   0  0  0  0  0  0  0  0  0  0  0  0
  1  2  1  0  0  0  0
  2  3  1  0  0  0  0
  3  4  1  0  0  0  0
  4  5  1  0  0  0  0
  5  6  1  0  0  0  0
  6  7  1  0  0  0  0
  7  8  1  0  0  0  0
  8  9  1  0  0  0  0
  9 10  1  0  0  0  0
 10 11  1  0  0  0  0
 11 12  1  0  0  0  0
 12 13  1  0  0  0  0
 13 14  1  0  0  0  0
M  END
>  <CHROM.1>
-176.24078478,-179.13005153,-167.54179638,163.69552084,-173.58361639,175.91846720
-172.50503114,162.26204923,179.18245728,179.17733827,72.56256174,12.21201577
10.96972220,10.47543364,-0.70603221,0.27653561,0.41940196

>  <Name>
ligand

>  <RI>
0

>  <Rbt.Current_Directory>
/home/itssahil/PROJECTS/Mol_Feturizer/New_Systems/rnas/2O3Y

>  <Rbt.Executable>
rbdock ($Id: //depot/dev/client3/rdock/2013.1/src/exe/rbdock.cxx#4 $)

>  <Rbt.Library>
libRbt.so (2013.1, Build901 2013/11/27)

>  <Rbt.Parameter_File>
/export/apps/rDock/src/rDock_2013.1_src/data/scripts/dock_solv.prm

>  <Rbt.Receptor>
prm/pocket_docking_6.prm

>  <SCORE>
-5.94211

>  <SCORE.INTER>
5.26663

>  <SCORE.INTER.CONST>
1

>  <SCORE.INTER.POLAR>
0

>  <SCORE.INTER.ROT>
11

>  <SCORE.INTER.SOLV>
8.73542

>  <SCORE.INTER.VDW>
-10.334

>  <SCORE.INTER.norm>
0.376188

>  <SCORE.INTRA>
-11.2087

>  <SCORE.INTRA.DIHEDRAL>
-22.4847

>  <SCORE.INTRA.DIHEDRAL.0>
24.1231

>  <SCORE.INTRA.POLAR>
0

>  <SCORE.INTRA.POLAR.0>
0

>  <SCORE.INTRA.REPUL>
0

>  <SCORE.INTRA.REPUL.0>
0

>  <SCORE.INTRA.SOLV>
-0.320436

>  <SCORE.INTRA.SOLV.lig_0>
-48.2216

>  <SCORE.INTRA.VDW>
0.193817

>  <SCORE.INTRA.VDW.0>
-1.3967

>  <SCORE.INTRA.norm>
-0.800624

>  <SCORE.RESTR>
0

>  <SCORE.RESTR.CAVITY>
0

>  <SCORE.RESTR.norm>
0

>  <SCORE.SYSTEM>
0

>  <SCORE.SYSTEM.CONST>
0

>  <SCORE.SYSTEM.DIHEDRAL>
0

>  <SCORE.SYSTEM.SOLV>
0

>  <SCORE.SYSTEM.norm>
0

>  <SCORE.heavy>
14

>  <SCORE.norm>
-0.424436

>  <RMSD>
3.971

$$$$
ligand
 OpenBabel11021811463D
libRbt.so/2013.1/901 2013/11/27
 14 13  0  0  0  0  0  0  0  0999 V2000
   16.1634   13.1279    7.1270 N   0  0  0  0  0  0  0  0  0  0  0  0
   14.8466   12.5713    7.4651 C   0  0  0  0  0  0  0  0  0  0  0  0
   13.8894   13.7095    7.8034 C   0  0  0  0  0  0  0  0  0  0  0  0
   12.5324   13.1181    8.1482 C   0  0  0  0  0  0  0  0  0  0  0  0
   12.6393   12.3860    9.4153 N   0  0  0  0  0  0  0  0  0  0  0  0
   11.3327   11.7489    9.6556 C   0  0  0  0  0  0  0  0  0  0  0  0
   11.3964   10.8353   10.8849 C   0  0  0  0  0  0  0  0  0  0  0  0
   10.0607   10.0850   10.9973 C   0  0  0  0  0  0  0  0  0  0  0  0
   10.0585    9.2331   12.1977 C   0  0  0  0  0  0  0  0  0  0  0  0
   10.0281   10.1233   13.3760 N   0  0  0  0  0  0  0  0  0  0  0  0
    9.7014    9.3179   14.6387 C   0  0  0  0  0  0  0  0  0  0  0  0
    9.0756   10.2407   15.6915 C   0  0  0  0  0  0  0  0  0  0  0  0
    8.7307    9.4607   16.8957 C   0  0  0  0  0  0  0  0  0  0  0  0
    8.1788   10.3609   17.9309 N   0  0  0  0  0  0  0  0  0  0  0  0
  1  2  1  0  0  0  0
  2  3  1  0  0  0  0
  3  4  1  0  0  0  0
  4  5  1  0  0  0  0
  5  6  1  0  0  0  0
  6  7  1  0  0  0  0
  7  8  1  0  0  0  0
  8  9  1  0  0  0  0
  9 10  1  0  0  0  0
 10 11  1  0  0  0  0
 11 12  1  0  0  0  0
 12 13  1  0  0  0  0
 13 14  1  0  0  0  0
M  END
>  <CHROM.1>
179.90303000,68.34774475,-175.83506651,173.87090546,-173.95435397,-177.78876431
68.93542861,167.03509095,-155.24599304,178.65198495,177.68669361,11.33083253
11.16548891,11.58749383,-0.79663608,0.74230178,1.35311150

>  <Name>
ligand

>  <RI>
0

>  <Rbt.Current_Directory>
/home/itssahil/PROJECTS/Mol_Feturizer/New_Systems/rnas/2O3Y

>  <Rbt.Executable>
rbdock ($Id: //depot/dev/client3/rdock/2013.1/src/exe/rbdock.cxx#4 $)

>  <Rbt.Library>
libRbt.so (2013.1, Build901 2013/11/27)

>  <Rbt.Parameter_File>
/export/apps/rDock/src/rDock_2013.1_src/data/scripts/dock_solv.prm

>  <Rbt.Receptor>
prm/pocket_docking_6.prm

>  <SCORE>
-9.51636

>  <SCORE.INTER>
1.53701

>  <SCORE.INTER.CONST>
1

>  <SCORE.INTER.POLAR>
0

>  <SCORE.INTER.ROT>
11

>  <SCORE.INTER.SOLV>
3.84722

>  <SCORE.INTER.VDW>
-11.1911

>  <SCORE.INTER.norm>
0.109787

>  <SCORE.INTRA>
-11.0534

>  <SCORE.INTRA.DIHEDRAL>
-22.7672

>  <SCORE.INTRA.DIHEDRAL.0>
24.1231

>  <SCORE.INTRA.POLAR>
0

>  <SCORE.INTRA.POLAR.0>
0

>  <SCORE.INTRA.REPUL>
0

>  <SCORE.INTRA.REPUL.0>
0

>  <SCORE.INTRA.SOLV>
-0.0919855

>  <SCORE.INTRA.SOLV.lig_0>
-48.2216

>  <SCORE.INTRA.VDW>
0.376209

>  <SCORE.INTRA.VDW.0>
-1.3967

>  <SCORE.INTRA.norm>
-0.789526

>  <SCORE.RESTR>
0

>  <SCORE.RESTR.CAVITY>
0

>  <SCORE.RESTR.norm>
0

>  <SCORE.SYSTEM>
0

>  <SCORE.SYSTEM.CONST>
0

>  <SCORE.SYSTEM.DIHEDRAL>
0

>  <SCORE.SYSTEM.SOLV>
0

>  <SCORE.SYSTEM.norm>
0

>  <SCORE.heavy>
14

>  <SCORE.norm>
-0.67974

>  <RMSD>
3.973

$$$$
ligand
 OpenBabel11021811463D
libRbt.so/2013.1/901 2013/11/27
 14 13  0  0  0  0  0  0  0  0999 V2000
    9.0396    9.3368   13.5574 N   0  0  0  0  0  0  0  0  0  0  0  0
    9.8057    8.4272   12.6949 C   0  0  0  0  0  0  0  0  0  0  0  0
   11.0014    9.1727   12.1112 C   0  0  0  0  0  0  0  0  0  0  0  0
   10.4933   10.2113   11.1247 C   0  0  0  0  0  0  0  0  0  0  0  0
   11.6153   11.0574   10.7027 N   0  0  0  0  0  0  0  0  0  0  0  0
   12.1964   10.4335    9.5012 C   0  0  0  0  0  0  0  0  0  0  0  0
   13.3701   11.2675    8.9748 C   0  0  0  0  0  0  0  0  0  0  0  0
   12.8150   12.5955    8.4382 C   0  0  0  0  0  0  0  0  0  0  0  0
   13.9168   13.4518    7.9699 C   0  0  0  0  0  0  0  0  0  0  0  0
   14.7113   13.8425    9.1522 N   0  0  0  0  0  0  0  0  0  0  0  0
   16.0347   14.4794    8.7130 C   0  0  0  0  0  0  0  0  0  0  0  0
   17.1997   13.5508    9.0766 C   0  0  0  0  0  0  0  0  0  0  0  0
   18.4757   14.1690    8.6677 C   0  0  0  0  0  0  0  0  0  0  0  0
   19.5988   13.2765    9.0264 N   0  0  0  0  0  0  0  0  0  0  0  0
  1  2  1  0  0  0  0
  2  3  1  0  0  0  0
  3  4  1  0  0  0  0
  4  5  1  0  0  0  0
  5  6  1  0  0  0  0
  6  7  1  0  0  0  0
  7  8  1  0  0  0  0
  8  9  1  0  0  0  0
  9 10  1  0  0  0  0
 10 11  1  0  0  0  0
 11 12  1  0  0  0  0
 12 13  1  0  0  0  0
 13 14  1  0  0  0  0
M  END
>  <CHROM.1>
-68.86428185,172.07215601,90.83668568,179.13070221,-67.93109301,177.77773808
-67.05514625,167.89847501,-111.38017061,-179.38689901,179.65088542,13.59092202
11.80510332,9.97908574,-2.50694399,-0.17456781,-0.88989555

>  <Name>
ligand

>  <RI>
0

>  <Rbt.Current_Directory>
/home/itssahil/PROJECTS/Mol_Feturizer/New_Systems/rnas/2O3Y

>  <Rbt.Executable>
rbdock ($Id: //depot/dev/client3/rdock/2013.1/src/exe/rbdock.cxx#4 $)

>  <Rbt.Library>
libRbt.so (2013.1, Build901 2013/11/27)

>  <Rbt.Parameter_File>
/export/apps/rDock/src/rDock_2013.1_src/data/scripts/dock_solv.prm

>  <Rbt.Receptor>
prm/pocket_docking_4.prm

>  <SCORE>
-6.31195

>  <SCORE.INTER>
2.99471

>  <SCORE.INTER.CONST>
1

>  <SCORE.INTER.POLAR>
0

>  <SCORE.INTER.ROT>
11

>  <SCORE.INTER.SOLV>
6.17872

>  <SCORE.INTER.VDW>
-10.9964

>  <SCORE.INTER.norm>
0.213908

>  <SCORE.INTRA>
-9.30667

>  <SCORE.INTRA.DIHEDRAL>
-21.2701

>  <SCORE.INTRA.DIHEDRAL.0>
24.1231

>  <SCORE.INTRA.POLAR>
0

>  <SCORE.INTRA.POLAR.0>
0

>  <SCORE.INTRA.REPUL>
0.00399161

>  <SCORE.INTRA.REPUL.0>
0

>  <SCORE.INTRA.SOLV>
0.783554

>  <SCORE.INTRA.SOLV.lig_0>
-48.2216

>  <SCORE.INTRA.VDW>
0.916653

>  <SCORE.INTRA.VDW.0>
-1.3967

>  <SCORE.INTRA.norm>
-0.664762

>  <SCORE.RESTR>
0

>  <SCORE.RESTR.CAVITY>
0

>  <SCORE.RESTR.norm>
0

>  <SCORE.SYSTEM>
0

>  <SCORE.SYSTEM.CONST>
0

>  <SCORE.SYSTEM.DIHEDRAL>
0

>  <SCORE.SYSTEM.SOLV>
0

>  <SCORE.SYSTEM.norm>
0

>  <SCORE.heavy>
14

>  <SCORE.norm>
-0.450854

>  <RMSD>
3.978

$$$$
ligand
 OpenBabel11021811463D
libRbt.so/2013.1/901 2013/11/27
 14 13  0  0  0  0  0  0  0  0999 V2000
    9.3788   13.4798   14.6710 N   0  0  0  0  0  0  0  0  0  0  0  0
   10.5890   13.8880   13.9453 C   0  0  0  0  0  0  0  0  0  0  0  0
   10.3672   13.7001   12.4480 C   0  0  0  0  0  0  0  0  0  0  0  0
   10.2840   12.2118   12.1512 C   0  0  0  0  0  0  0  0  0  0  0  0
   10.1715   12.0203   10.7009 N   0  0  0  0  0  0  0  0  0  0  0  0
   10.1918   10.5676   10.4559 C   0  0  0  0  0  0  0  0  0  0  0  0
   11.5428   10.1383    9.8724 C   0  0  0  0  0  0  0  0  0  0  0  0
   12.6293   10.4072   10.9245 C   0  0  0  0  0  0  0  0  0  0  0  0
   13.9399    9.9624   10.4233 C   0  0  0  0  0  0  0  0  0  0  0  0
   14.9382   10.2437   11.4749 N   0  0  0  0  0  0  0  0  0  0  0  0
   15.2051    8.9810   12.3020 C   0  0  0  0  0  0  0  0  0  0  0  0
   14.2419    8.9322   13.4942 C   0  0  0  0  0  0  0  0  0  0  0  0
   14.4820    7.7056   14.2787 C   0  0  0  0  0  0  0  0  0  0  0  0
   13.5923    7.6877   15.4596 N   0  0  0  0  0  0  0  0  0  0  0  0
  1  2  1  0  0  0  0
  2  3  1  0  0  0  0
  3  4  1  0  0  0  0
  4  5  1  0  0  0  0
  5  6  1  0  0  0  0
  6  7  1  0  0  0  0
  7  8  1  0  0  0  0
  8  9  1  0  0  0  0
  9 10  1  0  0  0  0
 10 11  1  0  0  0  0
 11 12  1  0  0  0  0
 12 13  1  0  0  0  0
 13 14  1  0  0  0  0
M  END
>  <CHROM.1>
-68.56339481,-175.80613076,176.01440407,-105.71365774,64.19043313,177.92182175
-179.90208639,97.45975388,-90.44688241,179.04636720,177.61322655,12.25394726
10.70892817,12.32839908,3.05946456,0.78088491,-1.58905654

>  <Name>
ligand

>  <RI>
0

>  <Rbt.Current_Directory>
/home/itssahil/PROJECTS/Mol_Feturizer/New_Systems/rnas/2O3Y

>  <Rbt.Executable>
rbdock ($Id: //depot/dev/client3/rdock/2013.1/src/exe/rbdock.cxx#4 $)

>  <Rbt.Library>
libRbt.so (2013.1, Build901 2013/11/27)

>  <Rbt.Parameter_File>
/export/apps/rDock/src/rDock_2013.1_src/data/scripts/dock_solv.prm

>  <Rbt.Receptor>
prm/pocket_docking_4.prm

>  <SCORE>
-4.11364

>  <SCORE.INTER>
5.37978

>  <SCORE.INTER.CONST>
1

>  <SCORE.INTER.POLAR>
0

>  <SCORE.INTER.ROT>
11

>  <SCORE.INTER.SOLV>
5.35062

>  <SCORE.INTER.VDW>
-9.13036

>  <SCORE.INTER.norm>
0.38427

>  <SCORE.INTRA>
-9.49341

>  <SCORE.INTRA.DIHEDRAL>
-21.1794

>  <SCORE.INTRA.DIHEDRAL.0>
24.1231

>  <SCORE.INTRA.POLAR>
0

>  <SCORE.INTRA.POLAR.0>
0

>  <SCORE.INTRA.REPUL>
0

>  <SCORE.INTRA.REPUL.0>
0

>  <SCORE.INTRA.SOLV>
0.225505

>  <SCORE.INTRA.SOLV.lig_0>
-48.2216

>  <SCORE.INTRA.VDW>
0.98355

>  <SCORE.INTRA.VDW.0>
-1.3967

>  <SCORE.INTRA.norm>
-0.678101

>  <SCORE.RESTR>
0

>  <SCORE.RESTR.CAVITY>
0

>  <SCORE.RESTR.norm>
0

>  <SCORE.SYSTEM>
0

>  <SCORE.SYSTEM.CONST>
0

>  <SCORE.SYSTEM.DIHEDRAL>
0

>  <SCORE.SYSTEM.SOLV>
0

>  <SCORE.SYSTEM.norm>
0

>  <SCORE.heavy>
14

>  <SCORE.norm>
-0.293831

>  <RMSD>
3.978

$$$$
ligand
 OpenBabel11021811463D
libRbt.so/2013.1/901 2013/11/27
 14 13  0  0  0  0  0  0  0  0999 V2000
   16.5771   16.5393   10.4742 N   0  0  0  0  0  0  0  0  0  0  0  0
   16.0212   15.5853    9.5052 C   0  0  0  0  0  0  0  0  0  0  0  0
   14.9771   14.7145   10.1964 C   0  0  0  0  0  0  0  0  0  0  0  0
   14.4007   13.7446    9.1780 C   0  0  0  0  0  0  0  0  0  0  0  0
   13.4160   12.8839    9.8432 N   0  0  0  0  0  0  0  0  0  0  0  0
   13.1096   11.7827    8.9136 C   0  0  0  0  0  0  0  0  0  0  0  0
   12.2349   10.7266    9.5988 C   0  0  0  0  0  0  0  0  0  0  0  0
   10.8871   11.3731    9.9525 C   0  0  0  0  0  0  0  0  0  0  0  0
    9.9688   10.3612   10.4996 C   0  0  0  0  0  0  0  0  0  0  0  0
   10.5028    9.9364   11.8096 N   0  0  0  0  0  0  0  0  0  0  0  0
    9.6063    8.8530   12.4199 C   0  0  0  0  0  0  0  0  0  0  0  0
   10.0032    8.6187   13.8825 C   0  0  0  0  0  0  0  0  0  0  0  0
   11.3632    8.0494   13.9444 C   0  0  0  0  0  0  0  0  0  0  0  0
   11.7784    7.9042   15.3562 N   0  0  0  0  0  0  0  0  0  0  0  0
  1  2  1  0  0  0  0
  2  3  1  0  0  0  0
  3  4  1  0  0  0  0
  4  5  1  0  0  0  0
  5  6  1  0  0  0  0
  6  7  1  0  0  0  0
  7  8  1  0  0  0  0
  8  9  1  0  0  0  0
  9 10  1  0  0  0  0
 10 11  1  0  0  0  0
 11 12  1  0  0  0  0
 12 13  1  0  0  0  0
 13 14  1  0  0  0  0
M  END
>  <CHROM.1>
179.36418996,178.78856760,-167.68699088,172.18395809,64.14239435,174.74778086
67.83735508,-178.61707289,-168.89652680,-65.81633841,176.41433947,12.48878304
11.50508118,11.11210996,-0.77928258,0.68262417,2.05840478

>  <Name>
ligand

>  <RI>
0

>  <Rbt.Current_Directory>
/home/itssahil/PROJECTS/Mol_Feturizer/New_Systems/rnas/2O3Y

>  <Rbt.Executable>
rbdock ($Id: //depot/dev/client3/rdock/2013.1/src/exe/rbdock.cxx#4 $)

>  <Rbt.Library>
libRbt.so (2013.1, Build901 2013/11/27)

>  <Rbt.Parameter_File>
/export/apps/rDock/src/rDock_2013.1_src/data/scripts/dock_solv.prm

>  <Rbt.Receptor>
prm/pocket_docking_4.prm

>  <SCORE>
-8.80968

>  <SCORE.INTER>
2.1994

>  <SCORE.INTER.CONST>
1

>  <SCORE.INTER.POLAR>
0

>  <SCORE.INTER.ROT>
11

>  <SCORE.INTER.SOLV>
4.42539

>  <SCORE.INTER.VDW>
-10.9422

>  <SCORE.INTER.norm>
0.1571

>  <SCORE.INTRA>
-11.0091

>  <SCORE.INTRA.DIHEDRAL>
-23.2616

>  <SCORE.INTRA.DIHEDRAL.0>
24.1231

>  <SCORE.INTRA.POLAR>
0

>  <SCORE.INTRA.POLAR.0>
0

>  <SCORE.INTRA.REPUL>
0

>  <SCORE.INTRA.REPUL.0>
0

>  <SCORE.INTRA.SOLV>
0.31905

>  <SCORE.INTRA.SOLV.lig_0>
-48.2216

>  <SCORE.INTRA.VDW>
0.462201

>  <SCORE.INTRA.VDW.0>
-1.3967

>  <SCORE.INTRA.norm>
-0.786362

>  <SCORE.RESTR>
0

>  <SCORE.RESTR.CAVITY>
0

>  <SCORE.RESTR.norm>
0

>  <SCORE.SYSTEM>
0

>  <SCORE.SYSTEM.CONST>
0

>  <SCORE.SYSTEM.DIHEDRAL>
0

>  <SCORE.SYSTEM.SOLV>
0

>  <SCORE.SYSTEM.norm>
0

>  <SCORE.heavy>
14

>  <SCORE.norm>
-0.629263

>  <RMSD>
3.983

$$$$
ligand
 OpenBabel11021811463D
libRbt.so/2013.1/901 2013/11/27
 14 13  0  0  0  0  0  0  0  0999 V2000
   14.5749    8.7290   16.4580 N   0  0  0  0  0  0  0  0  0  0  0  0
   13.2514    8.8121   15.8258 C   0  0  0  0  0  0  0  0  0  0  0  0
   13.0538    7.6096   14.9086 C   0  0  0  0  0  0  0  0  0  0  0  0
   11.6696    7.6941   14.2866 C   0  0  0  0  0  0  0  0  0  0  0  0
   11.6207    8.8527   13.3876 N   0  0  0  0  0  0  0  0  0  0  0  0
   10.4674    8.6543   12.4925 C   0  0  0  0  0  0  0  0  0  0  0  0
   10.2195    9.9085   11.6466 C   0  0  0  0  0  0  0  0  0  0  0  0
   11.4425   10.1304   10.7442 C   0  0  0  0  0  0  0  0  0  0  0  0
   11.2748   11.3643    9.9592 C   0  0  0  0  0  0  0  0  0  0  0  0
   12.5369   11.6039    9.2302 N   0  0  0  0  0  0  0  0  0  0  0  0
   12.4649   12.9340    8.4715 C   0  0  0  0  0  0  0  0  0  0  0  0
   13.8127   13.2165    7.7968 C   0  0  0  0  0  0  0  0  0  0  0  0
   14.8485   13.4340    8.8251 C   0  0  0  0  0  0  0  0  0  0  0  0
   16.1402   13.7399    8.1737 N   0  0  0  0  0  0  0  0  0  0  0  0
  1  2  1  0  0  0  0
  2  3  1  0  0  0  0
  3  4  1  0  0  0  0
  4  5  1  0  0  0  0
  5  6  1  0  0  0  0
  6  7  1  0  0  0  0
  7  8  1  0  0  0  0
  8  9  1  0  0  0  0
  9 10  1  0  0  0  0
 10 11  1  0  0  0  0
 11 12  1  0  0  0  0
 12 13  1  0  0  0  0
 13 14  1  0  0  0  0
M  END
>  <CHROM.1>
178.76372910,66.72984272,161.78408697,172.09278326,63.53967078,-177.27589946
173.76847067,-175.82473938,176.20612202,-65.78983588,-178.58569083,12.66940143
10.47726590,11.58607883,-1.75204870,-0.36319744,-1.00110145

>  <Name>
ligand

>  <RI>
0

>  <Rbt.Current_Directory>
/home/itssahil/PROJECTS/Mol_Feturizer/New_Systems/rnas/2O3Y

>  <Rbt.Executable>
rbdock ($Id: //depot/dev/client3/rdock/2013.1/src/exe/rbdock.cxx#4 $)

>  <Rbt.Library>
libRbt.so (2013.1, Build901 2013/11/27)

>  <Rbt.Parameter_File>
/export/apps/rDock/src/rDock_2013.1_src/data/scripts/dock_solv.prm

>  <Rbt.Receptor>
prm/pocket_docking_6.prm

>  <SCORE>
-9.38869

>  <SCORE.INTER>
1.64211

>  <SCORE.INTER.CONST>
1

>  <SCORE.INTER.POLAR>
0

>  <SCORE.INTER.ROT>
11

>  <SCORE.INTER.SOLV>
4.06125

>  <SCORE.INTER.VDW>
-11.1923

>  <SCORE.INTER.norm>
0.117294

>  <SCORE.INTRA>
-11.0308

>  <SCORE.INTRA.DIHEDRAL>
-23.2608

>  <SCORE.INTRA.DIHEDRAL.0>
24.1231

>  <SCORE.INTRA.POLAR>
0

>  <SCORE.INTRA.POLAR.0>
0

>  <SCORE.INTRA.REPUL>
0

>  <SCORE.INTRA.REPUL.0>
0

>  <SCORE.INTRA.SOLV>
0.317101

>  <SCORE.INTRA.SOLV.lig_0>
-48.2216

>  <SCORE.INTRA.VDW>
0.441026

>  <SCORE.INTRA.VDW.0>
-1.3967

>  <SCORE.INTRA.norm>
-0.787914

>  <SCORE.RESTR>
0

>  <SCORE.RESTR.CAVITY>
0

>  <SCORE.RESTR.norm>
0

>  <SCORE.SYSTEM>
0

>  <SCORE.SYSTEM.CONST>
0

>  <SCORE.SYSTEM.DIHEDRAL>
0

>  <SCORE.SYSTEM.SOLV>
0

>  <SCORE.SYSTEM.norm>
0

>  <SCORE.heavy>
14

>  <SCORE.norm>
-0.670621

>  <RMSD>
3.992

$$$$
ligand
 OpenBabel11021811463D
libRbt.so/2013.1/901 2013/11/27
 14 13  0  0  0  0  0  0  0  0999 V2000
    9.8558   12.8480   16.4969 N   0  0  0  0  0  0  0  0  0  0  0  0
   11.0842   12.4395   17.1913 C   0  0  0  0  0  0  0  0  0  0  0  0
   12.0727   11.8730   16.1773 C   0  0  0  0  0  0  0  0  0  0  0  0
   13.2999   11.3723   16.9211 C   0  0  0  0  0  0  0  0  0  0  0  0
   14.2958   10.9156   15.9451 N   0  0  0  0  0  0  0  0  0  0  0  0
   15.5783   10.8001   16.6610 C   0  0  0  0  0  0  0  0  0  0  0  0
   16.5500    9.9037   15.8849 C   0  0  0  0  0  0  0  0  0  0  0  0
   16.9588   10.6368   14.5985 C   0  0  0  0  0  0  0  0  0  0  0  0
   17.8483    9.7853   13.7919 C   0  0  0  0  0  0  0  0  0  0  0  0
   18.2371   10.5561   12.5934 N   0  0  0  0  0  0  0  0  0  0  0  0
   19.5790   10.0503   12.0518 C   0  0  0  0  0  0  0  0  0  0  0  0
   19.7389   10.4787   10.5881 C   0  0  0  0  0  0  0  0  0  0  0  0
   19.8837   11.9452   10.5113 C   0  0  0  0  0  0  0  0  0  0  0  0
   19.8777   12.3727    9.0958 N   0  0  0  0  0  0  0  0  0  0  0  0
  1  2  1  0  0  0  0
  2  3  1  0  0  0  0
  3  4  1  0  0  0  0
  4  5  1  0  0  0  0
  5  6  1  0  0  0  0
  6  7  1  0  0  0  0
  7  8  1  0  0  0  0
  8  9  1  0  0  0  0
  9 10  1  0  0  0  0
 10 11  1  0  0  0  0
 11 12  1  0  0  0  0
 12 13  1  0  0  0  0
 13 14  1  0  0  0  0
M  END
>  <CHROM.1>
-176.35528113,-175.92138845,164.50262103,160.94824436,68.69445236,-177.54176846
-178.37497218,154.74591780,160.20846231,67.64105572,-173.37448660,16.06163352
11.14101675,14.17944243,2.65031567,-0.45417683,2.10763508

>  <Name>
ligand

>  <RI>
0

>  <Rbt.Current_Directory>
/home/itssahil/PROJECTS/Mol_Feturizer/New_Systems/rnas/2O3Y

>  <Rbt.Executable>
rbdock ($Id: //depot/dev/client3/rdock/2013.1/src/exe/rbdock.cxx#4 $)

>  <Rbt.Library>
libRbt.so (2013.1, Build901 2013/11/27)

>  <Rbt.Parameter_File>
/export/apps/rDock/src/rDock_2013.1_src/data/scripts/dock_solv.prm

>  <Rbt.Receptor>
prm/pocket_docking_5.prm

>  <SCORE>
-10.5114

>  <SCORE.INTER>
0.376059

>  <SCORE.INTER.CONST>
1

>  <SCORE.INTER.POLAR>
0

>  <SCORE.INTER.ROT>
11

>  <SCORE.INTER.SOLV>
4.5916

>  <SCORE.INTER.VDW>
-12.2132

>  <SCORE.INTER.norm>
0.0268614

>  <SCORE.INTRA>
-10.8874

>  <SCORE.INTRA.DIHEDRAL>
-22.1032

>  <SCORE.INTRA.DIHEDRAL.0>
24.1231

>  <SCORE.INTRA.POLAR>
0

>  <SCORE.INTRA.POLAR.0>
0

>  <SCORE.INTRA.REPUL>
0

>  <SCORE.INTRA.REPUL.0>
0

>  <SCORE.INTRA.SOLV>
-0.120646

>  <SCORE.INTRA.SOLV.lig_0>
-48.2216

>  <SCORE.INTRA.VDW>
0.224527

>  <SCORE.INTRA.VDW.0>
-1.3967

>  <SCORE.INTRA.norm>
-0.777673

>  <SCORE.RESTR>
0

>  <SCORE.RESTR.CAVITY>
0

>  <SCORE.RESTR.norm>
0

>  <SCORE.SYSTEM>
0

>  <SCORE.SYSTEM.CONST>
0

>  <SCORE.SYSTEM.DIHEDRAL>
0

>  <SCORE.SYSTEM.SOLV>
0

>  <SCORE.SYSTEM.norm>
0

>  <SCORE.heavy>
14

>  <SCORE.norm>
-0.750811

>  <RMSD>
4.017

$$$$
ligand
 OpenBabel11021811463D
libRbt.so/2013.1/901 2013/11/27
 14 13  0  0  0  0  0  0  0  0999 V2000
   11.7067    8.0487   15.4999 N   0  0  0  0  0  0  0  0  0  0  0  0
   10.9423    8.8325   14.5204 C   0  0  0  0  0  0  0  0  0  0  0  0
   10.4962    7.9206   13.3820 C   0  0  0  0  0  0  0  0  0  0  0  0
    9.7055    8.7450   12.3793 C   0  0  0  0  0  0  0  0  0  0  0  0
   10.6130    9.6882   11.7162 N   0  0  0  0  0  0  0  0  0  0  0  0
    9.8907   10.2359   10.5548 C   0  0  0  0  0  0  0  0  0  0  0  0
   10.5097   11.5672   10.1138 C   0  0  0  0  0  0  0  0  0  0  0  0
   11.9227   11.2880    9.5798 C   0  0  0  0  0  0  0  0  0  0  0  0
   12.5046   12.5191    9.0208 C   0  0  0  0  0  0  0  0  0  0  0  0
   13.7918   12.1583    8.3925 N   0  0  0  0  0  0  0  0  0  0  0  0
   14.4209   13.3900    7.7314 C   0  0  0  0  0  0  0  0  0  0  0  0
   15.6466   12.9665    6.9128 C   0  0  0  0  0  0  0  0  0  0  0  0
   16.6910   12.4433    7.8143 C   0  0  0  0  0  0  0  0  0  0  0  0
   17.2273   13.5422    8.6459 N   0  0  0  0  0  0  0  0  0  0  0  0
  1  2  1  0  0  0  0
  2  3  1  0  0  0  0
  3  4  1  0  0  0  0
  4  5  1  0  0  0  0
  5  6  1  0  0  0  0
  6  7  1  0  0  0  0
  7  8  1  0  0  0  0
  8  9  1  0  0  0  0
  9 10  1  0  0  0  0
 10 11  1  0  0  0  0
 11 12  1  0  0  0  0
 12 13  1  0  0  0  0
 13 14  1  0  0  0  0
M  END
>  <CHROM.1>
179.90462411,68.24965985,167.14557888,158.90670460,66.47447503,174.38152120
-173.83880756,177.36844431,-171.84225240,-65.22922281,-68.19828026,12.57605585
10.95328230,10.44717530,-2.19370256,-0.14549371,-1.02127905

>  <Name>
ligand

>  <RI>
0

>  <Rbt.Current_Directory>
/home/itssahil/PROJECTS/Mol_Feturizer/New_Systems/rnas/2O3Y

>  <Rbt.Executable>
rbdock ($Id: //depot/dev/client3/rdock/2013.1/src/exe/rbdock.cxx#4 $)

>  <Rbt.Library>
libRbt.so (2013.1, Build901 2013/11/27)

>  <Rbt.Parameter_File>
/export/apps/rDock/src/rDock_2013.1_src/data/scripts/dock_solv.prm

>  <Rbt.Receptor>
prm/pocket_docking_8.prm

>  <SCORE>
-9.22286

>  <SCORE.INTER>
0.687178

>  <SCORE.INTER.CONST>
1

>  <SCORE.INTER.POLAR>
0

>  <SCORE.INTER.ROT>
11

>  <SCORE.INTER.SOLV>
4.58996

>  <SCORE.INTER.VDW>
-12.0052

>  <SCORE.INTER.norm>
0.0490841

>  <SCORE.INTRA>
-9.91004

>  <SCORE.INTRA.DIHEDRAL>
-22.5648

>  <SCORE.INTRA.DIHEDRAL.0>
24.1231

>  <SCORE.INTRA.POLAR>
0

>  <SCORE.INTRA.POLAR.0>
0

>  <SCORE.INTRA.REPUL>
0

>  <SCORE.INTRA.REPUL.0>
0

>  <SCORE.INTRA.SOLV>
1.59213

>  <SCORE.INTRA.SOLV.lig_0>
-48.2216

>  <SCORE.INTRA.VDW>
0.576289

>  <SCORE.INTRA.VDW.0>
-1.3967

>  <SCORE.INTRA.norm>
-0.70786

>  <SCORE.RESTR>
0

>  <SCORE.RESTR.CAVITY>
0

>  <SCORE.RESTR.norm>
0

>  <SCORE.SYSTEM>
0

>  <SCORE.SYSTEM.CONST>
0

>  <SCORE.SYSTEM.DIHEDRAL>
0

>  <SCORE.SYSTEM.SOLV>
0

>  <SCORE.SYSTEM.norm>
0

>  <SCORE.heavy>
14

>  <SCORE.norm>
-0.658776

>  <RMSD>
4.020

$$$$
ligand
 OpenBabel11021811463D
libRbt.so/2013.1/901 2013/11/27
 14 13  0  0  0  0  0  0  0  0999 V2000
   17.4087   14.2140    6.5892 N   0  0  0  0  0  0  0  0  0  0  0  0
   15.9532   14.0220    6.6411 C   0  0  0  0  0  0  0  0  0  0  0  0
   15.5894   13.2620    7.9125 C   0  0  0  0  0  0  0  0  0  0  0  0
   14.0832   13.0614    7.9455 C   0  0  0  0  0  0  0  0  0  0  0  0
   13.7313   12.2871    9.1412 N   0  0  0  0  0  0  0  0  0  0  0  0
   13.3854   10.9287    8.6877 C   0  0  0  0  0  0  0  0  0  0  0  0
   12.4359   10.2533    9.6838 C   0  0  0  0  0  0  0  0  0  0  0  0
   11.1910   11.1396    9.8394 C   0  0  0  0  0  0  0  0  0  0  0  0
   10.1083   10.3817   10.4877 C   0  0  0  0  0  0  0  0  0  0  0  0
   10.5569   10.0436   11.8538 N   0  0  0  0  0  0  0  0  0  0  0  0
    9.6573    8.9559   12.4516 C   0  0  0  0  0  0  0  0  0  0  0  0
    9.9762    8.7843   13.9417 C   0  0  0  0  0  0  0  0  0  0  0  0
   11.3368    8.2355   14.1000 C   0  0  0  0  0  0  0  0  0  0  0  0
   11.6489    8.0849   15.5375 N   0  0  0  0  0  0  0  0  0  0  0  0
  1  2  1  0  0  0  0
  2  3  1  0  0  0  0
  3  4  1  0  0  0  0
  4  5  1  0  0  0  0
  5  6  1  0  0  0  0
  6  7  1  0  0  0  0
  7  8  1  0  0  0  0
  8  9  1  0  0  0  0
  9 10  1  0  0  0  0
 10 11  1  0  0  0  0
 11 12  1  0  0  0  0
 12 13  1  0  0  0  0
 13 14  1  0  0  0  0
M  END
>  <CHROM.1>
-179.52932366,177.91437076,-106.22766519,-154.45789834,57.07141180,164.87153428
64.30409457,-165.06140032,-170.35857669,-66.82093568,179.36039256,12.64704401
10.97520348,10.34358077,-0.97545432,0.22406020,2.06594554

>  <Name>
ligand

>  <RI>
0

>  <Rbt.Current_Directory>
/home/itssahil/PROJECTS/Mol_Feturizer/New_Systems/rnas/2O3Y

>  <Rbt.Executable>
rbdock ($Id: //depot/dev/client3/rdock/2013.1/src/exe/rbdock.cxx#4 $)

>  <Rbt.Library>
libRbt.so (2013.1, Build901 2013/11/27)

>  <Rbt.Parameter_File>
/export/apps/rDock/src/rDock_2013.1_src/data/scripts/dock_solv.prm

>  <Rbt.Receptor>
prm/pocket_docking_6.prm

>  <SCORE>
-9.47828

>  <SCORE.INTER>
0.161249

>  <SCORE.INTER.CONST>
1

>  <SCORE.INTER.POLAR>
0

>  <SCORE.INTER.ROT>
11

>  <SCORE.INTER.SOLV>
4.19417

>  <SCORE.INTER.VDW>
-12.2239

>  <SCORE.INTER.norm>
0.0115178

>  <SCORE.INTRA>
-9.63953

>  <SCORE.INTRA.DIHEDRAL>
-21.156

>  <SCORE.INTRA.DIHEDRAL.0>
24.1231

>  <SCORE.INTRA.POLAR>
0

>  <SCORE.INTRA.POLAR.0>
0

>  <SCORE.INTRA.REPUL>
0

>  <SCORE.INTRA.REPUL.0>
0

>  <SCORE.INTRA.SOLV>
0.329462

>  <SCORE.INTRA.SOLV.lig_0>
-48.2216

>  <SCORE.INTRA.VDW>
0.773748

>  <SCORE.INTRA.VDW.0>
-1.3967

>  <SCORE.INTRA.norm>
-0.688538

>  <SCORE.RESTR>
0

>  <SCORE.RESTR.CAVITY>
0

>  <SCORE.RESTR.norm>
0

>  <SCORE.SYSTEM>
0

>  <SCORE.SYSTEM.CONST>
0

>  <SCORE.SYSTEM.DIHEDRAL>
0

>  <SCORE.SYSTEM.SOLV>
0

>  <SCORE.SYSTEM.norm>
0

>  <SCORE.heavy>
14

>  <SCORE.norm>
-0.67702

>  <RMSD>
4.033

$$$$
ligand
 OpenBabel11021811463D
libRbt.so/2013.1/901 2013/11/27
 14 13  0  0  0  0  0  0  0  0999 V2000
    8.5912    9.7312   15.4168 N   0  0  0  0  0  0  0  0  0  0  0  0
    9.7359    9.7073   14.4964 C   0  0  0  0  0  0  0  0  0  0  0  0
    9.3531    8.9408   13.2346 C   0  0  0  0  0  0  0  0  0  0  0  0
   10.5732    8.8468   12.3332 C   0  0  0  0  0  0  0  0  0  0  0  0
   10.9221   10.1915   11.8611 N   0  0  0  0  0  0  0  0  0  0  0  0
   10.3242   10.3464   10.5235 C   0  0  0  0  0  0  0  0  0  0  0  0
   10.8760   11.5960    9.8278 C   0  0  0  0  0  0  0  0  0  0  0  0
   12.3770   11.3852    9.5783 C   0  0  0  0  0  0  0  0  0  0  0  0
   12.9156   12.4911    8.7698 C   0  0  0  0  0  0  0  0  0  0  0  0
   14.3717   12.2799    8.6394 N   0  0  0  0  0  0  0  0  0  0  0  0
   14.8633   12.8073    7.2866 C   0  0  0  0  0  0  0  0  0  0  0  0
   15.9047   13.9104    7.5106 C   0  0  0  0  0  0  0  0  0  0  0  0
   16.4194   14.3809    6.2102 C   0  0  0  0  0  0  0  0  0  0  0  0
   17.2429   13.3220    5.5879 N   0  0  0  0  0  0  0  0  0  0  0  0
  1  2  1  0  0  0  0
  2  3  1  0  0  0  0
  3  4  1  0  0  0  0
  4  5  1  0  0  0  0
  5  6  1  0  0  0  0
  6  7  1  0  0  0  0
  7  8  1  0  0  0  0
  8  9  1  0  0  0  0
  9 10  1  0  0  0  0
 10 11  1  0  0  0  0
 11 12  1  0  0  0  0
 12 13  1  0  0  0  0
 13 14  1  0  0  0  0
M  END
>  <CHROM.1>
-176.35010106,-66.43345795,-97.06464541,-168.07028953,65.12856452,173.29171789
176.34183345,147.70382544,119.68554552,177.70729429,-69.38499248,12.46203731
11.42407052,10.09105421,-2.40711036,-0.56114687,-1.57616489

>  <Name>
ligand

>  <RI>
0

>  <Rbt.Current_Directory>
/home/itssahil/PROJECTS/Mol_Feturizer/New_Systems/rnas/2O3Y

>  <Rbt.Executable>
rbdock ($Id: //depot/dev/client3/rdock/2013.1/src/exe/rbdock.cxx#4 $)

>  <Rbt.Library>
libRbt.so (2013.1, Build901 2013/11/27)

>  <Rbt.Parameter_File>
/export/apps/rDock/src/rDock_2013.1_src/data/scripts/dock_solv.prm

>  <Rbt.Receptor>
prm/pocket_docking_8.prm

>  <SCORE>
-9.12968

>  <SCORE.INTER>
-0.0720724

>  <SCORE.INTER.CONST>
1

>  <SCORE.INTER.POLAR>
0

>  <SCORE.INTER.ROT>
11

>  <SCORE.INTER.SOLV>
4.87751

>  <SCORE.INTER.VDW>
-12.6072

>  <SCORE.INTER.norm>
-0.00514803

>  <SCORE.INTRA>
-9.05761

>  <SCORE.INTRA.DIHEDRAL>
-20.433

>  <SCORE.INTRA.DIHEDRAL.0>
24.1231

>  <SCORE.INTRA.POLAR>
0

>  <SCORE.INTRA.POLAR.0>
0

>  <SCORE.INTRA.REPUL>
0

>  <SCORE.INTRA.REPUL.0>
0

>  <SCORE.INTRA.SOLV>
0.642193

>  <SCORE.INTRA.SOLV.lig_0>
-48.2216

>  <SCORE.INTRA.VDW>
0.837795

>  <SCORE.INTRA.VDW.0>
-1.3967

>  <SCORE.INTRA.norm>
-0.646972

>  <SCORE.RESTR>
0

>  <SCORE.RESTR.CAVITY>
0

>  <SCORE.RESTR.norm>
0

>  <SCORE.SYSTEM>
0

>  <SCORE.SYSTEM.CONST>
0

>  <SCORE.SYSTEM.DIHEDRAL>
0

>  <SCORE.SYSTEM.SOLV>
0

>  <SCORE.SYSTEM.norm>
0

>  <SCORE.heavy>
14

>  <SCORE.norm>
-0.65212

>  <RMSD>
4.043

$$$$
ligand
 OpenBabel11021811463D
libRbt.so/2013.1/901 2013/11/27
 14 13  0  0  0  0  0  0  0  0999 V2000
   15.5256   16.8821   11.3675 N   0  0  0  0  0  0  0  0  0  0  0  0
   14.9681   16.1246   10.2389 C   0  0  0  0  0  0  0  0  0  0  0  0
   13.4808   15.8854   10.4773 C   0  0  0  0  0  0  0  0  0  0  0  0
   12.9284   15.0657    9.3226 C   0  0  0  0  0  0  0  0  0  0  0  0
   13.5689   13.7456    9.3256 N   0  0  0  0  0  0  0  0  0  0  0  0
   12.8760   12.9290    8.3138 C   0  0  0  0  0  0  0  0  0  0  0  0
   13.4421   11.5046    8.2908 C   0  0  0  0  0  0  0  0  0  0  0  0
   13.1893   10.8635    9.6636 C   0  0  0  0  0  0  0  0  0  0  0  0
   11.7568   10.5671    9.8274 C   0  0  0  0  0  0  0  0  0  0  0  0
   11.5900    9.8748   11.1214 N   0  0  0  0  0  0  0  0  0  0  0  0
   10.1030    9.7776   11.4812 C   0  0  0  0  0  0  0  0  0  0  0  0
    9.8950    8.6687   12.5198 C   0  0  0  0  0  0  0  0  0  0  0  0
   10.4977    9.0708   13.8053 C   0  0  0  0  0  0  0  0  0  0  0  0
    9.7060   10.1661   14.4054 N   0  0  0  0  0  0  0  0  0  0  0  0
  1  2  1  0  0  0  0
  2  3  1  0  0  0  0
  3  4  1  0  0  0  0
  4  5  1  0  0  0  0
  5  6  1  0  0  0  0
  6  7  1  0  0  0  0
  7  8  1  0  0  0  0
  8  9  1  0  0  0  0
  9 10  1  0  0  0  0
 10 11  1  0  0  0  0
 11 12  1  0  0  0  0
 12 13  1  0  0  0  0
 13 14  1  0  0  0  0
M  END
>  <CHROM.1>
-178.32617168,64.31375607,172.43345712,-177.49767453,62.14371254,71.58575548
176.33890157,169.11147925,160.18074912,68.66629943,70.08857701,12.39474916
12.22308147,10.72541528,0.16473648,1.02835396,0.97205856

>  <Name>
ligand

>  <RI>
0

>  <Rbt.Current_Directory>
/home/itssahil/PROJECTS/Mol_Feturizer/New_Systems/rnas/2O3Y

>  <Rbt.Executable>
rbdock ($Id: //depot/dev/client3/rdock/2013.1/src/exe/rbdock.cxx#4 $)

>  <Rbt.Library>
libRbt.so (2013.1, Build901 2013/11/27)

>  <Rbt.Parameter_File>
/export/apps/rDock/src/rDock_2013.1_src/data/scripts/dock_solv.prm

>  <Rbt.Receptor>
prm/pocket_docking_6.prm

>  <SCORE>
-7.69511

>  <SCORE.INTER>
1.10233

>  <SCORE.INTER.CONST>
1

>  <SCORE.INTER.POLAR>
0

>  <SCORE.INTER.ROT>
11

>  <SCORE.INTER.SOLV>
5.42312

>  <SCORE.INTER.VDW>
-12.0062

>  <SCORE.INTER.norm>
0.0787377

>  <SCORE.INTRA>
-8.79743

>  <SCORE.INTRA.DIHEDRAL>
-22.3314

>  <SCORE.INTRA.DIHEDRAL.0>
24.1231

>  <SCORE.INTRA.POLAR>
0

>  <SCORE.INTRA.POLAR.0>
0

>  <SCORE.INTRA.REPUL>
0

>  <SCORE.INTRA.REPUL.0>
0

>  <SCORE.INTRA.SOLV>
1.89554

>  <SCORE.INTRA.SOLV.lig_0>
-48.2216

>  <SCORE.INTRA.VDW>
1.42049

>  <SCORE.INTRA.VDW.0>
-1.3967

>  <SCORE.INTRA.norm>
-0.628388

>  <SCORE.RESTR>
0

>  <SCORE.RESTR.CAVITY>
0

>  <SCORE.RESTR.norm>
0

>  <SCORE.SYSTEM>
0

>  <SCORE.SYSTEM.CONST>
0

>  <SCORE.SYSTEM.DIHEDRAL>
0

>  <SCORE.SYSTEM.SOLV>
0

>  <SCORE.SYSTEM.norm>
0

>  <SCORE.heavy>
14

>  <SCORE.norm>
-0.54965

>  <RMSD>
4.053

$$$$
ligand
 OpenBabel11021811463D
libRbt.so/2013.1/901 2013/11/27
 14 13  0  0  0  0  0  0  0  0999 V2000
   16.1632   12.0221    7.7068 N   0  0  0  0  0  0  0  0  0  0  0  0
   14.9918   12.2154    8.5720 C   0  0  0  0  0  0  0  0  0  0  0  0
   13.7528   12.4183    7.7061 C   0  0  0  0  0  0  0  0  0  0  0  0
   12.5640   12.6899    8.6133 C   0  0  0  0  0  0  0  0  0  0  0  0
   12.2527   11.4714    9.3691 N   0  0  0  0  0  0  0  0  0  0  0  0
   10.8890   11.6329    9.9029 C   0  0  0  0  0  0  0  0  0  0  0  0
   10.3780   10.3102   10.4855 C   0  0  0  0  0  0  0  0  0  0  0  0
   11.1805   10.0026   11.7586 C   0  0  0  0  0  0  0  0  0  0  0  0
   10.8651    8.6480   12.2405 C   0  0  0  0  0  0  0  0  0  0  0  0
   11.6655    8.4106   13.4590 N   0  0  0  0  0  0  0  0  0  0  0  0
   13.1042    8.0389   13.0824 C   0  0  0  0  0  0  0  0  0  0  0  0
   13.9223    7.7888   14.3551 C   0  0  0  0  0  0  0  0  0  0  0  0
   14.0197    9.0359   15.1377 C   0  0  0  0  0  0  0  0  0  0  0  0
   14.8308    8.8001   16.3514 N   0  0  0  0  0  0  0  0  0  0  0  0
  1  2  1  0  0  0  0
  2  3  1  0  0  0  0
  3  4  1  0  0  0  0
  4  5  1  0  0  0  0
  5  6  1  0  0  0  0
  6  7  1  0  0  0  0
  7  8  1  0  0  0  0
  8  9  1  0  0  0  0
  9 10  1  0  0  0  0
 10 11  1  0  0  0  0
 11 12  1  0  0  0  0
 12 13  1  0  0  0  0
 13 14  1  0  0  0  0
M  END
>  <CHROM.1>
-177.03765932,-68.05852054,-162.98324576,169.49509125,69.20676107,-171.58177234
179.88456581,-79.53560273,-179.73174558,-64.12920548,-178.90664130,12.89820335
10.24894972,11.33843269,-1.52815030,0.12503882,2.10636973

>  <Name>
ligand

>  <RI>
0

>  <Rbt.Current_Directory>
/home/itssahil/PROJECTS/Mol_Feturizer/New_Systems/rnas/2O3Y

>  <Rbt.Executable>
rbdock ($Id: //depot/dev/client3/rdock/2013.1/src/exe/rbdock.cxx#4 $)

>  <Rbt.Library>
libRbt.so (2013.1, Build901 2013/11/27)

>  <Rbt.Parameter_File>
/export/apps/rDock/src/rDock_2013.1_src/data/scripts/dock_solv.prm

>  <Rbt.Receptor>
prm/pocket_docking_4.prm

>  <SCORE>
-8.5917

>  <SCORE.INTER>
1.5096

>  <SCORE.INTER.CONST>
1

>  <SCORE.INTER.POLAR>
0

>  <SCORE.INTER.ROT>
11

>  <SCORE.INTER.SOLV>
4.58319

>  <SCORE.INTER.VDW>
-11.4547

>  <SCORE.INTER.norm>
0.107829

>  <SCORE.INTRA>
-10.1123

>  <SCORE.INTRA.DIHEDRAL>
-22.5732

>  <SCORE.INTRA.DIHEDRAL.0>
24.1231

>  <SCORE.INTRA.POLAR>
0

>  <SCORE.INTRA.POLAR.0>
0

>  <SCORE.INTRA.REPUL>
0

>  <SCORE.INTRA.REPUL.0>
0

>  <SCORE.INTRA.SOLV>
0.292414

>  <SCORE.INTRA.SOLV.lig_0>
-48.2216

>  <SCORE.INTRA.VDW>
1.02809

>  <SCORE.INTRA.VDW.0>
-1.3967

>  <SCORE.INTRA.norm>
-0.722309

>  <SCORE.RESTR>
0.0110297

>  <SCORE.RESTR.CAVITY>
0.0110297

>  <SCORE.RESTR.norm>
0.000787834

>  <SCORE.SYSTEM>
0

>  <SCORE.SYSTEM.CONST>
0

>  <SCORE.SYSTEM.DIHEDRAL>
0

>  <SCORE.SYSTEM.SOLV>
0

>  <SCORE.SYSTEM.norm>
0

>  <SCORE.heavy>
14

>  <SCORE.norm>
-0.613693

>  <RMSD>
4.057

$$$$
ligand
 OpenBabel11021811463D
libRbt.so/2013.1/901 2013/11/27
 14 13  0  0  0  0  0  0  0  0999 V2000
   10.8023    6.9963   16.3720 N   0  0  0  0  0  0  0  0  0  0  0  0
   11.3971    6.9606   15.0292 C   0  0  0  0  0  0  0  0  0  0  0  0
   12.5241    7.9851   14.9490 C   0  0  0  0  0  0  0  0  0  0  0  0
   13.1268    7.9377   13.5545 C   0  0  0  0  0  0  0  0  0  0  0  0
   12.1396    8.4376   12.5910 N   0  0  0  0  0  0  0  0  0  0  0  0
   12.7910    8.4397   11.2696 C   0  0  0  0  0  0  0  0  0  0  0  0
   12.9420    9.8723   10.7452 C   0  0  0  0  0  0  0  0  0  0  0  0
   11.5546   10.3801   10.3247 C   0  0  0  0  0  0  0  0  0  0  0  0
   11.6447   11.7753    9.8642 C   0  0  0  0  0  0  0  0  0  0  0  0
   12.5590   11.8037    8.7045 N   0  0  0  0  0  0  0  0  0  0  0  0
   12.5483   13.1930    8.0568 C   0  0  0  0  0  0  0  0  0  0  0  0
   13.9865   13.7038    7.9080 C   0  0  0  0  0  0  0  0  0  0  0  0
   14.5672   13.9526    9.2416 C   0  0  0  0  0  0  0  0  0  0  0  0
   15.9356   14.4938    9.0958 N   0  0  0  0  0  0  0  0  0  0  0  0
  1  2  1  0  0  0  0
  2  3  1  0  0  0  0
  3  4  1  0  0  0  0
  4  5  1  0  0  0  0
  5  6  1  0  0  0  0
  6  7  1  0  0  0  0
  7  8  1  0  0  0  0
  8  9  1  0  0  0  0
  9 10  1  0  0  0  0
 10 11  1  0  0  0  0
 11 12  1  0  0  0  0
 12 13  1  0  0  0  0
 13 14  1  0  0  0  0
M  END
>  <CHROM.1>
-179.89689017,67.84616588,177.07305624,-114.69930141,-72.74817078,177.72645698
60.45675251,172.25558369,128.23988913,-67.07765088,-177.85480319,12.75129979
10.42368865,11.26455991,-1.85499127,-0.56039240,-0.94855881

>  <Name>
ligand

>  <RI>
0

>  <Rbt.Current_Directory>
/home/itssahil/PROJECTS/Mol_Feturizer/New_Systems/rnas/2O3Y

>  <Rbt.Executable>
rbdock ($Id: //depot/dev/client3/rdock/2013.1/src/exe/rbdock.cxx#4 $)

>  <Rbt.Library>
libRbt.so (2013.1, Build901 2013/11/27)

>  <Rbt.Parameter_File>
/export/apps/rDock/src/rDock_2013.1_src/data/scripts/dock_solv.prm

>  <Rbt.Receptor>
prm/pocket_docking_5.prm

>  <SCORE>
-7.83526

>  <SCORE.INTER>
1.49467

>  <SCORE.INTER.CONST>
1

>  <SCORE.INTER.POLAR>
0

>  <SCORE.INTER.ROT>
11

>  <SCORE.INTER.SOLV>
6.23429

>  <SCORE.INTER.VDW>
-12.015

>  <SCORE.INTER.norm>
0.106762

>  <SCORE.INTRA>
-9.32992

>  <SCORE.INTRA.DIHEDRAL>
-20.6961

>  <SCORE.INTRA.DIHEDRAL.0>
24.1231

>  <SCORE.INTRA.POLAR>
0

>  <SCORE.INTRA.POLAR.0>
0

>  <SCORE.INTRA.REPUL>
0

>  <SCORE.INTRA.REPUL.0>
0

>  <SCORE.INTRA.SOLV>
0.734806

>  <SCORE.INTRA.SOLV.lig_0>
-48.2216

>  <SCORE.INTRA.VDW>
0.650727

>  <SCORE.INTRA.VDW.0>
-1.3967

>  <SCORE.INTRA.norm>
-0.666423

>  <SCORE.RESTR>
0

>  <SCORE.RESTR.CAVITY>
0

>  <SCORE.RESTR.norm>
0

>  <SCORE.SYSTEM>
0

>  <SCORE.SYSTEM.CONST>
0

>  <SCORE.SYSTEM.DIHEDRAL>
0

>  <SCORE.SYSTEM.SOLV>
0

>  <SCORE.SYSTEM.norm>
0

>  <SCORE.heavy>
14

>  <SCORE.norm>
-0.559661

>  <RMSD>
4.064

$$$$
ligand
 OpenBabel11021811463D
libRbt.so/2013.1/901 2013/11/27
 14 13  0  0  0  0  0  0  0  0999 V2000
   16.4591   15.4135   11.5674 N   0  0  0  0  0  0  0  0  0  0  0  0
   15.6968   14.6513   10.5694 C   0  0  0  0  0  0  0  0  0  0  0  0
   14.5026   15.4794   10.1062 C   0  0  0  0  0  0  0  0  0  0  0  0
   13.7109   14.6680    9.0938 C   0  0  0  0  0  0  0  0  0  0  0  0
   13.0729   13.5396    9.7812 N   0  0  0  0  0  0  0  0  0  0  0  0
   12.6103   12.6068    8.7387 C   0  0  0  0  0  0  0  0  0  0  0  0
   12.4347   11.1975    9.3158 C   0  0  0  0  0  0  0  0  0  0  0  0
   11.2660   11.2270   10.3121 C   0  0  0  0  0  0  0  0  0  0  0  0
   11.0798    9.8962   10.9130 C   0  0  0  0  0  0  0  0  0  0  0  0
   10.0070   10.0088   11.9220 N   0  0  0  0  0  0  0  0  0  0  0  0
    9.8674    8.6921   12.6944 C   0  0  0  0  0  0  0  0  0  0  0  0
   10.7778    8.7189   13.9281 C   0  0  0  0  0  0  0  0  0  0  0  0
   10.7108    7.4199   14.6249 C   0  0  0  0  0  0  0  0  0  0  0  0
   11.5834    7.4494   15.8183 N   0  0  0  0  0  0  0  0  0  0  0  0
  1  2  1  0  0  0  0
  2  3  1  0  0  0  0
  3  4  1  0  0  0  0
  4  5  1  0  0  0  0
  5  6  1  0  0  0  0
  6  7  1  0  0  0  0
  7  8  1  0  0  0  0
  8  9  1  0  0  0  0
  9 10  1  0  0  0  0
 10 11  1  0  0  0  0
 11 12  1  0  0  0  0
 12 13  1  0  0  0  0
 13 14  1  0  0  0  0
M  END
>  <CHROM.1>
-178.99174955,68.83397800,-166.07603565,158.06054570,67.34083996,-178.82510332
176.32628588,-173.82399262,90.23875890,-176.37791352,-179.69914056,12.41266761
11.49770716,11.38430271,-0.90184255,0.71077998,2.12313353

>  <Name>
ligand

>  <RI>
0

>  <Rbt.Current_Directory>
/home/itssahil/PROJECTS/Mol_Feturizer/New_Systems/rnas/2O3Y

>  <Rbt.Executable>
rbdock ($Id: //depot/dev/client3/rdock/2013.1/src/exe/rbdock.cxx#4 $)

>  <Rbt.Library>
libRbt.so (2013.1, Build901 2013/11/27)

>  <Rbt.Parameter_File>
/export/apps/rDock/src/rDock_2013.1_src/data/scripts/dock_solv.prm

>  <Rbt.Receptor>
prm/pocket_docking_4.prm

>  <SCORE>
-8.35764

>  <SCORE.INTER>
2.45931

>  <SCORE.INTER.CONST>
1

>  <SCORE.INTER.POLAR>
0

>  <SCORE.INTER.ROT>
11

>  <SCORE.INTER.SOLV>
4.6686

>  <SCORE.INTER.VDW>
-10.85

>  <SCORE.INTER.norm>
0.175665

>  <SCORE.INTRA>
-10.817

>  <SCORE.INTRA.DIHEDRAL>
-22.376

>  <SCORE.INTRA.DIHEDRAL.0>
24.1231

>  <SCORE.INTRA.POLAR>
0

>  <SCORE.INTRA.POLAR.0>
0

>  <SCORE.INTRA.REPUL>
0

>  <SCORE.INTRA.REPUL.0>
0

>  <SCORE.INTRA.SOLV>
-0.132485

>  <SCORE.INTRA.SOLV.lig_0>
-48.2216

>  <SCORE.INTRA.VDW>
0.43729

>  <SCORE.INTRA.VDW.0>
-1.3967

>  <SCORE.INTRA.norm>
-0.77264

>  <SCORE.RESTR>
0

>  <SCORE.RESTR.CAVITY>
0

>  <SCORE.RESTR.norm>
0

>  <SCORE.SYSTEM>
0

>  <SCORE.SYSTEM.CONST>
0

>  <SCORE.SYSTEM.DIHEDRAL>
0

>  <SCORE.SYSTEM.SOLV>
0

>  <SCORE.SYSTEM.norm>
0

>  <SCORE.heavy>
14

>  <SCORE.norm>
-0.596975

>  <RMSD>
4.071

$$$$
ligand
 OpenBabel11021811463D
libRbt.so/2013.1/901 2013/11/27
 14 13  0  0  0  0  0  0  0  0999 V2000
   13.0622   14.4450   10.5559 N   0  0  0  0  0  0  0  0  0  0  0  0
   13.5734   14.9063    9.2582 C   0  0  0  0  0  0  0  0  0  0  0  0
   12.8815   14.1339    8.1397 C   0  0  0  0  0  0  0  0  0  0  0  0
   13.4835   12.7403    8.0658 C   0  0  0  0  0  0  0  0  0  0  0  0
   13.2379   12.0468    9.3353 N   0  0  0  0  0  0  0  0  0  0  0  0
   13.0777   10.6165    9.0201 C   0  0  0  0  0  0  0  0  0  0  0  0
   12.2188    9.9230   10.0838 C   0  0  0  0  0  0  0  0  0  0  0  0
   10.8468   10.6127   10.1199 C   0  0  0  0  0  0  0  0  0  0  0  0
    9.9780    9.9592   11.1123 C   0  0  0  0  0  0  0  0  0  0  0  0
   10.5533   10.2185   12.4478 N   0  0  0  0  0  0  0  0  0  0  0  0
    9.8326    9.3762   13.5065 C   0  0  0  0  0  0  0  0  0  0  0  0
   10.4119    7.9563   13.5180 C   0  0  0  0  0  0  0  0  0  0  0  0
   11.7923    7.9858   14.0384 C   0  0  0  0  0  0  0  0  0  0  0  0
   11.7737    8.3081   15.4815 N   0  0  0  0  0  0  0  0  0  0  0  0
  1  2  1  0  0  0  0
  2  3  1  0  0  0  0
  3  4  1  0  0  0  0
  4  5  1  0  0  0  0
  5  6  1  0  0  0  0
  6  7  1  0  0  0  0
  7  8  1  0  0  0  0
  8  9  1  0  0  0  0
  9 10  1  0  0  0  0
 10 11  1  0  0  0  0
 11 12  1  0  0  0  0
 12 13  1  0  0  0  0
 13 14  1  0  0  0  0
M  END
>  <CHROM.1>
-76.20602060,61.80699250,147.46978129,-154.07974769,59.27841885,178.88195285
66.88211157,-170.65695479,81.89066189,68.78836617,69.32612354,11.90873250
10.94477257,11.04843045,-0.63385830,1.16549813,1.46448755

>  <Name>
ligand

>  <RI>
0

>  <Rbt.Current_Directory>
/home/itssahil/PROJECTS/Mol_Feturizer/New_Systems/rnas/2O3Y

>  <Rbt.Executable>
rbdock ($Id: //depot/dev/client3/rdock/2013.1/src/exe/rbdock.cxx#4 $)

>  <Rbt.Library>
libRbt.so (2013.1, Build901 2013/11/27)

>  <Rbt.Parameter_File>
/export/apps/rDock/src/rDock_2013.1_src/data/scripts/dock_solv.prm

>  <Rbt.Receptor>
prm/pocket_docking_5.prm

>  <SCORE>
-8.29909

>  <SCORE.INTER>
-1.47706

>  <SCORE.INTER.CONST>
1

>  <SCORE.INTER.POLAR>
0

>  <SCORE.INTER.ROT>
11

>  <SCORE.INTER.SOLV>
4.82917

>  <SCORE.INTER.VDW>
-13.5278

>  <SCORE.INTER.norm>
-0.105504

>  <SCORE.INTRA>
-6.82203

>  <SCORE.INTRA.DIHEDRAL>
-20.8059

>  <SCORE.INTRA.DIHEDRAL.0>
24.1231

>  <SCORE.INTRA.POLAR>
0

>  <SCORE.INTRA.POLAR.0>
0

>  <SCORE.INTRA.REPUL>
0

>  <SCORE.INTRA.REPUL.0>
0

>  <SCORE.INTRA.SOLV>
4.79927

>  <SCORE.INTRA.SOLV.lig_0>
-48.2216

>  <SCORE.INTRA.VDW>
1.1813

>  <SCORE.INTRA.VDW.0>
-1.3967

>  <SCORE.INTRA.norm>
-0.487288

>  <SCORE.RESTR>
0

>  <SCORE.RESTR.CAVITY>
0

>  <SCORE.RESTR.norm>
0

>  <SCORE.SYSTEM>
0

>  <SCORE.SYSTEM.CONST>
0

>  <SCORE.SYSTEM.DIHEDRAL>
0

>  <SCORE.SYSTEM.SOLV>
0

>  <SCORE.SYSTEM.norm>
0

>  <SCORE.heavy>
14

>  <SCORE.norm>
-0.592792

>  <RMSD>
4.072

$$$$
ligand
 OpenBabel11021811463D
libRbt.so/2013.1/901 2013/11/27
 14 13  0  0  0  0  0  0  0  0999 V2000
    8.8530    9.7775   15.5012 N   0  0  0  0  0  0  0  0  0  0  0  0
    9.1556    9.7177   14.0649 C   0  0  0  0  0  0  0  0  0  0  0  0
   10.2963    8.7329   13.8300 C   0  0  0  0  0  0  0  0  0  0  0  0
   10.5734    8.6559   12.3376 C   0  0  0  0  0  0  0  0  0  0  0  0
   11.0360    9.9675   11.8701 N   0  0  0  0  0  0  0  0  0  0  0  0
   10.3752   10.2213   10.5780 C   0  0  0  0  0  0  0  0  0  0  0  0
   10.7562   11.6054   10.0403 C   0  0  0  0  0  0  0  0  0  0  0  0
   12.2646   11.6109    9.7497 C   0  0  0  0  0  0  0  0  0  0  0  0
   12.6358   12.8375    9.0257 C   0  0  0  0  0  0  0  0  0  0  0  0
   14.1096   12.8725    8.9343 N   0  0  0  0  0  0  0  0  0  0  0  0
   14.5422   13.5249    7.6163 C   0  0  0  0  0  0  0  0  0  0  0  0
   16.0082   13.9638    7.7149 C   0  0  0  0  0  0  0  0  0  0  0  0
   16.5042   14.3476    6.3792 C   0  0  0  0  0  0  0  0  0  0  0  0
   16.7204   13.1351    5.5610 N   0  0  0  0  0  0  0  0  0  0  0  0
  1  2  1  0  0  0  0
  2  3  1  0  0  0  0
  3  4  1  0  0  0  0
  4  5  1  0  0  0  0
  5  6  1  0  0  0  0
  6  7  1  0  0  0  0
  7  8  1  0  0  0  0
  8  9  1  0  0  0  0
  9 10  1  0  0  0  0
 10 11  1  0  0  0  0
 11 12  1  0  0  0  0
 12 13  1  0  0  0  0
 13 14  1  0  0  0  0
M  END
>  <CHROM.1>
178.57315074,63.73774556,-138.34286862,177.58042016,64.39240426,170.63940674
172.60229089,146.31462434,161.99995951,169.04058931,-74.01107984,12.41637864
11.49791518,10.22871937,-3.00526334,-0.91126805,-2.40691530

>  <Name>
ligand

>  <RI>
0

>  <Rbt.Current_Directory>
/home/itssahil/PROJECTS/Mol_Feturizer/New_Systems/rnas/2O3Y

>  <Rbt.Executable>
rbdock ($Id: //depot/dev/client3/rdock/2013.1/src/exe/rbdock.cxx#4 $)

>  <Rbt.Library>
libRbt.so (2013.1, Build901 2013/11/27)

>  <Rbt.Parameter_File>
/export/apps/rDock/src/rDock_2013.1_src/data/scripts/dock_solv.prm

>  <Rbt.Receptor>
prm/pocket_docking_6.prm

>  <SCORE>
-8.79342

>  <SCORE.INTER>
0.55958

>  <SCORE.INTER.CONST>
1

>  <SCORE.INTER.POLAR>
0

>  <SCORE.INTER.ROT>
11

>  <SCORE.INTER.SOLV>
5.64772

>  <SCORE.INTER.VDW>
-12.4429

>  <SCORE.INTER.norm>
0.03997

>  <SCORE.INTRA>
-9.353

>  <SCORE.INTRA.DIHEDRAL>
-20.3622

>  <SCORE.INTRA.DIHEDRAL.0>
24.1231

>  <SCORE.INTRA.POLAR>
0

>  <SCORE.INTRA.POLAR.0>
0

>  <SCORE.INTRA.REPUL>
0

>  <SCORE.INTRA.REPUL.0>
0

>  <SCORE.INTRA.SOLV>
0.696315

>  <SCORE.INTRA.SOLV.lig_0>
-48.2216

>  <SCORE.INTRA.VDW>
0.479931

>  <SCORE.INTRA.VDW.0>
-1.3967

>  <SCORE.INTRA.norm>
-0.668071

>  <SCORE.RESTR>
0

>  <SCORE.RESTR.CAVITY>
0

>  <SCORE.RESTR.norm>
0

>  <SCORE.SYSTEM>
0

>  <SCORE.SYSTEM.CONST>
0

>  <SCORE.SYSTEM.DIHEDRAL>
0

>  <SCORE.SYSTEM.SOLV>
0

>  <SCORE.SYSTEM.norm>
0

>  <SCORE.heavy>
14

>  <SCORE.norm>
-0.628101

>  <RMSD>
4.075

$$$$
ligand
 OpenBabel11021811463D
libRbt.so/2013.1/901 2013/11/27
 14 13  0  0  0  0  0  0  0  0999 V2000
   11.3376   11.3938   10.9741 N   0  0  0  0  0  0  0  0  0  0  0  0
   11.4339   10.1510   10.1967 C   0  0  0  0  0  0  0  0  0  0  0  0
   12.5976    9.3163   10.7215 C   0  0  0  0  0  0  0  0  0  0  0  0
   12.2739    8.8649   12.1362 C   0  0  0  0  0  0  0  0  0  0  0  0
   13.4377    8.1649   12.6915 N   0  0  0  0  0  0  0  0  0  0  0  0
   13.1400    7.8923   14.1085 C   0  0  0  0  0  0  0  0  0  0  0  0
   14.2505    8.4456   15.0088 C   0  0  0  0  0  0  0  0  0  0  0  0
   14.2408    9.9777   14.8995 C   0  0  0  0  0  0  0  0  0  0  0  0
   13.0736   10.5279   15.6079 C   0  0  0  0  0  0  0  0  0  0  0  0
   13.0563   11.9861   15.3730 N   0  0  0  0  0  0  0  0  0  0  0  0
   11.9511   12.6429   16.2079 C   0  0  0  0  0  0  0  0  0  0  0  0
   11.7426   14.0888   15.7414 C   0  0  0  0  0  0  0  0  0  0  0  0
   10.7142   14.7383   16.5768 C   0  0  0  0  0  0  0  0  0  0  0  0
   10.4474   16.1010   16.0685 N   0  0  0  0  0  0  0  0  0  0  0  0
  1  2  1  0  0  0  0
  2  3  1  0  0  0  0
  3  4  1  0  0  0  0
  4  5  1  0  0  0  0
  5  6  1  0  0  0  0
  6  7  1  0  0  0  0
  7  8  1  0  0  0  0
  8  9  1  0  0  0  0
  9 10  1  0  0  0  0
 10 11  1  0  0  0  0
 11 12  1  0  0  0  0
 12 13  1  0  0  0  0
 13 14  1  0  0  0  0
M  END
>  <CHROM.1>
66.16232358,-174.93476335,173.28537765,-125.66591896,65.97210169,72.73151217
-175.34630693,-173.90235527,-168.03288823,-177.91478792,-176.15725685,12.40708361
11.02046870,14.02239853,1.13299190,1.00156736,-2.16038029

>  <Name>
ligand

>  <RI>
0

>  <Rbt.Current_Directory>
/home/itssahil/PROJECTS/Mol_Feturizer/New_Systems/rnas/2O3Y

>  <Rbt.Executable>
rbdock ($Id: //depot/dev/client3/rdock/2013.1/src/exe/rbdock.cxx#4 $)

>  <Rbt.Library>
libRbt.so (2013.1, Build901 2013/11/27)

>  <Rbt.Parameter_File>
/export/apps/rDock/src/rDock_2013.1_src/data/scripts/dock_solv.prm

>  <Rbt.Receptor>
prm/pocket_docking_3.prm

>  <SCORE>
-3.41972

>  <SCORE.INTER>
6.11796

>  <SCORE.INTER.CONST>
1

>  <SCORE.INTER.POLAR>
0

>  <SCORE.INTER.ROT>
11

>  <SCORE.INTER.SOLV>
5.93357

>  <SCORE.INTER.VDW>
-8.83255

>  <SCORE.INTER.norm>
0.436997

>  <SCORE.INTRA>
-9.53767

>  <SCORE.INTRA.DIHEDRAL>
-21.5868

>  <SCORE.INTRA.DIHEDRAL.0>
24.1231

>  <SCORE.INTRA.POLAR>
0

>  <SCORE.INTRA.POLAR.0>
0

>  <SCORE.INTRA.REPUL>
0

>  <SCORE.INTRA.REPUL.0>
0

>  <SCORE.INTRA.SOLV>
0.72912

>  <SCORE.INTRA.SOLV.lig_0>
-48.2216

>  <SCORE.INTRA.VDW>
0.891167

>  <SCORE.INTRA.VDW.0>
-1.3967

>  <SCORE.INTRA.norm>
-0.681262

>  <SCORE.RESTR>
0

>  <SCORE.RESTR.CAVITY>
0

>  <SCORE.RESTR.norm>
0

>  <SCORE.SYSTEM>
0

>  <SCORE.SYSTEM.CONST>
0

>  <SCORE.SYSTEM.DIHEDRAL>
0

>  <SCORE.SYSTEM.SOLV>
0

>  <SCORE.SYSTEM.norm>
0

>  <SCORE.heavy>
14

>  <SCORE.norm>
-0.244265

>  <RMSD>
4.086

$$$$
ligand
 OpenBabel11021811463D
libRbt.so/2013.1/901 2013/11/27
 14 13  0  0  0  0  0  0  0  0999 V2000
   16.6272   14.8368    8.5353 N   0  0  0  0  0  0  0  0  0  0  0  0
   16.8122   14.0579    7.3035 C   0  0  0  0  0  0  0  0  0  0  0  0
   15.5054   13.3556    6.9494 C   0  0  0  0  0  0  0  0  0  0  0  0
   15.1820   12.3494    8.0416 C   0  0  0  0  0  0  0  0  0  0  0  0
   13.9600   11.6244    7.6755 N   0  0  0  0  0  0  0  0  0  0  0  0
   13.3204   11.1972    8.9321 C   0  0  0  0  0  0  0  0  0  0  0  0
   12.1823   12.1523    9.3095 C   0  0  0  0  0  0  0  0  0  0  0  0
   11.4790   11.5948   10.5562 C   0  0  0  0  0  0  0  0  0  0  0  0
   10.6211   10.4571   10.1868 C   0  0  0  0  0  0  0  0  0  0  0  0
    9.9617    9.9777   11.4185 N   0  0  0  0  0  0  0  0  0  0  0  0
   10.8597    8.9662   12.1396 C   0  0  0  0  0  0  0  0  0  0  0  0
   10.2440    8.6056   13.4970 C   0  0  0  0  0  0  0  0  0  0  0  0
   11.1634    7.7248   14.2428 C   0  0  0  0  0  0  0  0  0  0  0  0
   10.6223    7.4710   15.5953 N   0  0  0  0  0  0  0  0  0  0  0  0
  1  2  1  0  0  0  0
  2  3  1  0  0  0  0
  3  4  1  0  0  0  0
  4  5  1  0  0  0  0
  5  6  1  0  0  0  0
  6  7  1  0  0  0  0
  7  8  1  0  0  0  0
  8  9  1  0  0  0  0
  9 10  1  0  0  0  0
 10 11  1  0  0  0  0
 11 12  1  0  0  0  0
 12 13  1  0  0  0  0
 13 14  1  0  0  0  0
M  END
>  <CHROM.1>
-64.53638845,-177.30130377,-152.51312435,99.40866938,175.30541501,-75.82330008
-179.28094262,-86.56888071,173.16741940,-175.06247973,175.21815723,12.75290006
11.02649767,10.31287362,-0.95530909,0.29783670,2.06972862

>  <Name>
ligand

>  <RI>
0

>  <Rbt.Current_Directory>
/home/itssahil/PROJECTS/Mol_Feturizer/New_Systems/rnas/2O3Y

>  <Rbt.Executable>
rbdock ($Id: //depot/dev/client3/rdock/2013.1/src/exe/rbdock.cxx#4 $)

>  <Rbt.Library>
libRbt.so (2013.1, Build901 2013/11/27)

>  <Rbt.Parameter_File>
/export/apps/rDock/src/rDock_2013.1_src/data/scripts/dock_solv.prm

>  <Rbt.Receptor>
prm/pocket_docking_4.prm

>  <SCORE>
-6.3153

>  <SCORE.INTER>
2.54811

>  <SCORE.INTER.CONST>
1

>  <SCORE.INTER.POLAR>
0

>  <SCORE.INTER.ROT>
11

>  <SCORE.INTER.SOLV>
7.10615

>  <SCORE.INTER.VDW>
-11.6033

>  <SCORE.INTER.norm>
0.182008

>  <SCORE.INTRA>
-8.86341

>  <SCORE.INTRA.DIHEDRAL>
-20.8281

>  <SCORE.INTRA.DIHEDRAL.0>
24.1231

>  <SCORE.INTRA.POLAR>
0

>  <SCORE.INTRA.POLAR.0>
0

>  <SCORE.INTRA.REPUL>
0

>  <SCORE.INTRA.REPUL.0>
0

>  <SCORE.INTRA.SOLV>
0.120583

>  <SCORE.INTRA.SOLV.lig_0>
-48.2216

>  <SCORE.INTRA.VDW>
1.49034

>  <SCORE.INTRA.VDW.0>
-1.3967

>  <SCORE.INTRA.norm>
-0.6331

>  <SCORE.RESTR>
0

>  <SCORE.RESTR.CAVITY>
0

>  <SCORE.RESTR.norm>
0

>  <SCORE.SYSTEM>
0

>  <SCORE.SYSTEM.CONST>
0

>  <SCORE.SYSTEM.DIHEDRAL>
0

>  <SCORE.SYSTEM.SOLV>
0

>  <SCORE.SYSTEM.norm>
0

>  <SCORE.heavy>
14

>  <SCORE.norm>
-0.451093

>  <RMSD>
4.092

$$$$
ligand
 OpenBabel11021811463D
libRbt.so/2013.1/901 2013/11/27
 14 13  0  0  0  0  0  0  0  0999 V2000
   11.6425    8.3712   16.3223 N   0  0  0  0  0  0  0  0  0  0  0  0
   11.0250    8.7142   15.0342 C   0  0  0  0  0  0  0  0  0  0  0  0
   10.6465    7.4327   14.2988 C   0  0  0  0  0  0  0  0  0  0  0  0
   10.0794    7.8018   12.9379 C   0  0  0  0  0  0  0  0  0  0  0  0
   11.1580    8.3410   12.1020 N   0  0  0  0  0  0  0  0  0  0  0  0
   10.6779    9.6212   11.5532 C   0  0  0  0  0  0  0  0  0  0  0  0
   11.8275   10.3882   10.8897 C   0  0  0  0  0  0  0  0  0  0  0  0
   11.3062   11.7717   10.4727 C   0  0  0  0  0  0  0  0  0  0  0  0
   12.4063   12.5835    9.9275 C   0  0  0  0  0  0  0  0  0  0  0  0
   12.7140   12.0683    8.5778 N   0  0  0  0  0  0  0  0  0  0  0  0
   13.5363   13.0975    7.7939 C   0  0  0  0  0  0  0  0  0  0  0  0
   14.9925   12.6271    7.6952 C   0  0  0  0  0  0  0  0  0  0  0  0
   15.8110   13.6722    7.0507 C   0  0  0  0  0  0  0  0  0  0  0  0
   17.2150   13.2177    6.9567 N   0  0  0  0  0  0  0  0  0  0  0  0
  1  2  1  0  0  0  0
  2  3  1  0  0  0  0
  3  4  1  0  0  0  0
  4  5  1  0  0  0  0
  5  6  1  0  0  0  0
  6  7  1  0  0  0  0
  7  8  1  0  0  0  0
  8  9  1  0  0  0  0
  9 10  1  0  0  0  0
 10 11  1  0  0  0  0
 11 12  1  0  0  0  0
 12 13  1  0  0  0  0
 13 14  1  0  0  0  0
M  END
>  <CHROM.1>
-176.95015879,69.03078284,-129.16659813,169.04476588,-173.98837944,175.49559355
74.41594440,163.16779167,106.26777553,-174.81012357,179.97467202,12.50243641
10.69351813,10.82940481,-2.05606410,-0.18493698,-1.03709574

>  <Name>
ligand

>  <RI>
0

>  <Rbt.Current_Directory>
/home/itssahil/PROJECTS/Mol_Feturizer/New_Systems/rnas/2O3Y

>  <Rbt.Executable>
rbdock ($Id: //depot/dev/client3/rdock/2013.1/src/exe/rbdock.cxx#4 $)

>  <Rbt.Library>
libRbt.so (2013.1, Build901 2013/11/27)

>  <Rbt.Parameter_File>
/export/apps/rDock/src/rDock_2013.1_src/data/scripts/dock_solv.prm

>  <Rbt.Receptor>
prm/pocket_docking_4.prm

>  <SCORE>
-7.47756

>  <SCORE.INTER>
2.41448

>  <SCORE.INTER.CONST>
1

>  <SCORE.INTER.POLAR>
0

>  <SCORE.INTER.ROT>
11

>  <SCORE.INTER.SOLV>
5.46396

>  <SCORE.INTER.VDW>
-11.145

>  <SCORE.INTER.norm>
0.172463

>  <SCORE.INTRA>
-9.89204

>  <SCORE.INTRA.DIHEDRAL>
-20.2159

>  <SCORE.INTRA.DIHEDRAL.0>
24.1231

>  <SCORE.INTRA.POLAR>
0

>  <SCORE.INTRA.POLAR.0>
0

>  <SCORE.INTRA.REPUL>
0

>  <SCORE.INTRA.REPUL.0>
0

>  <SCORE.INTRA.SOLV>
-0.114669

>  <SCORE.INTRA.SOLV.lig_0>
-48.2216

>  <SCORE.INTRA.VDW>
0.273238

>  <SCORE.INTRA.VDW.0>
-1.3967

>  <SCORE.INTRA.norm>
-0.706574

>  <SCORE.RESTR>
0

>  <SCORE.RESTR.CAVITY>
0

>  <SCORE.RESTR.norm>
0

>  <SCORE.SYSTEM>
0

>  <SCORE.SYSTEM.CONST>
0

>  <SCORE.SYSTEM.DIHEDRAL>
0

>  <SCORE.SYSTEM.SOLV>
0

>  <SCORE.SYSTEM.norm>
0

>  <SCORE.heavy>
14

>  <SCORE.norm>
-0.534111

>  <RMSD>
4.102

$$$$
ligand
 OpenBabel11021811463D
libRbt.so/2013.1/901 2013/11/27
 14 13  0  0  0  0  0  0  0  0999 V2000
   13.0271    7.5893   15.3323 N   0  0  0  0  0  0  0  0  0  0  0  0
   12.4587    7.9160   14.0177 C   0  0  0  0  0  0  0  0  0  0  0  0
   10.9371    7.9443   14.1186 C   0  0  0  0  0  0  0  0  0  0  0  0
   10.3639    8.2561   12.7459 C   0  0  0  0  0  0  0  0  0  0  0  0
   10.7864    9.6036   12.3476 N   0  0  0  0  0  0  0  0  0  0  0  0
   10.0212    9.9545   11.1384 C   0  0  0  0  0  0  0  0  0  0  0  0
   10.9552   10.4845   10.0444 C   0  0  0  0  0  0  0  0  0  0  0  0
   11.5093   11.8426   10.5003 C   0  0  0  0  0  0  0  0  0  0  0  0
   12.4180   12.3871    9.4783 C   0  0  0  0  0  0  0  0  0  0  0  0
   12.8516   13.7236    9.9338 N   0  0  0  0  0  0  0  0  0  0  0  0
   14.1700   14.1116    9.2547 C   0  0  0  0  0  0  0  0  0  0  0  0
   14.8942   15.1668   10.0995 C   0  0  0  0  0  0  0  0  0  0  0  0
   16.1842   15.5092    9.4701 C   0  0  0  0  0  0  0  0  0  0  0  0
   17.0970   14.3480    9.5419 N   0  0  0  0  0  0  0  0  0  0  0  0
  1  2  1  0  0  0  0
  2  3  1  0  0  0  0
  3  4  1  0  0  0  0
  4  5  1  0  0  0  0
  5  6  1  0  0  0  0
  6  7  1  0  0  0  0
  7  8  1  0  0  0  0
  8  9  1  0  0  0  0
  9 10  1  0  0  0  0
 10 11  1  0  0  0  0
 11 12  1  0  0  0  0
 12 13  1  0  0  0  0
 13 14  1  0  0  0  0
M  END
>  <CHROM.1>
-178.89175727,-64.03372993,-170.10891734,-130.70809924,-68.16109739,179.79009321
176.61743006,157.71165599,-157.24097261,178.16138338,-67.74398482,12.69069813
11.34552446,11.28718307,-2.09243762,-0.38496608,-0.77025817

>  <Name>
ligand

>  <RI>
0

>  <Rbt.Current_Directory>
/home/itssahil/PROJECTS/Mol_Feturizer/New_Systems/rnas/2O3Y

>  <Rbt.Executable>
rbdock ($Id: //depot/dev/client3/rdock/2013.1/src/exe/rbdock.cxx#4 $)

>  <Rbt.Library>
libRbt.so (2013.1, Build901 2013/11/27)

>  <Rbt.Parameter_File>
/export/apps/rDock/src/rDock_2013.1_src/data/scripts/dock_solv.prm

>  <Rbt.Receptor>
prm/pocket_docking_4.prm

>  <SCORE>
-7.39235

>  <SCORE.INTER>
2.53269

>  <SCORE.INTER.CONST>
1

>  <SCORE.INTER.POLAR>
0

>  <SCORE.INTER.ROT>
11

>  <SCORE.INTER.SOLV>
3.96195

>  <SCORE.INTER.VDW>
-10.5655

>  <SCORE.INTER.norm>
0.180906

>  <SCORE.INTRA>
-9.92504

>  <SCORE.INTRA.DIHEDRAL>
-21.6

>  <SCORE.INTRA.DIHEDRAL.0>
24.1231

>  <SCORE.INTRA.POLAR>
0

>  <SCORE.INTRA.POLAR.0>
0

>  <SCORE.INTRA.REPUL>
0

>  <SCORE.INTRA.REPUL.0>
0

>  <SCORE.INTRA.SOLV>
0.698797

>  <SCORE.INTRA.SOLV.lig_0>
-48.2216

>  <SCORE.INTRA.VDW>
0.52557

>  <SCORE.INTRA.VDW.0>
-1.3967

>  <SCORE.INTRA.norm>
-0.708931

>  <SCORE.RESTR>
0

>  <SCORE.RESTR.CAVITY>
0

>  <SCORE.RESTR.norm>
0

>  <SCORE.SYSTEM>
0

>  <SCORE.SYSTEM.CONST>
0

>  <SCORE.SYSTEM.DIHEDRAL>
0

>  <SCORE.SYSTEM.SOLV>
0

>  <SCORE.SYSTEM.norm>
0

>  <SCORE.heavy>
14

>  <SCORE.norm>
-0.528025

>  <RMSD>
4.112

$$$$
ligand
 OpenBabel11021811463D
libRbt.so/2013.1/901 2013/11/27
 14 13  0  0  0  0  0  0  0  0999 V2000
   11.3911    7.7933   15.8990 N   0  0  0  0  0  0  0  0  0  0  0  0
   10.9942    7.6502   14.4919 C   0  0  0  0  0  0  0  0  0  0  0  0
   10.0051    8.7539   14.1317 C   0  0  0  0  0  0  0  0  0  0  0  0
    9.5944    8.5843   12.6783 C   0  0  0  0  0  0  0  0  0  0  0  0
   10.7636    8.8148   11.8223 N   0  0  0  0  0  0  0  0  0  0  0  0
   10.4935   10.0369   11.0450 C   0  0  0  0  0  0  0  0  0  0  0  0
   11.7745   10.5411   10.3707 C   0  0  0  0  0  0  0  0  0  0  0  0
   11.4711   11.8947    9.7110 C   0  0  0  0  0  0  0  0  0  0  0  0
   12.7142   12.5028    9.2093 C   0  0  0  0  0  0  0  0  0  0  0  0
   13.2145   11.6524    8.1102 N   0  0  0  0  0  0  0  0  0  0  0  0
   14.4687   12.2765    7.4878 C   0  0  0  0  0  0  0  0  0  0  0  0
   15.6632   11.3342    7.6796 C   0  0  0  0  0  0  0  0  0  0  0  0
   16.9008   12.0012    7.2312 C   0  0  0  0  0  0  0  0  0  0  0  0
   18.0556   11.1021    7.4424 N   0  0  0  0  0  0  0  0  0  0  0  0
  1  2  1  0  0  0  0
  2  3  1  0  0  0  0
  3  4  1  0  0  0  0
  4  5  1  0  0  0  0
  5  6  1  0  0  0  0
  6  7  1  0  0  0  0
  7  8  1  0  0  0  0
  8  9  1  0  0  0  0
  9 10  1  0  0  0  0
 10 11  1  0  0  0  0
 11 12  1  0  0  0  0
 12 13  1  0  0  0  0
 13 14  1  0  0  0  0
M  END
>  <CHROM.1>
-179.46628625,-65.64736172,-113.90895580,166.75096449,-173.65972746,172.32582708
66.39936143,176.73198097,117.53295151,-173.09041915,178.84715317,12.67861533
10.35294443,10.52205669,-2.21909847,0.17554870,-0.94523929

>  <Name>
ligand

>  <RI>
0

>  <Rbt.Current_Directory>
/home/itssahil/PROJECTS/Mol_Feturizer/New_Systems/rnas/2O3Y

>  <Rbt.Executable>
rbdock ($Id: //depot/dev/client3/rdock/2013.1/src/exe/rbdock.cxx#4 $)

>  <Rbt.Library>
libRbt.so (2013.1, Build901 2013/11/27)

>  <Rbt.Parameter_File>
/export/apps/rDock/src/rDock_2013.1_src/data/scripts/dock_solv.prm

>  <Rbt.Receptor>
prm/pocket_docking_4.prm

>  <SCORE>
-6.75313

>  <SCORE.INTER>
3.11394

>  <SCORE.INTER.CONST>
1

>  <SCORE.INTER.POLAR>
0

>  <SCORE.INTER.ROT>
11

>  <SCORE.INTER.SOLV>
6.00197

>  <SCORE.INTER.VDW>
-10.858

>  <SCORE.INTER.norm>
0.222424

>  <SCORE.INTRA>
-9.86707

>  <SCORE.INTRA.DIHEDRAL>
-20.7585

>  <SCORE.INTRA.DIHEDRAL.0>
24.1231

>  <SCORE.INTRA.POLAR>
0

>  <SCORE.INTRA.POLAR.0>
0

>  <SCORE.INTRA.REPUL>
0

>  <SCORE.INTRA.REPUL.0>
0

>  <SCORE.INTRA.SOLV>
-0.0671942

>  <SCORE.INTRA.SOLV.lig_0>
-48.2216

>  <SCORE.INTRA.VDW>
0.545762

>  <SCORE.INTRA.VDW.0>
-1.3967

>  <SCORE.INTRA.norm>
-0.70479

>  <SCORE.RESTR>
0

>  <SCORE.RESTR.CAVITY>
0

>  <SCORE.RESTR.norm>
0

>  <SCORE.SYSTEM>
0

>  <SCORE.SYSTEM.CONST>
0

>  <SCORE.SYSTEM.DIHEDRAL>
0

>  <SCORE.SYSTEM.SOLV>
0

>  <SCORE.SYSTEM.norm>
0

>  <SCORE.heavy>
14

>  <SCORE.norm>
-0.482367

>  <RMSD>
4.122

$$$$
ligand
 OpenBabel11021811463D
libRbt.so/2013.1/901 2013/11/27
 14 13  0  0  0  0  0  0  0  0999 V2000
   17.5300   14.0168    5.4866 N   0  0  0  0  0  0  0  0  0  0  0  0
   16.2189   14.2771    6.0960 C   0  0  0  0  0  0  0  0  0  0  0  0
   15.7957   13.0653    6.9197 C   0  0  0  0  0  0  0  0  0  0  0  0
   14.4872   13.3874    7.6227 C   0  0  0  0  0  0  0  0  0  0  0  0
   14.0736   12.2249    8.4167 N   0  0  0  0  0  0  0  0  0  0  0  0
   12.7050   12.4933    8.8917 C   0  0  0  0  0  0  0  0  0  0  0  0
   12.1420   11.2737    9.6303 C   0  0  0  0  0  0  0  0  0  0  0  0
   10.6649   11.5454    9.9528 C   0  0  0  0  0  0  0  0  0  0  0  0
   10.0431   10.3418   10.5285 C   0  0  0  0  0  0  0  0  0  0  0  0
   10.5689   10.1809   11.8995 N   0  0  0  0  0  0  0  0  0  0  0  0
   10.1570    8.8178   12.4670 C   0  0  0  0  0  0  0  0  0  0  0  0
   10.1058    8.8906   13.9979 C   0  0  0  0  0  0  0  0  0  0  0  0
    9.0263    9.8051   14.4173 C   0  0  0  0  0  0  0  0  0  0  0  0
    8.9709    9.8660   15.8937 N   0  0  0  0  0  0  0  0  0  0  0  0
  1  2  1  0  0  0  0
  2  3  1  0  0  0  0
  3  4  1  0  0  0  0
  4  5  1  0  0  0  0
  5  6  1  0  0  0  0
  6  7  1  0  0  0  0
  7  8  1  0  0  0  0
  8  9  1  0  0  0  0
  9 10  1  0  0  0  0
 10 11  1  0  0  0  0
 11 12  1  0  0  0  0
 12 13  1  0  0  0  0
 13 14  1  0  0  0  0
M  END
>  <CHROM.1>
175.99956400,179.96602275,-170.66756619,174.98295562,-173.30404890,173.70940293
72.41941013,-170.01685797,-153.85844001,65.84083529,179.54398968,12.32047622
11.44179882,10.15848998,-0.86417588,0.35617992,1.78824909

>  <Name>
ligand

>  <RI>
0

>  <Rbt.Current_Directory>
/home/itssahil/PROJECTS/Mol_Feturizer/New_Systems/rnas/2O3Y

>  <Rbt.Executable>
rbdock ($Id: //depot/dev/client3/rdock/2013.1/src/exe/rbdock.cxx#4 $)

>  <Rbt.Library>
libRbt.so (2013.1, Build901 2013/11/27)

>  <Rbt.Parameter_File>
/export/apps/rDock/src/rDock_2013.1_src/data/scripts/dock_solv.prm

>  <Rbt.Receptor>
prm/pocket_docking_7.prm

>  <SCORE>
-11.846

>  <SCORE.INTER>
-0.809465

>  <SCORE.INTER.CONST>
1

>  <SCORE.INTER.POLAR>
0

>  <SCORE.INTER.ROT>
11

>  <SCORE.INTER.SOLV>
5.70357

>  <SCORE.INTER.VDW>
-13.3742

>  <SCORE.INTER.norm>
-0.0578189

>  <SCORE.INTRA>
-11.0365

>  <SCORE.INTRA.DIHEDRAL>
-22.3877

>  <SCORE.INTRA.DIHEDRAL.0>
24.1231

>  <SCORE.INTRA.POLAR>
0

>  <SCORE.INTRA.POLAR.0>
0

>  <SCORE.INTRA.REPUL>
0

>  <SCORE.INTRA.REPUL.0>
0

>  <SCORE.INTRA.SOLV>
-0.186579

>  <SCORE.INTRA.SOLV.lig_0>
-48.2216

>  <SCORE.INTRA.VDW>
0.250629

>  <SCORE.INTRA.VDW.0>
-1.3967

>  <SCORE.INTRA.norm>
-0.788323

>  <SCORE.RESTR>
0

>  <SCORE.RESTR.CAVITY>
0

>  <SCORE.RESTR.norm>
0

>  <SCORE.SYSTEM>
0

>  <SCORE.SYSTEM.CONST>
0

>  <SCORE.SYSTEM.DIHEDRAL>
0

>  <SCORE.SYSTEM.SOLV>
0

>  <SCORE.SYSTEM.norm>
0

>  <SCORE.heavy>
14

>  <SCORE.norm>
-0.846142

>  <RMSD>
4.126

$$$$
ligand
 OpenBabel11021811463D
libRbt.so/2013.1/901 2013/11/27
 14 13  0  0  0  0  0  0  0  0999 V2000
   16.2300   13.1106    8.1943 N   0  0  0  0  0  0  0  0  0  0  0  0
   15.2444   13.4648    7.1641 C   0  0  0  0  0  0  0  0  0  0  0  0
   13.8839   13.6787    7.8195 C   0  0  0  0  0  0  0  0  0  0  0  0
   13.3917   12.3481    8.3648 C   0  0  0  0  0  0  0  0  0  0  0  0
   12.0970   12.5526    9.0244 N   0  0  0  0  0  0  0  0  0  0  0  0
   11.7880   11.3134    9.7590 C   0  0  0  0  0  0  0  0  0  0  0  0
   10.3531   11.3494   10.2972 C   0  0  0  0  0  0  0  0  0  0  0  0
   10.0795   10.0264   11.0283 C   0  0  0  0  0  0  0  0  0  0  0  0
   10.7500   10.0246   12.3387 C   0  0  0  0  0  0  0  0  0  0  0  0
   10.3501    8.7890   13.0423 N   0  0  0  0  0  0  0  0  0  0  0  0
   11.5112    8.2678   13.8968 C   0  0  0  0  0  0  0  0  0  0  0  0
   11.0167    7.1331   14.8020 C   0  0  0  0  0  0  0  0  0  0  0  0
   10.1109    7.6767   15.8323 C   0  0  0  0  0  0  0  0  0  0  0  0
   10.8671    8.5632   16.7427 N   0  0  0  0  0  0  0  0  0  0  0  0
  1  2  1  0  0  0  0
  2  3  1  0  0  0  0
  3  4  1  0  0  0  0
  4  5  1  0  0  0  0
  5  6  1  0  0  0  0
  6  7  1  0  0  0  0
  7  8  1  0  0  0  0
  8  9  1  0  0  0  0
  9 10  1  0  0  0  0
 10 11  1  0  0  0  0
 11 12  1  0  0  0  0
 12 13  1  0  0  0  0
 13 14  1  0  0  0  0
M  END
>  <CHROM.1>
-66.85198921,178.70149807,-169.11754234,-171.00527953,178.95960456,75.60798330
174.85002703,145.50923003,170.37210529,-69.21749213,-66.12048228,11.97652247
10.59268238,11.30741263,-1.16359086,0.13526174,2.12998271

>  <Name>
ligand

>  <RI>
0

>  <Rbt.Current_Directory>
/home/itssahil/PROJECTS/Mol_Feturizer/New_Systems/rnas/2O3Y

>  <Rbt.Executable>
rbdock ($Id: //depot/dev/client3/rdock/2013.1/src/exe/rbdock.cxx#4 $)

>  <Rbt.Library>
libRbt.so (2013.1, Build901 2013/11/27)

>  <Rbt.Parameter_File>
/export/apps/rDock/src/rDock_2013.1_src/data/scripts/dock_solv.prm

>  <Rbt.Receptor>
prm/pocket_docking_5.prm

>  <SCORE>
-8.02895

>  <SCORE.INTER>
0.621728

>  <SCORE.INTER.CONST>
1

>  <SCORE.INTER.POLAR>
0

>  <SCORE.INTER.ROT>
11

>  <SCORE.INTER.SOLV>
5.0815

>  <SCORE.INTER.VDW>
-12.2127

>  <SCORE.INTER.norm>
0.0444092

>  <SCORE.INTRA>
-8.65068

>  <SCORE.INTRA.DIHEDRAL>
-21.4406

>  <SCORE.INTRA.DIHEDRAL.0>
24.1231

>  <SCORE.INTRA.POLAR>
0

>  <SCORE.INTRA.POLAR.0>
0

>  <SCORE.INTRA.REPUL>
0

>  <SCORE.INTRA.REPUL.0>
0

>  <SCORE.INTRA.SOLV>
1.82939

>  <SCORE.INTRA.SOLV.lig_0>
-48.2216

>  <SCORE.INTRA.VDW>
1.15495

>  <SCORE.INTRA.VDW.0>
-1.3967

>  <SCORE.INTRA.norm>
-0.617906

>  <SCORE.RESTR>
0

>  <SCORE.RESTR.CAVITY>
0

>  <SCORE.RESTR.norm>
0

>  <SCORE.SYSTEM>
0

>  <SCORE.SYSTEM.CONST>
0

>  <SCORE.SYSTEM.DIHEDRAL>
0

>  <SCORE.SYSTEM.SOLV>
0

>  <SCORE.SYSTEM.norm>
0

>  <SCORE.heavy>
14

>  <SCORE.norm>
-0.573496

>  <RMSD>
4.129

$$$$
ligand
 OpenBabel11021811463D
libRbt.so/2013.1/901 2013/11/27
 14 13  0  0  0  0  0  0  0  0999 V2000
   13.0041    7.2432   15.6496 N   0  0  0  0  0  0  0  0  0  0  0  0
   11.9650    7.3357   14.6152 C   0  0  0  0  0  0  0  0  0  0  0  0
   11.9489    8.7485   14.0409 C   0  0  0  0  0  0  0  0  0  0  0  0
   10.8963    8.8172   12.9466 C   0  0  0  0  0  0  0  0  0  0  0  0
   10.8615   10.1797   12.4032 N   0  0  0  0  0  0  0  0  0  0  0  0
   10.1670   10.1079   11.1059 C   0  0  0  0  0  0  0  0  0  0  0  0
   10.6590   11.2169   10.1689 C   0  0  0  0  0  0  0  0  0  0  0  0
   12.1281   10.9357    9.8193 C   0  0  0  0  0  0  0  0  0  0  0  0
   12.6640   12.0182    8.9780 C   0  0  0  0  0  0  0  0  0  0  0  0
   12.8393   13.2061    9.8382 N   0  0  0  0  0  0  0  0  0  0  0  0
   13.1586   14.4366    8.9816 C   0  0  0  0  0  0  0  0  0  0  0  0
   13.9192   15.4680    9.8237 C   0  0  0  0  0  0  0  0  0  0  0  0
   15.2668   14.9567   10.1398 C   0  0  0  0  0  0  0  0  0  0  0  0
   15.9920   15.9433   10.9687 N   0  0  0  0  0  0  0  0  0  0  0  0
  1  2  1  0  0  0  0
  2  3  1  0  0  0  0
  3  4  1  0  0  0  0
  4  5  1  0  0  0  0
  5  6  1  0  0  0  0
  6  7  1  0  0  0  0
  7  8  1  0  0  0  0
  8  9  1  0  0  0  0
  9 10  1  0  0  0  0
 10 11  1  0  0  0  0
 11 12  1  0  0  0  0
 12 13  1  0  0  0  0
 13 14  1  0  0  0  0
M  END
>  <CHROM.1>
178.44395145,179.16325361,162.65081933,-151.63737206,66.68794631,-176.92616555
72.45131590,-170.05474668,-155.38193649,68.75791207,-179.16423733,12.53328214
11.47233781,11.39106019,-1.97065423,-0.64236353,-0.81146380

>  <Name>
ligand

>  <RI>
0

>  <Rbt.Current_Directory>
/home/itssahil/PROJECTS/Mol_Feturizer/New_Systems/rnas/2O3Y

>  <Rbt.Executable>
rbdock ($Id: //depot/dev/client3/rdock/2013.1/src/exe/rbdock.cxx#4 $)

>  <Rbt.Library>
libRbt.so (2013.1, Build901 2013/11/27)

>  <Rbt.Parameter_File>
/export/apps/rDock/src/rDock_2013.1_src/data/scripts/dock_solv.prm

>  <Rbt.Receptor>
prm/pocket_docking_4.prm

>  <SCORE>
-8.4484

>  <SCORE.INTER>
2.09976

>  <SCORE.INTER.CONST>
1

>  <SCORE.INTER.POLAR>
0

>  <SCORE.INTER.ROT>
11

>  <SCORE.INTER.SOLV>
4.02651

>  <SCORE.INTER.VDW>
-10.8757

>  <SCORE.INTER.norm>
0.149983

>  <SCORE.INTRA>
-10.5482

>  <SCORE.INTRA.DIHEDRAL>
-21.7581

>  <SCORE.INTRA.DIHEDRAL.0>
24.1231

>  <SCORE.INTRA.POLAR>
0

>  <SCORE.INTRA.POLAR.0>
0

>  <SCORE.INTRA.REPUL>
0

>  <SCORE.INTRA.REPUL.0>
0

>  <SCORE.INTRA.SOLV>
0.257401

>  <SCORE.INTRA.SOLV.lig_0>
-48.2216

>  <SCORE.INTRA.VDW>
0.202195

>  <SCORE.INTRA.VDW.0>
-1.3967

>  <SCORE.INTRA.norm>
-0.75344

>  <SCORE.RESTR>
0

>  <SCORE.RESTR.CAVITY>
0

>  <SCORE.RESTR.norm>
0

>  <SCORE.SYSTEM>
0

>  <SCORE.SYSTEM.CONST>
0

>  <SCORE.SYSTEM.DIHEDRAL>
0

>  <SCORE.SYSTEM.SOLV>
0

>  <SCORE.SYSTEM.norm>
0

>  <SCORE.heavy>
14

>  <SCORE.norm>
-0.603457

>  <RMSD>
4.139

$$$$
ligand
 OpenBabel11021811463D
libRbt.so/2013.1/901 2013/11/27
 14 13  0  0  0  0  0  0  0  0999 V2000
   17.9997   14.5687    6.4785 N   0  0  0  0  0  0  0  0  0  0  0  0
   16.5784   14.2052    6.4005 C   0  0  0  0  0  0  0  0  0  0  0  0
   16.3040   13.0367    7.3415 C   0  0  0  0  0  0  0  0  0  0  0  0
   14.8409   12.6444    7.2165 C   0  0  0  0  0  0  0  0  0  0  0  0
   14.0102   13.7159    7.7775 N   0  0  0  0  0  0  0  0  0  0  0  0
   13.5354   13.2487    9.0917 C   0  0  0  0  0  0  0  0  0  0  0  0
   12.3124   12.3385    8.9306 C   0  0  0  0  0  0  0  0  0  0  0  0
   11.8468   11.9052   10.3288 C   0  0  0  0  0  0  0  0  0  0  0  0
   10.6300   11.0835   10.2247 C   0  0  0  0  0  0  0  0  0  0  0  0
   10.1899   10.7627   11.5977 N   0  0  0  0  0  0  0  0  0  0  0  0
   10.4769    9.2905   11.9144 C   0  0  0  0  0  0  0  0  0  0  0  0
    9.6839    8.8660   13.1563 C   0  0  0  0  0  0  0  0  0  0  0  0
   10.0719    9.7056   14.3061 C   0  0  0  0  0  0  0  0  0  0  0  0
    9.3297    9.2747   15.5103 N   0  0  0  0  0  0  0  0  0  0  0  0
  1  2  1  0  0  0  0
  2  3  1  0  0  0  0
  3  4  1  0  0  0  0
  4  5  1  0  0  0  0
  5  6  1  0  0  0  0
  6  7  1  0  0  0  0
  7  8  1  0  0  0  0
  8  9  1  0  0  0  0
  9 10  1  0  0  0  0
 10 11  1  0  0  0  0
 11 12  1  0  0  0  0
 12 13  1  0  0  0  0
 13 14  1  0  0  0  0
M  END
>  <CHROM.1>
-178.22171756,-68.67722903,-104.32871154,-81.99019201,-178.94388471,177.11017733
-176.88248845,-107.06600453,-164.31179550,-59.51283219,-178.68943533,12.70064768
11.76032004,10.01952493,-0.86781903,0.21731252,1.96635247

>  <Name>
ligand

>  <RI>
0

>  <Rbt.Current_Directory>
/home/itssahil/PROJECTS/Mol_Feturizer/New_Systems/rnas/2O3Y

>  <Rbt.Executable>
rbdock ($Id: //depot/dev/client3/rdock/2013.1/src/exe/rbdock.cxx#4 $)

>  <Rbt.Library>
libRbt.so (2013.1, Build901 2013/11/27)

>  <Rbt.Parameter_File>
/export/apps/rDock/src/rDock_2013.1_src/data/scripts/dock_solv.prm

>  <Rbt.Receptor>
prm/pocket_docking_5.prm

>  <SCORE>
-7.77503

>  <SCORE.INTER>
1.50144

>  <SCORE.INTER.CONST>
1

>  <SCORE.INTER.POLAR>
0

>  <SCORE.INTER.ROT>
11

>  <SCORE.INTER.SOLV>
5.88153

>  <SCORE.INTER.VDW>
-11.8929

>  <SCORE.INTER.norm>
0.107246

>  <SCORE.INTRA>
-9.27647

>  <SCORE.INTRA.DIHEDRAL>
-21.1242

>  <SCORE.INTRA.DIHEDRAL.0>
24.1231

>  <SCORE.INTRA.POLAR>
0

>  <SCORE.INTRA.POLAR.0>
0

>  <SCORE.INTRA.REPUL>
0

>  <SCORE.INTRA.REPUL.0>
0

>  <SCORE.INTRA.SOLV>
-0.0783222

>  <SCORE.INTRA.SOLV.lig_0>
-48.2216

>  <SCORE.INTRA.VDW>
1.32481

>  <SCORE.INTRA.VDW.0>
-1.3967

>  <SCORE.INTRA.norm>
-0.662605

>  <SCORE.RESTR>
0

>  <SCORE.RESTR.CAVITY>
0

>  <SCORE.RESTR.norm>
0

>  <SCORE.SYSTEM>
0

>  <SCORE.SYSTEM.CONST>
0

>  <SCORE.SYSTEM.DIHEDRAL>
0

>  <SCORE.SYSTEM.SOLV>
0

>  <SCORE.SYSTEM.norm>
0

>  <SCORE.heavy>
14

>  <SCORE.norm>
-0.555359

>  <RMSD>
4.143

$$$$
ligand
 OpenBabel11021811463D
libRbt.so/2013.1/901 2013/11/27
 14 13  0  0  0  0  0  0  0  0999 V2000
   16.2619   16.1051   10.9611 N   0  0  0  0  0  0  0  0  0  0  0  0
   15.5515   15.1554   10.0941 C   0  0  0  0  0  0  0  0  0  0  0  0
   14.0895   15.5742    9.9780 C   0  0  0  0  0  0  0  0  0  0  0  0
   13.3642   14.5707    9.0965 C   0  0  0  0  0  0  0  0  0  0  0  0
   13.2759   13.2893    9.8057 N   0  0  0  0  0  0  0  0  0  0  0  0
   12.9392   12.2645    8.8021 C   0  0  0  0  0  0  0  0  0  0  0  0
   12.2784   11.0530    9.4696 C   0  0  0  0  0  0  0  0  0  0  0  0
   10.8731   11.4652    9.9329 C   0  0  0  0  0  0  0  0  0  0  0  0
   10.2207   10.3440   10.6287 C   0  0  0  0  0  0  0  0  0  0  0  0
   10.9649   10.1033   11.8817 N   0  0  0  0  0  0  0  0  0  0  0  0
   10.5001    8.7940   12.5294 C   0  0  0  0  0  0  0  0  0  0  0  0
   10.9993    8.7295   13.9779 C   0  0  0  0  0  0  0  0  0  0  0  0
   10.6227    7.4348   14.5774 C   0  0  0  0  0  0  0  0  0  0  0  0
   11.0459    7.4000   15.9938 N   0  0  0  0  0  0  0  0  0  0  0  0
  1  2  1  0  0  0  0
  2  3  1  0  0  0  0
  3  4  1  0  0  0  0
  4  5  1  0  0  0  0
  5  6  1  0  0  0  0
  6  7  1  0  0  0  0
  7  8  1  0  0  0  0
  8  9  1  0  0  0  0
  9 10  1  0  0  0  0
 10 11  1  0  0  0  0
 11 12  1  0  0  0  0
 12 13  1  0  0  0  0
 13 14  1  0  0  0  0
M  END
>  <CHROM.1>
-179.12771357,68.86068689,-163.76543476,-156.96068847,70.73134930,-177.77454881
66.81460007,-169.74671627,-165.59606825,-176.60632989,-177.22852333,12.35601519
11.59159037,11.26599418,-0.90080121,0.77880592,2.08087985

>  <Name>
ligand

>  <RI>
0

>  <Rbt.Current_Directory>
/home/itssahil/PROJECTS/Mol_Feturizer/New_Systems/rnas/2O3Y

>  <Rbt.Executable>
rbdock ($Id: //depot/dev/client3/rdock/2013.1/src/exe/rbdock.cxx#4 $)

>  <Rbt.Library>
libRbt.so (2013.1, Build901 2013/11/27)

>  <Rbt.Parameter_File>
/export/apps/rDock/src/rDock_2013.1_src/data/scripts/dock_solv.prm

>  <Rbt.Receptor>
prm/pocket_docking_4.prm

>  <SCORE>
-9.32623

>  <SCORE.INTER>
1.27681

>  <SCORE.INTER.CONST>
1

>  <SCORE.INTER.POLAR>
0

>  <SCORE.INTER.ROT>
11

>  <SCORE.INTER.SOLV>
4.17431

>  <SCORE.INTER.VDW>
-11.4736

>  <SCORE.INTER.norm>
0.0912004

>  <SCORE.INTRA>
-10.6211

>  <SCORE.INTRA.DIHEDRAL>
-22.2998

>  <SCORE.INTRA.DIHEDRAL.0>
24.1231

>  <SCORE.INTRA.POLAR>
0

>  <SCORE.INTRA.POLAR.0>
0

>  <SCORE.INTRA.REPUL>
0

>  <SCORE.INTRA.REPUL.0>
0

>  <SCORE.INTRA.SOLV>
0.327323

>  <SCORE.INTRA.SOLV.lig_0>
-48.2216

>  <SCORE.INTRA.VDW>
0.365096

>  <SCORE.INTRA.VDW.0>
-1.3967

>  <SCORE.INTRA.norm>
-0.758653

>  <SCORE.RESTR>
0.0181039

>  <SCORE.RESTR.CAVITY>
0.0181039

>  <SCORE.RESTR.norm>
0.00129313

>  <SCORE.SYSTEM>
0

>  <SCORE.SYSTEM.CONST>
0

>  <SCORE.SYSTEM.DIHEDRAL>
0

>  <SCORE.SYSTEM.SOLV>
0

>  <SCORE.SYSTEM.norm>
0

>  <SCORE.heavy>
14

>  <SCORE.norm>
-0.666159

>  <RMSD>
4.154

$$$$
ligand
 OpenBabel11021811463D
libRbt.so/2013.1/901 2013/11/27
 14 13  0  0  0  0  0  0  0  0999 V2000
    8.2869    9.4716   17.1645 N   0  0  0  0  0  0  0  0  0  0  0  0
    7.9724   10.5595   16.2287 C   0  0  0  0  0  0  0  0  0  0  0  0
    7.7617    9.9801   14.8336 C   0  0  0  0  0  0  0  0  0  0  0  0
    9.0863    9.4312   14.3293 C   0  0  0  0  0  0  0  0  0  0  0  0
    8.8937    8.8842   12.9815 N   0  0  0  0  0  0  0  0  0  0  0  0
   10.2287    8.5383   12.4628 C   0  0  0  0  0  0  0  0  0  0  0  0
   10.8885    9.7609   11.8148 C   0  0  0  0  0  0  0  0  0  0  0  0
   10.0030   10.2248   10.6485 C   0  0  0  0  0  0  0  0  0  0  0  0
   10.5094   11.4946   10.1029 C   0  0  0  0  0  0  0  0  0  0  0  0
   11.8228   11.2219    9.4846 N   0  0  0  0  0  0  0  0  0  0  0  0
   12.6194   12.5235    9.3395 C   0  0  0  0  0  0  0  0  0  0  0  0
   13.0886   12.6821    7.8882 C   0  0  0  0  0  0  0  0  0  0  0  0
   13.9070   13.9033    7.7599 C   0  0  0  0  0  0  0  0  0  0  0  0
   15.1665   13.7404    8.5174 N   0  0  0  0  0  0  0  0  0  0  0  0
  1  2  1  0  0  0  0
  2  3  1  0  0  0  0
  3  4  1  0  0  0  0
  4  5  1  0  0  0  0
  5  6  1  0  0  0  0
  6  7  1  0  0  0  0
  7  8  1  0  0  0  0
  8  9  1  0  0  0  0
  9 10  1  0  0  0  0
 10 11  1  0  0  0  0
 11 12  1  0  0  0  0
 12 13  1  0  0  0  0
 13 14  1  0  0  0  0
M  END
>  <CHROM.1>
-67.04538634,-179.43228638,172.28415776,-85.63192957,-60.61239960,172.96932489
66.69168495,-160.25999096,-127.09280832,-177.45608933,66.79335251,10.73093661
10.88691223,11.68245121,-2.69197519,-0.91018880,-2.12991577

>  <Name>
ligand

>  <RI>
0

>  <Rbt.Current_Directory>
/home/itssahil/PROJECTS/Mol_Feturizer/New_Systems/rnas/2O3Y

>  <Rbt.Executable>
rbdock ($Id: //depot/dev/client3/rdock/2013.1/src/exe/rbdock.cxx#4 $)

>  <Rbt.Library>
libRbt.so (2013.1, Build901 2013/11/27)

>  <Rbt.Parameter_File>
/export/apps/rDock/src/rDock_2013.1_src/data/scripts/dock_solv.prm

>  <Rbt.Receptor>
prm/pocket_docking_8.prm

>  <SCORE>
-9.77254

>  <SCORE.INTER>
-1.17259

>  <SCORE.INTER.CONST>
1

>  <SCORE.INTER.POLAR>
0

>  <SCORE.INTER.ROT>
11

>  <SCORE.INTER.SOLV>
8.20318

>  <SCORE.INTER.VDW>
-14.4495

>  <SCORE.INTER.norm>
-0.0837567

>  <SCORE.INTRA>
-8.59994

>  <SCORE.INTRA.DIHEDRAL>
-21.4006

>  <SCORE.INTRA.DIHEDRAL.0>
24.1231

>  <SCORE.INTRA.POLAR>
0

>  <SCORE.INTRA.POLAR.0>
0

>  <SCORE.INTRA.REPUL>
0

>  <SCORE.INTRA.REPUL.0>
0

>  <SCORE.INTRA.SOLV>
1.60976

>  <SCORE.INTRA.SOLV.lig_0>
-48.2216

>  <SCORE.INTRA.VDW>
1.29546

>  <SCORE.INTRA.VDW.0>
-1.3967

>  <SCORE.INTRA.norm>
-0.614282

>  <SCORE.RESTR>
0

>  <SCORE.RESTR.CAVITY>
0

>  <SCORE.RESTR.norm>
0

>  <SCORE.SYSTEM>
0

>  <SCORE.SYSTEM.CONST>
0

>  <SCORE.SYSTEM.DIHEDRAL>
0

>  <SCORE.SYSTEM.SOLV>
0

>  <SCORE.SYSTEM.norm>
0

>  <SCORE.heavy>
14

>  <SCORE.norm>
-0.698038

>  <RMSD>
4.160

$$$$
ligand
 OpenBabel11021811463D
libRbt.so/2013.1/901 2013/11/27
 14 13  0  0  0  0  0  0  0  0999 V2000
    8.7420    9.6698   15.3105 N   0  0  0  0  0  0  0  0  0  0  0  0
    9.9245    9.4625   14.4637 C   0  0  0  0  0  0  0  0  0  0  0  0
    9.4983    8.8097   13.1528 C   0  0  0  0  0  0  0  0  0  0  0  0
   10.7153    8.6903   12.2502 C   0  0  0  0  0  0  0  0  0  0  0  0
   11.1069   10.0301   11.7979 N   0  0  0  0  0  0  0  0  0  0  0  0
   10.3109   10.3275   10.5943 C   0  0  0  0  0  0  0  0  0  0  0  0
   10.7736   11.6409    9.9531 C   0  0  0  0  0  0  0  0  0  0  0  0
   12.2183   11.4560    9.4651 C   0  0  0  0  0  0  0  0  0  0  0  0
   12.6997   12.6933    8.8294 C   0  0  0  0  0  0  0  0  0  0  0  0
   14.0563   12.4283    8.3089 N   0  0  0  0  0  0  0  0  0  0  0  0
   14.5668   13.6407    7.5218 C   0  0  0  0  0  0  0  0  0  0  0  0
   15.9063   13.2983    6.8584 C   0  0  0  0  0  0  0  0  0  0  0  0
   16.3966   14.4627    6.0961 C   0  0  0  0  0  0  0  0  0  0  0  0
   17.7149   14.1506    5.5035 N   0  0  0  0  0  0  0  0  0  0  0  0
  1  2  1  0  0  0  0
  2  3  1  0  0  0  0
  3  4  1  0  0  0  0
  4  5  1  0  0  0  0
  5  6  1  0  0  0  0
  6  7  1  0  0  0  0
  7  8  1  0  0  0  0
  8  9  1  0  0  0  0
  9 10  1  0  0  0  0
 10 11  1  0  0  0  0
 11 12  1  0  0  0  0
 12 13  1  0  0  0  0
 13 14  1  0  0  0  0
M  END
>  <CHROM.1>
176.11676804,-70.12431845,-86.30772961,-173.21588449,64.46530937,179.47880225
-176.56379162,174.90322060,-173.80991733,179.79036273,177.65477949,12.47342168
11.48286377,10.00746112,-2.22955623,-0.08094452,-1.06883024

>  <Name>
ligand

>  <RI>
0

>  <Rbt.Current_Directory>
/home/itssahil/PROJECTS/Mol_Feturizer/New_Systems/rnas/2O3Y

>  <Rbt.Executable>
rbdock ($Id: //depot/dev/client3/rdock/2013.1/src/exe/rbdock.cxx#4 $)

>  <Rbt.Library>
libRbt.so (2013.1, Build901 2013/11/27)

>  <Rbt.Parameter_File>
/export/apps/rDock/src/rDock_2013.1_src/data/scripts/dock_solv.prm

>  <Rbt.Receptor>
prm/pocket_docking_8.prm

>  <SCORE>
-11.6559

>  <SCORE.INTER>
-0.994295

>  <SCORE.INTER.CONST>
1

>  <SCORE.INTER.POLAR>
0

>  <SCORE.INTER.ROT>
11

>  <SCORE.INTER.SOLV>
6.18531

>  <SCORE.INTER.VDW>
-13.658

>  <SCORE.INTER.norm>
-0.0710211

>  <SCORE.INTRA>
-10.6616

>  <SCORE.INTRA.DIHEDRAL>
-22.9711

>  <SCORE.INTRA.DIHEDRAL.0>
24.1231

>  <SCORE.INTRA.POLAR>
0

>  <SCORE.INTRA.POLAR.0>
0

>  <SCORE.INTRA.REPUL>
0

>  <SCORE.INTRA.REPUL.0>
0

>  <SCORE.INTRA.SOLV>
-0.113682

>  <SCORE.INTRA.SOLV.lig_0>
-48.2216

>  <SCORE.INTRA.VDW>
0.880737

>  <SCORE.INTRA.VDW.0>
-1.3967

>  <SCORE.INTRA.norm>
-0.761545

>  <SCORE.RESTR>
0

>  <SCORE.RESTR.CAVITY>
0

>  <SCORE.RESTR.norm>
0

>  <SCORE.SYSTEM>
0

>  <SCORE.SYSTEM.CONST>
0

>  <SCORE.SYSTEM.DIHEDRAL>
0

>  <SCORE.SYSTEM.SOLV>
0

>  <SCORE.SYSTEM.norm>
0

>  <SCORE.heavy>
14

>  <SCORE.norm>
-0.832566

>  <RMSD>
4.163

$$$$
ligand
 OpenBabel11021811463D
libRbt.so/2013.1/901 2013/11/27
 14 13  0  0  0  0  0  0  0  0999 V2000
   15.9024   12.3401    6.8761 N   0  0  0  0  0  0  0  0  0  0  0  0
   14.5377   12.0039    7.3037 C   0  0  0  0  0  0  0  0  0  0  0  0
   13.8747   13.2431    7.8961 C   0  0  0  0  0  0  0  0  0  0  0  0
   12.4994   12.8579    8.4159 C   0  0  0  0  0  0  0  0  0  0  0  0
   12.6577   11.9291    9.5407 N   0  0  0  0  0  0  0  0  0  0  0  0
   11.3109   11.4463    9.8927 C   0  0  0  0  0  0  0  0  0  0  0  0
   11.3930   10.3554   10.9666 C   0  0  0  0  0  0  0  0  0  0  0  0
    9.9632    9.9209   11.3222 C   0  0  0  0  0  0  0  0  0  0  0  0
    9.9976    8.7954   12.2702 C   0  0  0  0  0  0  0  0  0  0  0  0
   10.5547    9.3002   13.5416 N   0  0  0  0  0  0  0  0  0  0  0  0
   10.5011    8.2060   14.6138 C   0  0  0  0  0  0  0  0  0  0  0  0
   11.1482    8.7182   15.9063 C   0  0  0  0  0  0  0  0  0  0  0  0
   12.5971    8.9048   15.6979 C   0  0  0  0  0  0  0  0  0  0  0  0
   13.2554    7.5870   15.5694 N   0  0  0  0  0  0  0  0  0  0  0  0
  1  2  1  0  0  0  0
  2  3  1  0  0  0  0
  3  4  1  0  0  0  0
  4  5  1  0  0  0  0
  5  6  1  0  0  0  0
  6  7  1  0  0  0  0
  7  8  1  0  0  0  0
  8  9  1  0  0  0  0
  9 10  1  0  0  0  0
 10 11  1  0  0  0  0
 11 12  1  0  0  0  0
 12 13  1  0  0  0  0
 13 14  1  0  0  0  0
M  END
>  <CHROM.1>
-176.33540025,65.77485704,-172.61098085,174.08922500,178.37107820,175.33546653
66.82972226,174.93556819,177.07303562,-67.66257504,-70.44554108,12.15625625
10.40065164,11.41524456,-1.26118347,0.04980852,2.06650869

>  <Name>
ligand

>  <RI>
0

>  <Rbt.Current_Directory>
/home/itssahil/PROJECTS/Mol_Feturizer/New_Systems/rnas/2O3Y

>  <Rbt.Executable>
rbdock ($Id: //depot/dev/client3/rdock/2013.1/src/exe/rbdock.cxx#4 $)

>  <Rbt.Library>
libRbt.so (2013.1, Build901 2013/11/27)

>  <Rbt.Parameter_File>
/export/apps/rDock/src/rDock_2013.1_src/data/scripts/dock_solv.prm

>  <Rbt.Receptor>
prm/pocket_docking_4.prm

>  <SCORE>
-7.47904

>  <SCORE.INTER>
2.58123

>  <SCORE.INTER.CONST>
1

>  <SCORE.INTER.POLAR>
0

>  <SCORE.INTER.ROT>
11

>  <SCORE.INTER.SOLV>
5.02303

>  <SCORE.INTER.VDW>
-10.8869

>  <SCORE.INTER.norm>
0.184373

>  <SCORE.INTRA>
-10.0603

>  <SCORE.INTRA.DIHEDRAL>
-22.9492

>  <SCORE.INTRA.DIHEDRAL.0>
24.1231

>  <SCORE.INTRA.POLAR>
0

>  <SCORE.INTRA.POLAR.0>
0

>  <SCORE.INTRA.REPUL>
0

>  <SCORE.INTRA.REPUL.0>
0

>  <SCORE.INTRA.SOLV>
1.57219

>  <SCORE.INTRA.SOLV.lig_0>
-48.2216

>  <SCORE.INTRA.VDW>
0.628212

>  <SCORE.INTRA.VDW.0>
-1.3967

>  <SCORE.INTRA.norm>
-0.718591

>  <SCORE.RESTR>
0

>  <SCORE.RESTR.CAVITY>
0

>  <SCORE.RESTR.norm>
0

>  <SCORE.SYSTEM>
0

>  <SCORE.SYSTEM.CONST>
0

>  <SCORE.SYSTEM.DIHEDRAL>
0

>  <SCORE.SYSTEM.SOLV>
0

>  <SCORE.SYSTEM.norm>
0

>  <SCORE.heavy>
14

>  <SCORE.norm>
-0.534217

>  <RMSD>
4.166

$$$$
ligand
 OpenBabel11021811463D
libRbt.so/2013.1/901 2013/11/27
 14 13  0  0  0  0  0  0  0  0999 V2000
   18.7566   15.4066    7.9406 N   0  0  0  0  0  0  0  0  0  0  0  0
   17.3064   15.2711    7.7496 C   0  0  0  0  0  0  0  0  0  0  0  0
   17.0090   13.9372    7.0724 C   0  0  0  0  0  0  0  0  0  0  0  0
   15.5066   13.8144    6.8778 C   0  0  0  0  0  0  0  0  0  0  0  0
   14.8634   13.6995    8.1915 N   0  0  0  0  0  0  0  0  0  0  0  0
   13.4453   14.0549    8.0088 C   0  0  0  0  0  0  0  0  0  0  0  0
   12.5544   12.8179    8.1704 C   0  0  0  0  0  0  0  0  0  0  0  0
   12.5930   12.3856    9.6439 C   0  0  0  0  0  0  0  0  0  0  0  0
   11.7014   11.2338    9.8567 C   0  0  0  0  0  0  0  0  0  0  0  0
   11.7421   10.8983   11.2946 N   0  0  0  0  0  0  0  0  0  0  0  0
   11.5596    9.3889   11.4906 C   0  0  0  0  0  0  0  0  0  0  0  0
   10.2985    9.1257   12.3224 C   0  0  0  0  0  0  0  0  0  0  0  0
   10.4869    9.6450   13.6907 C   0  0  0  0  0  0  0  0  0  0  0  0
    9.3044    9.3161   14.5154 N   0  0  0  0  0  0  0  0  0  0  0  0
  1  2  1  0  0  0  0
  2  3  1  0  0  0  0
  3  4  1  0  0  0  0
  4  5  1  0  0  0  0
  5  6  1  0  0  0  0
  6  7  1  0  0  0  0
  7  8  1  0  0  0  0
  8  9  1  0  0  0  0
  9 10  1  0  0  0  0
 10 11  1  0  0  0  0
 11 12  1  0  0  0  0
 12 13  1  0  0  0  0
 13 14  1  0  0  0  0
M  END
>  <CHROM.1>
-179.81245431,-67.16670276,160.55244932,110.23796507,68.80578839,177.48513290
-177.90810305,-147.76813147,-118.98767645,-66.27236244,-176.49193703,13.36613047
12.21387982,9.77294512,-0.79315801,0.36518117,1.98392289

>  <Name>
ligand

>  <RI>
0

>  <Rbt.Current_Directory>
/home/itssahil/PROJECTS/Mol_Feturizer/New_Systems/rnas/2O3Y

>  <Rbt.Executable>
rbdock ($Id: //depot/dev/client3/rdock/2013.1/src/exe/rbdock.cxx#4 $)

>  <Rbt.Library>
libRbt.so (2013.1, Build901 2013/11/27)

>  <Rbt.Parameter_File>
/export/apps/rDock/src/rDock_2013.1_src/data/scripts/dock_solv.prm

>  <Rbt.Receptor>
prm/pocket_docking_7.prm

>  <SCORE>
-8.05566

>  <SCORE.INTER>
1.38432

>  <SCORE.INTER.CONST>
1

>  <SCORE.INTER.POLAR>
0

>  <SCORE.INTER.ROT>
11

>  <SCORE.INTER.SOLV>
4.15943

>  <SCORE.INTER.VDW>
-11.3969

>  <SCORE.INTER.norm>
0.0988798

>  <SCORE.INTRA>
-9.43998

>  <SCORE.INTRA.DIHEDRAL>
-20.1282

>  <SCORE.INTRA.DIHEDRAL.0>
24.1231

>  <SCORE.INTRA.POLAR>
0

>  <SCORE.INTRA.POLAR.0>
0

>  <SCORE.INTRA.REPUL>
0

>  <SCORE.INTRA.REPUL.0>
0

>  <SCORE.INTRA.SOLV>
0.257796

>  <SCORE.INTRA.SOLV.lig_0>
-48.2216

>  <SCORE.INTRA.VDW>
0.495236

>  <SCORE.INTRA.VDW.0>
-1.3967

>  <SCORE.INTRA.norm>
-0.674284

>  <SCORE.RESTR>
0

>  <SCORE.RESTR.CAVITY>
0

>  <SCORE.RESTR.norm>
0

>  <SCORE.SYSTEM>
0

>  <SCORE.SYSTEM.CONST>
0

>  <SCORE.SYSTEM.DIHEDRAL>
0

>  <SCORE.SYSTEM.SOLV>
0

>  <SCORE.SYSTEM.norm>
0

>  <SCORE.heavy>
14

>  <SCORE.norm>
-0.575404

>  <RMSD>
4.174

$$$$
ligand
 OpenBabel11021811463D
libRbt.so/2013.1/901 2013/11/27
 14 13  0  0  0  0  0  0  0  0999 V2000
   16.9449   13.9078    6.1357 N   0  0  0  0  0  0  0  0  0  0  0  0
   16.6443   14.5502    7.4222 C   0  0  0  0  0  0  0  0  0  0  0  0
   16.0422   13.5200    8.3722 C   0  0  0  0  0  0  0  0  0  0  0  0
   14.6697   13.1231    7.8535 C   0  0  0  0  0  0  0  0  0  0  0  0
   14.1636   12.0018    8.6532 N   0  0  0  0  0  0  0  0  0  0  0  0
   12.7643   12.3131    8.9933 C   0  0  0  0  0  0  0  0  0  0  0  0
   12.1050   11.1249    9.7029 C   0  0  0  0  0  0  0  0  0  0  0  0
   10.6390   11.4860    9.9861 C   0  0  0  0  0  0  0  0  0  0  0  0
    9.9169   10.3080   10.4935 C   0  0  0  0  0  0  0  0  0  0  0  0
   10.4839    9.9728   11.8156 N   0  0  0  0  0  0  0  0  0  0  0  0
    9.7646    8.7546   12.4059 C   0  0  0  0  0  0  0  0  0  0  0  0
   10.2727    8.4954   13.8294 C   0  0  0  0  0  0  0  0  0  0  0  0
   11.7038    8.1377   13.7900 C   0  0  0  0  0  0  0  0  0  0  0  0
   12.2119    7.9651   15.1679 N   0  0  0  0  0  0  0  0  0  0  0  0
  1  2  1  0  0  0  0
  2  3  1  0  0  0  0
  3  4  1  0  0  0  0
  4  5  1  0  0  0  0
  5  6  1  0  0  0  0
  6  7  1  0  0  0  0
  7  8  1  0  0  0  0
  8  9  1  0  0  0  0
  9 10  1  0  0  0  0
 10 11  1  0  0  0  0
 11 12  1  0  0  0  0
 12 13  1  0  0  0  0
 13 14  1  0  0  0  0
M  END
>  <CHROM.1>
-68.04554115,172.24067502,134.03741310,173.89833001,-177.95901276,172.02355724
66.40173366,179.58495296,-174.85108068,-64.16789485,176.71978716,12.73733827
11.11866768,10.33005425,-0.97235094,0.15593083,2.16722137

>  <Name>
ligand

>  <RI>
0

>  <Rbt.Current_Directory>
/home/itssahil/PROJECTS/Mol_Feturizer/New_Systems/rnas/2O3Y

>  <Rbt.Executable>
rbdock ($Id: //depot/dev/client3/rdock/2013.1/src/exe/rbdock.cxx#4 $)

>  <Rbt.Library>
libRbt.so (2013.1, Build901 2013/11/27)

>  <Rbt.Parameter_File>
/export/apps/rDock/src/rDock_2013.1_src/data/scripts/dock_solv.prm

>  <Rbt.Receptor>
prm/pocket_docking_5.prm

>  <SCORE>
-9.18924

>  <SCORE.INTER>
0.833993

>  <SCORE.INTER.CONST>
1

>  <SCORE.INTER.POLAR>
0

>  <SCORE.INTER.ROT>
11

>  <SCORE.INTER.SOLV>
5.16864

>  <SCORE.INTER.VDW>
-12.1002

>  <SCORE.INTER.norm>
0.0595709

>  <SCORE.INTRA>
-10.0232

>  <SCORE.INTRA.DIHEDRAL>
-22.0214

>  <SCORE.INTRA.DIHEDRAL.0>
24.1231

>  <SCORE.INTRA.POLAR>
0

>  <SCORE.INTRA.POLAR.0>
0

>  <SCORE.INTRA.REPUL>
0

>  <SCORE.INTRA.REPUL.0>
0

>  <SCORE.INTRA.SOLV>
0.794732

>  <SCORE.INTRA.SOLV.lig_0>
-48.2216

>  <SCORE.INTRA.VDW>
0.590119

>  <SCORE.INTRA.VDW.0>
-1.3967

>  <SCORE.INTRA.norm>
-0.715945

>  <SCORE.RESTR>
0

>  <SCORE.RESTR.CAVITY>
0

>  <SCORE.RESTR.norm>
0

>  <SCORE.SYSTEM>
0

>  <SCORE.SYSTEM.CONST>
0

>  <SCORE.SYSTEM.DIHEDRAL>
0

>  <SCORE.SYSTEM.SOLV>
0

>  <SCORE.SYSTEM.norm>
0

>  <SCORE.heavy>
14

>  <SCORE.norm>
-0.656374

>  <RMSD>
4.191

$$$$
ligand
 OpenBabel11021811463D
libRbt.so/2013.1/901 2013/11/27
 14 13  0  0  0  0  0  0  0  0999 V2000
   17.0816   10.4982   11.3506 N   0  0  0  0  0  0  0  0  0  0  0  0
   16.1724   10.1837   12.4608 C   0  0  0  0  0  0  0  0  0  0  0  0
   15.1507    9.1498   11.9991 C   0  0  0  0  0  0  0  0  0  0  0  0
   14.1378    8.9357   13.1119 C   0  0  0  0  0  0  0  0  0  0  0  0
   13.1627    7.9271   12.6817 N   0  0  0  0  0  0  0  0  0  0  0  0
   11.8593    8.6061   12.5770 C   0  0  0  0  0  0  0  0  0  0  0  0
   11.7577    9.3770   11.2559 C   0  0  0  0  0  0  0  0  0  0  0  0
   10.4501   10.1829   11.2678 C   0  0  0  0  0  0  0  0  0  0  0  0
   10.4241   11.1216   10.1343 C   0  0  0  0  0  0  0  0  0  0  0  0
   11.5623   12.0489   10.2972 N   0  0  0  0  0  0  0  0  0  0  0  0
   12.2595   12.2719    8.9504 C   0  0  0  0  0  0  0  0  0  0  0  0
   13.6875   12.7786    9.1865 C   0  0  0  0  0  0  0  0  0  0  0  0
   14.3320   13.0729    7.8921 C   0  0  0  0  0  0  0  0  0  0  0  0
   15.7253   13.5135    8.1184 N   0  0  0  0  0  0  0  0  0  0  0  0
  1  2  1  0  0  0  0
  2  3  1  0  0  0  0
  3  4  1  0  0  0  0
  4  5  1  0  0  0  0
  5  6  1  0  0  0  0
  6  7  1  0  0  0  0
  7  8  1  0  0  0  0
  8  9  1  0  0  0  0
  9 10  1  0  0  0  0
 10 11  1  0  0  0  0
 11 12  1  0  0  0  0
 12 13  1  0  0  0  0
 13 14  1  0  0  0  0
M  END
>  <CHROM.1>
-174.56231078,-179.17984372,-114.68137296,80.25075826,-173.98858807,169.84330044
-61.33822526,137.26255587,-159.12274567,-176.53670672,-177.91326750,13.41124276
10.69044548,10.80606412,-1.41610793,0.07346885,2.37201929

>  <Name>
ligand

>  <RI>
0

>  <Rbt.Current_Directory>
/home/itssahil/PROJECTS/Mol_Feturizer/New_Systems/rnas/2O3Y

>  <Rbt.Executable>
rbdock ($Id: //depot/dev/client3/rdock/2013.1/src/exe/rbdock.cxx#4 $)

>  <Rbt.Library>
libRbt.so (2013.1, Build901 2013/11/27)

>  <Rbt.Parameter_File>
/export/apps/rDock/src/rDock_2013.1_src/data/scripts/dock_solv.prm

>  <Rbt.Receptor>
prm/pocket_docking_4.prm

>  <SCORE>
-5.88634

>  <SCORE.INTER>
3.9239

>  <SCORE.INTER.CONST>
1

>  <SCORE.INTER.POLAR>
0

>  <SCORE.INTER.ROT>
11

>  <SCORE.INTER.SOLV>
6.33964

>  <SCORE.INTER.VDW>
-10.4306

>  <SCORE.INTER.norm>
0.280278

>  <SCORE.INTRA>
-9.81024

>  <SCORE.INTRA.DIHEDRAL>
-20.6037

>  <SCORE.INTRA.DIHEDRAL.0>
24.1231

>  <SCORE.INTRA.POLAR>
0

>  <SCORE.INTRA.POLAR.0>
0

>  <SCORE.INTRA.REPUL>
0

>  <SCORE.INTRA.REPUL.0>
0

>  <SCORE.INTRA.SOLV>
-0.425084

>  <SCORE.INTRA.SOLV.lig_0>
-48.2216

>  <SCORE.INTRA.VDW>
0.704162

>  <SCORE.INTRA.VDW.0>
-1.3967

>  <SCORE.INTRA.norm>
-0.700731

>  <SCORE.RESTR>
0

>  <SCORE.RESTR.CAVITY>
0

>  <SCORE.RESTR.norm>
0

>  <SCORE.SYSTEM>
0

>  <SCORE.SYSTEM.CONST>
0

>  <SCORE.SYSTEM.DIHEDRAL>
0

>  <SCORE.SYSTEM.SOLV>
0

>  <SCORE.SYSTEM.norm>
0

>  <SCORE.heavy>
14

>  <SCORE.norm>
-0.420453

>  <RMSD>
4.206

$$$$
ligand
 OpenBabel11021811463D
libRbt.so/2013.1/901 2013/11/27
 14 13  0  0  0  0  0  0  0  0999 V2000
   13.7020    7.9247   16.5331 N   0  0  0  0  0  0  0  0  0  0  0  0
   13.7940    6.8655   15.5193 C   0  0  0  0  0  0  0  0  0  0  0  0
   13.5492    7.4657   14.1386 C   0  0  0  0  0  0  0  0  0  0  0  0
   12.1177    7.9724   14.0750 C   0  0  0  0  0  0  0  0  0  0  0  0
   11.8968    8.6155   12.7747 N   0  0  0  0  0  0  0  0  0  0  0  0
   10.7770    9.5576   12.9454 C   0  0  0  0  0  0  0  0  0  0  0  0
   10.9894   10.8089   12.0857 C   0  0  0  0  0  0  0  0  0  0  0  0
   10.8002   10.4187   10.6121 C   0  0  0  0  0  0  0  0  0  0  0  0
   10.9252   11.6081    9.7539 C   0  0  0  0  0  0  0  0  0  0  0  0
   12.3646   11.9098    9.6170 N   0  0  0  0  0  0  0  0  0  0  0  0
   12.5941   12.8718    8.4458 C   0  0  0  0  0  0  0  0  0  0  0  0
   14.0056   12.6698    7.8814 C   0  0  0  0  0  0  0  0  0  0  0  0
   15.0066   13.0822    8.8840 C   0  0  0  0  0  0  0  0  0  0  0  0
   16.3665   12.9146    8.3281 N   0  0  0  0  0  0  0  0  0  0  0  0
  1  2  1  0  0  0  0
  2  3  1  0  0  0  0
  3  4  1  0  0  0  0
  4  5  1  0  0  0  0
  5  6  1  0  0  0  0
  6  7  1  0  0  0  0
  7  8  1  0  0  0  0
  8  9  1  0  0  0  0
  9 10  1  0  0  0  0
 10 11  1  0  0  0  0
 11 12  1  0  0  0  0
 12 13  1  0  0  0  0
 13 14  1  0  0  0  0
M  END
>  <CHROM.1>
-65.09587249,177.00764777,-156.47278902,144.75164246,70.94147200,177.00641048
77.96413614,164.21644327,-153.08133923,-66.33951189,-178.78271851,12.77745262
10.33466311,11.54233339,-1.68664156,-0.03855845,-0.91256829

>  <Name>
ligand

>  <RI>
0

>  <Rbt.Current_Directory>
/home/itssahil/PROJECTS/Mol_Feturizer/New_Systems/rnas/2O3Y

>  <Rbt.Executable>
rbdock ($Id: //depot/dev/client3/rdock/2013.1/src/exe/rbdock.cxx#4 $)

>  <Rbt.Library>
libRbt.so (2013.1, Build901 2013/11/27)

>  <Rbt.Parameter_File>
/export/apps/rDock/src/rDock_2013.1_src/data/scripts/dock_solv.prm

>  <Rbt.Receptor>
prm/pocket_docking_4.prm

>  <SCORE>
-7.12676

>  <SCORE.INTER>
2.05854

>  <SCORE.INTER.CONST>
1

>  <SCORE.INTER.POLAR>
0

>  <SCORE.INTER.ROT>
11

>  <SCORE.INTER.SOLV>
4.09817

>  <SCORE.INTER.VDW>
-10.927

>  <SCORE.INTER.norm>
0.147038

>  <SCORE.INTRA>
-9.1853

>  <SCORE.INTRA.DIHEDRAL>
-20.3632

>  <SCORE.INTRA.DIHEDRAL.0>
24.1231

>  <SCORE.INTRA.POLAR>
0

>  <SCORE.INTRA.POLAR.0>
0

>  <SCORE.INTRA.REPUL>
0

>  <SCORE.INTRA.REPUL.0>
0

>  <SCORE.INTRA.SOLV>
1.07211

>  <SCORE.INTRA.SOLV.lig_0>
-48.2216

>  <SCORE.INTRA.VDW>
0.460251

>  <SCORE.INTRA.VDW.0>
-1.3967

>  <SCORE.INTRA.norm>
-0.656093

>  <SCORE.RESTR>
0

>  <SCORE.RESTR.CAVITY>
0

>  <SCORE.RESTR.norm>
0

>  <SCORE.SYSTEM>
0

>  <SCORE.SYSTEM.CONST>
0

>  <SCORE.SYSTEM.DIHEDRAL>
0

>  <SCORE.SYSTEM.SOLV>
0

>  <SCORE.SYSTEM.norm>
0

>  <SCORE.heavy>
14

>  <SCORE.norm>
-0.509055

>  <RMSD>
4.214

$$$$
ligand
 OpenBabel11021811463D
libRbt.so/2013.1/901 2013/11/27
 14 13  0  0  0  0  0  0  0  0999 V2000
   14.6408   14.1860    8.9932 N   0  0  0  0  0  0  0  0  0  0  0  0
   14.2030   13.3631    7.8577 C   0  0  0  0  0  0  0  0  0  0  0  0
   12.7501   12.9481    8.0656 C   0  0  0  0  0  0  0  0  0  0  0  0
   12.6634   12.0895    9.3167 C   0  0  0  0  0  0  0  0  0  0  0  0
   11.2663   11.6938    9.5277 N   0  0  0  0  0  0  0  0  0  0  0  0
   11.2000   11.0341   10.8434 C   0  0  0  0  0  0  0  0  0  0  0  0
   10.0366   10.0369   10.8884 C   0  0  0  0  0  0  0  0  0  0  0  0
    9.9754    9.4314   12.2988 C   0  0  0  0  0  0  0  0  0  0  0  0
   11.1187    8.5292   12.5120 C   0  0  0  0  0  0  0  0  0  0  0  0
   11.0991    8.1119   13.9288 N   0  0  0  0  0  0  0  0  0  0  0  0
   12.4687    7.5563   14.3353 C   0  0  0  0  0  0  0  0  0  0  0  0
   13.3274    8.6816   14.9254 C   0  0  0  0  0  0  0  0  0  0  0  0
   14.6666    8.1617   15.2626 C   0  0  0  0  0  0  0  0  0  0  0  0
   15.4968    9.2499   15.8221 N   0  0  0  0  0  0  0  0  0  0  0  0
  1  2  1  0  0  0  0
  2  3  1  0  0  0  0
  3  4  1  0  0  0  0
  4  5  1  0  0  0  0
  5  6  1  0  0  0  0
  6  7  1  0  0  0  0
  7  8  1  0  0  0  0
  8  9  1  0  0  0  0
  9 10  1  0  0  0  0
 10 11  1  0  0  0  0
 11 12  1  0  0  0  0
 12 13  1  0  0  0  0
 13 14  1  0  0  0  0
M  END
>  <CHROM.1>
-62.78938300,179.63584228,-172.00921418,-153.25683971,-177.34854528,-70.73142049
173.11718489,-161.87997542,92.48571870,-177.53308139,179.57951458,12.49352275
10.36221097,11.75542570,-1.57485431,0.35035646,2.22508053

>  <Name>
ligand

>  <RI>
0

>  <Rbt.Current_Directory>
/home/itssahil/PROJECTS/Mol_Feturizer/New_Systems/rnas/2O3Y

>  <Rbt.Executable>
rbdock ($Id: //depot/dev/client3/rdock/2013.1/src/exe/rbdock.cxx#4 $)

>  <Rbt.Library>
libRbt.so (2013.1, Build901 2013/11/27)

>  <Rbt.Parameter_File>
/export/apps/rDock/src/rDock_2013.1_src/data/scripts/dock_solv.prm

>  <Rbt.Receptor>
prm/pocket_docking_4.prm

>  <SCORE>
-8.283

>  <SCORE.INTER>
1.26202

>  <SCORE.INTER.CONST>
1

>  <SCORE.INTER.POLAR>
0

>  <SCORE.INTER.ROT>
11

>  <SCORE.INTER.SOLV>
6.67499

>  <SCORE.INTER.VDW>
-12.317

>  <SCORE.INTER.norm>
0.0901446

>  <SCORE.INTRA>
-9.54837

>  <SCORE.INTRA.DIHEDRAL>
-21.917

>  <SCORE.INTRA.DIHEDRAL.0>
24.1231

>  <SCORE.INTRA.POLAR>
0

>  <SCORE.INTRA.POLAR.0>
0

>  <SCORE.INTRA.REPUL>
0

>  <SCORE.INTRA.REPUL.0>
0

>  <SCORE.INTRA.SOLV>
0.203579

>  <SCORE.INTRA.SOLV.lig_0>
-48.2216

>  <SCORE.INTRA.VDW>
1.30836

>  <SCORE.INTRA.VDW.0>
-1.3967

>  <SCORE.INTRA.norm>
-0.682026

>  <SCORE.RESTR>
0.00334073

>  <SCORE.RESTR.CAVITY>
0.00334073

>  <SCORE.RESTR.norm>
0.000238624

>  <SCORE.SYSTEM>
0

>  <SCORE.SYSTEM.CONST>
0

>  <SCORE.SYSTEM.DIHEDRAL>
0

>  <SCORE.SYSTEM.SOLV>
0

>  <SCORE.SYSTEM.norm>
0

>  <SCORE.heavy>
14

>  <SCORE.norm>
-0.591643

>  <RMSD>
4.259

$$$$
ligand
 OpenBabel11021811463D
libRbt.so/2013.1/901 2013/11/27
 14 13  0  0  0  0  0  0  0  0999 V2000
   17.4460   14.0384    6.5439 N   0  0  0  0  0  0  0  0  0  0  0  0
   15.9778   14.0553    6.4960 C   0  0  0  0  0  0  0  0  0  0  0  0
   15.4238   13.6899    7.8693 C   0  0  0  0  0  0  0  0  0  0  0  0
   13.9058   13.6779    7.7943 C   0  0  0  0  0  0  0  0  0  0  0  0
   13.3662   13.3201    9.1110 N   0  0  0  0  0  0  0  0  0  0  0  0
   12.7176   12.0050    8.9672 C   0  0  0  0  0  0  0  0  0  0  0  0
   11.7557   11.7480   10.1329 C   0  0  0  0  0  0  0  0  0  0  0  0
   11.0249   10.4225    9.8712 C   0  0  0  0  0  0  0  0  0  0  0  0
    9.9886   10.2057   10.8938 C   0  0  0  0  0  0  0  0  0  0  0  0
   10.6671    9.7651   12.1296 N   0  0  0  0  0  0  0  0  0  0  0  0
    9.8449    8.6731   12.8235 C   0  0  0  0  0  0  0  0  0  0  0  0
   10.3383    8.4932   14.2643 C   0  0  0  0  0  0  0  0  0  0  0  0
   11.7162    7.9651   14.2567 C   0  0  0  0  0  0  0  0  0  0  0  0
   12.1952    7.8034   15.6462 N   0  0  0  0  0  0  0  0  0  0  0  0
  1  2  1  0  0  0  0
  2  3  1  0  0  0  0
  3  4  1  0  0  0  0
  4  5  1  0  0  0  0
  5  6  1  0  0  0  0
  6  7  1  0  0  0  0
  7  8  1  0  0  0  0
  8  9  1  0  0  0  0
  9 10  1  0  0  0  0
 10 11  1  0  0  0  0
 11 12  1  0  0  0  0
 12 13  1  0  0  0  0
 13 14  1  0  0  0  0
M  END
>  <CHROM.1>
-178.60019189,179.70793684,-113.22366744,-161.95750550,175.36609606,-174.06043631
-76.60896969,-140.73858135,-164.76028071,-65.91495633,179.49768395,12.59738607
11.13301332,10.48556709,-1.05730033,0.13847943,2.17457659

>  <Name>
ligand

>  <RI>
0

>  <Rbt.Current_Directory>
/home/itssahil/PROJECTS/Mol_Feturizer/New_Systems/rnas/2O3Y

>  <Rbt.Executable>
rbdock ($Id: //depot/dev/client3/rdock/2013.1/src/exe/rbdock.cxx#4 $)

>  <Rbt.Library>
libRbt.so (2013.1, Build901 2013/11/27)

>  <Rbt.Parameter_File>
/export/apps/rDock/src/rDock_2013.1_src/data/scripts/dock_solv.prm

>  <Rbt.Receptor>
prm/pocket_docking_5.prm

>  <SCORE>
-10.055

>  <SCORE.INTER>
-0.115147

>  <SCORE.INTER.CONST>
1

>  <SCORE.INTER.POLAR>
0

>  <SCORE.INTER.ROT>
11

>  <SCORE.INTER.SOLV>
4.09543

>  <SCORE.INTER.VDW>
-12.3752

>  <SCORE.INTER.norm>
-0.00822477

>  <SCORE.INTRA>
-9.93983

>  <SCORE.INTRA.DIHEDRAL>
-20.3041

>  <SCORE.INTRA.DIHEDRAL.0>
24.1231

>  <SCORE.INTRA.POLAR>
0

>  <SCORE.INTRA.POLAR.0>
0

>  <SCORE.INTRA.REPUL>
0

>  <SCORE.INTRA.REPUL.0>
0

>  <SCORE.INTRA.SOLV>
-0.211784

>  <SCORE.INTRA.SOLV.lig_0>
-48.2216

>  <SCORE.INTRA.VDW>
0.31813

>  <SCORE.INTRA.VDW.0>
-1.3967

>  <SCORE.INTRA.norm>
-0.709988

>  <SCORE.RESTR>
0

>  <SCORE.RESTR.CAVITY>
0

>  <SCORE.RESTR.norm>
0

>  <SCORE.SYSTEM>
0

>  <SCORE.SYSTEM.CONST>
0

>  <SCORE.SYSTEM.DIHEDRAL>
0

>  <SCORE.SYSTEM.SOLV>
0

>  <SCORE.SYSTEM.norm>
0

>  <SCORE.heavy>
14

>  <SCORE.norm>
-0.718213

>  <RMSD>
4.266

$$$$
ligand
 OpenBabel11021811463D
libRbt.so/2013.1/901 2013/11/27
 14 13  0  0  0  0  0  0  0  0999 V2000
   14.9030   14.0015    8.4794 N   0  0  0  0  0  0  0  0  0  0  0  0
   13.5232   14.0892    7.9826 C   0  0  0  0  0  0  0  0  0  0  0  0
   12.8254   12.7493    8.1918 C   0  0  0  0  0  0  0  0  0  0  0  0
   12.7159   12.4852    9.6846 C   0  0  0  0  0  0  0  0  0  0  0  0
   12.0516   11.1936    9.8930 N   0  0  0  0  0  0  0  0  0  0  0  0
   10.6054   11.4623    9.9771 C   0  0  0  0  0  0  0  0  0  0  0  0
    9.8589   10.2335   10.5087 C   0  0  0  0  0  0  0  0  0  0  0  0
   10.2772   10.0105   11.9698 C   0  0  0  0  0  0  0  0  0  0  0  0
    9.5922    8.8282   12.5173 C   0  0  0  0  0  0  0  0  0  0  0  0
    9.9020    8.7617   13.9600 N   0  0  0  0  0  0  0  0  0  0  0  0
   10.6958    7.4880   14.2721 C   0  0  0  0  0  0  0  0  0  0  0  0
   12.1965    7.7657   14.1225 C   0  0  0  0  0  0  0  0  0  0  0  0
   12.6339    8.7140   15.1650 C   0  0  0  0  0  0  0  0  0  0  0  0
   14.0734    9.0084   14.9980 N   0  0  0  0  0  0  0  0  0  0  0  0
  1  2  1  0  0  0  0
  2  3  1  0  0  0  0
  3  4  1  0  0  0  0
  4  5  1  0  0  0  0
  5  6  1  0  0  0  0
  6  7  1  0  0  0  0
  7  8  1  0  0  0  0
  8  9  1  0  0  0  0
  9 10  1  0  0  0  0
 10 11  1  0  0  0  0
 11 12  1  0  0  0  0
 12 13  1  0  0  0  0
 13 14  1  0  0  0  0
M  END
>  <CHROM.1>
64.78779166,-179.69885954,-90.01287619,-167.08121340,66.82822904,-179.41837839
-173.18499293,-116.41455494,89.07859770,66.73537656,-178.53116182,11.84637434
10.48497351,11.55143862,-1.31641361,0.31146310,2.20271564

>  <Name>
ligand

>  <RI>
0

>  <Rbt.Current_Directory>
/home/itssahil/PROJECTS/Mol_Feturizer/New_Systems/rnas/2O3Y

>  <Rbt.Executable>
rbdock ($Id: //depot/dev/client3/rdock/2013.1/src/exe/rbdock.cxx#4 $)

>  <Rbt.Library>
libRbt.so (2013.1, Build901 2013/11/27)

>  <Rbt.Parameter_File>
/export/apps/rDock/src/rDock_2013.1_src/data/scripts/dock_solv.prm

>  <Rbt.Receptor>
prm/pocket_docking_5.prm

>  <SCORE>
-9.984

>  <SCORE.INTER>
-0.910174

>  <SCORE.INTER.CONST>
1

>  <SCORE.INTER.POLAR>
0

>  <SCORE.INTER.ROT>
11

>  <SCORE.INTER.SOLV>
6.14069

>  <SCORE.INTER.VDW>
-13.587

>  <SCORE.INTER.norm>
-0.0650124

>  <SCORE.INTRA>
-9.07383

>  <SCORE.INTRA.DIHEDRAL>
-21.0156

>  <SCORE.INTRA.DIHEDRAL.0>
24.1231

>  <SCORE.INTRA.POLAR>
0

>  <SCORE.INTRA.POLAR.0>
0

>  <SCORE.INTRA.REPUL>
0

>  <SCORE.INTRA.REPUL.0>
0

>  <SCORE.INTRA.SOLV>
0.749841

>  <SCORE.INTRA.SOLV.lig_0>
-48.2216

>  <SCORE.INTRA.VDW>
1.05907

>  <SCORE.INTRA.VDW.0>
-1.3967

>  <SCORE.INTRA.norm>
-0.64813

>  <SCORE.RESTR>
0

>  <SCORE.RESTR.CAVITY>
0

>  <SCORE.RESTR.norm>
0

>  <SCORE.SYSTEM>
0

>  <SCORE.SYSTEM.CONST>
0

>  <SCORE.SYSTEM.DIHEDRAL>
0

>  <SCORE.SYSTEM.SOLV>
0

>  <SCORE.SYSTEM.norm>
0

>  <SCORE.heavy>
14

>  <SCORE.norm>
-0.713143

>  <RMSD>
4.269

$$$$
ligand
 OpenBabel11021811463D
libRbt.so/2013.1/901 2013/11/27
 14 13  0  0  0  0  0  0  0  0999 V2000
   17.4795   13.4940    6.9326 N   0  0  0  0  0  0  0  0  0  0  0  0
   16.1309   14.0606    7.0682 C   0  0  0  0  0  0  0  0  0  0  0  0
   15.4641   13.4842    8.3130 C   0  0  0  0  0  0  0  0  0  0  0  0
   14.0623   14.0607    8.4255 C   0  0  0  0  0  0  0  0  0  0  0  0
   13.4226   13.5268    9.6332 N   0  0  0  0  0  0  0  0  0  0  0  0
   12.4423   12.5195    9.1913 C   0  0  0  0  0  0  0  0  0  0  0  0
   11.7901   11.8361   10.3985 C   0  0  0  0  0  0  0  0  0  0  0  0
   10.6567   10.9341    9.8873 C   0  0  0  0  0  0  0  0  0  0  0  0
   10.0646   10.1827   11.0060 C   0  0  0  0  0  0  0  0  0  0  0  0
   11.0905    9.2448   11.5056 N   0  0  0  0  0  0  0  0  0  0  0  0
   10.4864    8.3156   12.5647 C   0  0  0  0  0  0  0  0  0  0  0  0
   11.3252    8.3808   13.8468 C   0  0  0  0  0  0  0  0  0  0  0  0
   10.8062    7.4118   14.8313 C   0  0  0  0  0  0  0  0  0  0  0  0
   11.6125    7.4792   16.0690 N   0  0  0  0  0  0  0  0  0  0  0  0
  1  2  1  0  0  0  0
  2  3  1  0  0  0  0
  3  4  1  0  0  0  0
  4  5  1  0  0  0  0
  5  6  1  0  0  0  0
  6  7  1  0  0  0  0
  7  8  1  0  0  0  0
  8  9  1  0  0  0  0
  9 10  1  0  0  0  0
 10 11  1  0  0  0  0
 11 12  1  0  0  0  0
 12 13  1  0  0  0  0
 13 14  1  0  0  0  0
M  END
>  <CHROM.1>
-179.00930551,-179.10317182,-105.20518857,176.11623543,172.80237535,175.94221641
-66.57968946,-173.38187722,-126.00628143,-175.73684235,-179.78238496,12.63066193
11.06654307,10.69078294,-1.06585634,0.09853599,2.25361890

>  <Name>
ligand

>  <RI>
0

>  <Rbt.Current_Directory>
/home/itssahil/PROJECTS/Mol_Feturizer/New_Systems/rnas/2O3Y

>  <Rbt.Executable>
rbdock ($Id: //depot/dev/client3/rdock/2013.1/src/exe/rbdock.cxx#4 $)

>  <Rbt.Library>
libRbt.so (2013.1, Build901 2013/11/27)

>  <Rbt.Parameter_File>
/export/apps/rDock/src/rDock_2013.1_src/data/scripts/dock_solv.prm

>  <Rbt.Receptor>
prm/pocket_docking_4.prm

>  <SCORE>
-9.15774

>  <SCORE.INTER>
1.36436

>  <SCORE.INTER.CONST>
1

>  <SCORE.INTER.POLAR>
0

>  <SCORE.INTER.ROT>
11

>  <SCORE.INTER.SOLV>
3.91103

>  <SCORE.INTER.VDW>
-11.3274

>  <SCORE.INTER.norm>
0.0974544

>  <SCORE.INTRA>
-10.5221

>  <SCORE.INTRA.DIHEDRAL>
-21.3756

>  <SCORE.INTRA.DIHEDRAL.0>
24.1231

>  <SCORE.INTRA.POLAR>
0

>  <SCORE.INTRA.POLAR.0>
0

>  <SCORE.INTRA.REPUL>
0

>  <SCORE.INTRA.REPUL.0>
0

>  <SCORE.INTRA.SOLV>
-0.527355

>  <SCORE.INTRA.SOLV.lig_0>
-48.2216

>  <SCORE.INTRA.VDW>
0.429386

>  <SCORE.INTRA.VDW.0>
-1.3967

>  <SCORE.INTRA.norm>
-0.751579

>  <SCORE.RESTR>
0

>  <SCORE.RESTR.CAVITY>
0

>  <SCORE.RESTR.norm>
0

>  <SCORE.SYSTEM>
0

>  <SCORE.SYSTEM.CONST>
0

>  <SCORE.SYSTEM.DIHEDRAL>
0

>  <SCORE.SYSTEM.SOLV>
0

>  <SCORE.SYSTEM.norm>
0

>  <SCORE.heavy>
14

>  <SCORE.norm>
-0.654125

>  <RMSD>
4.302

$$$$
ligand
 OpenBabel11021811463D
libRbt.so/2013.1/901 2013/11/27
 14 13  0  0  0  0  0  0  0  0999 V2000
   14.6644   14.4941    9.7360 N   0  0  0  0  0  0  0  0  0  0  0  0
   14.9354   13.3088    8.9114 C   0  0  0  0  0  0  0  0  0  0  0  0
   13.9170   13.2387    7.7783 C   0  0  0  0  0  0  0  0  0  0  0  0
   12.5342   13.0428    8.3779 C   0  0  0  0  0  0  0  0  0  0  0  0
   12.4653   11.7126    8.9933 N   0  0  0  0  0  0  0  0  0  0  0  0
   11.2778   11.7029    9.8652 C   0  0  0  0  0  0  0  0  0  0  0  0
   10.9641   10.2771   10.3330 C   0  0  0  0  0  0  0  0  0  0  0  0
   12.2152    9.7094   11.0201 C   0  0  0  0  0  0  0  0  0  0  0  0
   11.8669    8.5028   11.7880 C   0  0  0  0  0  0  0  0  0  0  0  0
   11.0606    8.9307   12.9492 N   0  0  0  0  0  0  0  0  0  0  0  0
   10.7652    7.7322   13.8582 C   0  0  0  0  0  0  0  0  0  0  0  0
   11.9971    7.4196   14.7162 C   0  0  0  0  0  0  0  0  0  0  0  0
   11.7202    6.2558   15.5801 C   0  0  0  0  0  0  0  0  0  0  0  0
   10.6622    6.5995   16.5544 N   0  0  0  0  0  0  0  0  0  0  0  0
  1  2  1  0  0  0  0
  2  3  1  0  0  0  0
  3  4  1  0  0  0  0
  4  5  1  0  0  0  0
  5  6  1  0  0  0  0
  6  7  1  0  0  0  0
  7  8  1  0  0  0  0
  8  9  1  0  0  0  0
  9 10  1  0  0  0  0
 10 11  1  0  0  0  0
 11 12  1  0  0  0  0
 12 13  1  0  0  0  0
 13 14  1  0  0  0  0
M  END
>  <CHROM.1>
-64.04376944,-67.51085468,164.78292787,168.73813528,55.80287755,165.21379015
-70.16953349,-175.16404518,78.66524128,-179.31477063,-65.52887812,12.21755621
10.20899002,11.46127998,-1.26113475,0.54103503,2.18030733

>  <Name>
ligand

>  <RI>
0

>  <Rbt.Current_Directory>
/home/itssahil/PROJECTS/Mol_Feturizer/New_Systems/rnas/2O3Y

>  <Rbt.Executable>
rbdock ($Id: //depot/dev/client3/rdock/2013.1/src/exe/rbdock.cxx#4 $)

>  <Rbt.Library>
libRbt.so (2013.1, Build901 2013/11/27)

>  <Rbt.Parameter_File>
/export/apps/rDock/src/rDock_2013.1_src/data/scripts/dock_solv.prm

>  <Rbt.Receptor>
prm/pocket_docking_5.prm

>  <SCORE>
-7.4903

>  <SCORE.INTER>
0.461244

>  <SCORE.INTER.CONST>
1

>  <SCORE.INTER.POLAR>
0

>  <SCORE.INTER.ROT>
11

>  <SCORE.INTER.SOLV>
5.42801

>  <SCORE.INTER.VDW>
-12.4352

>  <SCORE.INTER.norm>
0.032946

>  <SCORE.INTRA>
-7.95154

>  <SCORE.INTRA.DIHEDRAL>
-21.848

>  <SCORE.INTRA.DIHEDRAL.0>
24.1231

>  <SCORE.INTRA.POLAR>
0

>  <SCORE.INTRA.POLAR.0>
0

>  <SCORE.INTRA.REPUL>
0

>  <SCORE.INTRA.REPUL.0>
0

>  <SCORE.INTRA.SOLV>
2.83433

>  <SCORE.INTRA.SOLV.lig_0>
-48.2216

>  <SCORE.INTRA.VDW>
1.5553

>  <SCORE.INTRA.VDW.0>
-1.3967

>  <SCORE.INTRA.norm>
-0.567967

>  <SCORE.RESTR>
0

>  <SCORE.RESTR.CAVITY>
0

>  <SCORE.RESTR.norm>
0

>  <SCORE.SYSTEM>
0

>  <SCORE.SYSTEM.CONST>
0

>  <SCORE.SYSTEM.DIHEDRAL>
0

>  <SCORE.SYSTEM.SOLV>
0

>  <SCORE.SYSTEM.norm>
0

>  <SCORE.heavy>
14

>  <SCORE.norm>
-0.535021

>  <RMSD>
4.323

$$$$
ligand
 OpenBabel11021811463D
libRbt.so/2013.1/901 2013/11/27
 14 13  0  0  0  0  0  0  0  0999 V2000
   16.9497   13.9579    7.1383 N   0  0  0  0  0  0  0  0  0  0  0  0
   15.5337   13.5873    7.0131 C   0  0  0  0  0  0  0  0  0  0  0  0
   14.9150   13.4812    8.4031 C   0  0  0  0  0  0  0  0  0  0  0  0
   13.4495   13.1056    8.2563 C   0  0  0  0  0  0  0  0  0  0  0  0
   12.8682   12.9221    9.5910 N   0  0  0  0  0  0  0  0  0  0  0  0
   11.7995   11.9164    9.4601 C   0  0  0  0  0  0  0  0  0  0  0  0
   11.4949   11.2737   10.8181 C   0  0  0  0  0  0  0  0  0  0  0  0
   10.3212   10.2993   10.6376 C   0  0  0  0  0  0  0  0  0  0  0  0
   10.1244    9.5114   11.8653 C   0  0  0  0  0  0  0  0  0  0  0  0
   11.2843    8.6076   12.0056 N   0  0  0  0  0  0  0  0  0  0  0  0
   11.5592    8.3264   13.4872 C   0  0  0  0  0  0  0  0  0  0  0  0
   13.0091    7.8590   13.6631 C   0  0  0  0  0  0  0  0  0  0  0  0
   13.3008    7.6692   15.0971 C   0  0  0  0  0  0  0  0  0  0  0  0
   12.5657    6.4900   15.6029 N   0  0  0  0  0  0  0  0  0  0  0  0
  1  2  1  0  0  0  0
  2  3  1  0  0  0  0
  3  4  1  0  0  0  0
  4  5  1  0  0  0  0
  5  6  1  0  0  0  0
  6  7  1  0  0  0  0
  7  8  1  0  0  0  0
  8  9  1  0  0  0  0
  9 10  1  0  0  0  0
 10 11  1  0  0  0  0
 11 12  1  0  0  0  0
 12 13  1  0  0  0  0
 13 14  1  0  0  0  0
M  END
>  <CHROM.1>
179.66900293,176.60020309,-149.79850840,158.72053350,176.65254182,171.54643111
-68.59673973,150.16013566,-158.74241354,176.47171489,70.12314906,12.79798321
10.64342775,10.93128707,-1.24517398,0.05480820,2.29483573

>  <Name>
ligand

>  <RI>
0

>  <Rbt.Current_Directory>
/home/itssahil/PROJECTS/Mol_Feturizer/New_Systems/rnas/2O3Y

>  <Rbt.Executable>
rbdock ($Id: //depot/dev/client3/rdock/2013.1/src/exe/rbdock.cxx#4 $)

>  <Rbt.Library>
libRbt.so (2013.1, Build901 2013/11/27)

>  <Rbt.Parameter_File>
/export/apps/rDock/src/rDock_2013.1_src/data/scripts/dock_solv.prm

>  <Rbt.Receptor>
prm/pocket_docking_4.prm

>  <SCORE>
-7.90121

>  <SCORE.INTER>
2.24765

>  <SCORE.INTER.CONST>
1

>  <SCORE.INTER.POLAR>
0

>  <SCORE.INTER.ROT>
11

>  <SCORE.INTER.SOLV>
6.33548

>  <SCORE.INTER.VDW>
-11.5467

>  <SCORE.INTER.norm>
0.160547

>  <SCORE.INTRA>
-10.1605

>  <SCORE.INTRA.DIHEDRAL>
-21.1697

>  <SCORE.INTRA.DIHEDRAL.0>
24.1231

>  <SCORE.INTRA.POLAR>
0

>  <SCORE.INTRA.POLAR.0>
0

>  <SCORE.INTRA.REPUL>
0

>  <SCORE.INTRA.REPUL.0>
0

>  <SCORE.INTRA.SOLV>
0.188163

>  <SCORE.INTRA.SOLV.lig_0>
-48.2216

>  <SCORE.INTRA.VDW>
0.330253

>  <SCORE.INTRA.VDW.0>
-1.3967

>  <SCORE.INTRA.norm>
-0.725751

>  <SCORE.RESTR>
0.0116576

>  <SCORE.RESTR.CAVITY>
0.0116576

>  <SCORE.RESTR.norm>
0.000832682

>  <SCORE.SYSTEM>
0

>  <SCORE.SYSTEM.CONST>
0

>  <SCORE.SYSTEM.DIHEDRAL>
0

>  <SCORE.SYSTEM.SOLV>
0

>  <SCORE.SYSTEM.norm>
0

>  <SCORE.heavy>
14

>  <SCORE.norm>
-0.564372

>  <RMSD>
4.325

$$$$
ligand
 OpenBabel11021811463D
libRbt.so/2013.1/901 2013/11/27
 14 13  0  0  0  0  0  0  0  0999 V2000
   10.4177   13.0733   16.3740 N   0  0  0  0  0  0  0  0  0  0  0  0
   11.8473   12.9020   16.6658 C   0  0  0  0  0  0  0  0  0  0  0  0
   12.0098   11.9766   17.8672 C   0  0  0  0  0  0  0  0  0  0  0  0
   13.4932   11.7601   18.1178 C   0  0  0  0  0  0  0  0  0  0  0  0
   14.0638   11.0155   16.9895 N   0  0  0  0  0  0  0  0  0  0  0  0
   15.0113   10.0387   17.5540 C   0  0  0  0  0  0  0  0  0  0  0  0
   15.7185    9.2652   16.4352 C   0  0  0  0  0  0  0  0  0  0  0  0
   16.5711   10.2563   15.6287 C   0  0  0  0  0  0  0  0  0  0  0  0
   17.1426    9.5881   14.4482 C   0  0  0  0  0  0  0  0  0  0  0  0
   17.8155   10.6204   13.6339 N   0  0  0  0  0  0  0  0  0  0  0  0
   17.7786   10.2315   12.1515 C   0  0  0  0  0  0  0  0  0  0  0  0
   19.2096   10.0621   11.6270 C   0  0  0  0  0  0  0  0  0  0  0  0
   19.1756    9.6709   10.2046 C   0  0  0  0  0  0  0  0  0  0  0  0
   20.5560    9.5480    9.6888 N   0  0  0  0  0  0  0  0  0  0  0  0
  1  2  1  0  0  0  0
  2  3  1  0  0  0  0
  3  4  1  0  0  0  0
  4  5  1  0  0  0  0
  5  6  1  0  0  0  0
  6  7  1  0  0  0  0
  7  8  1  0  0  0  0
  8  9  1  0  0  0  0
  9 10  1  0  0  0  0
 10 11  1  0  0  0  0
 11 12  1  0  0  0  0
 12 13  1  0  0  0  0
 13 14  1  0  0  0  0
M  END
>  <CHROM.1>
177.51359095,-66.27656606,-139.75280707,-176.78610354,64.52994459,-173.32177984
173.50225925,-150.29048605,-118.40603729,179.28145826,178.28311300,15.77220786
10.71476078,14.81356136,2.57723402,-0.54502851,1.91709556

>  <Name>
ligand

>  <RI>
0

>  <Rbt.Current_Directory>
/home/itssahil/PROJECTS/Mol_Feturizer/New_Systems/rnas/2O3Y

>  <Rbt.Executable>
rbdock ($Id: //depot/dev/client3/rdock/2013.1/src/exe/rbdock.cxx#4 $)

>  <Rbt.Library>
libRbt.so (2013.1, Build901 2013/11/27)

>  <Rbt.Parameter_File>
/export/apps/rDock/src/rDock_2013.1_src/data/scripts/dock_solv.prm

>  <Rbt.Receptor>
prm/pocket_docking_5.prm

>  <SCORE>
-10.3313

>  <SCORE.INTER>
-0.264156

>  <SCORE.INTER.CONST>
1

>  <SCORE.INTER.POLAR>
0

>  <SCORE.INTER.ROT>
11

>  <SCORE.INTER.SOLV>
7.65114

>  <SCORE.INTER.VDW>
-13.6598

>  <SCORE.INTER.norm>
-0.0188683

>  <SCORE.INTRA>
-10.0672

>  <SCORE.INTRA.DIHEDRAL>
-20.8143

>  <SCORE.INTRA.DIHEDRAL.0>
24.1231

>  <SCORE.INTRA.POLAR>
0

>  <SCORE.INTRA.POLAR.0>
0

>  <SCORE.INTRA.REPUL>
0

>  <SCORE.INTRA.REPUL.0>
0

>  <SCORE.INTRA.SOLV>
-0.0626182

>  <SCORE.INTRA.SOLV.lig_0>
-48.2216

>  <SCORE.INTRA.VDW>
0.371309

>  <SCORE.INTRA.VDW.0>
-1.3967

>  <SCORE.INTRA.norm>
-0.719083

>  <SCORE.RESTR>
0

>  <SCORE.RESTR.CAVITY>
0

>  <SCORE.RESTR.norm>
0

>  <SCORE.SYSTEM>
0

>  <SCORE.SYSTEM.CONST>
0

>  <SCORE.SYSTEM.DIHEDRAL>
0

>  <SCORE.SYSTEM.SOLV>
0

>  <SCORE.SYSTEM.norm>
0

>  <SCORE.heavy>
14

>  <SCORE.norm>
-0.737952

>  <RMSD>
4.329

$$$$
ligand
 OpenBabel11021811463D
libRbt.so/2013.1/901 2013/11/27
 14 13  0  0  0  0  0  0  0  0999 V2000
   19.1546   13.5953    7.0294 N   0  0  0  0  0  0  0  0  0  0  0  0
   18.0555   13.5642    8.0036 C   0  0  0  0  0  0  0  0  0  0  0  0
   16.8455   14.2885    7.4227 C   0  0  0  0  0  0  0  0  0  0  0  0
   15.7074   14.2183    8.4276 C   0  0  0  0  0  0  0  0  0  0  0  0
   15.2424   12.8300    8.5251 N   0  0  0  0  0  0  0  0  0  0  0  0
   14.1271   12.6821    7.5738 C   0  0  0  0  0  0  0  0  0  0  0  0
   12.7813   12.7857    8.3005 C   0  0  0  0  0  0  0  0  0  0  0  0
   12.6896   11.6327    9.3113 C   0  0  0  0  0  0  0  0  0  0  0  0
   11.3723   11.6393    9.9680 C   0  0  0  0  0  0  0  0  0  0  0  0
   11.3864   10.5886   11.0061 N   0  0  0  0  0  0  0  0  0  0  0  0
    9.9887    9.9781   11.1594 C   0  0  0  0  0  0  0  0  0  0  0  0
    9.8557    9.3357   12.5455 C   0  0  0  0  0  0  0  0  0  0  0  0
   10.7856    8.1955   12.6573 C   0  0  0  0  0  0  0  0  0  0  0  0
   10.7020    7.6161   14.0153 N   0  0  0  0  0  0  0  0  0  0  0  0
  1  2  1  0  0  0  0
  2  3  1  0  0  0  0
  3  4  1  0  0  0  0
  4  5  1  0  0  0  0
  5  6  1  0  0  0  0
  6  7  1  0  0  0  0
  7  8  1  0  0  0  0
  8  9  1  0  0  0  0
  9 10  1  0  0  0  0
 10 11  1  0  0  0  0
 11 12  1  0  0  0  0
 12 13  1  0  0  0  0
 13 14  1  0  0  0  0
M  END
>  <CHROM.1>
178.63407794,-68.57337225,-93.14678078,-99.19976267,-62.19580468,-176.14378613
-175.15890276,-147.50061831,-157.44977867,-65.13133973,177.37750314,13.47790685
11.63950106,9.71020768,-0.78764975,0.00669373,2.34245063

>  <Name>
ligand

>  <RI>
0

>  <Rbt.Current_Directory>
/home/itssahil/PROJECTS/Mol_Feturizer/New_Systems/rnas/2O3Y

>  <Rbt.Executable>
rbdock ($Id: //depot/dev/client3/rdock/2013.1/src/exe/rbdock.cxx#4 $)

>  <Rbt.Library>
libRbt.so (2013.1, Build901 2013/11/27)

>  <Rbt.Parameter_File>
/export/apps/rDock/src/rDock_2013.1_src/data/scripts/dock_solv.prm

>  <Rbt.Receptor>
prm/pocket_docking_5.prm

>  <SCORE>
-6.55921

>  <SCORE.INTER>
2.66225

>  <SCORE.INTER.CONST>
1

>  <SCORE.INTER.POLAR>
0

>  <SCORE.INTER.ROT>
11

>  <SCORE.INTER.SOLV>
5.55394

>  <SCORE.INTER.VDW>
-11.0098

>  <SCORE.INTER.norm>
0.190161

>  <SCORE.INTRA>
-9.22146

>  <SCORE.INTRA.DIHEDRAL>
-20.9225

>  <SCORE.INTRA.DIHEDRAL.0>
24.1231

>  <SCORE.INTRA.POLAR>
0

>  <SCORE.INTRA.POLAR.0>
0

>  <SCORE.INTRA.REPUL>
0

>  <SCORE.INTRA.REPUL.0>
0

>  <SCORE.INTRA.SOLV>
0.351849

>  <SCORE.INTRA.SOLV.lig_0>
-48.2216

>  <SCORE.INTRA.VDW>
1.06386

>  <SCORE.INTRA.VDW.0>
-1.3967

>  <SCORE.INTRA.norm>
-0.658676

>  <SCORE.RESTR>
0

>  <SCORE.RESTR.CAVITY>
0

>  <SCORE.RESTR.norm>
0

>  <SCORE.SYSTEM>
0

>  <SCORE.SYSTEM.CONST>
0

>  <SCORE.SYSTEM.DIHEDRAL>
0

>  <SCORE.SYSTEM.SOLV>
0

>  <SCORE.SYSTEM.norm>
0

>  <SCORE.heavy>
14

>  <SCORE.norm>
-0.468515

>  <RMSD>
4.329

$$$$
ligand
 OpenBabel11021811463D
libRbt.so/2013.1/901 2013/11/27
 14 13  0  0  0  0  0  0  0  0999 V2000
   10.1987   13.0019   17.0388 N   0  0  0  0  0  0  0  0  0  0  0  0
   11.1075   11.9650   16.5318 C   0  0  0  0  0  0  0  0  0  0  0  0
   12.3818   11.9570   17.3699 C   0  0  0  0  0  0  0  0  0  0  0  0
   13.3257   10.9052   16.8107 C   0  0  0  0  0  0  0  0  0  0  0  0
   14.5800   10.9373   17.5713 N   0  0  0  0  0  0  0  0  0  0  0  0
   15.6336   10.4114   16.6858 C   0  0  0  0  0  0  0  0  0  0  0  0
   16.2684   11.5445   15.8713 C   0  0  0  0  0  0  0  0  0  0  0  0
   17.4685   10.9714   15.1026 C   0  0  0  0  0  0  0  0  0  0  0  0
   17.0020   10.0795   14.0285 C   0  0  0  0  0  0  0  0  0  0  0  0
   18.1962    9.5447   13.3431 N   0  0  0  0  0  0  0  0  0  0  0  0
   18.4469   10.3134   12.0408 C   0  0  0  0  0  0  0  0  0  0  0  0
   19.8796   10.0567   11.5580 C   0  0  0  0  0  0  0  0  0  0  0  0
   20.0999   10.7378   10.2676 C   0  0  0  0  0  0  0  0  0  0  0  0
   19.2331   10.1353    9.2321 N   0  0  0  0  0  0  0  0  0  0  0  0
  1  2  1  0  0  0  0
  2  3  1  0  0  0  0
  3  4  1  0  0  0  0
  4  5  1  0  0  0  0
  5  6  1  0  0  0  0
  6  7  1  0  0  0  0
  7  8  1  0  0  0  0
  8  9  1  0  0  0  0
  9 10  1  0  0  0  0
 10 11  1  0  0  0  0
 11 12  1  0  0  0  0
 12 13  1  0  0  0  0
 13 14  1  0  0  0  0
M  END
>  <CHROM.1>
-178.52262553,177.25622106,-154.64190896,89.49398224,173.03228995,70.40028005
-179.08007741,-100.31231295,163.15311070,177.01109700,-65.14200035,15.98744239
10.89721739,14.53241423,2.49374780,-0.32898662,1.70409164

>  <Name>
ligand

>  <RI>
0

>  <Rbt.Current_Directory>
/home/itssahil/PROJECTS/Mol_Feturizer/New_Systems/rnas/2O3Y

>  <Rbt.Executable>
rbdock ($Id: //depot/dev/client3/rdock/2013.1/src/exe/rbdock.cxx#4 $)

>  <Rbt.Library>
libRbt.so (2013.1, Build901 2013/11/27)

>  <Rbt.Parameter_File>
/export/apps/rDock/src/rDock_2013.1_src/data/scripts/dock_solv.prm

>  <Rbt.Receptor>
prm/pocket_docking_7.prm

>  <SCORE>
-8.00162

>  <SCORE.INTER>
0.830806

>  <SCORE.INTER.CONST>
1

>  <SCORE.INTER.POLAR>
0

>  <SCORE.INTER.ROT>
11

>  <SCORE.INTER.SOLV>
7.92076

>  <SCORE.INTER.VDW>
-13.0197

>  <SCORE.INTER.norm>
0.0593433

>  <SCORE.INTRA>
-8.83243

>  <SCORE.INTRA.DIHEDRAL>
-21.159

>  <SCORE.INTRA.DIHEDRAL.0>
24.1231

>  <SCORE.INTRA.POLAR>
0

>  <SCORE.INTRA.POLAR.0>
0

>  <SCORE.INTRA.REPUL>
0

>  <SCORE.INTRA.REPUL.0>
0

>  <SCORE.INTRA.SOLV>
0.108229

>  <SCORE.INTRA.SOLV.lig_0>
-48.2216

>  <SCORE.INTRA.VDW>
1.69294

>  <SCORE.INTRA.VDW.0>
-1.3967

>  <SCORE.INTRA.norm>
-0.630888

>  <SCORE.RESTR>
0

>  <SCORE.RESTR.CAVITY>
0

>  <SCORE.RESTR.norm>
0

>  <SCORE.SYSTEM>
0

>  <SCORE.SYSTEM.CONST>
0

>  <SCORE.SYSTEM.DIHEDRAL>
0

>  <SCORE.SYSTEM.SOLV>
0

>  <SCORE.SYSTEM.norm>
0

>  <SCORE.heavy>
14

>  <SCORE.norm>
-0.571544

>  <RMSD>
4.337

$$$$
ligand
 OpenBabel11021811463D
libRbt.so/2013.1/901 2013/11/27
 14 13  0  0  0  0  0  0  0  0999 V2000
   10.8908    7.3733   16.0850 N   0  0  0  0  0  0  0  0  0  0  0  0
   10.6136    7.3677   14.6424 C   0  0  0  0  0  0  0  0  0  0  0  0
   10.7080    8.7919   14.1048 C   0  0  0  0  0  0  0  0  0  0  0  0
   10.4364    8.7669   12.6096 C   0  0  0  0  0  0  0  0  0  0  0  0
   10.6753   10.1057   12.0590 N   0  0  0  0  0  0  0  0  0  0  0  0
   10.0594   10.1368   10.7209 C   0  0  0  0  0  0  0  0  0  0  0  0
   10.4808   11.4008    9.9628 C   0  0  0  0  0  0  0  0  0  0  0  0
   11.9785   11.2919    9.6396 C   0  0  0  0  0  0  0  0  0  0  0  0
   12.4106   12.4540    8.8462 C   0  0  0  0  0  0  0  0  0  0  0  0
   13.8446   12.2762    8.5397 N   0  0  0  0  0  0  0  0  0  0  0  0
   14.3451   13.4306    7.6642 C   0  0  0  0  0  0  0  0  0  0  0  0
   15.8537   13.2842    7.4306 C   0  0  0  0  0  0  0  0  0  0  0  0
   16.3375   14.3954    6.5888 C   0  0  0  0  0  0  0  0  0  0  0  0
   17.8032   14.2927    6.4228 N   0  0  0  0  0  0  0  0  0  0  0  0
  1  2  1  0  0  0  0
  2  3  1  0  0  0  0
  3  4  1  0  0  0  0
  4  5  1  0  0  0  0
  5  6  1  0  0  0  0
  6  7  1  0  0  0  0
  7  8  1  0  0  0  0
  8  9  1  0  0  0  0
  9 10  1  0  0  0  0
 10 11  1  0  0  0  0
 11 12  1  0  0  0  0
 12 13  1  0  0  0  0
 13 14  1  0  0  0  0
M  END
>  <CHROM.1>
179.28810877,-173.61114384,-164.81090604,-169.39859325,68.32201858,176.94232799
-178.62346268,177.75423844,176.26760660,-179.95299686,177.05885529,12.60239112
11.09776028,10.37957508,-2.11981001,-0.10062928,-0.96873394

>  <Name>
ligand

>  <RI>
0

>  <Rbt.Current_Directory>
/home/itssahil/PROJECTS/Mol_Feturizer/New_Systems/rnas/2O3Y

>  <Rbt.Executable>
rbdock ($Id: //depot/dev/client3/rdock/2013.1/src/exe/rbdock.cxx#4 $)

>  <Rbt.Library>
libRbt.so (2013.1, Build901 2013/11/27)

>  <Rbt.Parameter_File>
/export/apps/rDock/src/rDock_2013.1_src/data/scripts/dock_solv.prm

>  <Rbt.Receptor>
prm/pocket_docking_5.prm

>  <SCORE>
-11.7343

>  <SCORE.INTER>
0.115261

>  <SCORE.INTER.CONST>
1

>  <SCORE.INTER.POLAR>
0

>  <SCORE.INTER.ROT>
11

>  <SCORE.INTER.SOLV>
4.5722

>  <SCORE.INTER.VDW>
-12.3806

>  <SCORE.INTER.norm>
0.0082329

>  <SCORE.INTRA>
-11.8496

>  <SCORE.INTRA.DIHEDRAL>
-23.3457

>  <SCORE.INTRA.DIHEDRAL.0>
24.1231

>  <SCORE.INTRA.POLAR>
0

>  <SCORE.INTRA.POLAR.0>
0

>  <SCORE.INTRA.REPUL>
0

>  <SCORE.INTRA.REPUL.0>
0

>  <SCORE.INTRA.SOLV>
-0.598505

>  <SCORE.INTRA.SOLV.lig_0>
-48.2216

>  <SCORE.INTRA.VDW>
0.122526

>  <SCORE.INTRA.VDW.0>
-1.3967

>  <SCORE.INTRA.norm>
-0.846399

>  <SCORE.RESTR>
0

>  <SCORE.RESTR.CAVITY>
0

>  <SCORE.RESTR.norm>
0

>  <SCORE.SYSTEM>
0

>  <SCORE.SYSTEM.CONST>
0

>  <SCORE.SYSTEM.DIHEDRAL>
0

>  <SCORE.SYSTEM.SOLV>
0

>  <SCORE.SYSTEM.norm>
0

>  <SCORE.heavy>
14

>  <SCORE.norm>
-0.838166

>  <RMSD>
4.348

$$$$
ligand
 OpenBabel11021811463D
libRbt.so/2013.1/901 2013/11/27
 14 13  0  0  0  0  0  0  0  0999 V2000
   11.4590   17.5970   11.2818 N   0  0  0  0  0  0  0  0  0  0  0  0
   11.6124   16.3134   11.9797 C   0  0  0  0  0  0  0  0  0  0  0  0
   13.0949   15.9716   12.0875 C   0  0  0  0  0  0  0  0  0  0  0  0
   13.2389   14.6646   12.8498 C   0  0  0  0  0  0  0  0  0  0  0  0
   14.6608   14.3103   12.9246 N   0  0  0  0  0  0  0  0  0  0  0  0
   14.7380   12.9630   13.5158 C   0  0  0  0  0  0  0  0  0  0  0  0
   16.1906   12.4750   13.5574 C   0  0  0  0  0  0  0  0  0  0  0  0
   16.1978   11.0270   14.0700 C   0  0  0  0  0  0  0  0  0  0  0  0
   17.5654   10.4839   14.0325 C   0  0  0  0  0  0  0  0  0  0  0  0
   18.0023   10.4732   12.6215 N   0  0  0  0  0  0  0  0  0  0  0  0
   19.4758   10.0614   12.5274 C   0  0  0  0  0  0  0  0  0  0  0  0
   19.9372   10.1262   11.0664 C   0  0  0  0  0  0  0  0  0  0  0  0
   19.9770   11.5316   10.6184 C   0  0  0  0  0  0  0  0  0  0  0  0
   20.3890   11.5905    9.1995 N   0  0  0  0  0  0  0  0  0  0  0  0
  1  2  1  0  0  0  0
  2  3  1  0  0  0  0
  3  4  1  0  0  0  0
  4  5  1  0  0  0  0
  5  6  1  0  0  0  0
  6  7  1  0  0  0  0
  7  8  1  0  0  0  0
  8  9  1  0  0  0  0
  9 10  1  0  0  0  0
 10 11  1  0  0  0  0
 11 12  1  0  0  0  0
 12 13  1  0  0  0  0
 13 14  1  0  0  0  0
M  END
>  <CHROM.1>
178.22763926,178.42999290,-172.96670103,176.69795953,-175.28614514,175.85661130
-62.43962405,173.84641010,-177.01647879,68.50666466,-178.58048401,16.18138376
12.82749940,12.30976903,-2.80293350,-0.58296803,2.24396009

>  <Name>
ligand

>  <RI>
0

>  <Rbt.Current_Directory>
/home/itssahil/PROJECTS/Mol_Feturizer/New_Systems/rnas/2O3Y

>  <Rbt.Executable>
rbdock ($Id: //depot/dev/client3/rdock/2013.1/src/exe/rbdock.cxx#4 $)

>  <Rbt.Library>
libRbt.so (2013.1, Build901 2013/11/27)

>  <Rbt.Parameter_File>
/export/apps/rDock/src/rDock_2013.1_src/data/scripts/dock_solv.prm

>  <Rbt.Receptor>
prm/pocket_docking_5.prm

>  <SCORE>
-8.53889

>  <SCORE.INTER>
2.9167

>  <SCORE.INTER.CONST>
1

>  <SCORE.INTER.POLAR>
0

>  <SCORE.INTER.ROT>
11

>  <SCORE.INTER.SOLV>
5.99059

>  <SCORE.INTER.VDW>
-10.9857

>  <SCORE.INTER.norm>
0.208335

>  <SCORE.INTRA>
-11.4556

>  <SCORE.INTRA.DIHEDRAL>
-23.5598

>  <SCORE.INTRA.DIHEDRAL.0>
24.1231

>  <SCORE.INTRA.POLAR>
0

>  <SCORE.INTRA.POLAR.0>
0

>  <SCORE.INTRA.REPUL>
0

>  <SCORE.INTRA.REPUL.0>
0

>  <SCORE.INTRA.SOLV>
-0.116421

>  <SCORE.INTRA.SOLV.lig_0>
-48.2216

>  <SCORE.INTRA.VDW>
0.382529

>  <SCORE.INTRA.VDW.0>
-1.3967

>  <SCORE.INTRA.norm>
-0.818256

>  <SCORE.RESTR>
0

>  <SCORE.RESTR.CAVITY>
0

>  <SCORE.RESTR.norm>
0

>  <SCORE.SYSTEM>
0

>  <SCORE.SYSTEM.CONST>
0

>  <SCORE.SYSTEM.DIHEDRAL>
0

>  <SCORE.SYSTEM.SOLV>
0

>  <SCORE.SYSTEM.norm>
0

>  <SCORE.heavy>
14

>  <SCORE.norm>
-0.60992

>  <RMSD>
4.356

$$$$
ligand
 OpenBabel11021811463D
libRbt.so/2013.1/901 2013/11/27
 14 13  0  0  0  0  0  0  0  0999 V2000
   13.2887    7.9459   14.9984 N   0  0  0  0  0  0  0  0  0  0  0  0
   12.6584    8.2052   13.6970 C   0  0  0  0  0  0  0  0  0  0  0  0
   11.1435    8.2468   13.8692 C   0  0  0  0  0  0  0  0  0  0  0  0
   10.5063    8.5048   12.5137 C   0  0  0  0  0  0  0  0  0  0  0  0
   10.9098    9.8344   12.0424 N   0  0  0  0  0  0  0  0  0  0  0  0
   10.0993   10.1319   10.8485 C   0  0  0  0  0  0  0  0  0  0  0  0
   10.5643   11.4372   10.1929 C   0  0  0  0  0  0  0  0  0  0  0  0
   11.9935   11.2308    9.6691 C   0  0  0  0  0  0  0  0  0  0  0  0
   12.4724   12.4563    9.0092 C   0  0  0  0  0  0  0  0  0  0  0  0
   13.8012   12.1632    8.4348 N   0  0  0  0  0  0  0  0  0  0  0  0
   14.3434   13.3950    7.7008 C   0  0  0  0  0  0  0  0  0  0  0  0
   15.6583   13.0387    6.9969 C   0  0  0  0  0  0  0  0  0  0  0  0
   16.2200   14.2414    6.3523 C   0  0  0  0  0  0  0  0  0  0  0  0
   17.5263   13.9148    5.7412 N   0  0  0  0  0  0  0  0  0  0  0  0
  1  2  1  0  0  0  0
  2  3  1  0  0  0  0
  3  4  1  0  0  0  0
  4  5  1  0  0  0  0
  5  6  1  0  0  0  0
  6  7  1  0  0  0  0
  7  8  1  0  0  0  0
  8  9  1  0  0  0  0
  9 10  1  0  0  0  0
 10 11  1  0  0  0  0
 11 12  1  0  0  0  0
 12 13  1  0  0  0  0
 13 14  1  0  0  0  0
M  END
>  <CHROM.1>
-179.56359213,-64.27755018,-170.73114272,-173.59743731,65.18843186,179.02953718
-175.54881193,178.64807767,-174.62902906,-176.88638763,176.71963703,12.94143090
11.05334928,10.14752488,-2.05629492,-0.00144363,-0.92440332

>  <Name>
ligand

>  <RI>
0

>  <Rbt.Current_Directory>
/home/itssahil/PROJECTS/Mol_Feturizer/New_Systems/rnas/2O3Y

>  <Rbt.Executable>
rbdock ($Id: //depot/dev/client3/rdock/2013.1/src/exe/rbdock.cxx#4 $)

>  <Rbt.Library>
libRbt.so (2013.1, Build901 2013/11/27)

>  <Rbt.Parameter_File>
/export/apps/rDock/src/rDock_2013.1_src/data/scripts/dock_solv.prm

>  <Rbt.Receptor>
prm/pocket_docking_6.prm

>  <SCORE>
-11.9501

>  <SCORE.INTER>
-0.422392

>  <SCORE.INTER.CONST>
1

>  <SCORE.INTER.POLAR>
0

>  <SCORE.INTER.ROT>
11

>  <SCORE.INTER.SOLV>
5.23926

>  <SCORE.INTER.VDW>
-12.9613

>  <SCORE.INTER.norm>
-0.0301708

>  <SCORE.INTRA>
-11.5277

>  <SCORE.INTRA.DIHEDRAL>
-23.6687

>  <SCORE.INTRA.DIHEDRAL.0>
24.1231

>  <SCORE.INTRA.POLAR>
0

>  <SCORE.INTRA.POLAR.0>
0

>  <SCORE.INTRA.REPUL>
0

>  <SCORE.INTRA.REPUL.0>
0

>  <SCORE.INTRA.SOLV>
-0.0872839

>  <SCORE.INTRA.SOLV.lig_0>
-48.2216

>  <SCORE.INTRA.VDW>
0.350304

>  <SCORE.INTRA.VDW.0>
-1.3967

>  <SCORE.INTRA.norm>
-0.823406

>  <SCORE.RESTR>
0

>  <SCORE.RESTR.CAVITY>
0

>  <SCORE.RESTR.norm>
0

>  <SCORE.SYSTEM>
0

>  <SCORE.SYSTEM.CONST>
0

>  <SCORE.SYSTEM.DIHEDRAL>
0

>  <SCORE.SYSTEM.SOLV>
0

>  <SCORE.SYSTEM.norm>
0

>  <SCORE.heavy>
14

>  <SCORE.norm>
-0.853577

>  <RMSD>
4.366

$$$$
ligand
 OpenBabel11021811463D
libRbt.so/2013.1/901 2013/11/27
 14 13  0  0  0  0  0  0  0  0999 V2000
   11.2945    5.6404   16.6336 N   0  0  0  0  0  0  0  0  0  0  0  0
   10.4834    6.3702   15.6499 C   0  0  0  0  0  0  0  0  0  0  0  0
   11.3596    7.3907   14.9308 C   0  0  0  0  0  0  0  0  0  0  0  0
   10.4809    8.2280   14.0160 C   0  0  0  0  0  0  0  0  0  0  0  0
   11.3363    9.0783   13.1804 N   0  0  0  0  0  0  0  0  0  0  0  0
   11.6477    8.3103   11.9622 C   0  0  0  0  0  0  0  0  0  0  0  0
   12.6866    9.0485   11.1104 C   0  0  0  0  0  0  0  0  0  0  0  0
   12.0275   10.3102   10.5330 C   0  0  0  0  0  0  0  0  0  0  0  0
   12.9428   10.9723    9.5893 C   0  0  0  0  0  0  0  0  0  0  0  0
   12.3200   12.2496    9.1861 N   0  0  0  0  0  0  0  0  0  0  0  0
   13.0483   12.8321    7.9696 C   0  0  0  0  0  0  0  0  0  0  0  0
   14.4248   13.3572    8.3952 C   0  0  0  0  0  0  0  0  0  0  0  0
   15.1986   13.7508    7.2020 C   0  0  0  0  0  0  0  0  0  0  0  0
   16.5444   14.2080    7.6097 N   0  0  0  0  0  0  0  0  0  0  0  0
  1  2  1  0  0  0  0
  2  3  1  0  0  0  0
  3  4  1  0  0  0  0
  4  5  1  0  0  0  0
  5  6  1  0  0  0  0
  6  7  1  0  0  0  0
  7  8  1  0  0  0  0
  8  9  1  0  0  0  0
  9 10  1  0  0  0  0
 10 11  1  0  0  0  0
 11 12  1  0  0  0  0
 12 13  1  0  0  0  0
 13 14  1  0  0  0  0
M  END
>  <CHROM.1>
-174.55565601,-171.94186016,89.58156070,-172.63191672,-69.01417340,-173.80551127
-173.76915551,-166.75913394,-71.93184374,172.42470219,-177.84022665,12.55666724
10.12468382,11.28328622,-1.93855779,-0.19658108,-0.91606333

>  <Name>
ligand

>  <RI>
0

>  <Rbt.Current_Directory>
/home/itssahil/PROJECTS/Mol_Feturizer/New_Systems/rnas/2O3Y

>  <Rbt.Executable>
rbdock ($Id: //depot/dev/client3/rdock/2013.1/src/exe/rbdock.cxx#4 $)

>  <Rbt.Library>
libRbt.so (2013.1, Build901 2013/11/27)

>  <Rbt.Parameter_File>
/export/apps/rDock/src/rDock_2013.1_src/data/scripts/dock_solv.prm

>  <Rbt.Receptor>
prm/pocket_docking_8.prm

>  <SCORE>
-8.16875

>  <SCORE.INTER>
1.81481

>  <SCORE.INTER.CONST>
1

>  <SCORE.INTER.POLAR>
0

>  <SCORE.INTER.ROT>
11

>  <SCORE.INTER.SOLV>
5.58008

>  <SCORE.INTER.VDW>
-11.5835

>  <SCORE.INTER.norm>
0.129629

>  <SCORE.INTRA>
-9.98356

>  <SCORE.INTRA.DIHEDRAL>
-22.0481

>  <SCORE.INTRA.DIHEDRAL.0>
24.1231

>  <SCORE.INTRA.POLAR>
0

>  <SCORE.INTRA.POLAR.0>
0

>  <SCORE.INTRA.REPUL>
0

>  <SCORE.INTRA.REPUL.0>
0

>  <SCORE.INTRA.SOLV>
-0.589748

>  <SCORE.INTRA.SOLV.lig_0>
-48.2216

>  <SCORE.INTRA.VDW>
1.33536

>  <SCORE.INTRA.VDW.0>
-1.3967

>  <SCORE.INTRA.norm>
-0.713111

>  <SCORE.RESTR>
0

>  <SCORE.RESTR.CAVITY>
0

>  <SCORE.RESTR.norm>
0

>  <SCORE.SYSTEM>
0

>  <SCORE.SYSTEM.CONST>
0

>  <SCORE.SYSTEM.DIHEDRAL>
0

>  <SCORE.SYSTEM.SOLV>
0

>  <SCORE.SYSTEM.norm>
0

>  <SCORE.heavy>
14

>  <SCORE.norm>
-0.583482

>  <RMSD>
4.370

$$$$
ligand
 OpenBabel11021811463D
libRbt.so/2013.1/901 2013/11/27
 14 13  0  0  0  0  0  0  0  0999 V2000
   12.1629    7.1102   14.9045 N   0  0  0  0  0  0  0  0  0  0  0  0
   10.7162    7.2474   14.6887 C   0  0  0  0  0  0  0  0  0  0  0  0
   10.4160    8.6433   14.1525 C   0  0  0  0  0  0  0  0  0  0  0  0
   10.9738    8.7537   12.7430 C   0  0  0  0  0  0  0  0  0  0  0  0
   10.8336   10.1396   12.2819 N   0  0  0  0  0  0  0  0  0  0  0  0
   10.1786   10.0900   10.9631 C   0  0  0  0  0  0  0  0  0  0  0  0
   10.4776   11.3639   10.1645 C   0  0  0  0  0  0  0  0  0  0  0  0
   11.9701   11.3656    9.8011 C   0  0  0  0  0  0  0  0  0  0  0  0
   12.2874   12.5394    8.9715 C   0  0  0  0  0  0  0  0  0  0  0  0
   13.7210   12.4648    8.6234 N   0  0  0  0  0  0  0  0  0  0  0  0
   14.0930   13.6044    7.6681 C   0  0  0  0  0  0  0  0  0  0  0  0
   15.5877   13.5298    7.3335 C   0  0  0  0  0  0  0  0  0  0  0  0
   15.8604   12.3162    6.5396 C   0  0  0  0  0  0  0  0  0  0  0  0
   17.3110   12.2118    6.2720 N   0  0  0  0  0  0  0  0  0  0  0  0
  1  2  1  0  0  0  0
  2  3  1  0  0  0  0
  3  4  1  0  0  0  0
  4  5  1  0  0  0  0
  5  6  1  0  0  0  0
  6  7  1  0  0  0  0
  7  8  1  0  0  0  0
  8  9  1  0  0  0  0
  9 10  1  0  0  0  0
 10 11  1  0  0  0  0
 11 12  1  0  0  0  0
 12 13  1  0  0  0  0
 13 14  1  0  0  0  0
M  END
>  <CHROM.1>
68.72531148,-173.23378293,-129.03307399,-157.52068529,68.17010754,177.05500221
-178.39052319,175.66044099,179.04540464,67.10960142,-177.34520264,12.61316372
10.81300494,10.36475005,-2.10232599,0.27125358,-0.81228866

>  <Name>
ligand

>  <RI>
0

>  <Rbt.Current_Directory>
/home/itssahil/PROJECTS/Mol_Feturizer/New_Systems/rnas/2O3Y

>  <Rbt.Executable>
rbdock ($Id: //depot/dev/client3/rdock/2013.1/src/exe/rbdock.cxx#4 $)

>  <Rbt.Library>
libRbt.so (2013.1, Build901 2013/11/27)

>  <Rbt.Parameter_File>
/export/apps/rDock/src/rDock_2013.1_src/data/scripts/dock_solv.prm

>  <Rbt.Receptor>
prm/pocket_docking_6.prm

>  <SCORE>
-9.20837

>  <SCORE.INTER>
0.856373

>  <SCORE.INTER.CONST>
1

>  <SCORE.INTER.POLAR>
0

>  <SCORE.INTER.ROT>
11

>  <SCORE.INTER.SOLV>
5.56628

>  <SCORE.INTER.VDW>
-12.2178

>  <SCORE.INTER.norm>
0.0611695

>  <SCORE.INTRA>
-10.0647

>  <SCORE.INTRA.DIHEDRAL>
-21.6381

>  <SCORE.INTRA.DIHEDRAL.0>
24.1231

>  <SCORE.INTRA.POLAR>
0

>  <SCORE.INTRA.POLAR.0>
0

>  <SCORE.INTRA.REPUL>
0

>  <SCORE.INTRA.REPUL.0>
0

>  <SCORE.INTRA.SOLV>
0.717467

>  <SCORE.INTRA.SOLV.lig_0>
-48.2216

>  <SCORE.INTRA.VDW>
0.395562

>  <SCORE.INTRA.VDW.0>
-1.3967

>  <SCORE.INTRA.norm>
-0.71891

>  <SCORE.RESTR>
0

>  <SCORE.RESTR.CAVITY>
0

>  <SCORE.RESTR.norm>
0

>  <SCORE.SYSTEM>
0

>  <SCORE.SYSTEM.CONST>
0

>  <SCORE.SYSTEM.DIHEDRAL>
0

>  <SCORE.SYSTEM.SOLV>
0

>  <SCORE.SYSTEM.norm>
0

>  <SCORE.heavy>
14

>  <SCORE.norm>
-0.657741

>  <RMSD>
4.371

$$$$
ligand
 OpenBabel11021811463D
libRbt.so/2013.1/901 2013/11/27
 14 13  0  0  0  0  0  0  0  0999 V2000
   10.0145    9.7298   14.5284 N   0  0  0  0  0  0  0  0  0  0  0  0
   10.1910    8.6078   13.5967 C   0  0  0  0  0  0  0  0  0  0  0  0
    9.7838    9.0475   12.1942 C   0  0  0  0  0  0  0  0  0  0  0  0
   10.8349   10.0069   11.6604 C   0  0  0  0  0  0  0  0  0  0  0  0
   10.4771   10.3923   10.2906 N   0  0  0  0  0  0  0  0  0  0  0  0
   11.2509   11.6040    9.9686 C   0  0  0  0  0  0  0  0  0  0  0  0
   12.5038   11.2449    9.1615 C   0  0  0  0  0  0  0  0  0  0  0  0
   13.1325   12.5471    8.6431 C   0  0  0  0  0  0  0  0  0  0  0  0
   14.2940   12.2438    7.7913 C   0  0  0  0  0  0  0  0  0  0  0  0
   14.8883   13.5299    7.3735 N   0  0  0  0  0  0  0  0  0  0  0  0
   15.9823   13.2915    6.3265 C   0  0  0  0  0  0  0  0  0  0  0  0
   16.4612   14.6360    5.7656 C   0  0  0  0  0  0  0  0  0  0  0  0
   17.1990   15.3759    6.8075 C   0  0  0  0  0  0  0  0  0  0  0  0
   18.4374   14.6460    7.1542 N   0  0  0  0  0  0  0  0  0  0  0  0
  1  2  1  0  0  0  0
  2  3  1  0  0  0  0
  3  4  1  0  0  0  0
  4  5  1  0  0  0  0
  5  6  1  0  0  0  0
  6  7  1  0  0  0  0
  7  8  1  0  0  0  0
  8  9  1  0  0  0  0
  9 10  1  0  0  0  0
 10 11  1  0  0  0  0
 11 12  1  0  0  0  0
 12 13  1  0  0  0  0
 13 14  1  0  0  0  0
M  END
>  <CHROM.1>
71.59124396,177.76177513,162.82697021,98.22492521,170.07787743,-176.50979963
-177.57113301,-172.08919294,172.54370952,69.05188722,65.27914370,13.24639170
11.92161167,9.37567921,-2.38458712,-0.47610462,-1.34551493

>  <Name>
ligand

>  <RI>
0

>  <Rbt.Current_Directory>
/home/itssahil/PROJECTS/Mol_Feturizer/New_Systems/rnas/2O3Y

>  <Rbt.Executable>
rbdock ($Id: //depot/dev/client3/rdock/2013.1/src/exe/rbdock.cxx#4 $)

>  <Rbt.Library>
libRbt.so (2013.1, Build901 2013/11/27)

>  <Rbt.Parameter_File>
/export/apps/rDock/src/rDock_2013.1_src/data/scripts/dock_solv.prm

>  <Rbt.Receptor>
prm/pocket_docking_7.prm

>  <SCORE>
-10.1655

>  <SCORE.INTER>
-0.764039

>  <SCORE.INTER.CONST>
1

>  <SCORE.INTER.POLAR>
0

>  <SCORE.INTER.ROT>
11

>  <SCORE.INTER.SOLV>
6.66506

>  <SCORE.INTER.VDW>
-13.6644

>  <SCORE.INTER.norm>
-0.0545742

>  <SCORE.INTRA>
-9.40147

>  <SCORE.INTRA.DIHEDRAL>
-21.5918

>  <SCORE.INTRA.DIHEDRAL.0>
24.1231

>  <SCORE.INTRA.POLAR>
0

>  <SCORE.INTRA.POLAR.0>
0

>  <SCORE.INTRA.REPUL>
0

>  <SCORE.INTRA.REPUL.0>
0

>  <SCORE.INTRA.SOLV>
1.47548

>  <SCORE.INTRA.SOLV.lig_0>
-48.2216

>  <SCORE.INTRA.VDW>
0.656716

>  <SCORE.INTRA.VDW.0>
-1.3967

>  <SCORE.INTRA.norm>
-0.671533

>  <SCORE.RESTR>
0

>  <SCORE.RESTR.CAVITY>
0

>  <SCORE.RESTR.norm>
0

>  <SCORE.SYSTEM>
0

>  <SCORE.SYSTEM.CONST>
0

>  <SCORE.SYSTEM.DIHEDRAL>
0

>  <SCORE.SYSTEM.SOLV>
0

>  <SCORE.SYSTEM.norm>
0

>  <SCORE.heavy>
14

>  <SCORE.norm>
-0.726108

>  <RMSD>
4.371

$$$$
ligand
 OpenBabel11021811463D
libRbt.so/2013.1/901 2013/11/27
 14 13  0  0  0  0  0  0  0  0999 V2000
   13.7147    7.9438   16.5084 N   0  0  0  0  0  0  0  0  0  0  0  0
   13.7406    6.8740   15.5019 C   0  0  0  0  0  0  0  0  0  0  0  0
   13.4660    7.4697   14.1250 C   0  0  0  0  0  0  0  0  0  0  0  0
   12.0330    7.9751   14.0902 C   0  0  0  0  0  0  0  0  0  0  0  0
   11.7371    8.4776   12.7438 N   0  0  0  0  0  0  0  0  0  0  0  0
   10.5737    9.3735   12.8651 C   0  0  0  0  0  0  0  0  0  0  0  0
   10.8070   10.6692   12.0798 C   0  0  0  0  0  0  0  0  0  0  0  0
   10.7059   10.3489   10.5809 C   0  0  0  0  0  0  0  0  0  0  0  0
   10.9106   11.5717    9.7874 C   0  0  0  0  0  0  0  0  0  0  0  0
   12.3671   11.7770    9.6526 N   0  0  0  0  0  0  0  0  0  0  0  0
   12.6582   12.7764    8.5273 C   0  0  0  0  0  0  0  0  0  0  0  0
   14.1524   12.7454    8.1837 C   0  0  0  0  0  0  0  0  0  0  0  0
   14.5086   11.4251    7.6291 C   0  0  0  0  0  0  0  0  0  0  0  0
   15.9648   11.3667    7.3786 N   0  0  0  0  0  0  0  0  0  0  0  0
  1  2  1  0  0  0  0
  2  3  1  0  0  0  0
  3  4  1  0  0  0  0
  4  5  1  0  0  0  0
  5  6  1  0  0  0  0
  6  7  1  0  0  0  0
  7  8  1  0  0  0  0
  8  9  1  0  0  0  0
  9 10  1  0  0  0  0
 10 11  1  0  0  0  0
 11 12  1  0  0  0  0
 12 13  1  0  0  0  0
 13 14  1  0  0  0  0
M  END
>  <CHROM.1>
-67.01318644,-176.69746973,-159.98328888,134.37805107,72.62685232,179.42795409
83.03822617,163.86782719,-167.33049673,64.96130445,-176.41377556,12.66680254
10.05678519,11.40376518,-1.68258839,0.21026361,-0.97823316

>  <Name>
ligand

>  <RI>
0

>  <Rbt.Current_Directory>
/home/itssahil/PROJECTS/Mol_Feturizer/New_Systems/rnas/2O3Y

>  <Rbt.Executable>
rbdock ($Id: //depot/dev/client3/rdock/2013.1/src/exe/rbdock.cxx#4 $)

>  <Rbt.Library>
libRbt.so (2013.1, Build901 2013/11/27)

>  <Rbt.Parameter_File>
/export/apps/rDock/src/rDock_2013.1_src/data/scripts/dock_solv.prm

>  <Rbt.Receptor>
prm/pocket_docking_4.prm

>  <SCORE>
-7.74513

>  <SCORE.INTER>
1.22619

>  <SCORE.INTER.CONST>
1

>  <SCORE.INTER.POLAR>
0

>  <SCORE.INTER.ROT>
11

>  <SCORE.INTER.SOLV>
5.32692

>  <SCORE.INTER.VDW>
-11.8915

>  <SCORE.INTER.norm>
0.0875853

>  <SCORE.INTRA>
-8.97132

>  <SCORE.INTRA.DIHEDRAL>
-19.7307

>  <SCORE.INTRA.DIHEDRAL.0>
24.1231

>  <SCORE.INTRA.POLAR>
0

>  <SCORE.INTRA.POLAR.0>
0

>  <SCORE.INTRA.REPUL>
0

>  <SCORE.INTRA.REPUL.0>
0

>  <SCORE.INTRA.SOLV>
1.01863

>  <SCORE.INTRA.SOLV.lig_0>
-48.2216

>  <SCORE.INTRA.VDW>
0.384697

>  <SCORE.INTRA.VDW.0>
-1.3967

>  <SCORE.INTRA.norm>
-0.640809

>  <SCORE.RESTR>
0

>  <SCORE.RESTR.CAVITY>
0

>  <SCORE.RESTR.norm>
0

>  <SCORE.SYSTEM>
0

>  <SCORE.SYSTEM.CONST>
0

>  <SCORE.SYSTEM.DIHEDRAL>
0

>  <SCORE.SYSTEM.SOLV>
0

>  <SCORE.SYSTEM.norm>
0

>  <SCORE.heavy>
14

>  <SCORE.norm>
-0.553223

>  <RMSD>
4.381

$$$$
ligand
 OpenBabel11021811463D
libRbt.so/2013.1/901 2013/11/27
 14 13  0  0  0  0  0  0  0  0999 V2000
   11.1214    6.9930   16.2311 N   0  0  0  0  0  0  0  0  0  0  0  0
   10.5650    6.9386   14.8726 C   0  0  0  0  0  0  0  0  0  0  0  0
   11.1551    8.0719   14.0398 C   0  0  0  0  0  0  0  0  0  0  0  0
   10.5724    8.0002   12.6379 C   0  0  0  0  0  0  0  0  0  0  0  0
   11.1656    9.0641   11.8199 N   0  0  0  0  0  0  0  0  0  0  0  0
   10.1798   10.1572   11.7551 C   0  0  0  0  0  0  0  0  0  0  0  0
    9.9806   10.6183   10.3068 C   0  0  0  0  0  0  0  0  0  0  0  0
   11.0663   11.6538    9.9772 C   0  0  0  0  0  0  0  0  0  0  0  0
   12.3048   10.9741    9.5640 C   0  0  0  0  0  0  0  0  0  0  0  0
   13.3479   12.0074    9.4027 N   0  0  0  0  0  0  0  0  0  0  0  0
   13.1320   12.7769    8.0946 C   0  0  0  0  0  0  0  0  0  0  0  0
   14.4411   13.4554    7.6732 C   0  0  0  0  0  0  0  0  0  0  0  0
   15.4248   12.4323    7.2693 C   0  0  0  0  0  0  0  0  0  0  0  0
   16.6776   13.0890    6.8382 N   0  0  0  0  0  0  0  0  0  0  0  0
  1  2  1  0  0  0  0
  2  3  1  0  0  0  0
  3  4  1  0  0  0  0
  4  5  1  0  0  0  0
  5  6  1  0  0  0  0
  6  7  1  0  0  0  0
  7  8  1  0  0  0  0
  8  9  1  0  0  0  0
  9 10  1  0  0  0  0
 10 11  1  0  0  0  0
 11 12  1  0  0  0  0
 12 13  1  0  0  0  0
 13 14  1  0  0  0  0
M  END
>  <CHROM.1>
179.88097077,-178.36723617,-100.64883098,-131.18810375,-85.25144069,84.15592976
-174.00342843,-76.11216234,-159.20242879,68.71128277,178.90234154,12.22353203
10.44520888,10.74860660,-2.02075688,0.04730846,-0.89308957

>  <Name>
ligand

>  <RI>
0

>  <Rbt.Current_Directory>
/home/itssahil/PROJECTS/Mol_Feturizer/New_Systems/rnas/2O3Y

>  <Rbt.Executable>
rbdock ($Id: //depot/dev/client3/rdock/2013.1/src/exe/rbdock.cxx#4 $)

>  <Rbt.Library>
libRbt.so (2013.1, Build901 2013/11/27)

>  <Rbt.Parameter_File>
/export/apps/rDock/src/rDock_2013.1_src/data/scripts/dock_solv.prm

>  <Rbt.Receptor>
prm/pocket_docking_8.prm

>  <SCORE>
-8.11754

>  <SCORE.INTER>
-1.3307

>  <SCORE.INTER.CONST>
1

>  <SCORE.INTER.POLAR>
0

>  <SCORE.INTER.ROT>
11

>  <SCORE.INTER.SOLV>
5.31163

>  <SCORE.INTER.VDW>
-13.591

>  <SCORE.INTER.norm>
-0.0950501

>  <SCORE.INTRA>
-6.78683

>  <SCORE.INTRA.DIHEDRAL>
-16.9318

>  <SCORE.INTRA.DIHEDRAL.0>
24.1231

>  <SCORE.INTRA.POLAR>
0

>  <SCORE.INTRA.POLAR.0>
0

>  <SCORE.INTRA.REPUL>
0

>  <SCORE.INTRA.REPUL.0>
0

>  <SCORE.INTRA.SOLV>
0.27585

>  <SCORE.INTRA.SOLV.lig_0>
-48.2216

>  <SCORE.INTRA.VDW>
1.54113

>  <SCORE.INTRA.VDW.0>
-1.3967

>  <SCORE.INTRA.norm>
-0.484774

>  <SCORE.RESTR>
0

>  <SCORE.RESTR.CAVITY>
0

>  <SCORE.RESTR.norm>
0

>  <SCORE.SYSTEM>
0

>  <SCORE.SYSTEM.CONST>
0

>  <SCORE.SYSTEM.DIHEDRAL>
0

>  <SCORE.SYSTEM.SOLV>
0

>  <SCORE.SYSTEM.norm>
0

>  <SCORE.heavy>
14

>  <SCORE.norm>
-0.579824

>  <RMSD>
4.381

$$$$
ligand
 OpenBabel11021811463D
libRbt.so/2013.1/901 2013/11/27
 14 13  0  0  0  0  0  0  0  0999 V2000
   10.5820   14.4525   16.0552 N   0  0  0  0  0  0  0  0  0  0  0  0
   11.7399   13.8228   16.7040 C   0  0  0  0  0  0  0  0  0  0  0  0
   11.2927   12.5431   17.4030 C   0  0  0  0  0  0  0  0  0  0  0  0
   12.4847   11.9442   18.1314 C   0  0  0  0  0  0  0  0  0  0  0  0
   13.4378   11.4282   17.1424 N   0  0  0  0  0  0  0  0  0  0  0  0
   14.6066   10.9319   17.8895 C   0  0  0  0  0  0  0  0  0  0  0  0
   15.4233    9.9605   17.0297 C   0  0  0  0  0  0  0  0  0  0  0  0
   16.0413   10.7499   15.8659 C   0  0  0  0  0  0  0  0  0  0  0  0
   16.9165    9.8746   15.0693 C   0  0  0  0  0  0  0  0  0  0  0  0
   17.4560   10.6792   13.9542 N   0  0  0  0  0  0  0  0  0  0  0  0
   18.5336    9.8879   13.2043 C   0  0  0  0  0  0  0  0  0  0  0  0
   18.7400   10.4914   11.8097 C   0  0  0  0  0  0  0  0  0  0  0  0
   19.7304    9.6923   11.0627 C   0  0  0  0  0  0  0  0  0  0  0  0
   19.9311   10.2772    9.7195 N   0  0  0  0  0  0  0  0  0  0  0  0
  1  2  1  0  0  0  0
  2  3  1  0  0  0  0
  3  4  1  0  0  0  0
  4  5  1  0  0  0  0
  5  6  1  0  0  0  0
  6  7  1  0  0  0  0
  7  8  1  0  0  0  0
  8  9  1  0  0  0  0
  9 10  1  0  0  0  0
 10 11  1  0  0  0  0
 11 12  1  0  0  0  0
 12 13  1  0  0  0  0
 13 14  1  0  0  0  0
M  END
>  <CHROM.1>
-176.97152825,-69.85935510,176.73983071,160.56453658,66.91940926,175.82570592
178.82605874,171.74838507,160.65314888,-177.31730672,-179.85534646,15.49405532
11.19520494,15.07468796,2.72311093,-0.60048401,2.03353184

>  <Name>
ligand

>  <RI>
0

>  <Rbt.Current_Directory>
/home/itssahil/PROJECTS/Mol_Feturizer/New_Systems/rnas/2O3Y

>  <Rbt.Executable>
rbdock ($Id: //depot/dev/client3/rdock/2013.1/src/exe/rbdock.cxx#4 $)

>  <Rbt.Library>
libRbt.so (2013.1, Build901 2013/11/27)

>  <Rbt.Parameter_File>
/export/apps/rDock/src/rDock_2013.1_src/data/scripts/dock_solv.prm

>  <Rbt.Receptor>
prm/pocket_docking_7.prm

>  <SCORE>
-13.4102

>  <SCORE.INTER>
-2.16984

>  <SCORE.INTER.CONST>
1

>  <SCORE.INTER.POLAR>
0

>  <SCORE.INTER.ROT>
11

>  <SCORE.INTER.SOLV>
6.65993

>  <SCORE.INTER.VDW>
-14.5999

>  <SCORE.INTER.norm>
-0.154988

>  <SCORE.INTRA>
-11.2404

>  <SCORE.INTRA.DIHEDRAL>
-22.8133

>  <SCORE.INTRA.DIHEDRAL.0>
24.1231

>  <SCORE.INTRA.POLAR>
0

>  <SCORE.INTRA.POLAR.0>
0

>  <SCORE.INTRA.REPUL>
0

>  <SCORE.INTRA.REPUL.0>
0

>  <SCORE.INTRA.SOLV>
-0.189753

>  <SCORE.INTRA.SOLV.lig_0>
-48.2216

>  <SCORE.INTRA.VDW>
0.261152

>  <SCORE.INTRA.VDW.0>
-1.3967

>  <SCORE.INTRA.norm>
-0.802885

>  <SCORE.RESTR>
0

>  <SCORE.RESTR.CAVITY>
0

>  <SCORE.RESTR.norm>
0

>  <SCORE.SYSTEM>
0

>  <SCORE.SYSTEM.CONST>
0

>  <SCORE.SYSTEM.DIHEDRAL>
0

>  <SCORE.SYSTEM.SOLV>
0

>  <SCORE.SYSTEM.norm>
0

>  <SCORE.heavy>
14

>  <SCORE.norm>
-0.957873

>  <RMSD>
4.391

$$$$
ligand
 OpenBabel11021811463D
libRbt.so/2013.1/901 2013/11/27
 14 13  0  0  0  0  0  0  0  0999 V2000
   15.2465   13.5488    9.1081 N   0  0  0  0  0  0  0  0  0  0  0  0
   14.7959   13.7532    7.7249 C   0  0  0  0  0  0  0  0  0  0  0  0
   13.3134   14.1115    7.7247 C   0  0  0  0  0  0  0  0  0  0  0  0
   12.5135   12.8743    8.0984 C   0  0  0  0  0  0  0  0  0  0  0  0
   12.6815   12.6130    9.5324 N   0  0  0  0  0  0  0  0  0  0  0  0
   12.0174   11.3288    9.8163 C   0  0  0  0  0  0  0  0  0  0  0  0
   10.5206   11.5408   10.0710 C   0  0  0  0  0  0  0  0  0  0  0  0
    9.9226   10.2133   10.5607 C   0  0  0  0  0  0  0  0  0  0  0  0
   10.3478    9.9470   11.9446 C   0  0  0  0  0  0  0  0  0  0  0  0
    9.7959    8.6339   12.3356 N   0  0  0  0  0  0  0  0  0  0  0  0
   10.0088    8.3961   13.8349 C   0  0  0  0  0  0  0  0  0  0  0  0
   11.4361    7.8913   14.0795 C   0  0  0  0  0  0  0  0  0  0  0  0
   11.6412    7.6569   15.5218 C   0  0  0  0  0  0  0  0  0  0  0  0
   13.0361    7.2298   15.7635 N   0  0  0  0  0  0  0  0  0  0  0  0
  1  2  1  0  0  0  0
  2  3  1  0  0  0  0
  3  4  1  0  0  0  0
  4  5  1  0  0  0  0
  5  6  1  0  0  0  0
  6  7  1  0  0  0  0
  7  8  1  0  0  0  0
  8  9  1  0  0  0  0
  9 10  1  0  0  0  0
 10 11  1  0  0  0  0
 11 12  1  0  0  0  0
 12 13  1  0  0  0  0
 13 14  1  0  0  0  0
M  END
>  <CHROM.1>
-71.11551825,73.30514536,-173.78165616,-85.08742237,-171.81378943,73.14281131
-177.40477158,-170.90407074,-81.61761394,-179.78403523,-177.41380399,11.94806941
10.69569212,11.15094487,-1.27643756,0.23903666,2.22903438

>  <Name>
ligand

>  <RI>
0

>  <Rbt.Current_Directory>
/home/itssahil/PROJECTS/Mol_Feturizer/New_Systems/rnas/2O3Y

>  <Rbt.Executable>
rbdock ($Id: //depot/dev/client3/rdock/2013.1/src/exe/rbdock.cxx#4 $)

>  <Rbt.Library>
libRbt.so (2013.1, Build901 2013/11/27)

>  <Rbt.Parameter_File>
/export/apps/rDock/src/rDock_2013.1_src/data/scripts/dock_solv.prm

>  <Rbt.Receptor>
prm/pocket_docking_6.prm

>  <SCORE>
-8.43056

>  <SCORE.INTER>
-0.972361

>  <SCORE.INTER.CONST>
1

>  <SCORE.INTER.POLAR>
0

>  <SCORE.INTER.ROT>
11

>  <SCORE.INTER.SOLV>
6.39249

>  <SCORE.INTER.VDW>
-13.7124

>  <SCORE.INTER.norm>
-0.0694544

>  <SCORE.INTRA>
-7.4582

>  <SCORE.INTRA.DIHEDRAL>
-21.138

>  <SCORE.INTRA.DIHEDRAL.0>
24.1231

>  <SCORE.INTRA.POLAR>
0

>  <SCORE.INTRA.POLAR.0>
0

>  <SCORE.INTRA.REPUL>
0

>  <SCORE.INTRA.REPUL.0>
0

>  <SCORE.INTRA.SOLV>
2.39414

>  <SCORE.INTRA.SOLV.lig_0>
-48.2216

>  <SCORE.INTRA.VDW>
1.9137

>  <SCORE.INTRA.VDW.0>
-1.3967

>  <SCORE.INTRA.norm>
-0.532729

>  <SCORE.RESTR>
0

>  <SCORE.RESTR.CAVITY>
0

>  <SCORE.RESTR.norm>
0

>  <SCORE.SYSTEM>
0

>  <SCORE.SYSTEM.CONST>
0

>  <SCORE.SYSTEM.DIHEDRAL>
0

>  <SCORE.SYSTEM.SOLV>
0

>  <SCORE.SYSTEM.norm>
0

>  <SCORE.heavy>
14

>  <SCORE.norm>
-0.602183

>  <RMSD>
4.394

$$$$
ligand
 OpenBabel11021811463D
libRbt.so/2013.1/901 2013/11/27
 14 13  0  0  0  0  0  0  0  0999 V2000
    8.9833    9.3473   14.5682 N   0  0  0  0  0  0  0  0  0  0  0  0
    9.9926    9.8475   13.6253 C   0  0  0  0  0  0  0  0  0  0  0  0
   10.3085    8.7622   12.6013 C   0  0  0  0  0  0  0  0  0  0  0  0
   11.4105    9.2650   11.6832 C   0  0  0  0  0  0  0  0  0  0  0  0
   10.9118   10.4194   10.9272 N   0  0  0  0  0  0  0  0  0  0  0  0
   11.9092   10.7136    9.8835 C   0  0  0  0  0  0  0  0  0  0  0  0
   11.9618   12.2187    9.5971 C   0  0  0  0  0  0  0  0  0  0  0  0
   12.8848   12.4475    8.3908 C   0  0  0  0  0  0  0  0  0  0  0  0
   12.8823   13.8706    8.0147 C   0  0  0  0  0  0  0  0  0  0  0  0
   13.6729   14.6005    9.0266 N   0  0  0  0  0  0  0  0  0  0  0  0
   12.7760   15.5791    9.7933 C   0  0  0  0  0  0  0  0  0  0  0  0
   13.6446   16.6041   10.5325 C   0  0  0  0  0  0  0  0  0  0  0  0
   14.4757   15.9180   11.5405 C   0  0  0  0  0  0  0  0  0  0  0  0
   15.2881   16.9112   12.2755 N   0  0  0  0  0  0  0  0  0  0  0  0
  1  2  1  0  0  0  0
  2  3  1  0  0  0  0
  3  4  1  0  0  0  0
  4  5  1  0  0  0  0
  5  6  1  0  0  0  0
  6  7  1  0  0  0  0
  7  8  1  0  0  0  0
  8  9  1  0  0  0  0
  9 10  1  0  0  0  0
 10 11  1  0  0  0  0
 11 12  1  0  0  0  0
 12 13  1  0  0  0  0
 13 14  1  0  0  0  0
M  END
>  <CHROM.1>
-176.76704024,-64.30703855,-169.69217352,-147.40946320,-173.15674117,175.61509183
74.01781863,-115.57640229,-163.53421023,-63.30571500,-178.60163197,12.22157105
12.60739334,10.88964996,-3.07538093,-1.06476858,-1.86606435

>  <Name>
ligand

>  <RI>
0

>  <Rbt.Current_Directory>
/home/itssahil/PROJECTS/Mol_Feturizer/New_Systems/rnas/2O3Y

>  <Rbt.Executable>
rbdock ($Id: //depot/dev/client3/rdock/2013.1/src/exe/rbdock.cxx#4 $)

>  <Rbt.Library>
libRbt.so (2013.1, Build901 2013/11/27)

>  <Rbt.Parameter_File>
/export/apps/rDock/src/rDock_2013.1_src/data/scripts/dock_solv.prm

>  <Rbt.Receptor>
prm/pocket_docking_8.prm

>  <SCORE>
-8.98276

>  <SCORE.INTER>
0.779087

>  <SCORE.INTER.CONST>
1

>  <SCORE.INTER.POLAR>
0

>  <SCORE.INTER.ROT>
11

>  <SCORE.INTER.SOLV>
8.37227

>  <SCORE.INTER.VDW>
-13.2047

>  <SCORE.INTER.norm>
0.055649

>  <SCORE.INTRA>
-9.76184

>  <SCORE.INTRA.DIHEDRAL>
-20.839

>  <SCORE.INTRA.DIHEDRAL.0>
24.1231

>  <SCORE.INTRA.POLAR>
0

>  <SCORE.INTRA.POLAR.0>
0

>  <SCORE.INTRA.REPUL>
0

>  <SCORE.INTRA.REPUL.0>
0

>  <SCORE.INTRA.SOLV>
0.315517

>  <SCORE.INTRA.SOLV.lig_0>
-48.2216

>  <SCORE.INTRA.VDW>
0.499895

>  <SCORE.INTRA.VDW.0>
-1.3967

>  <SCORE.INTRA.norm>
-0.697275

>  <SCORE.RESTR>
0

>  <SCORE.RESTR.CAVITY>
0

>  <SCORE.RESTR.norm>
0

>  <SCORE.SYSTEM>
0

>  <SCORE.SYSTEM.CONST>
0

>  <SCORE.SYSTEM.DIHEDRAL>
0

>  <SCORE.SYSTEM.SOLV>
0

>  <SCORE.SYSTEM.norm>
0

>  <SCORE.heavy>
14

>  <SCORE.norm>
-0.641626

>  <RMSD>
4.403

$$$$
ligand
 OpenBabel11021811463D
libRbt.so/2013.1/901 2013/11/27
 14 13  0  0  0  0  0  0  0  0999 V2000
   10.8936   11.8507   17.1818 N   0  0  0  0  0  0  0  0  0  0  0  0
   12.3625   11.8484   17.2037 C   0  0  0  0  0  0  0  0  0  0  0  0
   12.8460   11.4175   18.5846 C   0  0  0  0  0  0  0  0  0  0  0  0
   14.3652   11.4570   18.6026 C   0  0  0  0  0  0  0  0  0  0  0  0
   14.8803   10.3958   17.7300 N   0  0  0  0  0  0  0  0  0  0  0  0
   15.5213   11.0575   16.5802 C   0  0  0  0  0  0  0  0  0  0  0  0
   16.3917   10.0637   15.8028 C   0  0  0  0  0  0  0  0  0  0  0  0
   17.0084   10.7990   14.6033 C   0  0  0  0  0  0  0  0  0  0  0  0
   17.7590    9.8531   13.7616 C   0  0  0  0  0  0  0  0  0  0  0  0
   18.2215   10.5891   12.5674 N   0  0  0  0  0  0  0  0  0  0  0  0
   19.2413    9.7487   11.7904 C   0  0  0  0  0  0  0  0  0  0  0  0
   20.0857   10.6619   10.8934 C   0  0  0  0  0  0  0  0  0  0  0  0
   19.2530   11.1898    9.7955 C   0  0  0  0  0  0  0  0  0  0  0  0
   18.3370   12.2258   10.3191 N   0  0  0  0  0  0  0  0  0  0  0  0
  1  2  1  0  0  0  0
  2  3  1  0  0  0  0
  3  4  1  0  0  0  0
  4  5  1  0  0  0  0
  5  6  1  0  0  0  0
  6  7  1  0  0  0  0
  7  8  1  0  0  0  0
  8  9  1  0  0  0  0
  9 10  1  0  0  0  0
 10 11  1  0  0  0  0
 11 12  1  0  0  0  0
 12 13  1  0  0  0  0
 13 14  1  0  0  0  0
M  END
>  <CHROM.1>
-178.46549171,-68.59957861,112.24132279,165.59273330,178.81848698,-175.08367612
174.93684391,168.62293985,-159.15595605,-69.67342111,73.97015941,16.22643617
10.93972427,14.67269389,2.39493636,-0.43319691,1.91152123

>  <Name>
ligand

>  <RI>
0

>  <Rbt.Current_Directory>
/home/itssahil/PROJECTS/Mol_Feturizer/New_Systems/rnas/2O3Y

>  <Rbt.Executable>
rbdock ($Id: //depot/dev/client3/rdock/2013.1/src/exe/rbdock.cxx#4 $)

>  <Rbt.Library>
libRbt.so (2013.1, Build901 2013/11/27)

>  <Rbt.Parameter_File>
/export/apps/rDock/src/rDock_2013.1_src/data/scripts/dock_solv.prm

>  <Rbt.Receptor>
prm/pocket_docking_7.prm

>  <SCORE>
-10.8133

>  <SCORE.INTER>
-2.0815

>  <SCORE.INTER.CONST>
1

>  <SCORE.INTER.POLAR>
0

>  <SCORE.INTER.ROT>
11

>  <SCORE.INTER.SOLV>
7.4656

>  <SCORE.INTER.VDW>
-14.8095

>  <SCORE.INTER.norm>
-0.148678

>  <SCORE.INTRA>
-8.73185

>  <SCORE.INTRA.DIHEDRAL>
-20.8435

>  <SCORE.INTRA.DIHEDRAL.0>
24.1231

>  <SCORE.INTRA.POLAR>
0

>  <SCORE.INTRA.POLAR.0>
0

>  <SCORE.INTRA.REPUL>
0

>  <SCORE.INTRA.REPUL.0>
0

>  <SCORE.INTRA.SOLV>
2.3896

>  <SCORE.INTRA.SOLV.lig_0>
-48.2216

>  <SCORE.INTRA.VDW>
0.495096

>  <SCORE.INTRA.VDW.0>
-1.3967

>  <SCORE.INTRA.norm>
-0.623703

>  <SCORE.RESTR>
0

>  <SCORE.RESTR.CAVITY>
0

>  <SCORE.RESTR.norm>
0

>  <SCORE.SYSTEM>
0

>  <SCORE.SYSTEM.CONST>
0

>  <SCORE.SYSTEM.DIHEDRAL>
0

>  <SCORE.SYSTEM.SOLV>
0

>  <SCORE.SYSTEM.norm>
0

>  <SCORE.heavy>
14

>  <SCORE.norm>
-0.772382

>  <RMSD>
4.406

$$$$
ligand
 OpenBabel11021811463D
libRbt.so/2013.1/901 2013/11/27
 14 13  0  0  0  0  0  0  0  0999 V2000
   16.7689    9.0879    6.5559 N   0  0  0  0  0  0  0  0  0  0  0  0
   15.6350   10.0193    6.4860 C   0  0  0  0  0  0  0  0  0  0  0  0
   15.1720   10.3578    7.8993 C   0  0  0  0  0  0  0  0  0  0  0  0
   14.0045   11.3268    7.8100 C   0  0  0  0  0  0  0  0  0  0  0  0
   13.5712   11.6777    9.1673 N   0  0  0  0  0  0  0  0  0  0  0  0
   12.2478   12.3136    9.0454 C   0  0  0  0  0  0  0  0  0  0  0  0
   11.1976   11.5291    9.8400 C   0  0  0  0  0  0  0  0  0  0  0  0
   11.5021   11.6956   11.3364 C   0  0  0  0  0  0  0  0  0  0  0  0
   10.5166   10.9530   12.1389 C   0  0  0  0  0  0  0  0  0  0  0  0
   10.7414    9.5129   11.9001 N   0  0  0  0  0  0  0  0  0  0  0  0
    9.6981    8.6824   12.6560 C   0  0  0  0  0  0  0  0  0  0  0  0
   10.1018    8.5655   14.1308 C   0  0  0  0  0  0  0  0  0  0  0  0
   11.3460    7.7806   14.2459 C   0  0  0  0  0  0  0  0  0  0  0  0
   11.7208    7.6475   15.6701 N   0  0  0  0  0  0  0  0  0  0  0  0
  1  2  1  0  0  0  0
  2  3  1  0  0  0  0
  3  4  1  0  0  0  0
  4  5  1  0  0  0  0
  5  6  1  0  0  0  0
  6  7  1  0  0  0  0
  7  8  1  0  0  0  0
  8  9  1  0  0  0  0
  9 10  1  0  0  0  0
 10 11  1  0  0  0  0
 11 12  1  0  0  0  0
 12 13  1  0  0  0  0
 13 14  1  0  0  0  0
M  END
>  <CHROM.1>
179.70861701,-178.87806591,-165.36187913,120.67123749,68.75099351,-179.85363535
67.90533054,-177.19091118,-79.75953601,-65.98399652,-178.96623384,12.44425603
10.08236930,10.63435761,-0.81601967,-0.64907100,2.35991396

>  <Name>
ligand

>  <RI>
0

>  <Rbt.Current_Directory>
/home/itssahil/PROJECTS/Mol_Feturizer/New_Systems/rnas/2O3Y

>  <Rbt.Executable>
rbdock ($Id: //depot/dev/client3/rdock/2013.1/src/exe/rbdock.cxx#4 $)

>  <Rbt.Library>
libRbt.so (2013.1, Build901 2013/11/27)

>  <Rbt.Parameter_File>
/export/apps/rDock/src/rDock_2013.1_src/data/scripts/dock_solv.prm

>  <Rbt.Receptor>
prm/pocket_docking_5.prm

>  <SCORE>
-6.59654

>  <SCORE.INTER>
3.32154

>  <SCORE.INTER.CONST>
1

>  <SCORE.INTER.POLAR>
0

>  <SCORE.INTER.ROT>
11

>  <SCORE.INTER.SOLV>
4.36674

>  <SCORE.INTER.VDW>
-10.1746

>  <SCORE.INTER.norm>
0.237253

>  <SCORE.INTRA>
-9.91808

>  <SCORE.INTRA.DIHEDRAL>
-21.7944

>  <SCORE.INTRA.DIHEDRAL.0>
24.1231

>  <SCORE.INTRA.POLAR>
0

>  <SCORE.INTRA.POLAR.0>
0

>  <SCORE.INTRA.REPUL>
0

>  <SCORE.INTRA.REPUL.0>
0

>  <SCORE.INTRA.SOLV>
0.278198

>  <SCORE.INTRA.SOLV.lig_0>
-48.2216

>  <SCORE.INTRA.VDW>
0.840018

>  <SCORE.INTRA.VDW.0>
-1.3967

>  <SCORE.INTRA.norm>
-0.708434

>  <SCORE.RESTR>
0

>  <SCORE.RESTR.CAVITY>
0

>  <SCORE.RESTR.norm>
0

>  <SCORE.SYSTEM>
0

>  <SCORE.SYSTEM.CONST>
0

>  <SCORE.SYSTEM.DIHEDRAL>
0

>  <SCORE.SYSTEM.SOLV>
0

>  <SCORE.SYSTEM.norm>
0

>  <SCORE.heavy>
14

>  <SCORE.norm>
-0.471181

>  <RMSD>
4.407

$$$$
ligand
 OpenBabel11021811463D
libRbt.so/2013.1/901 2013/11/27
 14 13  0  0  0  0  0  0  0  0999 V2000
   17.5160   14.1253    5.5780 N   0  0  0  0  0  0  0  0  0  0  0  0
   16.1792   14.3497    6.1442 C   0  0  0  0  0  0  0  0  0  0  0  0
   15.8055   13.1718    7.0382 C   0  0  0  0  0  0  0  0  0  0  0  0
   14.4300   13.4282    7.6318 C   0  0  0  0  0  0  0  0  0  0  0  0
   14.0457   12.2789    8.4589 N   0  0  0  0  0  0  0  0  0  0  0  0
   12.6824   12.5407    8.9524 C   0  0  0  0  0  0  0  0  0  0  0  0
   12.0886   11.2796    9.5905 C   0  0  0  0  0  0  0  0  0  0  0  0
   10.6468   11.5901   10.0197 C   0  0  0  0  0  0  0  0  0  0  0  0
    9.9601   10.3510   10.4194 C   0  0  0  0  0  0  0  0  0  0  0  0
   10.5502    9.9071   11.6987 N   0  0  0  0  0  0  0  0  0  0  0  0
    9.6596    8.8434   12.3509 C   0  0  0  0  0  0  0  0  0  0  0  0
   10.5019    7.9697   13.2883 C   0  0  0  0  0  0  0  0  0  0  0  0
   10.9544    8.7700   14.4424 C   0  0  0  0  0  0  0  0  0  0  0  0
   11.7473    7.9207   15.3571 N   0  0  0  0  0  0  0  0  0  0  0  0
  1  2  1  0  0  0  0
  2  3  1  0  0  0  0
  3  4  1  0  0  0  0
  4  5  1  0  0  0  0
  5  6  1  0  0  0  0
  6  7  1  0  0  0  0
  7  8  1  0  0  0  0
  8  9  1  0  0  0  0
  9 10  1  0  0  0  0
 10 11  1  0  0  0  0
 11 12  1  0  0  0  0
 12 13  1  0  0  0  0
 13 14  1  0  0  0  0
M  END
>  <CHROM.1>
179.18410134,178.19746465,-177.06360327,168.64086304,-177.12928694,170.10306357
70.59898587,165.55659809,155.45345653,67.77279448,179.04934910,12.62592922
11.18049695,10.06924894,-1.00760888,0.08118735,2.15662945

>  <Name>
ligand

>  <RI>
0

>  <Rbt.Current_Directory>
/home/itssahil/PROJECTS/Mol_Feturizer/New_Systems/rnas/2O3Y

>  <Rbt.Executable>
rbdock ($Id: //depot/dev/client3/rdock/2013.1/src/exe/rbdock.cxx#4 $)

>  <Rbt.Library>
libRbt.so (2013.1, Build901 2013/11/27)

>  <Rbt.Parameter_File>
/export/apps/rDock/src/rDock_2013.1_src/data/scripts/dock_solv.prm

>  <Rbt.Receptor>
prm/pocket_docking_7.prm

>  <SCORE>
-12.2685

>  <SCORE.INTER>
-1.27488

>  <SCORE.INTER.CONST>
1

>  <SCORE.INTER.POLAR>
0

>  <SCORE.INTER.ROT>
11

>  <SCORE.INTER.SOLV>
6.34033

>  <SCORE.INTER.VDW>
-13.8967

>  <SCORE.INTER.norm>
-0.091063

>  <SCORE.INTRA>
-10.9937

>  <SCORE.INTRA.DIHEDRAL>
-22.3277

>  <SCORE.INTRA.DIHEDRAL.0>
24.1231

>  <SCORE.INTRA.POLAR>
0

>  <SCORE.INTRA.POLAR.0>
0

>  <SCORE.INTRA.REPUL>
0

>  <SCORE.INTRA.REPUL.0>
0

>  <SCORE.INTRA.SOLV>
-0.216726

>  <SCORE.INTRA.SOLV.lig_0>
-48.2216

>  <SCORE.INTRA.VDW>
0.278562

>  <SCORE.INTRA.VDW.0>
-1.3967

>  <SCORE.INTRA.norm>
-0.785261

>  <SCORE.RESTR>
0

>  <SCORE.RESTR.CAVITY>
0

>  <SCORE.RESTR.norm>
0

>  <SCORE.SYSTEM>
0

>  <SCORE.SYSTEM.CONST>
0

>  <SCORE.SYSTEM.DIHEDRAL>
0

>  <SCORE.SYSTEM.SOLV>
0

>  <SCORE.SYSTEM.norm>
0

>  <SCORE.heavy>
14

>  <SCORE.norm>
-0.876324

>  <RMSD>
4.413

$$$$
ligand
 OpenBabel11021811463D
libRbt.so/2013.1/901 2013/11/27
 14 13  0  0  0  0  0  0  0  0999 V2000
   15.0528   15.2950   11.0038 N   0  0  0  0  0  0  0  0  0  0  0  0
   14.0282   16.0506   10.2708 C   0  0  0  0  0  0  0  0  0  0  0  0
   12.9296   15.0972    9.8123 C   0  0  0  0  0  0  0  0  0  0  0  0
   13.4874   14.2020    8.7179 C   0  0  0  0  0  0  0  0  0  0  0  0
   12.4607   13.2289    8.3282 N   0  0  0  0  0  0  0  0  0  0  0  0
   12.9846   11.8933    8.6634 C   0  0  0  0  0  0  0  0  0  0  0  0
   12.4563   11.4336   10.0270 C   0  0  0  0  0  0  0  0  0  0  0  0
   10.9254   11.3388    9.9434 C   0  0  0  0  0  0  0  0  0  0  0  0
   10.3830   10.7952   11.1992 C   0  0  0  0  0  0  0  0  0  0  0  0
   10.8741    9.4086   11.3337 N   0  0  0  0  0  0  0  0  0  0  0  0
   10.1859    8.7163   12.5156 C   0  0  0  0  0  0  0  0  0  0  0  0
   11.2447    8.1738   13.4832 C   0  0  0  0  0  0  0  0  0  0  0  0
   10.5883    7.4151   14.5654 C   0  0  0  0  0  0  0  0  0  0  0  0
   11.5996    6.9795   15.5523 N   0  0  0  0  0  0  0  0  0  0  0  0
  1  2  1  0  0  0  0
  2  3  1  0  0  0  0
  3  4  1  0  0  0  0
  4  5  1  0  0  0  0
  5  6  1  0  0  0  0
  6  7  1  0  0  0  0
  7  8  1  0  0  0  0
  8  9  1  0  0  0  0
  9 10  1  0  0  0  0
 10 11  1  0  0  0  0
 11 12  1  0  0  0  0
 12 13  1  0  0  0  0
 13 14  1  0  0  0  0
M  END
>  <CHROM.1>
-70.00640382,176.64170801,-116.65089000,96.48260091,61.72606531,175.41387621
-64.73647261,-171.88539230,-124.68847822,-175.55382748,-175.75722862,12.08559342
11.43064271,11.10097977,-1.01920926,0.91042740,2.11858369

>  <Name>
ligand

>  <RI>
0

>  <Rbt.Current_Directory>
/home/itssahil/PROJECTS/Mol_Feturizer/New_Systems/rnas/2O3Y

>  <Rbt.Executable>
rbdock ($Id: //depot/dev/client3/rdock/2013.1/src/exe/rbdock.cxx#4 $)

>  <Rbt.Library>
libRbt.so (2013.1, Build901 2013/11/27)

>  <Rbt.Parameter_File>
/export/apps/rDock/src/rDock_2013.1_src/data/scripts/dock_solv.prm

>  <Rbt.Receptor>
prm/pocket_docking_5.prm

>  <SCORE>
-8.59198

>  <SCORE.INTER>
0.342328

>  <SCORE.INTER.CONST>
1

>  <SCORE.INTER.POLAR>
0

>  <SCORE.INTER.ROT>
11

>  <SCORE.INTER.SOLV>
7.76753

>  <SCORE.INTER.VDW>
-13.2943

>  <SCORE.INTER.norm>
0.024452

>  <SCORE.INTRA>
-8.93431

>  <SCORE.INTRA.DIHEDRAL>
-20.1586

>  <SCORE.INTRA.DIHEDRAL.0>
24.1231

>  <SCORE.INTRA.POLAR>
0

>  <SCORE.INTRA.POLAR.0>
0

>  <SCORE.INTRA.REPUL>
0

>  <SCORE.INTRA.REPUL.0>
0

>  <SCORE.INTRA.SOLV>
0.825629

>  <SCORE.INTRA.SOLV.lig_0>
-48.2216

>  <SCORE.INTRA.VDW>
0.732182

>  <SCORE.INTRA.VDW.0>
-1.3967

>  <SCORE.INTRA.norm>
-0.638165

>  <SCORE.RESTR>
0

>  <SCORE.RESTR.CAVITY>
0

>  <SCORE.RESTR.norm>
0

>  <SCORE.SYSTEM>
0

>  <SCORE.SYSTEM.CONST>
0

>  <SCORE.SYSTEM.DIHEDRAL>
0

>  <SCORE.SYSTEM.SOLV>
0

>  <SCORE.SYSTEM.norm>
0

>  <SCORE.heavy>
14

>  <SCORE.norm>
-0.613713

>  <RMSD>
4.416

$$$$
ligand
 OpenBabel11021811463D
libRbt.so/2013.1/901 2013/11/27
 14 13  0  0  0  0  0  0  0  0999 V2000
   11.2704    6.7218   15.9119 N   0  0  0  0  0  0  0  0  0  0  0  0
   10.5736    7.0022   14.6493 C   0  0  0  0  0  0  0  0  0  0  0  0
   11.1340    8.2817   14.0369 C   0  0  0  0  0  0  0  0  0  0  0  0
   10.4194    8.5455   12.7217 C   0  0  0  0  0  0  0  0  0  0  0  0
   10.9367    9.7886   12.1388 N   0  0  0  0  0  0  0  0  0  0  0  0
   10.0970   10.0969   10.9681 C   0  0  0  0  0  0  0  0  0  0  0  0
   10.5573   11.3988   10.3024 C   0  0  0  0  0  0  0  0  0  0  0  0
   11.9695   11.1791    9.7396 C   0  0  0  0  0  0  0  0  0  0  0  0
   12.4354   12.3951    9.0532 C   0  0  0  0  0  0  0  0  0  0  0  0
   13.7431   12.0872    8.4393 N   0  0  0  0  0  0  0  0  0  0  0  0
   14.3524   13.3548    7.8295 C   0  0  0  0  0  0  0  0  0  0  0  0
   15.5528   12.9794    6.9521 C   0  0  0  0  0  0  0  0  0  0  0  0
   16.1811   14.2029    6.4178 C   0  0  0  0  0  0  0  0  0  0  0  0
   16.9032   14.9054    7.5002 N   0  0  0  0  0  0  0  0  0  0  0  0
  1  2  1  0  0  0  0
  2  3  1  0  0  0  0
  3  4  1  0  0  0  0
  4  5  1  0  0  0  0
  5  6  1  0  0  0  0
  6  7  1  0  0  0  0
  7  8  1  0  0  0  0
  8  9  1  0  0  0  0
  9 10  1  0  0  0  0
 10 11  1  0  0  0  0
 11 12  1  0  0  0  0
 12 13  1  0  0  0  0
 13 14  1  0  0  0  0
M  END
>  <CHROM.1>
179.09574789,178.98192635,-172.61313130,179.27332266,65.18449868,178.26254798
-175.34513383,-174.19393609,-168.37566198,-177.22544904,72.49784617,12.58015676
10.92426146,10.47554491,-2.06073067,-0.10306520,-0.91282862

>  <Name>
ligand

>  <RI>
0

>  <Rbt.Current_Directory>
/home/itssahil/PROJECTS/Mol_Feturizer/New_Systems/rnas/2O3Y

>  <Rbt.Executable>
rbdock ($Id: //depot/dev/client3/rdock/2013.1/src/exe/rbdock.cxx#4 $)

>  <Rbt.Library>
libRbt.so (2013.1, Build901 2013/11/27)

>  <Rbt.Parameter_File>
/export/apps/rDock/src/rDock_2013.1_src/data/scripts/dock_solv.prm

>  <Rbt.Receptor>
prm/pocket_docking_5.prm

>  <SCORE>
-11.5868

>  <SCORE.INTER>
-0.395679

>  <SCORE.INTER.CONST>
1

>  <SCORE.INTER.POLAR>
0

>  <SCORE.INTER.ROT>
11

>  <SCORE.INTER.SOLV>
5.75135

>  <SCORE.INTER.VDW>
-13.1142

>  <SCORE.INTER.norm>
-0.0282628

>  <SCORE.INTRA>
-11.1911

>  <SCORE.INTRA.DIHEDRAL>
-23.1416

>  <SCORE.INTRA.DIHEDRAL.0>
24.1231

>  <SCORE.INTRA.POLAR>
0

>  <SCORE.INTRA.POLAR.0>
0

>  <SCORE.INTRA.REPUL>
0

>  <SCORE.INTRA.REPUL.0>
0

>  <SCORE.INTRA.SOLV>
0.15486

>  <SCORE.INTRA.SOLV.lig_0>
-48.2216

>  <SCORE.INTRA.VDW>
0.302264

>  <SCORE.INTRA.VDW.0>
-1.3967

>  <SCORE.INTRA.norm>
-0.799363

>  <SCORE.RESTR>
0

>  <SCORE.RESTR.CAVITY>
0

>  <SCORE.RESTR.norm>
0

>  <SCORE.SYSTEM>
0

>  <SCORE.SYSTEM.CONST>
0

>  <SCORE.SYSTEM.DIHEDRAL>
0

>  <SCORE.SYSTEM.SOLV>
0

>  <SCORE.SYSTEM.norm>
0

>  <SCORE.heavy>
14

>  <SCORE.norm>
-0.827626

>  <RMSD>
4.418

$$$$
ligand
 OpenBabel11021811463D
libRbt.so/2013.1/901 2013/11/27
 14 13  0  0  0  0  0  0  0  0999 V2000
   12.0698    7.8491   15.3975 N   0  0  0  0  0  0  0  0  0  0  0  0
   11.7076    8.0598   13.9895 C   0  0  0  0  0  0  0  0  0  0  0  0
   10.2502    8.5012   13.9039 C   0  0  0  0  0  0  0  0  0  0  0  0
    9.8809    8.6803   12.4405 C   0  0  0  0  0  0  0  0  0  0  0  0
   10.5984    9.8434   11.9065 N   0  0  0  0  0  0  0  0  0  0  0  0
    9.9753   10.1769   10.6137 C   0  0  0  0  0  0  0  0  0  0  0  0
   10.5036   11.5175   10.0906 C   0  0  0  0  0  0  0  0  0  0  0  0
   11.9651   11.3242    9.6591 C   0  0  0  0  0  0  0  0  0  0  0  0
   12.4649   12.5442    9.0045 C   0  0  0  0  0  0  0  0  0  0  0  0
   13.8142   12.2485    8.4814 N   0  0  0  0  0  0  0  0  0  0  0  0
   14.3453   13.4443    7.6827 C   0  0  0  0  0  0  0  0  0  0  0  0
   15.6484   13.0539    6.9748 C   0  0  0  0  0  0  0  0  0  0  0  0
   16.1807   14.2148    6.2355 C   0  0  0  0  0  0  0  0  0  0  0  0
   17.4573   13.8484    5.5855 N   0  0  0  0  0  0  0  0  0  0  0  0
  1  2  1  0  0  0  0
  2  3  1  0  0  0  0
  3  4  1  0  0  0  0
  4  5  1  0  0  0  0
  5  6  1  0  0  0  0
  6  7  1  0  0  0  0
  7  8  1  0  0  0  0
  8  9  1  0  0  0  0
  9 10  1  0  0  0  0
 10 11  1  0  0  0  0
 11 12  1  0  0  0  0
 12 13  1  0  0  0  0
 13 14  1  0  0  0  0
M  END
>  <CHROM.1>
-178.56527871,-68.96927428,-166.46803591,170.59266238,70.64189500,173.40092380
-173.83186654,175.23704588,-171.70734187,-178.45227661,178.37431002,12.63262637
11.09337189,10.14033075,-2.10644467,-0.01170605,-0.94841240

>  <Name>
ligand

>  <RI>
0

>  <Rbt.Current_Directory>
/home/itssahil/PROJECTS/Mol_Feturizer/New_Systems/rnas/2O3Y

>  <Rbt.Executable>
rbdock ($Id: //depot/dev/client3/rdock/2013.1/src/exe/rbdock.cxx#4 $)

>  <Rbt.Library>
libRbt.so (2013.1, Build901 2013/11/27)

>  <Rbt.Parameter_File>
/export/apps/rDock/src/rDock_2013.1_src/data/scripts/dock_solv.prm

>  <Rbt.Receptor>
prm/pocket_docking_6.prm

>  <SCORE>
-11.9695

>  <SCORE.INTER>
-0.724248

>  <SCORE.INTER.CONST>
1

>  <SCORE.INTER.POLAR>
0

>  <SCORE.INTER.ROT>
11

>  <SCORE.INTER.SOLV>
5.9792

>  <SCORE.INTER.VDW>
-13.4092

>  <SCORE.INTER.norm>
-0.051732

>  <SCORE.INTRA>
-11.2452

>  <SCORE.INTRA.DIHEDRAL>
-22.7665

>  <SCORE.INTRA.DIHEDRAL.0>
24.1231

>  <SCORE.INTRA.POLAR>
0

>  <SCORE.INTRA.POLAR.0>
0

>  <SCORE.INTRA.REPUL>
0

>  <SCORE.INTRA.REPUL.0>
0

>  <SCORE.INTRA.SOLV>
-0.198494

>  <SCORE.INTRA.SOLV.lig_0>
-48.2216

>  <SCORE.INTRA.VDW>
0.237227

>  <SCORE.INTRA.VDW.0>
-1.3967

>  <SCORE.INTRA.norm>
-0.803232

>  <SCORE.RESTR>
0

>  <SCORE.RESTR.CAVITY>
0

>  <SCORE.RESTR.norm>
0

>  <SCORE.SYSTEM>
0

>  <SCORE.SYSTEM.CONST>
0

>  <SCORE.SYSTEM.DIHEDRAL>
0

>  <SCORE.SYSTEM.SOLV>
0

>  <SCORE.SYSTEM.norm>
0

>  <SCORE.heavy>
14

>  <SCORE.norm>
-0.854964

>  <RMSD>
4.429

$$$$
ligand
 OpenBabel11021811463D
libRbt.so/2013.1/901 2013/11/27
 14 13  0  0  0  0  0  0  0  0999 V2000
   11.1819    6.9554   15.8012 N   0  0  0  0  0  0  0  0  0  0  0  0
   10.6063    7.1373   14.4619 C   0  0  0  0  0  0  0  0  0  0  0  0
   11.0586    8.4796   13.8963 C   0  0  0  0  0  0  0  0  0  0  0  0
   10.4170    8.6741   12.5322 C   0  0  0  0  0  0  0  0  0  0  0  0
   10.8109    9.9845   12.0024 N   0  0  0  0  0  0  0  0  0  0  0  0
   10.0854   10.1713   10.7338 C   0  0  0  0  0  0  0  0  0  0  0  0
   10.4954   11.4895   10.0674 C   0  0  0  0  0  0  0  0  0  0  0  0
   11.9709   11.3818    9.6539 C   0  0  0  0  0  0  0  0  0  0  0  0
   12.3846   12.5975    8.9344 C   0  0  0  0  0  0  0  0  0  0  0  0
   13.8267   12.4724    8.6403 N   0  0  0  0  0  0  0  0  0  0  0  0
   14.2823   13.6194    7.7311 C   0  0  0  0  0  0  0  0  0  0  0  0
   15.8074   13.7616    7.8051 C   0  0  0  0  0  0  0  0  0  0  0  0
   16.4479   12.5672    7.2215 C   0  0  0  0  0  0  0  0  0  0  0  0
   16.3189   12.6025    5.7488 N   0  0  0  0  0  0  0  0  0  0  0  0
  1  2  1  0  0  0  0
  2  3  1  0  0  0  0
  3  4  1  0  0  0  0
  4  5  1  0  0  0  0
  5  6  1  0  0  0  0
  6  7  1  0  0  0  0
  7  8  1  0  0  0  0
  8  9  1  0  0  0  0
  9 10  1  0  0  0  0
 10 11  1  0  0  0  0
 11 12  1  0  0  0  0
 12 13  1  0  0  0  0
 13 14  1  0  0  0  0
M  END
>  <CHROM.1>
-178.07135680,178.05530870,-175.71354520,-176.94153955,66.08255312,176.53231806
176.46036762,172.55785053,161.34237711,66.35120092,73.86623881,12.54938953
10.84971877,10.37352812,-2.08258062,0.12300299,-0.85926883

>  <Name>
ligand

>  <RI>
0

>  <Rbt.Current_Directory>
/home/itssahil/PROJECTS/Mol_Feturizer/New_Systems/rnas/2O3Y

>  <Rbt.Executable>
rbdock ($Id: //depot/dev/client3/rdock/2013.1/src/exe/rbdock.cxx#4 $)

>  <Rbt.Library>
libRbt.so (2013.1, Build901 2013/11/27)

>  <Rbt.Parameter_File>
/export/apps/rDock/src/rDock_2013.1_src/data/scripts/dock_solv.prm

>  <Rbt.Receptor>
prm/pocket_docking_5.prm

>  <SCORE>
-8.72173

>  <SCORE.INTER>
1.7787

>  <SCORE.INTER.CONST>
1

>  <SCORE.INTER.POLAR>
0

>  <SCORE.INTER.ROT>
11

>  <SCORE.INTER.SOLV>
7.25135

>  <SCORE.INTER.VDW>
-12.1647

>  <SCORE.INTER.norm>
0.12705

>  <SCORE.INTRA>
-10.5004

>  <SCORE.INTRA.DIHEDRAL>
-22.6792

>  <SCORE.INTRA.DIHEDRAL.0>
24.1231

>  <SCORE.INTRA.POLAR>
0

>  <SCORE.INTRA.POLAR.0>
0

>  <SCORE.INTRA.REPUL>
0

>  <SCORE.INTRA.REPUL.0>
0

>  <SCORE.INTRA.SOLV>
0.98932

>  <SCORE.INTRA.SOLV.lig_0>
-48.2216

>  <SCORE.INTRA.VDW>
0.344513

>  <SCORE.INTRA.VDW.0>
-1.3967

>  <SCORE.INTRA.norm>
-0.75003

>  <SCORE.RESTR>
0

>  <SCORE.RESTR.CAVITY>
0

>  <SCORE.RESTR.norm>
0

>  <SCORE.SYSTEM>
0

>  <SCORE.SYSTEM.CONST>
0

>  <SCORE.SYSTEM.DIHEDRAL>
0

>  <SCORE.SYSTEM.SOLV>
0

>  <SCORE.SYSTEM.norm>
0

>  <SCORE.heavy>
14

>  <SCORE.norm>
-0.62298

>  <RMSD>
4.445

$$$$
ligand
 OpenBabel11021811463D
libRbt.so/2013.1/901 2013/11/27
 14 13  0  0  0  0  0  0  0  0999 V2000
   11.0632    6.1102   16.4840 N   0  0  0  0  0  0  0  0  0  0  0  0
   10.3818    7.2502   15.8562 C   0  0  0  0  0  0  0  0  0  0  0  0
   10.7651    7.3176   14.3815 C   0  0  0  0  0  0  0  0  0  0  0  0
   10.0295    8.4827   13.7400 C   0  0  0  0  0  0  0  0  0  0  0  0
   10.3724    8.5365   12.3144 N   0  0  0  0  0  0  0  0  0  0  0  0
   10.3716    9.9574   11.9250 C   0  0  0  0  0  0  0  0  0  0  0  0
   11.2042   10.1688   10.6554 C   0  0  0  0  0  0  0  0  0  0  0  0
   11.4168   11.6781   10.4644 C   0  0  0  0  0  0  0  0  0  0  0  0
   12.2790   11.9238    9.2970 C   0  0  0  0  0  0  0  0  0  0  0  0
   12.5918   13.3671    9.2697 N   0  0  0  0  0  0  0  0  0  0  0  0
   13.0228   13.7881    7.8601 C   0  0  0  0  0  0  0  0  0  0  0  0
   14.4813   13.3784    7.6228 C   0  0  0  0  0  0  0  0  0  0  0  0
   15.3591   14.0883    8.5730 C   0  0  0  0  0  0  0  0  0  0  0  0
   16.7659   13.6978    8.3385 N   0  0  0  0  0  0  0  0  0  0  0  0
  1  2  1  0  0  0  0
  2  3  1  0  0  0  0
  3  4  1  0  0  0  0
  4  5  1  0  0  0  0
  5  6  1  0  0  0  0
  6  7  1  0  0  0  0
  7  8  1  0  0  0  0
  8  9  1  0  0  0  0
  9 10  1  0  0  0  0
 10 11  1  0  0  0  0
 11 12  1  0  0  0  0
 12 13  1  0  0  0  0
 13 14  1  0  0  0  0
M  END
>  <CHROM.1>
178.78906034,-178.84359794,-146.72396767,158.67531952,-168.19947747,176.74201256
-172.66150889,-159.05197669,-78.72499757,-62.72161256,-179.70493287,12.15008685
10.69618384,11.19854281,-1.98893718,-0.15595881,-0.88123140

>  <Name>
ligand

>  <RI>
0

>  <Rbt.Current_Directory>
/home/itssahil/PROJECTS/Mol_Feturizer/New_Systems/rnas/2O3Y

>  <Rbt.Executable>
rbdock ($Id: //depot/dev/client3/rdock/2013.1/src/exe/rbdock.cxx#4 $)

>  <Rbt.Library>
libRbt.so (2013.1, Build901 2013/11/27)

>  <Rbt.Parameter_File>
/export/apps/rDock/src/rDock_2013.1_src/data/scripts/dock_solv.prm

>  <Rbt.Receptor>
prm/pocket_docking_7.prm

>  <SCORE>
-9.72776

>  <SCORE.INTER>
0.755443

>  <SCORE.INTER.CONST>
1

>  <SCORE.INTER.POLAR>
0

>  <SCORE.INTER.ROT>
11

>  <SCORE.INTER.SOLV>
6.26131

>  <SCORE.INTER.VDW>
-12.5168

>  <SCORE.INTER.norm>
0.0539602

>  <SCORE.INTRA>
-10.4832

>  <SCORE.INTRA.DIHEDRAL>
-21.6969

>  <SCORE.INTRA.DIHEDRAL.0>
24.1231

>  <SCORE.INTRA.POLAR>
0

>  <SCORE.INTRA.POLAR.0>
0

>  <SCORE.INTRA.REPUL>
0

>  <SCORE.INTRA.REPUL.0>
0

>  <SCORE.INTRA.SOLV>
-0.545107

>  <SCORE.INTRA.SOLV.lig_0>
-48.2216

>  <SCORE.INTRA.VDW>
0.637814

>  <SCORE.INTRA.VDW.0>
-1.3967

>  <SCORE.INTRA.norm>
-0.748801

>  <SCORE.RESTR>
0

>  <SCORE.RESTR.CAVITY>
0

>  <SCORE.RESTR.norm>
0

>  <SCORE.SYSTEM>
0

>  <SCORE.SYSTEM.CONST>
0

>  <SCORE.SYSTEM.DIHEDRAL>
0

>  <SCORE.SYSTEM.SOLV>
0

>  <SCORE.SYSTEM.norm>
0

>  <SCORE.heavy>
14

>  <SCORE.norm>
-0.69484

>  <RMSD>
4.445

$$$$
ligand
 OpenBabel11021811463D
libRbt.so/2013.1/901 2013/11/27
 14 13  0  0  0  0  0  0  0  0999 V2000
   11.0968    5.8158   16.4650 N   0  0  0  0  0  0  0  0  0  0  0  0
   11.7053    6.7684   15.5267 C   0  0  0  0  0  0  0  0  0  0  0  0
   10.6813    7.1543   14.4643 C   0  0  0  0  0  0  0  0  0  0  0  0
   11.2785    8.2402   13.5843 C   0  0  0  0  0  0  0  0  0  0  0  0
   10.3093    8.5957   12.5416 N   0  0  0  0  0  0  0  0  0  0  0  0
   10.7748    9.8539   11.9326 C   0  0  0  0  0  0  0  0  0  0  0  0
    9.9938   10.1521   10.6477 C   0  0  0  0  0  0  0  0  0  0  0  0
   10.4253   11.5329   10.1311 C   0  0  0  0  0  0  0  0  0  0  0  0
   11.7914   11.4652    9.5871 C   0  0  0  0  0  0  0  0  0  0  0  0
   11.9897   12.6526    8.7313 N   0  0  0  0  0  0  0  0  0  0  0  0
   13.4680   12.7876    8.3487 C   0  0  0  0  0  0  0  0  0  0  0  0
   14.1139   13.9079    9.1729 C   0  0  0  0  0  0  0  0  0  0  0  0
   15.5508   13.9988    8.8500 C   0  0  0  0  0  0  0  0  0  0  0  0
   16.1769   15.0653    9.6606 N   0  0  0  0  0  0  0  0  0  0  0  0
  1  2  1  0  0  0  0
  2  3  1  0  0  0  0
  3  4  1  0  0  0  0
  4  5  1  0  0  0  0
  5  6  1  0  0  0  0
  6  7  1  0  0  0  0
  7  8  1  0  0  0  0
  8  9  1  0  0  0  0
  9 10  1  0  0  0  0
 10 11  1  0  0  0  0
 11 12  1  0  0  0  0
 12 13  1  0  0  0  0
 13 14  1  0  0  0  0
M  END
>  <CHROM.1>
174.49103593,178.78509265,166.28608596,168.27034599,174.71157378,71.70950855
161.99577882,169.21891915,-104.16941904,177.47067226,-179.12741782,12.09671316
10.57078442,11.40295858,-1.96159594,-0.39566536,-0.87673764

>  <Name>
ligand

>  <RI>
0

>  <Rbt.Current_Directory>
/home/itssahil/PROJECTS/Mol_Feturizer/New_Systems/rnas/2O3Y

>  <Rbt.Executable>
rbdock ($Id: //depot/dev/client3/rdock/2013.1/src/exe/rbdock.cxx#4 $)

>  <Rbt.Library>
libRbt.so (2013.1, Build901 2013/11/27)

>  <Rbt.Parameter_File>
/export/apps/rDock/src/rDock_2013.1_src/data/scripts/dock_solv.prm

>  <Rbt.Receptor>
prm/pocket_docking_6.prm

>  <SCORE>
-8.40233

>  <SCORE.INTER>
1.42939

>  <SCORE.INTER.CONST>
1

>  <SCORE.INTER.POLAR>
0

>  <SCORE.INTER.ROT>
11

>  <SCORE.INTER.SOLV>
7.60784

>  <SCORE.INTER.VDW>
-12.5164

>  <SCORE.INTER.norm>
0.102099

>  <SCORE.INTRA>
-9.83172

>  <SCORE.INTRA.DIHEDRAL>
-20.8195

>  <SCORE.INTRA.DIHEDRAL.0>
24.1231

>  <SCORE.INTRA.POLAR>
0

>  <SCORE.INTRA.POLAR.0>
0

>  <SCORE.INTRA.REPUL>
0

>  <SCORE.INTRA.REPUL.0>
0

>  <SCORE.INTRA.SOLV>
-0.783286

>  <SCORE.INTRA.SOLV.lig_0>
-48.2216

>  <SCORE.INTRA.VDW>
0.969662

>  <SCORE.INTRA.VDW.0>
-1.3967

>  <SCORE.INTRA.norm>
-0.702266

>  <SCORE.RESTR>
0

>  <SCORE.RESTR.CAVITY>
0

>  <SCORE.RESTR.norm>
0

>  <SCORE.SYSTEM>
0

>  <SCORE.SYSTEM.CONST>
0

>  <SCORE.SYSTEM.DIHEDRAL>
0

>  <SCORE.SYSTEM.SOLV>
0

>  <SCORE.SYSTEM.norm>
0

>  <SCORE.heavy>
14

>  <SCORE.norm>
-0.600166

>  <RMSD>
4.447

$$$$
ligand
 OpenBabel11021811463D
libRbt.so/2013.1/901 2013/11/27
 14 13  0  0  0  0  0  0  0  0999 V2000
   15.1027   15.6409   10.4788 N   0  0  0  0  0  0  0  0  0  0  0  0
   13.6632   15.9058   10.3538 C   0  0  0  0  0  0  0  0  0  0  0  0
   13.0589   14.9419    9.3380 C   0  0  0  0  0  0  0  0  0  0  0  0
   13.1563   13.5290    9.8897 C   0  0  0  0  0  0  0  0  0  0  0  0
   12.4694   12.6111    8.9741 N   0  0  0  0  0  0  0  0  0  0  0  0
   12.9602   11.2551    9.2760 C   0  0  0  0  0  0  0  0  0  0  0  0
   11.8070   10.3534    9.7311 C   0  0  0  0  0  0  0  0  0  0  0  0
   11.2629   10.9005   11.0593 C   0  0  0  0  0  0  0  0  0  0  0  0
   10.3112    9.9444   11.6483 C   0  0  0  0  0  0  0  0  0  0  0  0
   11.0675    8.7284   12.0104 N   0  0  0  0  0  0  0  0  0  0  0  0
   10.2779    7.8986   13.0292 C   0  0  0  0  0  0  0  0  0  0  0  0
   11.1110    7.7183   14.3040 C   0  0  0  0  0  0  0  0  0  0  0  0
   10.4361    6.7688   15.2098 C   0  0  0  0  0  0  0  0  0  0  0  0
   11.1785    6.6848   16.4859 N   0  0  0  0  0  0  0  0  0  0  0  0
  1  2  1  0  0  0  0
  2  3  1  0  0  0  0
  3  4  1  0  0  0  0
  4  5  1  0  0  0  0
  5  6  1  0  0  0  0
  6  7  1  0  0  0  0
  7  8  1  0  0  0  0
  8  9  1  0  0  0  0
  9 10  1  0  0  0  0
 10 11  1  0  0  0  0
 11 12  1  0  0  0  0
 12 13  1  0  0  0  0
 13 14  1  0  0  0  0
M  END
>  <CHROM.1>
65.74278502,174.94565811,161.22434089,118.86628448,-64.76716743,-170.47627927
65.84620137,161.06441424,-121.56463996,-172.21767292,-175.13399756,11.99001339
10.92007369,11.55614806,-0.90795369,1.03627857,1.96052524

>  <Name>
ligand

>  <RI>
0

>  <Rbt.Current_Directory>
/home/itssahil/PROJECTS/Mol_Feturizer/New_Systems/rnas/2O3Y

>  <Rbt.Executable>
rbdock ($Id: //depot/dev/client3/rdock/2013.1/src/exe/rbdock.cxx#4 $)

>  <Rbt.Library>
libRbt.so (2013.1, Build901 2013/11/27)

>  <Rbt.Parameter_File>
/export/apps/rDock/src/rDock_2013.1_src/data/scripts/dock_solv.prm

>  <Rbt.Receptor>
prm/pocket_docking_5.prm

>  <SCORE>
-7.6814

>  <SCORE.INTER>
1.28673

>  <SCORE.INTER.CONST>
1

>  <SCORE.INTER.POLAR>
0

>  <SCORE.INTER.ROT>
11

>  <SCORE.INTER.SOLV>
6.97755

>  <SCORE.INTER.VDW>
-12.4014

>  <SCORE.INTER.norm>
0.091909

>  <SCORE.INTRA>
-8.96813

>  <SCORE.INTRA.DIHEDRAL>
-20.0659

>  <SCORE.INTRA.DIHEDRAL.0>
24.1231

>  <SCORE.INTRA.POLAR>
0

>  <SCORE.INTRA.POLAR.0>
0

>  <SCORE.INTRA.REPUL>
0

>  <SCORE.INTRA.REPUL.0>
0

>  <SCORE.INTRA.SOLV>
0.768988

>  <SCORE.INTRA.SOLV.lig_0>
-48.2216

>  <SCORE.INTRA.VDW>
0.680307

>  <SCORE.INTRA.VDW.0>
-1.3967

>  <SCORE.INTRA.norm>
-0.64058

>  <SCORE.RESTR>
0

>  <SCORE.RESTR.CAVITY>
0

>  <SCORE.RESTR.norm>
0

>  <SCORE.SYSTEM>
0

>  <SCORE.SYSTEM.CONST>
0

>  <SCORE.SYSTEM.DIHEDRAL>
0

>  <SCORE.SYSTEM.SOLV>
0

>  <SCORE.SYSTEM.norm>
0

>  <SCORE.heavy>
14

>  <SCORE.norm>
-0.548671

>  <RMSD>
4.449

$$$$
ligand
 OpenBabel11021811463D
libRbt.so/2013.1/901 2013/11/27
 14 13  0  0  0  0  0  0  0  0999 V2000
   14.4335   17.0712   10.5202 N   0  0  0  0  0  0  0  0  0  0  0  0
   13.1265   16.4464   10.7640 C   0  0  0  0  0  0  0  0  0  0  0  0
   13.2580   14.9327   10.6314 C   0  0  0  0  0  0  0  0  0  0  0  0
   13.6087   14.5989    9.1906 C   0  0  0  0  0  0  0  0  0  0  0  0
   13.7048   13.1417    9.0485 N   0  0  0  0  0  0  0  0  0  0  0  0
   12.3346   12.6375    8.8506 C   0  0  0  0  0  0  0  0  0  0  0  0
   11.9683   11.6283    9.9447 C   0  0  0  0  0  0  0  0  0  0  0  0
   10.4591   11.3541    9.8616 C   0  0  0  0  0  0  0  0  0  0  0  0
   10.0966   10.2438   10.7574 C   0  0  0  0  0  0  0  0  0  0  0  0
   10.3320   10.6948   12.1441 N   0  0  0  0  0  0  0  0  0  0  0  0
    9.8977    9.6082   13.1343 C   0  0  0  0  0  0  0  0  0  0  0  0
   10.9879    8.5342   13.2324 C   0  0  0  0  0  0  0  0  0  0  0  0
   10.5814    7.4990   14.2022 C   0  0  0  0  0  0  0  0  0  0  0  0
   10.5278    8.0823   15.5600 N   0  0  0  0  0  0  0  0  0  0  0  0
  1  2  1  0  0  0  0
  2  3  1  0  0  0  0
  3  4  1  0  0  0  0
  4  5  1  0  0  0  0
  5  6  1  0  0  0  0
  6  7  1  0  0  0  0
  7  8  1  0  0  0  0
  8  9  1  0  0  0  0
  9 10  1  0  0  0  0
 10 11  1  0  0  0  0
 11 12  1  0  0  0  0
 12 13  1  0  0  0  0
 13 14  1  0  0  0  0
M  END
>  <CHROM.1>
-65.18586490,-178.63607673,83.20493429,-121.39606608,168.71600770,171.56270038
65.89950669,176.81731474,79.80315602,179.05570853,-66.24937446,11.80815807
11.89078304,11.27420153,-0.59868466,1.09499670,1.71227248

>  <Name>
ligand

>  <RI>
0

>  <Rbt.Current_Directory>
/home/itssahil/PROJECTS/Mol_Feturizer/New_Systems/rnas/2O3Y

>  <Rbt.Executable>
rbdock ($Id: //depot/dev/client3/rdock/2013.1/src/exe/rbdock.cxx#4 $)

>  <Rbt.Library>
libRbt.so (2013.1, Build901 2013/11/27)

>  <Rbt.Parameter_File>
/export/apps/rDock/src/rDock_2013.1_src/data/scripts/dock_solv.prm

>  <Rbt.Receptor>
prm/pocket_docking_6.prm

>  <SCORE>
-6.75524

>  <SCORE.INTER>
1.35744

>  <SCORE.INTER.CONST>
1

>  <SCORE.INTER.POLAR>
0

>  <SCORE.INTER.ROT>
11

>  <SCORE.INTER.SOLV>
7.18633

>  <SCORE.INTER.VDW>
-12.4238

>  <SCORE.INTER.norm>
0.0969598

>  <SCORE.INTRA>
-8.11268

>  <SCORE.INTRA.DIHEDRAL>
-21.0805

>  <SCORE.INTRA.DIHEDRAL.0>
24.1231

>  <SCORE.INTRA.POLAR>
0

>  <SCORE.INTRA.POLAR.0>
0

>  <SCORE.INTRA.REPUL>
0

>  <SCORE.INTRA.REPUL.0>
0

>  <SCORE.INTRA.SOLV>
1.14282

>  <SCORE.INTRA.SOLV.lig_0>
-48.2216

>  <SCORE.INTRA.VDW>
1.85615

>  <SCORE.INTRA.VDW.0>
-1.3967

>  <SCORE.INTRA.norm>
-0.579477

>  <SCORE.RESTR>
0

>  <SCORE.RESTR.CAVITY>
0

>  <SCORE.RESTR.norm>
0

>  <SCORE.SYSTEM>
0

>  <SCORE.SYSTEM.CONST>
0

>  <SCORE.SYSTEM.DIHEDRAL>
0

>  <SCORE.SYSTEM.SOLV>
0

>  <SCORE.SYSTEM.norm>
0

>  <SCORE.heavy>
14

>  <SCORE.norm>
-0.482517

>  <RMSD>
4.452

$$$$
ligand
 OpenBabel11021811463D
libRbt.so/2013.1/901 2013/11/27
 14 13  0  0  0  0  0  0  0  0999 V2000
   15.6492   13.7683    6.8296 N   0  0  0  0  0  0  0  0  0  0  0  0
   14.6613   13.8716    7.9119 C   0  0  0  0  0  0  0  0  0  0  0  0
   13.7713   12.6330    7.9028 C   0  0  0  0  0  0  0  0  0  0  0  0
   12.8305   12.7008    9.0946 C   0  0  0  0  0  0  0  0  0  0  0  0
   12.0808   11.4426    9.1826 N   0  0  0  0  0  0  0  0  0  0  0  0
   11.3715   11.4538   10.4739 C   0  0  0  0  0  0  0  0  0  0  0  0
   10.8903   10.0443   10.8369 C   0  0  0  0  0  0  0  0  0  0  0  0
   10.2013   10.1088   12.2082 C   0  0  0  0  0  0  0  0  0  0  0  0
    9.6999    8.7772   12.5854 C   0  0  0  0  0  0  0  0  0  0  0  0
   10.8648    7.9552   12.9715 N   0  0  0  0  0  0  0  0  0  0  0  0
   10.7517    7.5355   14.4415 C   0  0  0  0  0  0  0  0  0  0  0  0
   12.1060    7.0107   14.9337 C   0  0  0  0  0  0  0  0  0  0  0  0
   13.0958    8.1050   14.9290 C   0  0  0  0  0  0  0  0  0  0  0  0
   14.3854    7.6124   15.4590 N   0  0  0  0  0  0  0  0  0  0  0  0
  1  2  1  0  0  0  0
  2  3  1  0  0  0  0
  3  4  1  0  0  0  0
  4  5  1  0  0  0  0
  5  6  1  0  0  0  0
  6  7  1  0  0  0  0
  7  8  1  0  0  0  0
  8  9  1  0  0  0  0
  9 10  1  0  0  0  0
 10 11  1  0  0  0  0
 11 12  1  0  0  0  0
 12 13  1  0  0  0  0
 13 14  1  0  0  0  0
M  END
>  <CHROM.1>
175.44629013,-173.45916334,169.97726798,-163.93348964,178.17978948,178.94307523
73.95474955,117.59053326,-165.24384458,65.39620026,177.55981116,12.31102024
10.21566445,11.41158830,-1.30914323,0.12898275,2.23126643

>  <Name>
ligand

>  <RI>
0

>  <Rbt.Current_Directory>
/home/itssahil/PROJECTS/Mol_Feturizer/New_Systems/rnas/2O3Y

>  <Rbt.Executable>
rbdock ($Id: //depot/dev/client3/rdock/2013.1/src/exe/rbdock.cxx#4 $)

>  <Rbt.Library>
libRbt.so (2013.1, Build901 2013/11/27)

>  <Rbt.Parameter_File>
/export/apps/rDock/src/rDock_2013.1_src/data/scripts/dock_solv.prm

>  <Rbt.Receptor>
prm/pocket_docking_5.prm

>  <SCORE>
-8.27474

>  <SCORE.INTER>
2.30958

>  <SCORE.INTER.CONST>
1

>  <SCORE.INTER.POLAR>
0

>  <SCORE.INTER.ROT>
11

>  <SCORE.INTER.SOLV>
9.51371

>  <SCORE.INTER.VDW>
-12.5649

>  <SCORE.INTER.norm>
0.16497

>  <SCORE.INTRA>
-10.5843

>  <SCORE.INTRA.DIHEDRAL>
-21.3846

>  <SCORE.INTRA.DIHEDRAL.0>
24.1231

>  <SCORE.INTRA.POLAR>
0

>  <SCORE.INTRA.POLAR.0>
0

>  <SCORE.INTRA.REPUL>
0

>  <SCORE.INTRA.REPUL.0>
0

>  <SCORE.INTRA.SOLV>
-0.195022

>  <SCORE.INTRA.SOLV.lig_0>
-48.2216

>  <SCORE.INTRA.VDW>
0.205514

>  <SCORE.INTRA.VDW.0>
-1.3967

>  <SCORE.INTRA.norm>
-0.756023

>  <SCORE.RESTR>
0

>  <SCORE.RESTR.CAVITY>
0

>  <SCORE.RESTR.norm>
0

>  <SCORE.SYSTEM>
0

>  <SCORE.SYSTEM.CONST>
0

>  <SCORE.SYSTEM.DIHEDRAL>
0

>  <SCORE.SYSTEM.SOLV>
0

>  <SCORE.SYSTEM.norm>
0

>  <SCORE.heavy>
14

>  <SCORE.norm>
-0.591053

>  <RMSD>
4.455

$$$$
ligand
 OpenBabel11021811463D
libRbt.so/2013.1/901 2013/11/27
 14 13  0  0  0  0  0  0  0  0999 V2000
   10.2085   11.5475   16.8105 N   0  0  0  0  0  0  0  0  0  0  0  0
   11.2993   11.0582   17.6642 C   0  0  0  0  0  0  0  0  0  0  0  0
   12.4010   12.1110   17.7285 C   0  0  0  0  0  0  0  0  0  0  0  0
   13.5639   11.5503   18.5306 C   0  0  0  0  0  0  0  0  0  0  0  0
   14.1865   10.4608   17.7700 N   0  0  0  0  0  0  0  0  0  0  0  0
   15.2658   11.0597   16.9656 C   0  0  0  0  0  0  0  0  0  0  0  0
   15.8667   10.0213   16.0114 C   0  0  0  0  0  0  0  0  0  0  0  0
   16.8990   10.7271   15.1194 C   0  0  0  0  0  0  0  0  0  0  0  0
   17.3846    9.8045   14.0803 C   0  0  0  0  0  0  0  0  0  0  0  0
   18.2764   10.5702   13.1858 N   0  0  0  0  0  0  0  0  0  0  0  0
   18.9217    9.6356   12.1562 C   0  0  0  0  0  0  0  0  0  0  0  0
   20.0678   10.3648   11.4447 C   0  0  0  0  0  0  0  0  0  0  0  0
   19.5240   11.4560   10.6134 C   0  0  0  0  0  0  0  0  0  0  0  0
   20.6046   12.0418    9.7914 N   0  0  0  0  0  0  0  0  0  0  0  0
  1  2  1  0  0  0  0
  2  3  1  0  0  0  0
  3  4  1  0  0  0  0
  4  5  1  0  0  0  0
  5  6  1  0  0  0  0
  6  7  1  0  0  0  0
  7  8  1  0  0  0  0
  8  9  1  0  0  0  0
  9 10  1  0  0  0  0
 10 11  1  0  0  0  0
 11 12  1  0  0  0  0
 12 13  1  0  0  0  0
 13 14  1  0  0  0  0
M  END
>  <CHROM.1>
-175.92540524,68.24715077,91.74596877,-173.32136488,175.26727755,-173.24517909
175.01286924,174.69074462,-167.42179155,-67.37026852,-172.53776565,16.03363146
10.88623787,14.84817704,2.50041613,-0.35051149,1.93340293

>  <Name>
ligand

>  <RI>
0

>  <Rbt.Current_Directory>
/home/itssahil/PROJECTS/Mol_Feturizer/New_Systems/rnas/2O3Y

>  <Rbt.Executable>
rbdock ($Id: //depot/dev/client3/rdock/2013.1/src/exe/rbdock.cxx#4 $)

>  <Rbt.Library>
libRbt.so (2013.1, Build901 2013/11/27)

>  <Rbt.Parameter_File>
/export/apps/rDock/src/rDock_2013.1_src/data/scripts/dock_solv.prm

>  <Rbt.Receptor>
prm/pocket_docking_5.prm

>  <SCORE>
-11.6798

>  <SCORE.INTER>
-1.16337

>  <SCORE.INTER.CONST>
1

>  <SCORE.INTER.POLAR>
0

>  <SCORE.INTER.ROT>
11

>  <SCORE.INTER.SOLV>
8.05373

>  <SCORE.INTER.VDW>
-14.3935

>  <SCORE.INTER.norm>
-0.0830977

>  <SCORE.INTRA>
-10.5164

>  <SCORE.INTRA.DIHEDRAL>
-22.1893

>  <SCORE.INTRA.DIHEDRAL.0>
24.1231

>  <SCORE.INTRA.POLAR>
0

>  <SCORE.INTRA.POLAR.0>
0

>  <SCORE.INTRA.REPUL>
0

>  <SCORE.INTRA.REPUL.0>
0

>  <SCORE.INTRA.SOLV>
-0.160511

>  <SCORE.INTRA.SOLV.lig_0>
-48.2216

>  <SCORE.INTRA.VDW>
0.65847

>  <SCORE.INTRA.VDW.0>
-1.3967

>  <SCORE.INTRA.norm>
-0.751174

>  <SCORE.RESTR>
0

>  <SCORE.RESTR.CAVITY>
0

>  <SCORE.RESTR.norm>
0

>  <SCORE.SYSTEM>
0

>  <SCORE.SYSTEM.CONST>
0

>  <SCORE.SYSTEM.DIHEDRAL>
0

>  <SCORE.SYSTEM.SOLV>
0

>  <SCORE.SYSTEM.norm>
0

>  <SCORE.heavy>
14

>  <SCORE.norm>
-0.834272

>  <RMSD>
4.458

$$$$
ligand
 OpenBabel11021811463D
libRbt.so/2013.1/901 2013/11/27
 14 13  0  0  0  0  0  0  0  0999 V2000
   11.2616    6.9596   16.2082 N   0  0  0  0  0  0  0  0  0  0  0  0
   10.6040    6.9456   14.8946 C   0  0  0  0  0  0  0  0  0  0  0  0
   11.2666    7.9772   13.9875 C   0  0  0  0  0  0  0  0  0  0  0  0
   10.4915    8.0468   12.6820 C   0  0  0  0  0  0  0  0  0  0  0  0
   11.1677    8.9812   11.7751 N   0  0  0  0  0  0  0  0  0  0  0  0
   10.2024   10.0484   11.4588 C   0  0  0  0  0  0  0  0  0  0  0  0
   10.5445   10.7041   10.1160 C   0  0  0  0  0  0  0  0  0  0  0  0
   11.8630   11.4752   10.2785 C   0  0  0  0  0  0  0  0  0  0  0  0
   12.1832   12.1970    9.0362 C   0  0  0  0  0  0  0  0  0  0  0  0
   13.5045   12.8318    9.2175 N   0  0  0  0  0  0  0  0  0  0  0  0
   13.9466   13.5129    7.9173 C   0  0  0  0  0  0  0  0  0  0  0  0
   15.4781   13.5359    7.8420 C   0  0  0  0  0  0  0  0  0  0  0  0
   15.9049   14.1351    6.5628 C   0  0  0  0  0  0  0  0  0  0  0  0
   17.3816   14.1427    6.4847 N   0  0  0  0  0  0  0  0  0  0  0  0
  1  2  1  0  0  0  0
  2  3  1  0  0  0  0
  3  4  1  0  0  0  0
  4  5  1  0  0  0  0
  5  6  1  0  0  0  0
  6  7  1  0  0  0  0
  7  8  1  0  0  0  0
  8  9  1  0  0  0  0
  9 10  1  0  0  0  0
 10 11  1  0  0  0  0
 11 12  1  0  0  0  0
 12 13  1  0  0  0  0
 13 14  1  0  0  0  0
M  END
>  <CHROM.1>
-174.55614131,-176.80723641,-120.33121809,-155.38256885,-68.08554902,-176.17856304
-175.77627006,175.68102463,-151.63109129,177.40569313,-179.36269642,12.55685699
10.82100815,10.60424408,-2.04690080,-0.09923668,-0.89922559

>  <Name>
ligand

>  <RI>
0

>  <Rbt.Current_Directory>
/home/itssahil/PROJECTS/Mol_Feturizer/New_Systems/rnas/2O3Y

>  <Rbt.Executable>
rbdock ($Id: //depot/dev/client3/rdock/2013.1/src/exe/rbdock.cxx#4 $)

>  <Rbt.Library>
libRbt.so (2013.1, Build901 2013/11/27)

>  <Rbt.Parameter_File>
/export/apps/rDock/src/rDock_2013.1_src/data/scripts/dock_solv.prm

>  <Rbt.Receptor>
prm/pocket_docking_5.prm

>  <SCORE>
-11.1803

>  <SCORE.INTER>
-0.402995

>  <SCORE.INTER.CONST>
1

>  <SCORE.INTER.POLAR>
0

>  <SCORE.INTER.ROT>
11

>  <SCORE.INTER.SOLV>
5.15832

>  <SCORE.INTER.VDW>
-12.9214

>  <SCORE.INTER.norm>
-0.0287854

>  <SCORE.INTRA>
-10.7773

>  <SCORE.INTRA.DIHEDRAL>
-21.3772

>  <SCORE.INTRA.DIHEDRAL.0>
24.1231

>  <SCORE.INTRA.POLAR>
0

>  <SCORE.INTRA.POLAR.0>
0

>  <SCORE.INTRA.REPUL>
0

>  <SCORE.INTRA.REPUL.0>
0

>  <SCORE.INTRA.SOLV>
-0.594224

>  <SCORE.INTRA.SOLV.lig_0>
-48.2216

>  <SCORE.INTRA.VDW>
0.20845

>  <SCORE.INTRA.VDW.0>
-1.3967

>  <SCORE.INTRA.norm>
-0.769806

>  <SCORE.RESTR>
0

>  <SCORE.RESTR.CAVITY>
0

>  <SCORE.RESTR.norm>
0

>  <SCORE.SYSTEM>
0

>  <SCORE.SYSTEM.CONST>
0

>  <SCORE.SYSTEM.DIHEDRAL>
0

>  <SCORE.SYSTEM.SOLV>
0

>  <SCORE.SYSTEM.norm>
0

>  <SCORE.heavy>
14

>  <SCORE.norm>
-0.798591

>  <RMSD>
4.460

$$$$
ligand
 OpenBabel11021811463D
libRbt.so/2013.1/901 2013/11/27
 14 13  0  0  0  0  0  0  0  0999 V2000
   19.5416   13.3418    6.9682 N   0  0  0  0  0  0  0  0  0  0  0  0
   18.2787   14.0800    6.8330 C   0  0  0  0  0  0  0  0  0  0  0  0
   17.1123   13.1437    7.1317 C   0  0  0  0  0  0  0  0  0  0  0  0
   15.8161   13.9293    7.0188 C   0  0  0  0  0  0  0  0  0  0  0  0
   14.6909   13.0398    7.3278 N   0  0  0  0  0  0  0  0  0  0  0  0
   13.5651   13.8970    7.7384 C   0  0  0  0  0  0  0  0  0  0  0  0
   12.3504   13.0443    8.1223 C   0  0  0  0  0  0  0  0  0  0  0  0
   12.7253   12.1952    9.3462 C   0  0  0  0  0  0  0  0  0  0  0  0
   11.5512   11.4444    9.8199 C   0  0  0  0  0  0  0  0  0  0  0  0
   12.0059   10.5354   10.8917 N   0  0  0  0  0  0  0  0  0  0  0  0
   10.8007    9.8828   11.5781 C   0  0  0  0  0  0  0  0  0  0  0  0
   11.2546    8.6279   12.3337 C   0  0  0  0  0  0  0  0  0  0  0  0
   10.1028    8.0209   13.0283 C   0  0  0  0  0  0  0  0  0  0  0  0
    9.6402    8.9215   14.1060 N   0  0  0  0  0  0  0  0  0  0  0  0
  1  2  1  0  0  0  0
  2  3  1  0  0  0  0
  3  4  1  0  0  0  0
  4  5  1  0  0  0  0
  5  6  1  0  0  0  0
  6  7  1  0  0  0  0
  7  8  1  0  0  0  0
  8  9  1  0  0  0  0
  9 10  1  0  0  0  0
 10 11  1  0  0  0  0
 11 12  1  0  0  0  0
 12 13  1  0  0  0  0
 13 14  1  0  0  0  0
M  END
>  <CHROM.1>
178.72121146,-179.02964993,157.68868760,-178.32175399,63.52029691,175.20513446
173.61698869,171.20618515,161.08464421,178.31523071,-67.05233345,13.53094899
11.72182723,9.44585456,-0.81187526,-0.11276036,2.36176988

>  <Name>
ligand

>  <RI>
0

>  <Rbt.Current_Directory>
/home/itssahil/PROJECTS/Mol_Feturizer/New_Systems/rnas/2O3Y

>  <Rbt.Executable>
rbdock ($Id: //depot/dev/client3/rdock/2013.1/src/exe/rbdock.cxx#4 $)

>  <Rbt.Library>
libRbt.so (2013.1, Build901 2013/11/27)

>  <Rbt.Parameter_File>
/export/apps/rDock/src/rDock_2013.1_src/data/scripts/dock_solv.prm

>  <Rbt.Receptor>
prm/pocket_docking_5.prm

>  <SCORE>
-10.25

>  <SCORE.INTER>
0.681069

>  <SCORE.INTER.CONST>
1

>  <SCORE.INTER.POLAR>
0

>  <SCORE.INTER.ROT>
11

>  <SCORE.INTER.SOLV>
5.05198

>  <SCORE.INTER.VDW>
-12.1633

>  <SCORE.INTER.norm>
0.0486478

>  <SCORE.INTRA>
-10.931

>  <SCORE.INTRA.DIHEDRAL>
-22.9205

>  <SCORE.INTRA.DIHEDRAL.0>
24.1231

>  <SCORE.INTRA.POLAR>
0

>  <SCORE.INTRA.POLAR.0>
0

>  <SCORE.INTRA.REPUL>
0

>  <SCORE.INTRA.REPUL.0>
0

>  <SCORE.INTRA.SOLV>
0.247063

>  <SCORE.INTRA.SOLV.lig_0>
-48.2216

>  <SCORE.INTRA.VDW>
0.405676

>  <SCORE.INTRA.VDW.0>
-1.3967

>  <SCORE.INTRA.norm>
-0.780788

>  <SCORE.RESTR>
0

>  <SCORE.RESTR.CAVITY>
0

>  <SCORE.RESTR.norm>
0

>  <SCORE.SYSTEM>
0

>  <SCORE.SYSTEM.CONST>
0

>  <SCORE.SYSTEM.DIHEDRAL>
0

>  <SCORE.SYSTEM.SOLV>
0

>  <SCORE.SYSTEM.norm>
0

>  <SCORE.heavy>
14

>  <SCORE.norm>
-0.73214

>  <RMSD>
4.463

$$$$
ligand
 OpenBabel11021811463D
libRbt.so/2013.1/901 2013/11/27
 14 13  0  0  0  0  0  0  0  0999 V2000
   17.0547   13.2928    6.3315 N   0  0  0  0  0  0  0  0  0  0  0  0
   15.8696   14.0498    6.7566 C   0  0  0  0  0  0  0  0  0  0  0  0
   14.8288   13.0855    7.3162 C   0  0  0  0  0  0  0  0  0  0  0  0
   13.6242   13.8865    7.7825 C   0  0  0  0  0  0  0  0  0  0  0  0
   12.5854   12.9594    8.2456 N   0  0  0  0  0  0  0  0  0  0  0  0
   12.7675   12.8005    9.6990 C   0  0  0  0  0  0  0  0  0  0  0  0
   12.1670   11.4730   10.1755 C   0  0  0  0  0  0  0  0  0  0  0  0
   10.6414   11.5484   10.0132 C   0  0  0  0  0  0  0  0  0  0  0  0
   10.0172   10.3155   10.5201 C   0  0  0  0  0  0  0  0  0  0  0  0
   10.2468   10.2666   11.9784 N   0  0  0  0  0  0  0  0  0  0  0  0
   10.2519    8.8128   12.4644 C   0  0  0  0  0  0  0  0  0  0  0  0
   10.4699    8.7769   13.9818 C   0  0  0  0  0  0  0  0  0  0  0  0
   10.5840    7.3775   14.4357 C   0  0  0  0  0  0  0  0  0  0  0  0
   10.7868    7.3439   15.9001 N   0  0  0  0  0  0  0  0  0  0  0  0
  1  2  1  0  0  0  0
  2  3  1  0  0  0  0
  3  4  1  0  0  0  0
  4  5  1  0  0  0  0
  5  6  1  0  0  0  0
  6  7  1  0  0  0  0
  7  8  1  0  0  0  0
  8  9  1  0  0  0  0
  9 10  1  0  0  0  0
 10 11  1  0  0  0  0
 11 12  1  0  0  0  0
 12 13  1  0  0  0  0
 13 14  1  0  0  0  0
M  END
>  <CHROM.1>
178.62653976,176.54375270,93.35765263,-156.30633275,-67.33524022,-177.30738052
66.01050270,-153.10238596,-179.15401225,-175.45980736,-179.69029834,12.27804981
11.14215941,10.39994604,-1.06877732,-0.08384289,2.27167548

>  <Name>
ligand

>  <RI>
0

>  <Rbt.Current_Directory>
/home/itssahil/PROJECTS/Mol_Feturizer/New_Systems/rnas/2O3Y

>  <Rbt.Executable>
rbdock ($Id: //depot/dev/client3/rdock/2013.1/src/exe/rbdock.cxx#4 $)

>  <Rbt.Library>
libRbt.so (2013.1, Build901 2013/11/27)

>  <Rbt.Parameter_File>
/export/apps/rDock/src/rDock_2013.1_src/data/scripts/dock_solv.prm

>  <Rbt.Receptor>
prm/pocket_docking_6.prm

>  <SCORE>
-11.452

>  <SCORE.INTER>
-1.09506

>  <SCORE.INTER.CONST>
1

>  <SCORE.INTER.POLAR>
0

>  <SCORE.INTER.ROT>
11

>  <SCORE.INTER.SOLV>
6.28348

>  <SCORE.INTER.VDW>
-13.7579

>  <SCORE.INTER.norm>
-0.0782186

>  <SCORE.INTRA>
-10.357

>  <SCORE.INTRA.DIHEDRAL>
-22.012

>  <SCORE.INTRA.DIHEDRAL.0>
24.1231

>  <SCORE.INTRA.POLAR>
0

>  <SCORE.INTRA.POLAR.0>
0

>  <SCORE.INTRA.REPUL>
0

>  <SCORE.INTRA.REPUL.0>
0

>  <SCORE.INTRA.SOLV>
-0.0990139

>  <SCORE.INTRA.SOLV.lig_0>
-48.2216

>  <SCORE.INTRA.VDW>
0.698507

>  <SCORE.INTRA.VDW.0>
-1.3967

>  <SCORE.INTRA.norm>
-0.739785

>  <SCORE.RESTR>
0

>  <SCORE.RESTR.CAVITY>
0

>  <SCORE.RESTR.norm>
0

>  <SCORE.SYSTEM>
0

>  <SCORE.SYSTEM.CONST>
0

>  <SCORE.SYSTEM.DIHEDRAL>
0

>  <SCORE.SYSTEM.SOLV>
0

>  <SCORE.SYSTEM.norm>
0

>  <SCORE.heavy>
14

>  <SCORE.norm>
-0.818003

>  <RMSD>
4.466

$$$$
ligand
 OpenBabel11021811463D
libRbt.so/2013.1/901 2013/11/27
 14 13  0  0  0  0  0  0  0  0999 V2000
   10.6459   10.0060   13.2217 N   0  0  0  0  0  0  0  0  0  0  0  0
   10.1754    9.2775   12.0359 C   0  0  0  0  0  0  0  0  0  0  0  0
   10.0586   10.2450   10.8626 C   0  0  0  0  0  0  0  0  0  0  0  0
   11.4506   10.7272   10.4887 C   0  0  0  0  0  0  0  0  0  0  0  0
   11.3367   11.7426    9.4357 N   0  0  0  0  0  0  0  0  0  0  0  0
   12.7079   12.1382    9.0695 C   0  0  0  0  0  0  0  0  0  0  0  0
   12.6851   13.3083    8.0793 C   0  0  0  0  0  0  0  0  0  0  0  0
   14.1354   13.7264    7.7942 C   0  0  0  0  0  0  0  0  0  0  0  0
   14.7157   14.3795    8.9788 C   0  0  0  0  0  0  0  0  0  0  0  0
   16.1029   14.7603    8.6432 N   0  0  0  0  0  0  0  0  0  0  0  0
   17.0937   13.8991    9.4347 C   0  0  0  0  0  0  0  0  0  0  0  0
   18.5051   14.4841    9.3032 C   0  0  0  0  0  0  0  0  0  0  0  0
   19.4700   13.6209   10.0112 C   0  0  0  0  0  0  0  0  0  0  0  0
   19.5559   12.3096    9.3332 N   0  0  0  0  0  0  0  0  0  0  0  0
  1  2  1  0  0  0  0
  2  3  1  0  0  0  0
  3  4  1  0  0  0  0
  4  5  1  0  0  0  0
  5  6  1  0  0  0  0
  6  7  1  0  0  0  0
  7  8  1  0  0  0  0
  8  9  1  0  0  0  0
  9 10  1  0  0  0  0
 10 11  1  0  0  0  0
 11 12  1  0  0  0  0
 12 13  1  0  0  0  0
 13 14  1  0  0  0  0
M  END
>  <CHROM.1>
66.38956397,-175.32417052,-177.75006212,-173.88211707,176.94161858,-70.69449141
-179.84298243,-110.74814702,-168.48510514,-177.33144976,66.09248596,14.18840758
12.47329539,9.76354410,-2.67730786,-0.16617738,-0.83982326

>  <Name>
ligand

>  <RI>
0

>  <Rbt.Current_Directory>
/home/itssahil/PROJECTS/Mol_Feturizer/New_Systems/rnas/2O3Y

>  <Rbt.Executable>
rbdock ($Id: //depot/dev/client3/rdock/2013.1/src/exe/rbdock.cxx#4 $)

>  <Rbt.Library>
libRbt.so (2013.1, Build901 2013/11/27)

>  <Rbt.Parameter_File>
/export/apps/rDock/src/rDock_2013.1_src/data/scripts/dock_solv.prm

>  <Rbt.Receptor>
prm/pocket_docking_5.prm

>  <SCORE>
-6.97624

>  <SCORE.INTER>
2.0453

>  <SCORE.INTER.CONST>
1

>  <SCORE.INTER.POLAR>
0

>  <SCORE.INTER.ROT>
11

>  <SCORE.INTER.SOLV>
5.59889

>  <SCORE.INTER.VDW>
-11.4361

>  <SCORE.INTER.norm>
0.146093

>  <SCORE.INTRA>
-9.02154

>  <SCORE.INTRA.DIHEDRAL>
-21.9475

>  <SCORE.INTRA.DIHEDRAL.0>
24.1231

>  <SCORE.INTRA.POLAR>
0

>  <SCORE.INTRA.POLAR.0>
0

>  <SCORE.INTRA.REPUL>
0

>  <SCORE.INTRA.REPUL.0>
0

>  <SCORE.INTRA.SOLV>
1.00943

>  <SCORE.INTRA.SOLV.lig_0>
-48.2216

>  <SCORE.INTRA.VDW>
1.44747

>  <SCORE.INTRA.VDW.0>
-1.3967

>  <SCORE.INTRA.norm>
-0.644396

>  <SCORE.RESTR>
0

>  <SCORE.RESTR.CAVITY>
0

>  <SCORE.RESTR.norm>
0

>  <SCORE.SYSTEM>
0

>  <SCORE.SYSTEM.CONST>
0

>  <SCORE.SYSTEM.DIHEDRAL>
0

>  <SCORE.SYSTEM.SOLV>
0

>  <SCORE.SYSTEM.norm>
0

>  <SCORE.heavy>
14

>  <SCORE.norm>
-0.498303

>  <RMSD>
4.469

$$$$
ligand
 OpenBabel11021811463D
libRbt.so/2013.1/901 2013/11/27
 14 13  0  0  0  0  0  0  0  0999 V2000
   16.8596   13.1304    6.6613 N   0  0  0  0  0  0  0  0  0  0  0  0
   15.7454   13.8928    7.2405 C   0  0  0  0  0  0  0  0  0  0  0  0
   14.5481   12.9681    7.4347 C   0  0  0  0  0  0  0  0  0  0  0  0
   13.4012   13.7737    8.0226 C   0  0  0  0  0  0  0  0  0  0  0  0
   12.2444   12.8905    8.2089 N   0  0  0  0  0  0  0  0  0  0  0  0
   12.3783   12.2820    9.5440 C   0  0  0  0  0  0  0  0  0  0  0  0
   11.1797   11.3753    9.8458 C   0  0  0  0  0  0  0  0  0  0  0  0
   11.3599   10.7919   11.2553 C   0  0  0  0  0  0  0  0  0  0  0  0
   10.2520    9.8747   11.5686 C   0  0  0  0  0  0  0  0  0  0  0  0
   10.4493    9.3931   12.9509 N   0  0  0  0  0  0  0  0  0  0  0  0
   10.1917    7.8838   13.0268 C   0  0  0  0  0  0  0  0  0  0  0  0
   10.5255    7.3737   14.4338 C   0  0  0  0  0  0  0  0  0  0  0  0
   11.9627    7.5680   14.7061 C   0  0  0  0  0  0  0  0  0  0  0  0
   12.2939    7.0278   16.0422 N   0  0  0  0  0  0  0  0  0  0  0  0
  1  2  1  0  0  0  0
  2  3  1  0  0  0  0
  3  4  1  0  0  0  0
  4  5  1  0  0  0  0
  5  6  1  0  0  0  0
  6  7  1  0  0  0  0
  7  8  1  0  0  0  0
  8  9  1  0  0  0  0
  9 10  1  0  0  0  0
 10 11  1  0  0  0  0
 11 12  1  0  0  0  0
 12 13  1  0  0  0  0
 13 14  1  0  0  0  0
M  END
>  <CHROM.1>
-179.50385274,179.85633758,87.97369224,178.01575501,-178.94051212,-177.98668349
-177.62997494,-136.24918121,174.76468596,-63.33793590,-177.80213771,12.38488175
10.73046966,10.78146183,-1.17448097,-0.04057989,2.26881972

>  <Name>
ligand

>  <RI>
0

>  <Rbt.Current_Directory>
/home/itssahil/PROJECTS/Mol_Feturizer/New_Systems/rnas/2O3Y

>  <Rbt.Executable>
rbdock ($Id: //depot/dev/client3/rdock/2013.1/src/exe/rbdock.cxx#4 $)

>  <Rbt.Library>
libRbt.so (2013.1, Build901 2013/11/27)

>  <Rbt.Parameter_File>
/export/apps/rDock/src/rDock_2013.1_src/data/scripts/dock_solv.prm

>  <Rbt.Receptor>
prm/pocket_docking_7.prm

>  <SCORE>
-11.0076

>  <SCORE.INTER>
-0.19965

>  <SCORE.INTER.CONST>
1

>  <SCORE.INTER.POLAR>
0

>  <SCORE.INTER.ROT>
11

>  <SCORE.INTER.SOLV>
5.9128

>  <SCORE.INTER.VDW>
-13.0374

>  <SCORE.INTER.norm>
-0.0142607

>  <SCORE.INTRA>
-10.8079

>  <SCORE.INTRA.DIHEDRAL>
-22.4616

>  <SCORE.INTRA.DIHEDRAL.0>
24.1231

>  <SCORE.INTRA.POLAR>
0

>  <SCORE.INTRA.POLAR.0>
0

>  <SCORE.INTRA.REPUL>
0

>  <SCORE.INTRA.REPUL.0>
0

>  <SCORE.INTRA.SOLV>
-0.571387

>  <SCORE.INTRA.SOLV.lig_0>
-48.2216

>  <SCORE.INTRA.VDW>
0.708566

>  <SCORE.INTRA.VDW.0>
-1.3967

>  <SCORE.INTRA.norm>
-0.771995

>  <SCORE.RESTR>
0

>  <SCORE.RESTR.CAVITY>
0

>  <SCORE.RESTR.norm>
0

>  <SCORE.SYSTEM>
0

>  <SCORE.SYSTEM.CONST>
0

>  <SCORE.SYSTEM.DIHEDRAL>
0

>  <SCORE.SYSTEM.SOLV>
0

>  <SCORE.SYSTEM.norm>
0

>  <SCORE.heavy>
14

>  <SCORE.norm>
-0.786256

>  <RMSD>
4.470

$$$$
ligand
 OpenBabel11021811463D
libRbt.so/2013.1/901 2013/11/27
 14 13  0  0  0  0  0  0  0  0999 V2000
   15.1601   12.4892    7.9494 N   0  0  0  0  0  0  0  0  0  0  0  0
   14.2305   13.6266    7.9718 C   0  0  0  0  0  0  0  0  0  0  0  0
   12.7984   13.1066    8.0426 C   0  0  0  0  0  0  0  0  0  0  0  0
   12.5973   12.4150    9.3810 C   0  0  0  0  0  0  0  0  0  0  0  0
   11.2136   11.9343    9.4662 N   0  0  0  0  0  0  0  0  0  0  0  0
   11.0750   11.2500   10.7636 C   0  0  0  0  0  0  0  0  0  0  0  0
   10.0708   10.0964   10.6600 C   0  0  0  0  0  0  0  0  0  0  0  0
    9.9008    9.4788   12.0561 C   0  0  0  0  0  0  0  0  0  0  0  0
   11.0080    8.5503   12.3367 C   0  0  0  0  0  0  0  0  0  0  0  0
   12.2029    9.3617   12.6454 N   0  0  0  0  0  0  0  0  0  0  0  0
   13.4730    8.6142   12.2235 C   0  0  0  0  0  0  0  0  0  0  0  0
   14.6926    9.5259   12.4056 C   0  0  0  0  0  0  0  0  0  0  0  0
   15.9203    8.7950   12.0369 C   0  0  0  0  0  0  0  0  0  0  0  0
   17.0946    9.6780   12.2038 N   0  0  0  0  0  0  0  0  0  0  0  0
  1  2  1  0  0  0  0
  2  3  1  0  0  0  0
  3  4  1  0  0  0  0
  4  5  1  0  0  0  0
  5  6  1  0  0  0  0
  6  7  1  0  0  0  0
  7  8  1  0  0  0  0
  8  9  1  0  0  0  0
  9 10  1  0  0  0  0
 10 11  1  0  0  0  0
 11 12  1  0  0  0  0
 12 13  1  0  0  0  0
 13 14  1  0  0  0  0
M  END
>  <CHROM.1>
66.16920659,178.94246254,178.87369405,-147.80766984,-176.48131996,-81.05103978
75.50267200,-149.90301141,173.81691571,178.37486017,179.60229016,12.95946268
10.63719273,10.72453292,-1.46993175,-0.00181675,2.34399769

>  <Name>
ligand

>  <RI>
0

>  <Rbt.Current_Directory>
/home/itssahil/PROJECTS/Mol_Feturizer/New_Systems/rnas/2O3Y

>  <Rbt.Executable>
rbdock ($Id: //depot/dev/client3/rdock/2013.1/src/exe/rbdock.cxx#4 $)

>  <Rbt.Library>
libRbt.so (2013.1, Build901 2013/11/27)

>  <Rbt.Parameter_File>
/export/apps/rDock/src/rDock_2013.1_src/data/scripts/dock_solv.prm

>  <Rbt.Receptor>
prm/pocket_docking_4.prm

>  <SCORE>
-7.3517

>  <SCORE.INTER>
1.48669

>  <SCORE.INTER.CONST>
1

>  <SCORE.INTER.POLAR>
0

>  <SCORE.INTER.ROT>
11

>  <SCORE.INTER.SOLV>
7.00072

>  <SCORE.INTER.VDW>
-12.2758

>  <SCORE.INTER.norm>
0.106192

>  <SCORE.INTRA>
-8.83839

>  <SCORE.INTRA.DIHEDRAL>
-20.0764

>  <SCORE.INTRA.DIHEDRAL.0>
24.1231

>  <SCORE.INTRA.POLAR>
0

>  <SCORE.INTRA.POLAR.0>
0

>  <SCORE.INTRA.REPUL>
0

>  <SCORE.INTRA.REPUL.0>
0

>  <SCORE.INTRA.SOLV>
1.07137

>  <SCORE.INTRA.SOLV.lig_0>
-48.2216

>  <SCORE.INTRA.VDW>
0.6641

>  <SCORE.INTRA.VDW.0>
-1.3967

>  <SCORE.INTRA.norm>
-0.631314

>  <SCORE.RESTR>
0

>  <SCORE.RESTR.CAVITY>
0

>  <SCORE.RESTR.norm>
0

>  <SCORE.SYSTEM>
0

>  <SCORE.SYSTEM.CONST>
0

>  <SCORE.SYSTEM.DIHEDRAL>
0

>  <SCORE.SYSTEM.SOLV>
0

>  <SCORE.SYSTEM.norm>
0

>  <SCORE.heavy>
14

>  <SCORE.norm>
-0.525121

>  <RMSD>
4.472

$$$$
ligand
 OpenBabel11021811463D
libRbt.so/2013.1/901 2013/11/27
 14 13  0  0  0  0  0  0  0  0999 V2000
   11.5934    9.7323   12.9390 N   0  0  0  0  0  0  0  0  0  0  0  0
   11.9734    8.5401   12.1693 C   0  0  0  0  0  0  0  0  0  0  0  0
   13.3407    8.7654   11.5323 C   0  0  0  0  0  0  0  0  0  0  0  0
   14.3842    8.8451   12.6345 C   0  0  0  0  0  0  0  0  0  0  0  0
   15.7009    9.0743   12.0291 N   0  0  0  0  0  0  0  0  0  0  0  0
   16.6782    9.1235   13.1306 C   0  0  0  0  0  0  0  0  0  0  0  0
   17.8801    9.9939   12.7463 C   0  0  0  0  0  0  0  0  0  0  0  0
   18.5848    9.3402   11.5481 C   0  0  0  0  0  0  0  0  0  0  0  0
   19.6979   10.1884   11.0916 C   0  0  0  0  0  0  0  0  0  0  0  0
   19.1135   11.3860   10.4544 N   0  0  0  0  0  0  0  0  0  0  0  0
   20.1896   12.4604   10.2613 C   0  0  0  0  0  0  0  0  0  0  0  0
   19.5619   13.7129    9.6377 C   0  0  0  0  0  0  0  0  0  0  0  0
   18.5591   14.2794   10.5601 C   0  0  0  0  0  0  0  0  0  0  0  0
   17.9373   15.4730    9.9475 N   0  0  0  0  0  0  0  0  0  0  0  0
  1  2  1  0  0  0  0
  2  3  1  0  0  0  0
  3  4  1  0  0  0  0
  4  5  1  0  0  0  0
  5  6  1  0  0  0  0
  6  7  1  0  0  0  0
  7  8  1  0  0  0  0
  8  9  1  0  0  0  0
  9 10  1  0  0  0  0
 10 11  1  0  0  0  0
 11 12  1  0  0  0  0
 12 13  1  0  0  0  0
 13 14  1  0  0  0  0
M  END
>  <CHROM.1>
66.88485459,-179.48123714,-179.15577590,-152.34800090,-63.01312214,176.47299991
-70.85010888,166.37735617,-178.32707332,63.15802931,-178.99504193,16.79993641
10.77937996,11.47731823,2.48507250,-0.09243975,2.79218469

>  <Name>
ligand

>  <RI>
0

>  <Rbt.Current_Directory>
/home/itssahil/PROJECTS/Mol_Feturizer/New_Systems/rnas/2O3Y

>  <Rbt.Executable>
rbdock ($Id: //depot/dev/client3/rdock/2013.1/src/exe/rbdock.cxx#4 $)

>  <Rbt.Library>
libRbt.so (2013.1, Build901 2013/11/27)

>  <Rbt.Parameter_File>
/export/apps/rDock/src/rDock_2013.1_src/data/scripts/dock_solv.prm

>  <Rbt.Receptor>
prm/pocket_docking_4.prm

>  <SCORE>
-6.23685

>  <SCORE.INTER>
3.91354

>  <SCORE.INTER.CONST>
1

>  <SCORE.INTER.POLAR>
0

>  <SCORE.INTER.ROT>
11

>  <SCORE.INTER.SOLV>
5.21999

>  <SCORE.INTER.VDW>
-10.0643

>  <SCORE.INTER.norm>
0.279538

>  <SCORE.INTRA>
-10.1504

>  <SCORE.INTRA.DIHEDRAL>
-22.7078

>  <SCORE.INTRA.DIHEDRAL.0>
24.1231

>  <SCORE.INTRA.POLAR>
0

>  <SCORE.INTRA.POLAR.0>
0

>  <SCORE.INTRA.REPUL>
0.00322278

>  <SCORE.INTRA.REPUL.0>
0

>  <SCORE.INTRA.SOLV>
1.21512

>  <SCORE.INTRA.SOLV.lig_0>
-48.2216

>  <SCORE.INTRA.VDW>
0.579833

>  <SCORE.INTRA.VDW.0>
-1.3967

>  <SCORE.INTRA.norm>
-0.725028

>  <SCORE.RESTR>
0

>  <SCORE.RESTR.CAVITY>
0

>  <SCORE.RESTR.norm>
0

>  <SCORE.SYSTEM>
0

>  <SCORE.SYSTEM.CONST>
0

>  <SCORE.SYSTEM.DIHEDRAL>
0

>  <SCORE.SYSTEM.SOLV>
0

>  <SCORE.SYSTEM.norm>
0

>  <SCORE.heavy>
14

>  <SCORE.norm>
-0.44549

>  <RMSD>
4.477

$$$$
ligand
 OpenBabel11021811463D
libRbt.so/2013.1/901 2013/11/27
 14 13  0  0  0  0  0  0  0  0999 V2000
   17.3999   13.9255    6.6912 N   0  0  0  0  0  0  0  0  0  0  0  0
   15.9342   14.0162    6.6519 C   0  0  0  0  0  0  0  0  0  0  0  0
   15.3654   13.5821    7.9988 C   0  0  0  0  0  0  0  0  0  0  0  0
   13.8497   13.6785    7.9411 C   0  0  0  0  0  0  0  0  0  0  0  0
   13.2963   13.2737    9.2383 N   0  0  0  0  0  0  0  0  0  0  0  0
   12.3692   12.1579    8.9812 C   0  0  0  0  0  0  0  0  0  0  0  0
   11.7508   11.6580   10.2918 C   0  0  0  0  0  0  0  0  0  0  0  0
   10.7337   10.5571    9.9556 C   0  0  0  0  0  0  0  0  0  0  0  0
   10.0934   10.0667   11.1869 C   0  0  0  0  0  0  0  0  0  0  0  0
   11.1061    9.3004   11.9412 N   0  0  0  0  0  0  0  0  0  0  0  0
   10.4218    8.2880   12.8667 C   0  0  0  0  0  0  0  0  0  0  0  0
   11.3544    7.9442   14.0345 C   0  0  0  0  0  0  0  0  0  0  0  0
   10.7017    6.9610   14.9204 C   0  0  0  0  0  0  0  0  0  0  0  0
   11.5795    6.6707   16.0744 N   0  0  0  0  0  0  0  0  0  0  0  0
  1  2  1  0  0  0  0
  2  3  1  0  0  0  0
  3  4  1  0  0  0  0
  4  5  1  0  0  0  0
  5  6  1  0  0  0  0
  6  7  1  0  0  0  0
  7  8  1  0  0  0  0
  8  9  1  0  0  0  0
  9 10  1  0  0  0  0
 10 11  1  0  0  0  0
 11 12  1  0  0  0  0
 12 13  1  0  0  0  0
 13 14  1  0  0  0  0
M  END
>  <CHROM.1>
-179.87290719,-179.49092559,-122.89730887,179.41329057,176.62582532,-178.82052873
-70.58299273,-155.63741073,-155.78212333,-179.52796015,-177.77099331,12.56798372
10.86289681,10.62656968,-1.11046037,0.06590977,2.26964868

>  <Name>
ligand

>  <RI>
0

>  <Rbt.Current_Directory>
/home/itssahil/PROJECTS/Mol_Feturizer/New_Systems/rnas/2O3Y

>  <Rbt.Executable>
rbdock ($Id: //depot/dev/client3/rdock/2013.1/src/exe/rbdock.cxx#4 $)

>  <Rbt.Library>
libRbt.so (2013.1, Build901 2013/11/27)

>  <Rbt.Parameter_File>
/export/apps/rDock/src/rDock_2013.1_src/data/scripts/dock_solv.prm

>  <Rbt.Receptor>
prm/pocket_docking_6.prm

>  <SCORE>
-11.2271

>  <SCORE.INTER>
-0.403638

>  <SCORE.INTER.CONST>
1

>  <SCORE.INTER.POLAR>
0

>  <SCORE.INTER.ROT>
11

>  <SCORE.INTER.SOLV>
4.72154

>  <SCORE.INTER.VDW>
-12.7763

>  <SCORE.INTER.norm>
-0.0288313

>  <SCORE.INTRA>
-10.8235

>  <SCORE.INTRA.DIHEDRAL>
-21.6007

>  <SCORE.INTRA.DIHEDRAL.0>
24.1231

>  <SCORE.INTRA.POLAR>
0

>  <SCORE.INTRA.POLAR.0>
0

>  <SCORE.INTRA.REPUL>
0

>  <SCORE.INTRA.REPUL.0>
0

>  <SCORE.INTRA.SOLV>
-0.573329

>  <SCORE.INTRA.SOLV.lig_0>
-48.2216

>  <SCORE.INTRA.VDW>
0.263543

>  <SCORE.INTRA.VDW.0>
-1.3967

>  <SCORE.INTRA.norm>
-0.773105

>  <SCORE.RESTR>
0

>  <SCORE.RESTR.CAVITY>
0

>  <SCORE.RESTR.norm>
0

>  <SCORE.SYSTEM>
0

>  <SCORE.SYSTEM.CONST>
0

>  <SCORE.SYSTEM.DIHEDRAL>
0

>  <SCORE.SYSTEM.SOLV>
0

>  <SCORE.SYSTEM.norm>
0

>  <SCORE.heavy>
14

>  <SCORE.norm>
-0.801936

>  <RMSD>
4.478

$$$$
ligand
 OpenBabel11021811463D
libRbt.so/2013.1/901 2013/11/27
 14 13  0  0  0  0  0  0  0  0999 V2000
   10.5623   16.0707   16.8915 N   0  0  0  0  0  0  0  0  0  0  0  0
   10.3582   15.5809   15.5216 C   0  0  0  0  0  0  0  0  0  0  0  0
    8.9310   15.0623   15.3784 C   0  0  0  0  0  0  0  0  0  0  0  0
    8.7294   14.5794   13.9515 C   0  0  0  0  0  0  0  0  0  0  0  0
    9.5996   13.4225   13.7120 N   0  0  0  0  0  0  0  0  0  0  0  0
    9.5877   13.1683   12.2608 C   0  0  0  0  0  0  0  0  0  0  0  0
   10.3514   11.8802   11.9330 C   0  0  0  0  0  0  0  0  0  0  0  0
   10.2160   11.6099   10.4269 C   0  0  0  0  0  0  0  0  0  0  0  0
   10.8744   10.3401   10.0796 C   0  0  0  0  0  0  0  0  0  0  0  0
   12.3139   10.4889   10.3753 N   0  0  0  0  0  0  0  0  0  0  0  0
   12.9978    9.1170   10.3773 C   0  0  0  0  0  0  0  0  0  0  0  0
   12.7264    8.4073   11.7093 C   0  0  0  0  0  0  0  0  0  0  0  0
   13.3151    9.1847   12.8168 C   0  0  0  0  0  0  0  0  0  0  0  0
   12.9675    8.5535   14.1081 N   0  0  0  0  0  0  0  0  0  0  0  0
  1  2  1  0  0  0  0
  2  3  1  0  0  0  0
  3  4  1  0  0  0  0
  4  5  1  0  0  0  0
  5  6  1  0  0  0  0
  6  7  1  0  0  0  0
  7  8  1  0  0  0  0
  8  9  1  0  0  0  0
  9 10  1  0  0  0  0
 10 11  1  0  0  0  0
 11 12  1  0  0  0  0
 12 13  1  0  0  0  0
 13 14  1  0  0  0  0
M  END
>  <CHROM.1>
179.14052211,65.21161610,-168.30804422,-173.85078007,175.77897064,-176.93048038
-63.20902317,165.72634849,-79.48801882,-62.73952094,175.83697796,10.96632641
11.96176608,12.82405585,-2.16696931,0.85143594,-2.07884060

>  <Name>
ligand

>  <RI>
0

>  <Rbt.Current_Directory>
/home/itssahil/PROJECTS/Mol_Feturizer/New_Systems/rnas/2O3Y

>  <Rbt.Executable>
rbdock ($Id: //depot/dev/client3/rdock/2013.1/src/exe/rbdock.cxx#4 $)

>  <Rbt.Library>
libRbt.so (2013.1, Build901 2013/11/27)

>  <Rbt.Parameter_File>
/export/apps/rDock/src/rDock_2013.1_src/data/scripts/dock_solv.prm

>  <Rbt.Receptor>
prm/pocket_docking_4.prm

>  <SCORE>
-6.56639

>  <SCORE.INTER>
3.93513

>  <SCORE.INTER.CONST>
1

>  <SCORE.INTER.POLAR>
0

>  <SCORE.INTER.ROT>
11

>  <SCORE.INTER.SOLV>
5.46853

>  <SCORE.INTER.VDW>
-10.1328

>  <SCORE.INTER.norm>
0.281081

>  <SCORE.INTRA>
-10.5015

>  <SCORE.INTRA.DIHEDRAL>
-23.1932

>  <SCORE.INTRA.DIHEDRAL.0>
24.1231

>  <SCORE.INTRA.POLAR>
0

>  <SCORE.INTRA.POLAR.0>
0

>  <SCORE.INTRA.REPUL>
0

>  <SCORE.INTRA.REPUL.0>
0

>  <SCORE.INTRA.SOLV>
0.450341

>  <SCORE.INTRA.SOLV.lig_0>
-48.2216

>  <SCORE.INTRA.VDW>
0.869916

>  <SCORE.INTRA.VDW.0>
-1.3967

>  <SCORE.INTRA.norm>
-0.750108

>  <SCORE.RESTR>
0

>  <SCORE.RESTR.CAVITY>
0

>  <SCORE.RESTR.norm>
0

>  <SCORE.SYSTEM>
0

>  <SCORE.SYSTEM.CONST>
0

>  <SCORE.SYSTEM.DIHEDRAL>
0

>  <SCORE.SYSTEM.SOLV>
0

>  <SCORE.SYSTEM.norm>
0

>  <SCORE.heavy>
14

>  <SCORE.norm>
-0.469028

>  <RMSD>
4.480

$$$$
ligand
 OpenBabel11021811463D
libRbt.so/2013.1/901 2013/11/27
 14 13  0  0  0  0  0  0  0  0999 V2000
   15.2281   13.5816    6.9619 N   0  0  0  0  0  0  0  0  0  0  0  0
   14.0224   13.7469    7.7847 C   0  0  0  0  0  0  0  0  0  0  0  0
   13.5028   12.3744    8.2001 C   0  0  0  0  0  0  0  0  0  0  0  0
   12.3738   12.5634    9.2000 C   0  0  0  0  0  0  0  0  0  0  0  0
   11.9128   11.2463    9.6534 N   0  0  0  0  0  0  0  0  0  0  0  0
   10.6319   11.4555   10.3507 C   0  0  0  0  0  0  0  0  0  0  0  0
   10.0897   10.1277   10.8919 C   0  0  0  0  0  0  0  0  0  0  0  0
   11.0449    9.6272   11.9858 C   0  0  0  0  0  0  0  0  0  0  0  0
   10.5391    8.3711   12.5631 C   0  0  0  0  0  0  0  0  0  0  0  0
   11.5161    7.9206   13.5752 N   0  0  0  0  0  0  0  0  0  0  0  0
   10.8035    7.1460   14.6897 C   0  0  0  0  0  0  0  0  0  0  0  0
   10.1411    8.1312   15.6604 C   0  0  0  0  0  0  0  0  0  0  0  0
    9.4938    7.3887   16.7591 C   0  0  0  0  0  0  0  0  0  0  0  0
    8.7102    8.3219   17.5968 N   0  0  0  0  0  0  0  0  0  0  0  0
  1  2  1  0  0  0  0
  2  3  1  0  0  0  0
  3  4  1  0  0  0  0
  4  5  1  0  0  0  0
  5  6  1  0  0  0  0
  6  7  1  0  0  0  0
  7  8  1  0  0  0  0
  8  9  1  0  0  0  0
  9 10  1  0  0  0  0
 10 11  1  0  0  0  0
 11 12  1  0  0  0  0
 12 13  1  0  0  0  0
 13 14  1  0  0  0  0
M  END
>  <CHROM.1>
172.41517279,-177.27829305,-166.61148633,-178.61933372,66.10330453,178.28993081
178.32757989,149.61418458,-79.31211448,-178.07891814,-172.75287353,11.42912799
10.14297289,11.84800608,-1.15675384,-0.36907051,2.31132909

>  <Name>
ligand

>  <RI>
0

>  <Rbt.Current_Directory>
/home/itssahil/PROJECTS/Mol_Feturizer/New_Systems/rnas/2O3Y

>  <Rbt.Executable>
rbdock ($Id: //depot/dev/client3/rdock/2013.1/src/exe/rbdock.cxx#4 $)

>  <Rbt.Library>
libRbt.so (2013.1, Build901 2013/11/27)

>  <Rbt.Parameter_File>
/export/apps/rDock/src/rDock_2013.1_src/data/scripts/dock_solv.prm

>  <Rbt.Receptor>
prm/pocket_docking_6.prm

>  <SCORE>
-9.7356

>  <SCORE.INTER>
1.24448

>  <SCORE.INTER.CONST>
1

>  <SCORE.INTER.POLAR>
0

>  <SCORE.INTER.ROT>
11

>  <SCORE.INTER.SOLV>
8.68514

>  <SCORE.INTER.VDW>
-12.9987

>  <SCORE.INTER.norm>
0.0888912

>  <SCORE.INTRA>
-10.9801

>  <SCORE.INTRA.DIHEDRAL>
-22.4708

>  <SCORE.INTRA.DIHEDRAL.0>
24.1231

>  <SCORE.INTRA.POLAR>
0

>  <SCORE.INTRA.POLAR.0>
0

>  <SCORE.INTRA.REPUL>
0

>  <SCORE.INTRA.REPUL.0>
0

>  <SCORE.INTRA.SOLV>
-0.570674

>  <SCORE.INTRA.SOLV.lig_0>
-48.2216

>  <SCORE.INTRA.VDW>
0.540668

>  <SCORE.INTRA.VDW.0>
-1.3967

>  <SCORE.INTRA.norm>
-0.784291

>  <SCORE.RESTR>
0

>  <SCORE.RESTR.CAVITY>
0

>  <SCORE.RESTR.norm>
0

>  <SCORE.SYSTEM>
0

>  <SCORE.SYSTEM.CONST>
0

>  <SCORE.SYSTEM.DIHEDRAL>
0

>  <SCORE.SYSTEM.SOLV>
0

>  <SCORE.SYSTEM.norm>
0

>  <SCORE.heavy>
14

>  <SCORE.norm>
-0.6954

>  <RMSD>
4.482

$$$$
ligand
 OpenBabel11021811463D
libRbt.so/2013.1/901 2013/11/27
 14 13  0  0  0  0  0  0  0  0999 V2000
   20.4283   10.0548    9.9807 N   0  0  0  0  0  0  0  0  0  0  0  0
   19.3856    9.4096   10.7898 C   0  0  0  0  0  0  0  0  0  0  0  0
   19.0684   10.2865   11.9967 C   0  0  0  0  0  0  0  0  0  0  0  0
   17.9600    9.6263   12.8002 C   0  0  0  0  0  0  0  0  0  0  0  0
   17.6776   10.4445   13.9850 N   0  0  0  0  0  0  0  0  0  0  0  0
   16.9340    9.5923   14.9291 C   0  0  0  0  0  0  0  0  0  0  0  0
   16.2974   10.4413   16.0354 C   0  0  0  0  0  0  0  0  0  0  0  0
   15.4566    9.5169   16.9286 C   0  0  0  0  0  0  0  0  0  0  0  0
   14.7372   10.3080   17.9401 C   0  0  0  0  0  0  0  0  0  0  0  0
   13.6881   11.0776   17.2408 N   0  0  0  0  0  0  0  0  0  0  0  0
   12.9873   12.0265   18.2197 C   0  0  0  0  0  0  0  0  0  0  0  0
   11.8976   12.8149   17.4831 C   0  0  0  0  0  0  0  0  0  0  0  0
   10.8652   11.8877   16.9811 C   0  0  0  0  0  0  0  0  0  0  0  0
    9.8440   12.6425   16.2235 N   0  0  0  0  0  0  0  0  0  0  0  0
  1  2  1  0  0  0  0
  2  3  1  0  0  0  0
  3  4  1  0  0  0  0
  4  5  1  0  0  0  0
  5  6  1  0  0  0  0
  6  7  1  0  0  0  0
  7  8  1  0  0  0  0
  8  9  1  0  0  0  0
  9 10  1  0  0  0  0
 10 11  1  0  0  0  0
 11 12  1  0  0  0  0
 12 13  1  0  0  0  0
 13 14  1  0  0  0  0
M  END
>  <CHROM.1>
178.32703018,178.31749050,-162.62053991,-166.01833378,176.03139704,-175.36229990
70.16356553,-174.60454309,-179.77571992,63.18931644,-177.69630891,15.51627594
10.72338869,15.10986489,0.56394522,0.43428962,-1.33323678

>  <Name>
ligand

>  <RI>
0

>  <Rbt.Current_Directory>
/home/itssahil/PROJECTS/Mol_Feturizer/New_Systems/rnas/2O3Y

>  <Rbt.Executable>
rbdock ($Id: //depot/dev/client3/rdock/2013.1/src/exe/rbdock.cxx#4 $)

>  <Rbt.Library>
libRbt.so (2013.1, Build901 2013/11/27)

>  <Rbt.Parameter_File>
/export/apps/rDock/src/rDock_2013.1_src/data/scripts/dock_solv.prm

>  <Rbt.Receptor>
prm/pocket_docking_7.prm

>  <SCORE>
-12.3569

>  <SCORE.INTER>
-1.08532

>  <SCORE.INTER.CONST>
1

>  <SCORE.INTER.POLAR>
0

>  <SCORE.INTER.ROT>
11

>  <SCORE.INTER.SOLV>
7.53363

>  <SCORE.INTER.VDW>
-14.1681

>  <SCORE.INTER.norm>
-0.077523

>  <SCORE.INTRA>
-11.2716

>  <SCORE.INTRA.DIHEDRAL>
-23.1033

>  <SCORE.INTRA.DIHEDRAL.0>
24.1231

>  <SCORE.INTRA.POLAR>
0

>  <SCORE.INTRA.POLAR.0>
0

>  <SCORE.INTRA.REPUL>
0

>  <SCORE.INTRA.REPUL.0>
0

>  <SCORE.INTRA.SOLV>
-0.0967739

>  <SCORE.INTRA.SOLV.lig_0>
-48.2216

>  <SCORE.INTRA.VDW>
0.328459

>  <SCORE.INTRA.VDW.0>
-1.3967

>  <SCORE.INTRA.norm>
-0.805111

>  <SCORE.RESTR>
0

>  <SCORE.RESTR.CAVITY>
0

>  <SCORE.RESTR.norm>
0

>  <SCORE.SYSTEM>
0

>  <SCORE.SYSTEM.CONST>
0

>  <SCORE.SYSTEM.DIHEDRAL>
0

>  <SCORE.SYSTEM.SOLV>
0

>  <SCORE.SYSTEM.norm>
0

>  <SCORE.heavy>
14

>  <SCORE.norm>
-0.882634

>  <RMSD>
4.482

$$$$
ligand
 OpenBabel11021811463D
libRbt.so/2013.1/901 2013/11/27
 14 13  0  0  0  0  0  0  0  0999 V2000
   10.9325   10.6625   17.2867 N   0  0  0  0  0  0  0  0  0  0  0  0
   12.2623   11.2419   17.0540 C   0  0  0  0  0  0  0  0  0  0  0  0
   13.2873   10.5167   17.9198 C   0  0  0  0  0  0  0  0  0  0  0  0
   14.6617   11.1028   17.6411 C   0  0  0  0  0  0  0  0  0  0  0  0
   15.0325   10.8094   16.2521 N   0  0  0  0  0  0  0  0  0  0  0  0
   16.3606   11.4059   16.0263 C   0  0  0  0  0  0  0  0  0  0  0  0
   16.7935   11.2212   14.5673 C   0  0  0  0  0  0  0  0  0  0  0  0
   16.9978    9.7203   14.3118 C   0  0  0  0  0  0  0  0  0  0  0  0
   17.4288    9.4979   12.9220 C   0  0  0  0  0  0  0  0  0  0  0  0
   18.7936   10.0462   12.7854 N   0  0  0  0  0  0  0  0  0  0  0  0
   19.3841    9.6614   11.4242 C   0  0  0  0  0  0  0  0  0  0  0  0
   19.9862   10.9022   10.7538 C   0  0  0  0  0  0  0  0  0  0  0  0
   20.4206   10.5670    9.3840 C   0  0  0  0  0  0  0  0  0  0  0  0
   20.9453   11.7782    8.7175 N   0  0  0  0  0  0  0  0  0  0  0  0
  1  2  1  0  0  0  0
  2  3  1  0  0  0  0
  3  4  1  0  0  0  0
  4  5  1  0  0  0  0
  5  6  1  0  0  0  0
  6  7  1  0  0  0  0
  7  8  1  0  0  0  0
  8  9  1  0  0  0  0
  9 10  1  0  0  0  0
 10 11  1  0  0  0  0
 11 12  1  0  0  0  0
 12 13  1  0  0  0  0
 13 14  1  0  0  0  0
M  END
>  <CHROM.1>
178.54868919,-65.14157489,179.47165484,-176.55183073,-66.07828933,-179.41818462
68.50258888,171.51291787,131.65605423,-173.77845761,177.48225856,16.66341506
10.65232662,14.07484296,2.35758484,-0.08038961,1.62439635

>  <Name>
ligand

>  <RI>
0

>  <Rbt.Current_Directory>
/home/itssahil/PROJECTS/Mol_Feturizer/New_Systems/rnas/2O3Y

>  <Rbt.Executable>
rbdock ($Id: //depot/dev/client3/rdock/2013.1/src/exe/rbdock.cxx#4 $)

>  <Rbt.Library>
libRbt.so (2013.1, Build901 2013/11/27)

>  <Rbt.Parameter_File>
/export/apps/rDock/src/rDock_2013.1_src/data/scripts/dock_solv.prm

>  <Rbt.Receptor>
prm/pocket_docking_8.prm

>  <SCORE>
-9.98907

>  <SCORE.INTER>
0.431147

>  <SCORE.INTER.CONST>
1

>  <SCORE.INTER.POLAR>
0

>  <SCORE.INTER.ROT>
11

>  <SCORE.INTER.SOLV>
5.61244

>  <SCORE.INTER.VDW>
-12.5167

>  <SCORE.INTER.norm>
0.0307962

>  <SCORE.INTRA>
-10.4202

>  <SCORE.INTRA.DIHEDRAL>
-22.2776

>  <SCORE.INTRA.DIHEDRAL.0>
24.1231

>  <SCORE.INTRA.POLAR>
0

>  <SCORE.INTRA.POLAR.0>
0

>  <SCORE.INTRA.REPUL>
0

>  <SCORE.INTRA.REPUL.0>
0

>  <SCORE.INTRA.SOLV>
0.381993

>  <SCORE.INTRA.SOLV.lig_0>
-48.2216

>  <SCORE.INTRA.VDW>
0.527609

>  <SCORE.INTRA.VDW.0>
-1.3967

>  <SCORE.INTRA.norm>
-0.744301

>  <SCORE.RESTR>
0

>  <SCORE.RESTR.CAVITY>
0

>  <SCORE.RESTR.norm>
0

>  <SCORE.SYSTEM>
0

>  <SCORE.SYSTEM.CONST>
0

>  <SCORE.SYSTEM.DIHEDRAL>
0

>  <SCORE.SYSTEM.SOLV>
0

>  <SCORE.SYSTEM.norm>
0

>  <SCORE.heavy>
14

>  <SCORE.norm>
-0.713505

>  <RMSD>
4.498

$$$$
ligand
 OpenBabel11021811463D
libRbt.so/2013.1/901 2013/11/27
 14 13  0  0  0  0  0  0  0  0999 V2000
   13.4438    8.5919   14.5502 N   0  0  0  0  0  0  0  0  0  0  0  0
   13.5829    9.1509   13.1989 C   0  0  0  0  0  0  0  0  0  0  0  0
   12.8269    8.2712   12.2085 C   0  0  0  0  0  0  0  0  0  0  0  0
   13.0407    8.8207   10.8076 C   0  0  0  0  0  0  0  0  0  0  0  0
   12.3375   10.1027   10.6857 N   0  0  0  0  0  0  0  0  0  0  0  0
   12.6549   10.6424    9.3521 C   0  0  0  0  0  0  0  0  0  0  0  0
   12.4896   12.1663    9.3339 C   0  0  0  0  0  0  0  0  0  0  0  0
   12.8949   12.6784    7.9435 C   0  0  0  0  0  0  0  0  0  0  0  0
   12.9018   14.1502    7.9287 C   0  0  0  0  0  0  0  0  0  0  0  0
   13.9916   14.5999    8.8187 N   0  0  0  0  0  0  0  0  0  0  0  0
   13.4344   15.5117    9.9177 C   0  0  0  0  0  0  0  0  0  0  0  0
   14.5844   16.2714   10.5900 C   0  0  0  0  0  0  0  0  0  0  0  0
   15.5067   15.3139   11.2304 C   0  0  0  0  0  0  0  0  0  0  0  0
   16.6245   16.0465   11.8632 N   0  0  0  0  0  0  0  0  0  0  0  0
  1  2  1  0  0  0  0
  2  3  1  0  0  0  0
  3  4  1  0  0  0  0
  4  5  1  0  0  0  0
  5  6  1  0  0  0  0
  6  7  1  0  0  0  0
  7  8  1  0  0  0  0
  8  9  1  0  0  0  0
  9 10  1  0  0  0  0
 10 11  1  0  0  0  0
 11 12  1  0  0  0  0
 12 13  1  0  0  0  0
 13 14  1  0  0  0  0
M  END
>  <CHROM.1>
-177.06307128,-69.30531468,175.87802182,-156.10083494,177.41236573,-173.43691146
66.78445373,-122.57537106,-164.59876000,-62.04837927,179.26773625,13.59369435
12.30843299,10.60172464,-1.97284903,-0.99956658,-0.68658700

>  <Name>
ligand

>  <RI>
0

>  <Rbt.Current_Directory>
/home/itssahil/PROJECTS/Mol_Feturizer/New_Systems/rnas/2O3Y

>  <Rbt.Executable>
rbdock ($Id: //depot/dev/client3/rdock/2013.1/src/exe/rbdock.cxx#4 $)

>  <Rbt.Library>
libRbt.so (2013.1, Build901 2013/11/27)

>  <Rbt.Parameter_File>
/export/apps/rDock/src/rDock_2013.1_src/data/scripts/dock_solv.prm

>  <Rbt.Receptor>
prm/pocket_docking_5.prm

>  <SCORE>
-8.2446

>  <SCORE.INTER>
1.87542

>  <SCORE.INTER.CONST>
1

>  <SCORE.INTER.POLAR>
0

>  <SCORE.INTER.ROT>
11

>  <SCORE.INTER.SOLV>
5.74821

>  <SCORE.INTER.VDW>
-11.5991

>  <SCORE.INTER.norm>
0.133959

>  <SCORE.INTRA>
-10.12

>  <SCORE.INTRA.DIHEDRAL>
-21.5702

>  <SCORE.INTRA.DIHEDRAL.0>
24.1231

>  <SCORE.INTRA.POLAR>
0

>  <SCORE.INTRA.POLAR.0>
0

>  <SCORE.INTRA.REPUL>
0

>  <SCORE.INTRA.REPUL.0>
0

>  <SCORE.INTRA.SOLV>
0.362522

>  <SCORE.INTRA.SOLV.lig_0>
-48.2216

>  <SCORE.INTRA.VDW>
0.483801

>  <SCORE.INTRA.VDW.0>
-1.3967

>  <SCORE.INTRA.norm>
-0.722859

>  <SCORE.RESTR>
0

>  <SCORE.RESTR.CAVITY>
0

>  <SCORE.RESTR.norm>
0

>  <SCORE.SYSTEM>
0

>  <SCORE.SYSTEM.CONST>
0

>  <SCORE.SYSTEM.DIHEDRAL>
0

>  <SCORE.SYSTEM.SOLV>
0

>  <SCORE.SYSTEM.norm>
0

>  <SCORE.heavy>
14

>  <SCORE.norm>
-0.5889

>  <RMSD>
4.500

$$$$
ligand
 OpenBabel11021811463D
libRbt.so/2013.1/901 2013/11/27
 14 13  0  0  0  0  0  0  0  0999 V2000
   14.6541    6.9446   15.9034 N   0  0  0  0  0  0  0  0  0  0  0  0
   13.3987    6.7643   15.1621 C   0  0  0  0  0  0  0  0  0  0  0  0
   12.9738    8.0983   14.5570 C   0  0  0  0  0  0  0  0  0  0  0  0
   11.6428    7.9092   13.8478 C   0  0  0  0  0  0  0  0  0  0  0  0
   11.2309    9.1880   13.2579 N   0  0  0  0  0  0  0  0  0  0  0  0
   10.2791    8.8765   12.1773 C   0  0  0  0  0  0  0  0  0  0  0  0
   10.0653   10.0995   11.2782 C   0  0  0  0  0  0  0  0  0  0  0  0
   11.4056   10.4500   10.6147 C   0  0  0  0  0  0  0  0  0  0  0  0
   11.2578   11.6538    9.7808 C   0  0  0  0  0  0  0  0  0  0  0  0
   12.5852   11.9703    9.2156 N   0  0  0  0  0  0  0  0  0  0  0  0
   12.4549   13.0436    8.1288 C   0  0  0  0  0  0  0  0  0  0  0  0
   13.8015   13.7526    7.9399 C   0  0  0  0  0  0  0  0  0  0  0  0
   14.8017   12.7945    7.4309 C   0  0  0  0  0  0  0  0  0  0  0  0
   16.0825   13.4930    7.1895 N   0  0  0  0  0  0  0  0  0  0  0  0
  1  2  1  0  0  0  0
  2  3  1  0  0  0  0
  3  4  1  0  0  0  0
  4  5  1  0  0  0  0
  5  6  1  0  0  0  0
  6  7  1  0  0  0  0
  7  8  1  0  0  0  0
  8  9  1  0  0  0  0
  9 10  1  0  0  0  0
 10 11  1  0  0  0  0
 11 12  1  0  0  0  0
 12 13  1  0  0  0  0
 13 14  1  0  0  0  0
M  END
>  <CHROM.1>
-177.45604053,-179.75152437,158.12041507,-165.70084131,62.86223670,-177.79856197
177.77999772,169.09800750,157.96015684,64.53218325,177.38110722,12.61628851
10.35984925,11.17732195,-1.71541975,-0.03679158,-0.89371968

>  <Name>
ligand

>  <RI>
0

>  <Rbt.Current_Directory>
/home/itssahil/PROJECTS/Mol_Feturizer/New_Systems/rnas/2O3Y

>  <Rbt.Executable>
rbdock ($Id: //depot/dev/client3/rdock/2013.1/src/exe/rbdock.cxx#4 $)

>  <Rbt.Library>
libRbt.so (2013.1, Build901 2013/11/27)

>  <Rbt.Parameter_File>
/export/apps/rDock/src/rDock_2013.1_src/data/scripts/dock_solv.prm

>  <Rbt.Receptor>
prm/pocket_docking_5.prm

>  <SCORE>
-10.5172

>  <SCORE.INTER>
0.723158

>  <SCORE.INTER.CONST>
1

>  <SCORE.INTER.POLAR>
0

>  <SCORE.INTER.ROT>
11

>  <SCORE.INTER.SOLV>
9.18022

>  <SCORE.INTER.VDW>
-13.5113

>  <SCORE.INTER.norm>
0.0516541

>  <SCORE.INTRA>
-11.2403

>  <SCORE.INTRA.DIHEDRAL>
-22.9601

>  <SCORE.INTRA.DIHEDRAL.0>
24.1231

>  <SCORE.INTRA.POLAR>
0

>  <SCORE.INTRA.POLAR.0>
0

>  <SCORE.INTRA.REPUL>
0

>  <SCORE.INTRA.REPUL.0>
0

>  <SCORE.INTRA.SOLV>
-0.125501

>  <SCORE.INTRA.SOLV.lig_0>
-48.2216

>  <SCORE.INTRA.VDW>
0.30247

>  <SCORE.INTRA.VDW.0>
-1.3967

>  <SCORE.INTRA.norm>
-0.802881

>  <SCORE.RESTR>
0

>  <SCORE.RESTR.CAVITY>
0

>  <SCORE.RESTR.norm>
0

>  <SCORE.SYSTEM>
0

>  <SCORE.SYSTEM.CONST>
0

>  <SCORE.SYSTEM.DIHEDRAL>
0

>  <SCORE.SYSTEM.SOLV>
0

>  <SCORE.SYSTEM.norm>
0

>  <SCORE.heavy>
14

>  <SCORE.norm>
-0.751227

>  <RMSD>
4.500

$$$$
ligand
 OpenBabel11021811463D
libRbt.so/2013.1/901 2013/11/27
 14 13  0  0  0  0  0  0  0  0999 V2000
   12.3323    6.7553   16.0733 N   0  0  0  0  0  0  0  0  0  0  0  0
   12.0527    7.3736   14.7704 C   0  0  0  0  0  0  0  0  0  0  0  0
   10.5649    7.2463   14.4601 C   0  0  0  0  0  0  0  0  0  0  0  0
   10.2908    7.8972   13.1143 C   0  0  0  0  0  0  0  0  0  0  0  0
   10.4844    9.3465   13.2373 N   0  0  0  0  0  0  0  0  0  0  0  0
   10.2009    9.9320   11.9154 C   0  0  0  0  0  0  0  0  0  0  0  0
   11.5043   10.3102   11.2025 C   0  0  0  0  0  0  0  0  0  0  0  0
   11.1561   11.2091   10.0067 C   0  0  0  0  0  0  0  0  0  0  0  0
   12.3873   11.6658    9.3417 C   0  0  0  0  0  0  0  0  0  0  0  0
   12.0249   12.7917    8.4570 N   0  0  0  0  0  0  0  0  0  0  0  0
   13.2899   13.4624    7.9096 C   0  0  0  0  0  0  0  0  0  0  0  0
   14.0442   14.1519    9.0529 C   0  0  0  0  0  0  0  0  0  0  0  0
   13.1919   15.1962    9.6534 C   0  0  0  0  0  0  0  0  0  0  0  0
   13.9081   15.8388   10.7762 N   0  0  0  0  0  0  0  0  0  0  0  0
  1  2  1  0  0  0  0
  2  3  1  0  0  0  0
  3  4  1  0  0  0  0
  4  5  1  0  0  0  0
  5  6  1  0  0  0  0
  6  7  1  0  0  0  0
  7  8  1  0  0  0  0
  8  9  1  0  0  0  0
  9 10  1  0  0  0  0
 10 11  1  0  0  0  0
 11 12  1  0  0  0  0
 12 13  1  0  0  0  0
 13 14  1  0  0  0  0
M  END
>  <CHROM.1>
179.67129990,-68.22742759,-179.67554718,-103.84062234,-166.53002404,176.46381805
-164.87926372,170.76320302,-67.34580106,-61.28648601,178.67617972,11.95937279
10.94111759,11.42619589,-1.93694048,-0.85490150,-0.95727266

>  <Name>
ligand

>  <RI>
0

>  <Rbt.Current_Directory>
/home/itssahil/PROJECTS/Mol_Feturizer/New_Systems/rnas/2O3Y

>  <Rbt.Executable>
rbdock ($Id: //depot/dev/client3/rdock/2013.1/src/exe/rbdock.cxx#4 $)

>  <Rbt.Library>
libRbt.so (2013.1, Build901 2013/11/27)

>  <Rbt.Parameter_File>
/export/apps/rDock/src/rDock_2013.1_src/data/scripts/dock_solv.prm

>  <Rbt.Receptor>
prm/pocket_docking_5.prm

>  <SCORE>
-9.22618

>  <SCORE.INTER>
0.0371282

>  <SCORE.INTER.CONST>
1

>  <SCORE.INTER.POLAR>
0

>  <SCORE.INTER.ROT>
11

>  <SCORE.INTER.SOLV>
7.13541

>  <SCORE.INTER.VDW>
-13.2871

>  <SCORE.INTER.norm>
0.00265202

>  <SCORE.INTRA>
-9.26331

>  <SCORE.INTRA.DIHEDRAL>
-21.2156

>  <SCORE.INTRA.DIHEDRAL.0>
24.1231

>  <SCORE.INTRA.POLAR>
0

>  <SCORE.INTRA.POLAR.0>
0

>  <SCORE.INTRA.REPUL>
0

>  <SCORE.INTRA.REPUL.0>
0

>  <SCORE.INTRA.SOLV>
-0.0131451

>  <SCORE.INTRA.SOLV.lig_0>
-48.2216

>  <SCORE.INTRA.VDW>
1.35108

>  <SCORE.INTRA.VDW.0>
-1.3967

>  <SCORE.INTRA.norm>
-0.661665

>  <SCORE.RESTR>
0

>  <SCORE.RESTR.CAVITY>
0

>  <SCORE.RESTR.norm>
0

>  <SCORE.SYSTEM>
0

>  <SCORE.SYSTEM.CONST>
0

>  <SCORE.SYSTEM.DIHEDRAL>
0

>  <SCORE.SYSTEM.SOLV>
0

>  <SCORE.SYSTEM.norm>
0

>  <SCORE.heavy>
14

>  <SCORE.norm>
-0.659013

>  <RMSD>
4.503

$$$$
ligand
 OpenBabel11021811463D
libRbt.so/2013.1/901 2013/11/27
 14 13  0  0  0  0  0  0  0  0999 V2000
   14.8096   12.3608    8.0404 N   0  0  0  0  0  0  0  0  0  0  0  0
   13.5229   13.0365    7.8259 C   0  0  0  0  0  0  0  0  0  0  0  0
   12.7097   12.9946    9.1156 C   0  0  0  0  0  0  0  0  0  0  0  0
   12.3054   11.5553    9.3896 C   0  0  0  0  0  0  0  0  0  0  0  0
   11.4873   11.5133   10.6069 N   0  0  0  0  0  0  0  0  0  0  0  0
   11.1065   10.1062   10.8210 C   0  0  0  0  0  0  0  0  0  0  0  0
   10.8506    9.8372   12.3083 C   0  0  0  0  0  0  0  0  0  0  0  0
   10.5911    8.3340   12.4884 C   0  0  0  0  0  0  0  0  0  0  0  0
   10.3811    8.0239   13.9119 C   0  0  0  0  0  0  0  0  0  0  0  0
   11.6452    8.3079   14.6212 N   0  0  0  0  0  0  0  0  0  0  0  0
   12.4685    7.0233   14.7693 C   0  0  0  0  0  0  0  0  0  0  0  0
   13.9216    7.3779   15.1075 C   0  0  0  0  0  0  0  0  0  0  0  0
   14.5095    8.1696   14.0097 C   0  0  0  0  0  0  0  0  0  0  0  0
   15.9153    8.4978   14.3300 N   0  0  0  0  0  0  0  0  0  0  0  0
  1  2  1  0  0  0  0
  2  3  1  0  0  0  0
  3  4  1  0  0  0  0
  4  5  1  0  0  0  0
  5  6  1  0  0  0  0
  6  7  1  0  0  0  0
  7  8  1  0  0  0  0
  8  9  1  0  0  0  0
  9 10  1  0  0  0  0
 10 11  1  0  0  0  0
 11 12  1  0  0  0  0
 12 13  1  0  0  0  0
 13 14  1  0  0  0  0
M  END
>  <CHROM.1>
-68.00474580,-178.26254849,179.28280771,153.37661711,-174.65322548,178.24889828
-64.87572150,-95.72464203,162.99843668,-61.64663985,-179.35398479,12.58710454
9.79542191,11.95328364,-1.53356256,0.05703851,2.24741169

>  <Name>
ligand

>  <RI>
0

>  <Rbt.Current_Directory>
/home/itssahil/PROJECTS/Mol_Feturizer/New_Systems/rnas/2O3Y

>  <Rbt.Executable>
rbdock ($Id: //depot/dev/client3/rdock/2013.1/src/exe/rbdock.cxx#4 $)

>  <Rbt.Library>
libRbt.so (2013.1, Build901 2013/11/27)

>  <Rbt.Parameter_File>
/export/apps/rDock/src/rDock_2013.1_src/data/scripts/dock_solv.prm

>  <Rbt.Receptor>
prm/pocket_docking_4.prm

>  <SCORE>
-8.64755

>  <SCORE.INTER>
1.36562

>  <SCORE.INTER.CONST>
1

>  <SCORE.INTER.POLAR>
0

>  <SCORE.INTER.ROT>
11

>  <SCORE.INTER.SOLV>
5.96526

>  <SCORE.INTER.VDW>
-12.0113

>  <SCORE.INTER.norm>
0.0975446

>  <SCORE.INTRA>
-10.0132

>  <SCORE.INTRA.DIHEDRAL>
-22.1567

>  <SCORE.INTRA.DIHEDRAL.0>
24.1231

>  <SCORE.INTRA.POLAR>
0

>  <SCORE.INTRA.POLAR.0>
0

>  <SCORE.INTRA.REPUL>
0

>  <SCORE.INTRA.REPUL.0>
0

>  <SCORE.INTRA.SOLV>
0.752868

>  <SCORE.INTRA.SOLV.lig_0>
-48.2216

>  <SCORE.INTRA.VDW>
0.688744

>  <SCORE.INTRA.VDW.0>
-1.3967

>  <SCORE.INTRA.norm>
-0.715227

>  <SCORE.RESTR>
0

>  <SCORE.RESTR.CAVITY>
0

>  <SCORE.RESTR.norm>
0

>  <SCORE.SYSTEM>
0

>  <SCORE.SYSTEM.CONST>
0

>  <SCORE.SYSTEM.DIHEDRAL>
0

>  <SCORE.SYSTEM.SOLV>
0

>  <SCORE.SYSTEM.norm>
0

>  <SCORE.heavy>
14

>  <SCORE.norm>
-0.617682

>  <RMSD>
4.505

$$$$
ligand
 OpenBabel11021811463D
libRbt.so/2013.1/901 2013/11/27
 14 13  0  0  0  0  0  0  0  0999 V2000
   15.5552    8.2968   14.6139 N   0  0  0  0  0  0  0  0  0  0  0  0
   14.3541    7.4622   14.7515 C   0  0  0  0  0  0  0  0  0  0  0  0
   13.1167    8.3084   14.4707 C   0  0  0  0  0  0  0  0  0  0  0  0
   11.8814    7.4456   14.6700 C   0  0  0  0  0  0  0  0  0  0  0  0
   10.6869    8.2520   14.3946 N   0  0  0  0  0  0  0  0  0  0  0  0
   10.1199    7.7616   13.1262 C   0  0  0  0  0  0  0  0  0  0  0  0
    9.6142    8.9312   12.2740 C   0  0  0  0  0  0  0  0  0  0  0  0
   10.8232    9.7832   11.8592 C   0  0  0  0  0  0  0  0  0  0  0  0
   10.3859   10.9005   11.0064 C   0  0  0  0  0  0  0  0  0  0  0  0
   11.5139   11.8482   10.9003 N   0  0  0  0  0  0  0  0  0  0  0  0
   12.0370   11.8883    9.4600 C   0  0  0  0  0  0  0  0  0  0  0  0
   13.2110   12.8703    9.3648 C   0  0  0  0  0  0  0  0  0  0  0  0
   13.6884   12.9422    7.9704 C   0  0  0  0  0  0  0  0  0  0  0  0
   14.9245   13.7513    7.9083 N   0  0  0  0  0  0  0  0  0  0  0  0
  1  2  1  0  0  0  0
  2  3  1  0  0  0  0
  3  4  1  0  0  0  0
  4  5  1  0  0  0  0
  5  6  1  0  0  0  0
  6  7  1  0  0  0  0
  7  8  1  0  0  0  0
  8  9  1  0  0  0  0
  9 10  1  0  0  0  0
 10 11  1  0  0  0  0
 11 12  1  0  0  0  0
 12 13  1  0  0  0  0
 13 14  1  0  0  0  0
M  END
>  <CHROM.1>
-177.81184958,-179.71007869,108.96252342,-140.36737780,65.73226226,178.47469880
167.06642483,113.63693588,-179.74479128,-178.23057544,-172.78430763,12.27907956
10.03134490,11.91214645,-1.70491787,-0.11002355,-0.85290769

>  <Name>
ligand

>  <RI>
0

>  <Rbt.Current_Directory>
/home/itssahil/PROJECTS/Mol_Feturizer/New_Systems/rnas/2O3Y

>  <Rbt.Executable>
rbdock ($Id: //depot/dev/client3/rdock/2013.1/src/exe/rbdock.cxx#4 $)

>  <Rbt.Library>
libRbt.so (2013.1, Build901 2013/11/27)

>  <Rbt.Parameter_File>
/export/apps/rDock/src/rDock_2013.1_src/data/scripts/dock_solv.prm

>  <Rbt.Receptor>
prm/pocket_docking_4.prm

>  <SCORE>
-8.78694

>  <SCORE.INTER>
1.37102

>  <SCORE.INTER.CONST>
1

>  <SCORE.INTER.POLAR>
0

>  <SCORE.INTER.ROT>
11

>  <SCORE.INTER.SOLV>
7.8871

>  <SCORE.INTER.VDW>
-12.6484

>  <SCORE.INTER.norm>
0.0979298

>  <SCORE.INTRA>
-10.158

>  <SCORE.INTRA.DIHEDRAL>
-19.9964

>  <SCORE.INTRA.DIHEDRAL.0>
24.1231

>  <SCORE.INTRA.POLAR>
0

>  <SCORE.INTRA.POLAR.0>
0

>  <SCORE.INTRA.REPUL>
0

>  <SCORE.INTRA.REPUL.0>
0

>  <SCORE.INTRA.SOLV>
-0.578751

>  <SCORE.INTRA.SOLV.lig_0>
-48.2216

>  <SCORE.INTRA.VDW>
0.129643

>  <SCORE.INTRA.VDW.0>
-1.3967

>  <SCORE.INTRA.norm>
-0.725568

>  <SCORE.RESTR>
0

>  <SCORE.RESTR.CAVITY>
0

>  <SCORE.RESTR.norm>
0

>  <SCORE.SYSTEM>
0

>  <SCORE.SYSTEM.CONST>
0

>  <SCORE.SYSTEM.DIHEDRAL>
0

>  <SCORE.SYSTEM.SOLV>
0

>  <SCORE.SYSTEM.norm>
0

>  <SCORE.heavy>
14

>  <SCORE.norm>
-0.627638

>  <RMSD>
4.505

$$$$
ligand
 OpenBabel11021811463D
libRbt.so/2013.1/901 2013/11/27
 14 13  0  0  0  0  0  0  0  0999 V2000
   16.0610   13.6419    7.2514 N   0  0  0  0  0  0  0  0  0  0  0  0
   14.8266   12.8708    7.4510 C   0  0  0  0  0  0  0  0  0  0  0  0
   13.7427   13.7884    8.0072 C   0  0  0  0  0  0  0  0  0  0  0  0
   12.4761   12.9747    8.2161 C   0  0  0  0  0  0  0  0  0  0  0  0
   12.7388   11.9310    9.2135 N   0  0  0  0  0  0  0  0  0  0  0  0
   11.4445   11.5878    9.8281 C   0  0  0  0  0  0  0  0  0  0  0  0
   11.5547   10.2818   10.6231 C   0  0  0  0  0  0  0  0  0  0  0  0
   10.2499   10.0848   11.4094 C   0  0  0  0  0  0  0  0  0  0  0  0
   10.3321    8.8643   12.2282 C   0  0  0  0  0  0  0  0  0  0  0  0
   11.3621    9.0900   13.2626 N   0  0  0  0  0  0  0  0  0  0  0  0
   11.5079    7.8445   14.1442 C   0  0  0  0  0  0  0  0  0  0  0  0
   12.9918    7.5888   14.4344 C   0  0  0  0  0  0  0  0  0  0  0  0
   13.1406    6.3382   15.2035 C   0  0  0  0  0  0  0  0  0  0  0  0
   12.5059    6.4910   16.5302 N   0  0  0  0  0  0  0  0  0  0  0  0
  1  2  1  0  0  0  0
  2  3  1  0  0  0  0
  3  4  1  0  0  0  0
  4  5  1  0  0  0  0
  5  6  1  0  0  0  0
  6  7  1  0  0  0  0
  7  8  1  0  0  0  0
  8  9  1  0  0  0  0
  9 10  1  0  0  0  0
 10 11  1  0  0  0  0
 11 12  1  0  0  0  0
 12 13  1  0  0  0  0
 13 14  1  0  0  0  0
M  END
>  <CHROM.1>
-179.65107058,62.66812214,154.92232275,165.99277432,171.58249126,-177.90660311
66.48647010,-179.40390990,138.87161700,-176.07264217,-64.86577849,12.49506136
10.24125752,11.27151721,-1.36708379,0.00885948,2.26997242

>  <Name>
ligand

>  <RI>
0

>  <Rbt.Current_Directory>
/home/itssahil/PROJECTS/Mol_Feturizer/New_Systems/rnas/2O3Y

>  <Rbt.Executable>
rbdock ($Id: //depot/dev/client3/rdock/2013.1/src/exe/rbdock.cxx#4 $)

>  <Rbt.Library>
libRbt.so (2013.1, Build901 2013/11/27)

>  <Rbt.Parameter_File>
/export/apps/rDock/src/rDock_2013.1_src/data/scripts/dock_solv.prm

>  <Rbt.Receptor>
prm/pocket_docking_5.prm

>  <SCORE>
-10.8541

>  <SCORE.INTER>
-1.06686

>  <SCORE.INTER.CONST>
1

>  <SCORE.INTER.POLAR>
0

>  <SCORE.INTER.ROT>
11

>  <SCORE.INTER.SOLV>
5.57042

>  <SCORE.INTER.VDW>
-13.5014

>  <SCORE.INTER.norm>
-0.076204

>  <SCORE.INTRA>
-9.78729

>  <SCORE.INTRA.DIHEDRAL>
-21.977

>  <SCORE.INTRA.DIHEDRAL.0>
24.1231

>  <SCORE.INTRA.POLAR>
0

>  <SCORE.INTRA.POLAR.0>
0

>  <SCORE.INTRA.REPUL>
0

>  <SCORE.INTRA.REPUL.0>
0

>  <SCORE.INTRA.SOLV>
0.808983

>  <SCORE.INTRA.SOLV.lig_0>
-48.2216

>  <SCORE.INTRA.VDW>
0.796704

>  <SCORE.INTRA.VDW.0>
-1.3967

>  <SCORE.INTRA.norm>
-0.699092

>  <SCORE.RESTR>
0

>  <SCORE.RESTR.CAVITY>
0

>  <SCORE.RESTR.norm>
0

>  <SCORE.SYSTEM>
0

>  <SCORE.SYSTEM.CONST>
0

>  <SCORE.SYSTEM.DIHEDRAL>
0

>  <SCORE.SYSTEM.SOLV>
0

>  <SCORE.SYSTEM.norm>
0

>  <SCORE.heavy>
14

>  <SCORE.norm>
-0.775296

>  <RMSD>
4.509

$$$$
ligand
 OpenBabel11021811463D
libRbt.so/2013.1/901 2013/11/27
 14 13  0  0  0  0  0  0  0  0999 V2000
   17.6425   13.9776    6.4857 N   0  0  0  0  0  0  0  0  0  0  0  0
   16.1763   13.9701    6.3932 C   0  0  0  0  0  0  0  0  0  0  0  0
   15.5841   13.7510    7.7816 C   0  0  0  0  0  0  0  0  0  0  0  0
   14.0705   13.6844    7.6602 C   0  0  0  0  0  0  0  0  0  0  0  0
   13.4887   13.5772    9.0029 N   0  0  0  0  0  0  0  0  0  0  0  0
   12.5150   12.4722    8.9628 C   0  0  0  0  0  0  0  0  0  0  0  0
   11.9629   12.1891   10.3646 C   0  0  0  0  0  0  0  0  0  0  0  0
   10.9666   11.0243   10.2639 C   0  0  0  0  0  0  0  0  0  0  0  0
   10.4403   10.6920   11.5978 C   0  0  0  0  0  0  0  0  0  0  0  0
    9.6036    9.4828   11.4584 N   0  0  0  0  0  0  0  0  0  0  0  0
    9.4521    8.7854   12.8150 C   0  0  0  0  0  0  0  0  0  0  0  0
   10.7766    8.1163   13.2018 C   0  0  0  0  0  0  0  0  0  0  0  0
   10.6521    7.5001   14.5368 C   0  0  0  0  0  0  0  0  0  0  0  0
   11.9480    6.9101   14.9356 N   0  0  0  0  0  0  0  0  0  0  0  0
  1  2  1  0  0  0  0
  2  3  1  0  0  0  0
  3  4  1  0  0  0  0
  4  5  1  0  0  0  0
  5  6  1  0  0  0  0
  6  7  1  0  0  0  0
  7  8  1  0  0  0  0
  8  9  1  0  0  0  0
  9 10  1  0  0  0  0
 10 11  1  0  0  0  0
 11 12  1  0  0  0  0
 12 13  1  0  0  0  0
 13 14  1  0  0  0  0
M  END
>  <CHROM.1>
-177.53096150,-175.69831150,-131.41126446,173.99991296,-179.49152895,178.33453907
-174.16906717,159.09373285,-72.08571959,177.28626463,-177.37571225,12.51969809
11.15239882,10.38999356,-1.02003504,-0.09391786,2.36225062

>  <Name>
ligand

>  <RI>
0

>  <Rbt.Current_Directory>
/home/itssahil/PROJECTS/Mol_Feturizer/New_Systems/rnas/2O3Y

>  <Rbt.Executable>
rbdock ($Id: //depot/dev/client3/rdock/2013.1/src/exe/rbdock.cxx#4 $)

>  <Rbt.Library>
libRbt.so (2013.1, Build901 2013/11/27)

>  <Rbt.Parameter_File>
/export/apps/rDock/src/rDock_2013.1_src/data/scripts/dock_solv.prm

>  <Rbt.Receptor>
prm/pocket_docking_5.prm

>  <SCORE>
-10.7202

>  <SCORE.INTER>
0.181125

>  <SCORE.INTER.CONST>
1

>  <SCORE.INTER.POLAR>
0

>  <SCORE.INTER.ROT>
11

>  <SCORE.INTER.SOLV>
8.21952

>  <SCORE.INTER.VDW>
-13.5524

>  <SCORE.INTER.norm>
0.0129375

>  <SCORE.INTRA>
-10.9018

>  <SCORE.INTRA.DIHEDRAL>
-22.2697

>  <SCORE.INTRA.DIHEDRAL.0>
24.1231

>  <SCORE.INTRA.POLAR>
0

>  <SCORE.INTRA.POLAR.0>
0

>  <SCORE.INTRA.REPUL>
0

>  <SCORE.INTRA.REPUL.0>
0

>  <SCORE.INTRA.SOLV>
-1.01448

>  <SCORE.INTRA.SOLV.lig_0>
-48.2216

>  <SCORE.INTRA.VDW>
0.740343

>  <SCORE.INTRA.VDW.0>
-1.3967

>  <SCORE.INTRA.norm>
-0.778697

>  <SCORE.RESTR>
0.00040656

>  <SCORE.RESTR.CAVITY>
0.00040656

>  <SCORE.RESTR.norm>
2.904e-05

>  <SCORE.SYSTEM>
0

>  <SCORE.SYSTEM.CONST>
0

>  <SCORE.SYSTEM.DIHEDRAL>
0

>  <SCORE.SYSTEM.SOLV>
0

>  <SCORE.SYSTEM.norm>
0

>  <SCORE.heavy>
14

>  <SCORE.norm>
-0.76573

>  <RMSD>
4.515

$$$$
ligand
 OpenBabel11021811463D
libRbt.so/2013.1/901 2013/11/27
 14 13  0  0  0  0  0  0  0  0999 V2000
   14.0708   15.5595   10.2210 N   0  0  0  0  0  0  0  0  0  0  0  0
   13.4197   14.2899    9.8709 C   0  0  0  0  0  0  0  0  0  0  0  0
   13.1855   14.2413    8.3646 C   0  0  0  0  0  0  0  0  0  0  0  0
   12.4852   12.9364    8.0227 C   0  0  0  0  0  0  0  0  0  0  0  0
   13.3831   11.8180    8.3322 N   0  0  0  0  0  0  0  0  0  0  0  0
   12.6786   10.9548    9.2961 C   0  0  0  0  0  0  0  0  0  0  0  0
   13.6801   10.1386   10.1212 C   0  0  0  0  0  0  0  0  0  0  0  0
   12.8934    9.2866   11.1285 C   0  0  0  0  0  0  0  0  0  0  0  0
   13.8190    8.6195   12.0585 C   0  0  0  0  0  0  0  0  0  0  0  0
   13.0045    7.8843   13.0473 N   0  0  0  0  0  0  0  0  0  0  0  0
   13.8857    7.4045   14.2062 C   0  0  0  0  0  0  0  0  0  0  0  0
   13.1794    6.2678   14.9550 C   0  0  0  0  0  0  0  0  0  0  0  0
   11.9180    6.7639   15.5383 C   0  0  0  0  0  0  0  0  0  0  0  0
   11.3016    5.7046   16.3657 N   0  0  0  0  0  0  0  0  0  0  0  0
  1  2  1  0  0  0  0
  2  3  1  0  0  0  0
  3  4  1  0  0  0  0
  4  5  1  0  0  0  0
  5  6  1  0  0  0  0
  6  7  1  0  0  0  0
  7  8  1  0  0  0  0
  8  9  1  0  0  0  0
  9 10  1  0  0  0  0
 10 11  1  0  0  0  0
 11 12  1  0  0  0  0
 12 13  1  0  0  0  0
 13 14  1  0  0  0  0
M  END
>  <CHROM.1>
-178.80075344,-64.75485134,122.14651629,-155.77674854,178.62851683,-172.65599878
176.67879658,-168.50116797,-160.60954953,-62.35256264,-174.68813756,13.06466994
10.13350954,11.53754360,-0.59772359,1.47057876,1.46080257

>  <Name>
ligand

>  <RI>
0

>  <Rbt.Current_Directory>
/home/itssahil/PROJECTS/Mol_Feturizer/New_Systems/rnas/2O3Y

>  <Rbt.Executable>
rbdock ($Id: //depot/dev/client3/rdock/2013.1/src/exe/rbdock.cxx#4 $)

>  <Rbt.Library>
libRbt.so (2013.1, Build901 2013/11/27)

>  <Rbt.Parameter_File>
/export/apps/rDock/src/rDock_2013.1_src/data/scripts/dock_solv.prm

>  <Rbt.Receptor>
prm/pocket_docking_6.prm

>  <SCORE>
-8.73626

>  <SCORE.INTER>
1.74218

>  <SCORE.INTER.CONST>
1

>  <SCORE.INTER.POLAR>
0

>  <SCORE.INTER.ROT>
11

>  <SCORE.INTER.SOLV>
9.46582

>  <SCORE.INTER.VDW>
-12.9272

>  <SCORE.INTER.norm>
0.124441

>  <SCORE.INTRA>
-10.4784

>  <SCORE.INTRA.DIHEDRAL>
-21.6268

>  <SCORE.INTRA.DIHEDRAL.0>
24.1231

>  <SCORE.INTRA.POLAR>
0

>  <SCORE.INTRA.POLAR.0>
0

>  <SCORE.INTRA.REPUL>
0

>  <SCORE.INTRA.REPUL.0>
0

>  <SCORE.INTRA.SOLV>
-0.0744738

>  <SCORE.INTRA.SOLV.lig_0>
-48.2216

>  <SCORE.INTRA.VDW>
0.372218

>  <SCORE.INTRA.VDW.0>
-1.3967

>  <SCORE.INTRA.norm>
-0.74846

>  <SCORE.RESTR>
0

>  <SCORE.RESTR.CAVITY>
0

>  <SCORE.RESTR.norm>
0

>  <SCORE.SYSTEM>
0

>  <SCORE.SYSTEM.CONST>
0

>  <SCORE.SYSTEM.DIHEDRAL>
0

>  <SCORE.SYSTEM.SOLV>
0

>  <SCORE.SYSTEM.norm>
0

>  <SCORE.heavy>
14

>  <SCORE.norm>
-0.624019

>  <RMSD>
4.520

$$$$
ligand
 OpenBabel11021811463D
libRbt.so/2013.1/901 2013/11/27
 14 13  0  0  0  0  0  0  0  0999 V2000
   11.3073    6.7928   15.8475 N   0  0  0  0  0  0  0  0  0  0  0  0
   10.5529    7.1037   14.6259 C   0  0  0  0  0  0  0  0  0  0  0  0
   11.1741    8.3188   13.9446 C   0  0  0  0  0  0  0  0  0  0  0  0
   10.3587    8.6522   12.7060 C   0  0  0  0  0  0  0  0  0  0  0  0
   10.9065    9.8642   12.0865 N   0  0  0  0  0  0  0  0  0  0  0  0
   10.0967   10.1375   10.8863 C   0  0  0  0  0  0  0  0  0  0  0  0
   10.5503   11.4389   10.2149 C   0  0  0  0  0  0  0  0  0  0  0  0
   11.9890   11.2458    9.7127 C   0  0  0  0  0  0  0  0  0  0  0  0
   12.4467   12.4564    9.0114 C   0  0  0  0  0  0  0  0  0  0  0  0
   13.7944   12.1780    8.4748 N   0  0  0  0  0  0  0  0  0  0  0  0
   14.3104   13.3880    7.6877 C   0  0  0  0  0  0  0  0  0  0  0  0
   15.6558   13.0445    7.0371 C   0  0  0  0  0  0  0  0  0  0  0  0
   16.1719   14.2201    6.3097 C   0  0  0  0  0  0  0  0  0  0  0  0
   17.4953   13.9054    5.7300 N   0  0  0  0  0  0  0  0  0  0  0  0
  1  2  1  0  0  0  0
  2  3  1  0  0  0  0
  3  4  1  0  0  0  0
  4  5  1  0  0  0  0
  5  6  1  0  0  0  0
  6  7  1  0  0  0  0
  7  8  1  0  0  0  0
  8  9  1  0  0  0  0
  9 10  1  0  0  0  0
 10 11  1  0  0  0  0
 11 12  1  0  0  0  0
 12 13  1  0  0  0  0
 13 14  1  0  0  0  0
M  END
>  <CHROM.1>
-178.35721321,176.91760754,179.35941025,176.79645281,64.54350538,177.73374102
-176.21807804,178.03830117,-175.23009029,-178.45041499,177.66545877,12.62898857
10.91053563,10.30526213,-2.07368813,0.07132887,-0.87463523

>  <Name>
ligand

>  <RI>
0

>  <Rbt.Current_Directory>
/home/itssahil/PROJECTS/Mol_Feturizer/New_Systems/rnas/2O3Y

>  <Rbt.Executable>
rbdock ($Id: //depot/dev/client3/rdock/2013.1/src/exe/rbdock.cxx#4 $)

>  <Rbt.Library>
libRbt.so (2013.1, Build901 2013/11/27)

>  <Rbt.Parameter_File>
/export/apps/rDock/src/rDock_2013.1_src/data/scripts/dock_solv.prm

>  <Rbt.Receptor>
prm/pocket_docking_8.prm

>  <SCORE>
-12.4625

>  <SCORE.INTER>
-0.428992

>  <SCORE.INTER.CONST>
1

>  <SCORE.INTER.POLAR>
0

>  <SCORE.INTER.ROT>
11

>  <SCORE.INTER.SOLV>
6.05112

>  <SCORE.INTER.VDW>
-13.2364

>  <SCORE.INTER.norm>
-0.0306423

>  <SCORE.INTRA>
-12.0335

>  <SCORE.INTRA.DIHEDRAL>
-23.8636

>  <SCORE.INTRA.DIHEDRAL.0>
24.1231

>  <SCORE.INTRA.POLAR>
0

>  <SCORE.INTRA.POLAR.0>
0

>  <SCORE.INTRA.REPUL>
0

>  <SCORE.INTRA.REPUL.0>
0

>  <SCORE.INTRA.SOLV>
-0.572434

>  <SCORE.INTRA.SOLV.lig_0>
-48.2216

>  <SCORE.INTRA.VDW>
0.184505

>  <SCORE.INTRA.VDW.0>
-1.3967

>  <SCORE.INTRA.norm>
-0.859538

>  <SCORE.RESTR>
0

>  <SCORE.RESTR.CAVITY>
0

>  <SCORE.RESTR.norm>
0

>  <SCORE.SYSTEM>
0

>  <SCORE.SYSTEM.CONST>
0

>  <SCORE.SYSTEM.DIHEDRAL>
0

>  <SCORE.SYSTEM.SOLV>
0

>  <SCORE.SYSTEM.norm>
0

>  <SCORE.heavy>
14

>  <SCORE.norm>
-0.89018

>  <RMSD>
4.534

$$$$
ligand
 OpenBabel11021811463D
libRbt.so/2013.1/901 2013/11/27
 14 13  0  0  0  0  0  0  0  0999 V2000
   11.2190    6.9183   15.7440 N   0  0  0  0  0  0  0  0  0  0  0  0
   10.5833    7.1690   14.4435 C   0  0  0  0  0  0  0  0  0  0  0  0
   11.1409    8.4583   13.8494 C   0  0  0  0  0  0  0  0  0  0  0  0
   10.4567    8.7161   12.5169 C   0  0  0  0  0  0  0  0  0  0  0  0
   10.9886    9.9557   11.9396 N   0  0  0  0  0  0  0  0  0  0  0  0
   10.2314   10.2136   10.7023 C   0  0  0  0  0  0  0  0  0  0  0  0
   10.6756   11.5346   10.0639 C   0  0  0  0  0  0  0  0  0  0  0  0
   12.1300   11.3780    9.5951 C   0  0  0  0  0  0  0  0  0  0  0  0
   12.5882   12.6167    8.9453 C   0  0  0  0  0  0  0  0  0  0  0  0
   13.9969   12.4172    8.5485 N   0  0  0  0  0  0  0  0  0  0  0  0
   14.4568   13.5615    7.6381 C   0  0  0  0  0  0  0  0  0  0  0  0
   15.8491   13.2469    7.0775 C   0  0  0  0  0  0  0  0  0  0  0  0
   16.2907   14.3445    6.1956 C   0  0  0  0  0  0  0  0  0  0  0  0
   17.6345   14.0415    5.6582 N   0  0  0  0  0  0  0  0  0  0  0  0
  1  2  1  0  0  0  0
  2  3  1  0  0  0  0
  3  4  1  0  0  0  0
  4  5  1  0  0  0  0
  5  6  1  0  0  0  0
  6  7  1  0  0  0  0
  7  8  1  0  0  0  0
  8  9  1  0  0  0  0
  9 10  1  0  0  0  0
 10 11  1  0  0  0  0
 11 12  1  0  0  0  0
 12 13  1  0  0  0  0
 13 14  1  0  0  0  0
M  END
>  <CHROM.1>
-179.03145717,179.99583744,-176.07319053,177.20277500,66.21862722,178.66840338
178.61536793,169.43601530,-172.21143138,179.72427447,179.87018130,12.73124833
11.04094503,10.20831851,-2.08604458,0.05480148,-0.87015209

>  <Name>
ligand

>  <RI>
0

>  <Rbt.Current_Directory>
/home/itssahil/PROJECTS/Mol_Feturizer/New_Systems/rnas/2O3Y

>  <Rbt.Executable>
rbdock ($Id: //depot/dev/client3/rdock/2013.1/src/exe/rbdock.cxx#4 $)

>  <Rbt.Library>
libRbt.so (2013.1, Build901 2013/11/27)

>  <Rbt.Parameter_File>
/export/apps/rDock/src/rDock_2013.1_src/data/scripts/dock_solv.prm

>  <Rbt.Receptor>
prm/pocket_docking_6.prm

>  <SCORE>
-12.4518

>  <SCORE.INTER>
-0.435967

>  <SCORE.INTER.CONST>
1

>  <SCORE.INTER.POLAR>
0

>  <SCORE.INTER.ROT>
11

>  <SCORE.INTER.SOLV>
5.85907

>  <SCORE.INTER.VDW>
-13.177

>  <SCORE.INTER.norm>
-0.0311405

>  <SCORE.INTRA>
-12.0158

>  <SCORE.INTRA.DIHEDRAL>
-23.8018

>  <SCORE.INTRA.DIHEDRAL.0>
24.1231

>  <SCORE.INTRA.POLAR>
0

>  <SCORE.INTRA.POLAR.0>
0

>  <SCORE.INTRA.REPUL>
0

>  <SCORE.INTRA.REPUL.0>
0

>  <SCORE.INTRA.SOLV>
-0.582827

>  <SCORE.INTRA.SOLV.lig_0>
-48.2216

>  <SCORE.INTRA.VDW>
0.176511

>  <SCORE.INTRA.VDW.0>
-1.3967

>  <SCORE.INTRA.norm>
-0.858271

>  <SCORE.RESTR>
0

>  <SCORE.RESTR.CAVITY>
0

>  <SCORE.RESTR.norm>
0

>  <SCORE.SYSTEM>
0

>  <SCORE.SYSTEM.CONST>
0

>  <SCORE.SYSTEM.DIHEDRAL>
0

>  <SCORE.SYSTEM.SOLV>
0

>  <SCORE.SYSTEM.norm>
0

>  <SCORE.heavy>
14

>  <SCORE.norm>
-0.889411

>  <RMSD>
4.536

$$$$
ligand
 OpenBabel11021811463D
libRbt.so/2013.1/901 2013/11/27
 14 13  0  0  0  0  0  0  0  0999 V2000
   11.1922    6.8944   15.8424 N   0  0  0  0  0  0  0  0  0  0  0  0
   10.5744    7.1144   14.5278 C   0  0  0  0  0  0  0  0  0  0  0  0
   11.1358    8.3928   13.9140 C   0  0  0  0  0  0  0  0  0  0  0  0
   10.4388    8.6423   12.5866 C   0  0  0  0  0  0  0  0  0  0  0  0
   10.9419    9.8951   12.0118 N   0  0  0  0  0  0  0  0  0  0  0  0
   10.1588   10.1532   10.7908 C   0  0  0  0  0  0  0  0  0  0  0  0
   10.6086   11.4603   10.1282 C   0  0  0  0  0  0  0  0  0  0  0  0
   12.0618   11.2885    9.6610 C   0  0  0  0  0  0  0  0  0  0  0  0
   12.5153   12.5020    8.9622 C   0  0  0  0  0  0  0  0  0  0  0  0
   13.8957   12.2585    8.4963 N   0  0  0  0  0  0  0  0  0  0  0  0
   14.3888   13.4455    7.6609 C   0  0  0  0  0  0  0  0  0  0  0  0
   15.7425   13.1030    7.0269 C   0  0  0  0  0  0  0  0  0  0  0  0
   16.2187   14.2446    6.2223 C   0  0  0  0  0  0  0  0  0  0  0  0
   17.5091   13.9019    5.5866 N   0  0  0  0  0  0  0  0  0  0  0  0
  1  2  1  0  0  0  0
  2  3  1  0  0  0  0
  3  4  1  0  0  0  0
  4  5  1  0  0  0  0
  5  6  1  0  0  0  0
  6  7  1  0  0  0  0
  7  8  1  0  0  0  0
  8  9  1  0  0  0  0
  9 10  1  0  0  0  0
 10 11  1  0  0  0  0
 11 12  1  0  0  0  0
 12 13  1  0  0  0  0
 13 14  1  0  0  0  0
M  END
>  <CHROM.1>
-177.29277208,178.11666808,-175.24978316,179.34278188,64.64417733,177.41147897
-177.98322125,175.48785420,-172.37248422,-179.99721283,-178.71937220,12.66988333
10.94981841,10.24402073,-2.07882536,0.06760193,-0.87745183

>  <Name>
ligand

>  <RI>
0

>  <Rbt.Current_Directory>
/home/itssahil/PROJECTS/Mol_Feturizer/New_Systems/rnas/2O3Y

>  <Rbt.Executable>
rbdock ($Id: //depot/dev/client3/rdock/2013.1/src/exe/rbdock.cxx#4 $)

>  <Rbt.Library>
libRbt.so (2013.1, Build901 2013/11/27)

>  <Rbt.Parameter_File>
/export/apps/rDock/src/rDock_2013.1_src/data/scripts/dock_solv.prm

>  <Rbt.Receptor>
prm/pocket_docking_6.prm

>  <SCORE>
-12.3795

>  <SCORE.INTER>
-0.339708

>  <SCORE.INTER.CONST>
1

>  <SCORE.INTER.POLAR>
0

>  <SCORE.INTER.ROT>
11

>  <SCORE.INTER.SOLV>
6.06983

>  <SCORE.INTER.VDW>
-13.1831

>  <SCORE.INTER.norm>
-0.0242649

>  <SCORE.INTRA>
-12.0398

>  <SCORE.INTRA.DIHEDRAL>
-23.8685

>  <SCORE.INTRA.DIHEDRAL.0>
24.1231

>  <SCORE.INTRA.POLAR>
0

>  <SCORE.INTRA.POLAR.0>
0

>  <SCORE.INTRA.REPUL>
0

>  <SCORE.INTRA.REPUL.0>
0

>  <SCORE.INTRA.SOLV>
-0.574198

>  <SCORE.INTRA.SOLV.lig_0>
-48.2216

>  <SCORE.INTRA.VDW>
0.181569

>  <SCORE.INTRA.VDW.0>
-1.3967

>  <SCORE.INTRA.norm>
-0.859983

>  <SCORE.RESTR>
0

>  <SCORE.RESTR.CAVITY>
0

>  <SCORE.RESTR.norm>
0

>  <SCORE.SYSTEM>
0

>  <SCORE.SYSTEM.CONST>
0

>  <SCORE.SYSTEM.DIHEDRAL>
0

>  <SCORE.SYSTEM.SOLV>
0

>  <SCORE.SYSTEM.norm>
0

>  <SCORE.heavy>
14

>  <SCORE.norm>
-0.884248

>  <RMSD>
4.541

$$$$
ligand
 OpenBabel11021811463D
libRbt.so/2013.1/901 2013/11/27
 14 13  0  0  0  0  0  0  0  0999 V2000
   16.0756   13.6349    7.0991 N   0  0  0  0  0  0  0  0  0  0  0  0
   14.8372   12.8888    7.3594 C   0  0  0  0  0  0  0  0  0  0  0  0
   13.7759   13.8437    7.8961 C   0  0  0  0  0  0  0  0  0  0  0  0
   12.4965   13.0610    8.1421 C   0  0  0  0  0  0  0  0  0  0  0  0
   12.7390   12.0698    9.1964 N   0  0  0  0  0  0  0  0  0  0  0  0
   11.4212   11.6555    9.7088 C   0  0  0  0  0  0  0  0  0  0  0  0
   11.5589   10.4352   10.6262 C   0  0  0  0  0  0  0  0  0  0  0  0
   10.1796   10.1265   11.2277 C   0  0  0  0  0  0  0  0  0  0  0  0
   10.2778    8.9952   12.1642 C   0  0  0  0  0  0  0  0  0  0  0  0
   11.1834    9.3998   13.2587 N   0  0  0  0  0  0  0  0  0  0  0  0
   12.2015    8.2890   13.5405 C   0  0  0  0  0  0  0  0  0  0  0  0
   11.8459    7.5849   14.8556 C   0  0  0  0  0  0  0  0  0  0  0  0
   12.8574    6.5540   15.1580 C   0  0  0  0  0  0  0  0  0  0  0  0
   12.5927    5.9726   16.4915 N   0  0  0  0  0  0  0  0  0  0  0  0
  1  2  1  0  0  0  0
  2  3  1  0  0  0  0
  3  4  1  0  0  0  0
  4  5  1  0  0  0  0
  5  6  1  0  0  0  0
  6  7  1  0  0  0  0
  7  8  1  0  0  0  0
  8  9  1  0  0  0  0
  9 10  1  0  0  0  0
 10 11  1  0  0  0  0
 11 12  1  0  0  0  0
 12 13  1  0  0  0  0
 13 14  1  0  0  0  0
M  END
>  <CHROM.1>
179.23555732,64.25025387,161.77568542,169.37950689,175.00264063,-177.49521847
62.08795704,-133.33599756,-106.52876405,-177.58520084,174.18909529,12.43132886
10.32223857,11.19446842,-1.35335275,-0.02141056,2.27456163

>  <Name>
ligand

>  <RI>
0

>  <Rbt.Current_Directory>
/home/itssahil/PROJECTS/Mol_Feturizer/New_Systems/rnas/2O3Y

>  <Rbt.Executable>
rbdock ($Id: //depot/dev/client3/rdock/2013.1/src/exe/rbdock.cxx#4 $)

>  <Rbt.Library>
libRbt.so (2013.1, Build901 2013/11/27)

>  <Rbt.Parameter_File>
/export/apps/rDock/src/rDock_2013.1_src/data/scripts/dock_solv.prm

>  <Rbt.Receptor>
prm/pocket_docking_5.prm

>  <SCORE>
-10.29

>  <SCORE.INTER>
-0.299175

>  <SCORE.INTER.CONST>
1

>  <SCORE.INTER.POLAR>
0

>  <SCORE.INTER.ROT>
11

>  <SCORE.INTER.SOLV>
6.36523

>  <SCORE.INTER.VDW>
-13.2545

>  <SCORE.INTER.norm>
-0.0213696

>  <SCORE.INTRA>
-9.99078

>  <SCORE.INTRA.DIHEDRAL>
-21.3075

>  <SCORE.INTRA.DIHEDRAL.0>
24.1231

>  <SCORE.INTRA.POLAR>
0

>  <SCORE.INTRA.POLAR.0>
0

>  <SCORE.INTRA.REPUL>
0

>  <SCORE.INTRA.REPUL.0>
0

>  <SCORE.INTRA.SOLV>
0.00888816

>  <SCORE.INTRA.SOLV.lig_0>
-48.2216

>  <SCORE.INTRA.VDW>
0.658514

>  <SCORE.INTRA.VDW.0>
-1.3967

>  <SCORE.INTRA.norm>
-0.713627

>  <SCORE.RESTR>
0

>  <SCORE.RESTR.CAVITY>
0

>  <SCORE.RESTR.norm>
0

>  <SCORE.SYSTEM>
0

>  <SCORE.SYSTEM.CONST>
0

>  <SCORE.SYSTEM.DIHEDRAL>
0

>  <SCORE.SYSTEM.SOLV>
0

>  <SCORE.SYSTEM.norm>
0

>  <SCORE.heavy>
14

>  <SCORE.norm>
-0.734997

>  <RMSD>
4.544

$$$$
ligand
 OpenBabel11021811463D
libRbt.so/2013.1/901 2013/11/27
 14 13  0  0  0  0  0  0  0  0999 V2000
   11.1896    6.8678   15.8110 N   0  0  0  0  0  0  0  0  0  0  0  0
   10.5880    7.0751   14.4869 C   0  0  0  0  0  0  0  0  0  0  0  0
   11.1057    8.3826   13.8965 C   0  0  0  0  0  0  0  0  0  0  0  0
   10.4398    8.6054   12.5485 C   0  0  0  0  0  0  0  0  0  0  0  0
   10.9409    9.8574   11.9702 N   0  0  0  0  0  0  0  0  0  0  0  0
   10.1139   10.1452   10.7853 C   0  0  0  0  0  0  0  0  0  0  0  0
   10.5674   11.4470   10.1147 C   0  0  0  0  0  0  0  0  0  0  0  0
   12.0070   11.2551    9.6146 C   0  0  0  0  0  0  0  0  0  0  0  0
   12.4851   12.4864    8.9649 C   0  0  0  0  0  0  0  0  0  0  0  0
   13.8252   12.2064    8.4105 N   0  0  0  0  0  0  0  0  0  0  0  0
   14.3617   13.4402    7.6756 C   0  0  0  0  0  0  0  0  0  0  0  0
   15.7100   13.1075    7.0254 C   0  0  0  0  0  0  0  0  0  0  0  0
   16.2063   14.2802    6.2798 C   0  0  0  0  0  0  0  0  0  0  0  0
   17.5081   13.9593    5.6562 N   0  0  0  0  0  0  0  0  0  0  0  0
  1  2  1  0  0  0  0
  2  3  1  0  0  0  0
  3  4  1  0  0  0  0
  4  5  1  0  0  0  0
  5  6  1  0  0  0  0
  6  7  1  0  0  0  0
  7  8  1  0  0  0  0
  8  9  1  0  0  0  0
  9 10  1  0  0  0  0
 10 11  1  0  0  0  0
 11 12  1  0  0  0  0
 12 13  1  0  0  0  0
 13 14  1  0  0  0  0
M  END
>  <CHROM.1>
-178.15152221,-179.59312799,-170.81663705,179.86007454,63.33601374,-179.84808590
-175.46850378,178.07722427,-176.23257577,178.11759936,179.85615449,12.64605072
10.93691619,10.23133135,-2.07813292,0.05441790,-0.87691295

>  <Name>
ligand

>  <RI>
0

>  <Rbt.Current_Directory>
/home/itssahil/PROJECTS/Mol_Feturizer/New_Systems/rnas/2O3Y

>  <Rbt.Executable>
rbdock ($Id: //depot/dev/client3/rdock/2013.1/src/exe/rbdock.cxx#4 $)

>  <Rbt.Library>
libRbt.so (2013.1, Build901 2013/11/27)

>  <Rbt.Parameter_File>
/export/apps/rDock/src/rDock_2013.1_src/data/scripts/dock_solv.prm

>  <Rbt.Receptor>
prm/pocket_docking_8.prm

>  <SCORE>
-12.3621

>  <SCORE.INTER>
-0.338072

>  <SCORE.INTER.CONST>
1

>  <SCORE.INTER.POLAR>
0

>  <SCORE.INTER.ROT>
11

>  <SCORE.INTER.SOLV>
6.40369

>  <SCORE.INTER.VDW>
-13.2933

>  <SCORE.INTER.norm>
-0.024148

>  <SCORE.INTRA>
-12.024

>  <SCORE.INTRA.DIHEDRAL>
-23.8939

>  <SCORE.INTRA.DIHEDRAL.0>
24.1231

>  <SCORE.INTRA.POLAR>
0

>  <SCORE.INTRA.POLAR.0>
0

>  <SCORE.INTRA.REPUL>
0

>  <SCORE.INTRA.REPUL.0>
0

>  <SCORE.INTRA.SOLV>
-0.559135

>  <SCORE.INTRA.SOLV.lig_0>
-48.2216

>  <SCORE.INTRA.VDW>
0.202553

>  <SCORE.INTRA.VDW.0>
-1.3967

>  <SCORE.INTRA.norm>
-0.858856

>  <SCORE.RESTR>
0

>  <SCORE.RESTR.CAVITY>
0

>  <SCORE.RESTR.norm>
0

>  <SCORE.SYSTEM>
0

>  <SCORE.SYSTEM.CONST>
0

>  <SCORE.SYSTEM.DIHEDRAL>
0

>  <SCORE.SYSTEM.SOLV>
0

>  <SCORE.SYSTEM.norm>
0

>  <SCORE.heavy>
14

>  <SCORE.norm>
-0.883004

>  <RMSD>
4.550

$$$$
ligand
 OpenBabel11021811463D
libRbt.so/2013.1/901 2013/11/27
 14 13  0  0  0  0  0  0  0  0999 V2000
   11.5672    6.4110   16.4050 N   0  0  0  0  0  0  0  0  0  0  0  0
   10.6935    6.6392   15.2463 C   0  0  0  0  0  0  0  0  0  0  0  0
   11.3485    7.6512   14.3119 C   0  0  0  0  0  0  0  0  0  0  0  0
   10.4104    7.9151   13.1455 C   0  0  0  0  0  0  0  0  0  0  0  0
   11.0945    8.7677   12.1668 N   0  0  0  0  0  0  0  0  0  0  0  0
   10.2778    9.9840   12.0106 C   0  0  0  0  0  0  0  0  0  0  0  0
   10.0182   10.2723   10.5276 C   0  0  0  0  0  0  0  0  0  0  0  0
   11.3664   10.5572    9.8489 C   0  0  0  0  0  0  0  0  0  0  0  0
   11.7918   11.9383   10.1290 C   0  0  0  0  0  0  0  0  0  0  0  0
   12.9802   12.2161    9.2970 N   0  0  0  0  0  0  0  0  0  0  0  0
   12.9983   13.6900    8.8763 C   0  0  0  0  0  0  0  0  0  0  0  0
   13.8629   13.8576    7.6209 C   0  0  0  0  0  0  0  0  0  0  0  0
   15.2634   13.5110    7.9308 C   0  0  0  0  0  0  0  0  0  0  0  0
   16.1144   13.7749    6.7507 N   0  0  0  0  0  0  0  0  0  0  0  0
  1  2  1  0  0  0  0
  2  3  1  0  0  0  0
  3  4  1  0  0  0  0
  4  5  1  0  0  0  0
  5  6  1  0  0  0  0
  6  7  1  0  0  0  0
  7  8  1  0  0  0  0
  8  9  1  0  0  0  0
  9 10  1  0  0  0  0
 10 11  1  0  0  0  0
 11 12  1  0  0  0  0
 12 13  1  0  0  0  0
 13 14  1  0  0  0  0
M  END
>  <CHROM.1>
-177.92873478,-173.62341405,-121.44621867,-129.78591254,-63.48422637,-79.37819682
-171.83285013,146.85343532,-157.95155890,-64.19974317,-175.54938128,12.12735093
10.51334823,11.01902622,-1.93713299,-0.08834018,-0.86042851

>  <Name>
ligand

>  <RI>
0

>  <Rbt.Current_Directory>
/home/itssahil/PROJECTS/Mol_Feturizer/New_Systems/rnas/2O3Y

>  <Rbt.Executable>
rbdock ($Id: //depot/dev/client3/rdock/2013.1/src/exe/rbdock.cxx#4 $)

>  <Rbt.Library>
libRbt.so (2013.1, Build901 2013/11/27)

>  <Rbt.Parameter_File>
/export/apps/rDock/src/rDock_2013.1_src/data/scripts/dock_solv.prm

>  <Rbt.Receptor>
prm/pocket_docking_6.prm

>  <SCORE>
-9.13374

>  <SCORE.INTER>
-0.762411

>  <SCORE.INTER.CONST>
1

>  <SCORE.INTER.POLAR>
0

>  <SCORE.INTER.ROT>
11

>  <SCORE.INTER.SOLV>
6.81785

>  <SCORE.INTER.VDW>
-13.7142

>  <SCORE.INTER.norm>
-0.0544579

>  <SCORE.INTRA>
-8.37133

>  <SCORE.INTRA.DIHEDRAL>
-18.6976

>  <SCORE.INTRA.DIHEDRAL.0>
24.1231

>  <SCORE.INTRA.POLAR>
0

>  <SCORE.INTRA.POLAR.0>
0

>  <SCORE.INTRA.REPUL>
0

>  <SCORE.INTRA.REPUL.0>
0

>  <SCORE.INTRA.SOLV>
0.118342

>  <SCORE.INTRA.SOLV.lig_0>
-48.2216

>  <SCORE.INTRA.VDW>
0.918279

>  <SCORE.INTRA.VDW.0>
-1.3967

>  <SCORE.INTRA.norm>
-0.597952

>  <SCORE.RESTR>
0

>  <SCORE.RESTR.CAVITY>
0

>  <SCORE.RESTR.norm>
0

>  <SCORE.SYSTEM>
0

>  <SCORE.SYSTEM.CONST>
0

>  <SCORE.SYSTEM.DIHEDRAL>
0

>  <SCORE.SYSTEM.SOLV>
0

>  <SCORE.SYSTEM.norm>
0

>  <SCORE.heavy>
14

>  <SCORE.norm>
-0.65241

>  <RMSD>
4.556

$$$$
ligand
 OpenBabel11021811463D
libRbt.so/2013.1/901 2013/11/27
 14 13  0  0  0  0  0  0  0  0999 V2000
   15.7614   10.7588    7.8158 N   0  0  0  0  0  0  0  0  0  0  0  0
   14.4026   10.8715    8.3625 C   0  0  0  0  0  0  0  0  0  0  0  0
   13.9551    9.5109    8.8868 C   0  0  0  0  0  0  0  0  0  0  0  0
   12.5432    9.6405    9.4343 C   0  0  0  0  0  0  0  0  0  0  0  0
   12.5626   10.5364   10.5961 N   0  0  0  0  0  0  0  0  0  0  0  0
   11.2343   11.1691   10.6736 C   0  0  0  0  0  0  0  0  0  0  0  0
   10.5314   10.7884   11.9817 C   0  0  0  0  0  0  0  0  0  0  0  0
   10.0797    9.3239   11.8773 C   0  0  0  0  0  0  0  0  0  0  0  0
    9.4115    8.9107   13.1220 C   0  0  0  0  0  0  0  0  0  0  0  0
   10.4555    8.7389   14.1526 N   0  0  0  0  0  0  0  0  0  0  0  0
   10.6766    7.2491   14.4381 C   0  0  0  0  0  0  0  0  0  0  0  0
   11.9149    7.0720   15.3251 C   0  0  0  0  0  0  0  0  0  0  0  0
   13.1078    7.5834   14.6230 C   0  0  0  0  0  0  0  0  0  0  0  0
   14.2833    7.5051   15.5167 N   0  0  0  0  0  0  0  0  0  0  0  0
  1  2  1  0  0  0  0
  2  3  1  0  0  0  0
  3  4  1  0  0  0  0
  4  5  1  0  0  0  0
  5  6  1  0  0  0  0
  6  7  1  0  0  0  0
  7  8  1  0  0  0  0
  8  9  1  0  0  0  0
  9 10  1  0  0  0  0
 10 11  1  0  0  0  0
 11 12  1  0  0  0  0
 12 13  1  0  0  0  0
 13 14  1  0  0  0  0
M  END
>  <CHROM.1>
-179.37431346,-64.86397211,151.94116455,117.62934633,-73.11614135,179.34932416
-73.91376618,-106.93988481,170.49429748,-61.54790446,175.81071157,12.20813104
9.26127724,11.91464951,-1.19520984,-0.22995268,2.09318440

>  <Name>
ligand

>  <RI>
0

>  <Rbt.Current_Directory>
/home/itssahil/PROJECTS/Mol_Feturizer/New_Systems/rnas/2O3Y

>  <Rbt.Executable>
rbdock ($Id: //depot/dev/client3/rdock/2013.1/src/exe/rbdock.cxx#4 $)

>  <Rbt.Library>
libRbt.so (2013.1, Build901 2013/11/27)

>  <Rbt.Parameter_File>
/export/apps/rDock/src/rDock_2013.1_src/data/scripts/dock_solv.prm

>  <Rbt.Receptor>
prm/pocket_docking_5.prm

>  <SCORE>
-6.32012

>  <SCORE.INTER>
2.67542

>  <SCORE.INTER.CONST>
1

>  <SCORE.INTER.POLAR>
0

>  <SCORE.INTER.ROT>
11

>  <SCORE.INTER.SOLV>
5.9228

>  <SCORE.INTER.VDW>
-11.124

>  <SCORE.INTER.norm>
0.191102

>  <SCORE.INTRA>
-8.99554

>  <SCORE.INTRA.DIHEDRAL>
-19.757

>  <SCORE.INTRA.DIHEDRAL.0>
24.1231

>  <SCORE.INTRA.POLAR>
0

>  <SCORE.INTRA.POLAR.0>
0

>  <SCORE.INTRA.REPUL>
0

>  <SCORE.INTRA.REPUL.0>
0

>  <SCORE.INTRA.SOLV>
0.793557

>  <SCORE.INTRA.SOLV.lig_0>
-48.2216

>  <SCORE.INTRA.VDW>
0.48616

>  <SCORE.INTRA.VDW.0>
-1.3967

>  <SCORE.INTRA.norm>
-0.642539

>  <SCORE.RESTR>
0

>  <SCORE.RESTR.CAVITY>
0

>  <SCORE.RESTR.norm>
0

>  <SCORE.SYSTEM>
0

>  <SCORE.SYSTEM.CONST>
0

>  <SCORE.SYSTEM.DIHEDRAL>
0

>  <SCORE.SYSTEM.SOLV>
0

>  <SCORE.SYSTEM.norm>
0

>  <SCORE.heavy>
14

>  <SCORE.norm>
-0.451437

>  <RMSD>
4.568

$$$$
ligand
 OpenBabel11021811463D
libRbt.so/2013.1/901 2013/11/27
 14 13  0  0  0  0  0  0  0  0999 V2000
   10.4198    8.8943   14.3061 N   0  0  0  0  0  0  0  0  0  0  0  0
   10.0586    8.2259   13.0488 C   0  0  0  0  0  0  0  0  0  0  0  0
    9.8421    9.2754   11.9634 C   0  0  0  0  0  0  0  0  0  0  0  0
   11.1616    9.9821   11.6995 C   0  0  0  0  0  0  0  0  0  0  0  0
   10.9877   10.9146   10.5801 N   0  0  0  0  0  0  0  0  0  0  0  0
   12.2185   11.7200   10.4960 C   0  0  0  0  0  0  0  0  0  0  0  0
   12.4267   12.2387    9.0685 C   0  0  0  0  0  0  0  0  0  0  0  0
   13.7523   13.0136    9.0261 C   0  0  0  0  0  0  0  0  0  0  0  0
   14.0465   13.4376    7.6475 C   0  0  0  0  0  0  0  0  0  0  0  0
   15.3980   14.0336    7.6433 N   0  0  0  0  0  0  0  0  0  0  0  0
   15.8779   14.2453    6.2029 C   0  0  0  0  0  0  0  0  0  0  0  0
   17.1962   15.0287    6.2083 C   0  0  0  0  0  0  0  0  0  0  0  0
   18.2590   14.2109    6.8240 C   0  0  0  0  0  0  0  0  0  0  0  0
   19.5000   15.0074    6.9331 N   0  0  0  0  0  0  0  0  0  0  0  0
  1  2  1  0  0  0  0
  2  3  1  0  0  0  0
  3  4  1  0  0  0  0
  4  5  1  0  0  0  0
  5  6  1  0  0  0  0
  6  7  1  0  0  0  0
  7  8  1  0  0  0  0
  8  9  1  0  0  0  0
  9 10  1  0  0  0  0
 10 11  1  0  0  0  0
 11 12  1  0  0  0  0
 12 13  1  0  0  0  0
 13 14  1  0  0  0  0
M  END
>  <CHROM.1>
64.67575376,175.34233060,171.44371221,154.28060703,-177.42800778,175.44214111
-173.48901711,168.94078288,172.64856889,66.27694474,-175.23626521,13.65303411
12.15913318,9.40320377,-2.30964862,-0.14790464,-0.97166796

>  <Name>
ligand

>  <RI>
0

>  <Rbt.Current_Directory>
/home/itssahil/PROJECTS/Mol_Feturizer/New_Systems/rnas/2O3Y

>  <Rbt.Executable>
rbdock ($Id: //depot/dev/client3/rdock/2013.1/src/exe/rbdock.cxx#4 $)

>  <Rbt.Library>
libRbt.so (2013.1, Build901 2013/11/27)

>  <Rbt.Parameter_File>
/export/apps/rDock/src/rDock_2013.1_src/data/scripts/dock_solv.prm

>  <Rbt.Receptor>
prm/pocket_docking_7.prm

>  <SCORE>
-9.53781

>  <SCORE.INTER>
1.3103

>  <SCORE.INTER.CONST>
1

>  <SCORE.INTER.POLAR>
0

>  <SCORE.INTER.ROT>
11

>  <SCORE.INTER.SOLV>
5.6101

>  <SCORE.INTER.VDW>
-11.9298

>  <SCORE.INTER.norm>
0.0935928

>  <SCORE.INTRA>
-10.8481

>  <SCORE.INTRA.DIHEDRAL>
-22.7879

>  <SCORE.INTRA.DIHEDRAL.0>
24.1231

>  <SCORE.INTRA.POLAR>
0

>  <SCORE.INTRA.POLAR.0>
0

>  <SCORE.INTRA.REPUL>
0

>  <SCORE.INTRA.REPUL.0>
0

>  <SCORE.INTRA.SOLV>
0.305873

>  <SCORE.INTRA.SOLV.lig_0>
-48.2216

>  <SCORE.INTRA.VDW>
0.392886

>  <SCORE.INTRA.VDW.0>
-1.3967

>  <SCORE.INTRA.norm>
-0.774865

>  <SCORE.RESTR>
0

>  <SCORE.RESTR.CAVITY>
0

>  <SCORE.RESTR.norm>
0

>  <SCORE.SYSTEM>
0

>  <SCORE.SYSTEM.CONST>
0

>  <SCORE.SYSTEM.DIHEDRAL>
0

>  <SCORE.SYSTEM.SOLV>
0

>  <SCORE.SYSTEM.norm>
0

>  <SCORE.heavy>
14

>  <SCORE.norm>
-0.681272

>  <RMSD>
4.568

$$$$
ligand
 OpenBabel11021811463D
libRbt.so/2013.1/901 2013/11/27
 14 13  0  0  0  0  0  0  0  0999 V2000
   18.4962   14.1127    6.2391 N   0  0  0  0  0  0  0  0  0  0  0  0
   17.4386   14.1713    5.2212 C   0  0  0  0  0  0  0  0  0  0  0  0
   16.1107   14.5080    5.8918 C   0  0  0  0  0  0  0  0  0  0  0  0
   15.7132   13.3505    6.7930 C   0  0  0  0  0  0  0  0  0  0  0  0
   14.4090   13.6432    7.3980 N   0  0  0  0  0  0  0  0  0  0  0  0
   13.9626   12.4128    8.0744 C   0  0  0  0  0  0  0  0  0  0  0  0
   12.6057   12.6326    8.7530 C   0  0  0  0  0  0  0  0  0  0  0  0
   12.1903   11.3208    9.4357 C   0  0  0  0  0  0  0  0  0  0  0  0
   10.8467   11.4585   10.0210 C   0  0  0  0  0  0  0  0  0  0  0  0
   10.4163   10.1185   10.4691 N   0  0  0  0  0  0  0  0  0  0  0  0
   10.4933   10.0220   11.9971 C   0  0  0  0  0  0  0  0  0  0  0  0
   10.3001    8.5642   12.4322 C   0  0  0  0  0  0  0  0  0  0  0  0
   10.3413    8.4743   13.9045 C   0  0  0  0  0  0  0  0  0  0  0  0
   11.7037    8.7902   14.3848 N   0  0  0  0  0  0  0  0  0  0  0  0
  1  2  1  0  0  0  0
  2  3  1  0  0  0  0
  3  4  1  0  0  0  0
  4  5  1  0  0  0  0
  5  6  1  0  0  0  0
  6  7  1  0  0  0  0
  7  8  1  0  0  0  0
  8  9  1  0  0  0  0
  9 10  1  0  0  0  0
 10 11  1  0  0  0  0
 11 12  1  0  0  0  0
 12 13  1  0  0  0  0
 13 14  1  0  0  0  0
M  END
>  <CHROM.1>
-66.32584904,-177.65024169,170.68822903,179.35726177,179.84673670,-176.03649722
171.17138607,105.58720179,-169.50820925,-178.63464730,-67.39368842,13.21603022
11.68425504,9.35808144,-0.93100953,0.05814941,2.15957757

>  <Name>
ligand

>  <RI>
0

>  <Rbt.Current_Directory>
/home/itssahil/PROJECTS/Mol_Feturizer/New_Systems/rnas/2O3Y

>  <Rbt.Executable>
rbdock ($Id: //depot/dev/client3/rdock/2013.1/src/exe/rbdock.cxx#4 $)

>  <Rbt.Library>
libRbt.so (2013.1, Build901 2013/11/27)

>  <Rbt.Parameter_File>
/export/apps/rDock/src/rDock_2013.1_src/data/scripts/dock_solv.prm

>  <Rbt.Receptor>
prm/pocket_docking_7.prm

>  <SCORE>
-11.3218

>  <SCORE.INTER>
-1.12806

>  <SCORE.INTER.CONST>
1

>  <SCORE.INTER.POLAR>
0

>  <SCORE.INTER.ROT>
11

>  <SCORE.INTER.SOLV>
6.56303

>  <SCORE.INTER.VDW>
-13.8731

>  <SCORE.INTER.norm>
-0.0805759

>  <SCORE.INTRA>
-10.1937

>  <SCORE.INTRA.DIHEDRAL>
-22.1899

>  <SCORE.INTRA.DIHEDRAL.0>
24.1231

>  <SCORE.INTRA.POLAR>
0

>  <SCORE.INTRA.POLAR.0>
0

>  <SCORE.INTRA.REPUL>
0

>  <SCORE.INTRA.REPUL.0>
0

>  <SCORE.INTRA.SOLV>
0.612626

>  <SCORE.INTRA.SOLV.lig_0>
-48.2216

>  <SCORE.INTRA.VDW>
0.594873

>  <SCORE.INTRA.VDW.0>
-1.3967

>  <SCORE.INTRA.norm>
-0.728125

>  <SCORE.RESTR>
0

>  <SCORE.RESTR.CAVITY>
0

>  <SCORE.RESTR.norm>
0

>  <SCORE.SYSTEM>
0

>  <SCORE.SYSTEM.CONST>
0

>  <SCORE.SYSTEM.DIHEDRAL>
0

>  <SCORE.SYSTEM.SOLV>
0

>  <SCORE.SYSTEM.norm>
0

>  <SCORE.heavy>
14

>  <SCORE.norm>
-0.808701

>  <RMSD>
4.571

$$$$
ligand
 OpenBabel11021811463D
libRbt.so/2013.1/901 2013/11/27
 14 13  0  0  0  0  0  0  0  0999 V2000
   12.4665   11.0620    9.5692 N   0  0  0  0  0  0  0  0  0  0  0  0
   11.1892   11.6785    9.9520 C   0  0  0  0  0  0  0  0  0  0  0  0
   10.2140   10.5899   10.3881 C   0  0  0  0  0  0  0  0  0  0  0  0
   10.7507    9.9321   11.6488 C   0  0  0  0  0  0  0  0  0  0  0  0
    9.7459    8.9942   12.1621 N   0  0  0  0  0  0  0  0  0  0  0  0
   10.4663    7.9850   12.9579 C   0  0  0  0  0  0  0  0  0  0  0  0
   10.2228    8.2049   14.4553 C   0  0  0  0  0  0  0  0  0  0  0  0
   10.9984    9.4573   14.8906 C   0  0  0  0  0  0  0  0  0  0  0  0
   10.7766    9.7174   16.3224 C   0  0  0  0  0  0  0  0  0  0  0  0
   11.6451   10.8475   16.7099 N   0  0  0  0  0  0  0  0  0  0  0  0
   10.8295   12.1440   16.7720 C   0  0  0  0  0  0  0  0  0  0  0  0
   11.7556   13.3206   17.1026 C   0  0  0  0  0  0  0  0  0  0  0  0
   10.9789   14.5751   17.1240 C   0  0  0  0  0  0  0  0  0  0  0  0
   10.5006   14.8880   15.7603 N   0  0  0  0  0  0  0  0  0  0  0  0
  1  2  1  0  0  0  0
  2  3  1  0  0  0  0
  3  4  1  0  0  0  0
  4  5  1  0  0  0  0
  5  6  1  0  0  0  0
  6  7  1  0  0  0  0
  7  8  1  0  0  0  0
  8  9  1  0  0  0  0
  9 10  1  0  0  0  0
 10 11  1  0  0  0  0
 11 12  1  0  0  0  0
 12 13  1  0  0  0  0
 13 14  1  0  0  0  0
M  END
>  <CHROM.1>
64.95014026,173.45717570,155.37174421,106.62249047,-72.39819720,179.19649132
174.61332325,100.61520310,-177.03797930,178.36275594,-67.05571940,10.89564690
10.95668658,13.98697585,-1.81364743,1.42689106,1.32550921

>  <Name>
ligand

>  <RI>
0

>  <Rbt.Current_Directory>
/home/itssahil/PROJECTS/Mol_Feturizer/New_Systems/rnas/2O3Y

>  <Rbt.Executable>
rbdock ($Id: //depot/dev/client3/rdock/2013.1/src/exe/rbdock.cxx#4 $)

>  <Rbt.Library>
libRbt.so (2013.1, Build901 2013/11/27)

>  <Rbt.Parameter_File>
/export/apps/rDock/src/rDock_2013.1_src/data/scripts/dock_solv.prm

>  <Rbt.Receptor>
prm/pocket_docking_4.prm

>  <SCORE>
-6.8055

>  <SCORE.INTER>
2.08789

>  <SCORE.INTER.CONST>
1

>  <SCORE.INTER.POLAR>
0

>  <SCORE.INTER.ROT>
11

>  <SCORE.INTER.SOLV>
8.31591

>  <SCORE.INTER.VDW>
-12.3134

>  <SCORE.INTER.norm>
0.149135

>  <SCORE.INTRA>
-8.89338

>  <SCORE.INTRA.DIHEDRAL>
-20.585

>  <SCORE.INTRA.DIHEDRAL.0>
24.1231

>  <SCORE.INTRA.POLAR>
0

>  <SCORE.INTRA.POLAR.0>
0

>  <SCORE.INTRA.REPUL>
0

>  <SCORE.INTRA.REPUL.0>
0

>  <SCORE.INTRA.SOLV>
1.04876

>  <SCORE.INTRA.SOLV.lig_0>
-48.2216

>  <SCORE.INTRA.VDW>
0.874756

>  <SCORE.INTRA.VDW.0>
-1.3967

>  <SCORE.INTRA.norm>
-0.635242

>  <SCORE.RESTR>
0

>  <SCORE.RESTR.CAVITY>
0

>  <SCORE.RESTR.norm>
0

>  <SCORE.SYSTEM>
0

>  <SCORE.SYSTEM.CONST>
0

>  <SCORE.SYSTEM.DIHEDRAL>
0

>  <SCORE.SYSTEM.SOLV>
0

>  <SCORE.SYSTEM.norm>
0

>  <SCORE.heavy>
14

>  <SCORE.norm>
-0.486107

>  <RMSD>
4.575

$$$$
ligand
 OpenBabel11021811463D
libRbt.so/2013.1/901 2013/11/27
 14 13  0  0  0  0  0  0  0  0999 V2000
   15.8285   13.9805    7.8386 N   0  0  0  0  0  0  0  0  0  0  0  0
   14.4560   13.4858    7.6664 C   0  0  0  0  0  0  0  0  0  0  0  0
   13.8615   13.1609    9.0329 C   0  0  0  0  0  0  0  0  0  0  0  0
   12.4667   12.5909    8.8339 C   0  0  0  0  0  0  0  0  0  0  0  0
   11.9183   12.2055   10.1392 N   0  0  0  0  0  0  0  0  0  0  0  0
   10.7259   11.3805    9.8782 C   0  0  0  0  0  0  0  0  0  0  0  0
   10.3677   10.5450   11.1125 C   0  0  0  0  0  0  0  0  0  0  0  0
   11.5469    9.6098   11.4199 C   0  0  0  0  0  0  0  0  0  0  0  0
   11.2912    8.8654   12.6638 C   0  0  0  0  0  0  0  0  0  0  0  0
   12.5293    8.1386   13.0109 N   0  0  0  0  0  0  0  0  0  0  0  0
   12.4209    7.5544   14.4240 C   0  0  0  0  0  0  0  0  0  0  0  0
   13.6619    6.7063   14.7281 C   0  0  0  0  0  0  0  0  0  0  0  0
   13.5680    6.1583   16.0949 C   0  0  0  0  0  0  0  0  0  0  0  0
   13.6053    7.2625   17.0778 N   0  0  0  0  0  0  0  0  0  0  0  0
  1  2  1  0  0  0  0
  2  3  1  0  0  0  0
  3  4  1  0  0  0  0
  4  5  1  0  0  0  0
  5  6  1  0  0  0  0
  6  7  1  0  0  0  0
  7  8  1  0  0  0  0
  8  9  1  0  0  0  0
  9 10  1  0  0  0  0
 10 11  1  0  0  0  0
 11 12  1  0  0  0  0
 12 13  1  0  0  0  0
 13 14  1  0  0  0  0
M  END
>  <CHROM.1>
-177.42603355,176.83364764,-166.93129878,160.51905284,-61.35432792,175.41024356
-171.89662873,169.50596327,175.35134030,179.22365002,-65.01404946,12.73170798
10.11734334,11.70852218,-1.51024913,0.13511715,2.28979552

>  <Name>
ligand

>  <RI>
0

>  <Rbt.Current_Directory>
/home/itssahil/PROJECTS/Mol_Feturizer/New_Systems/rnas/2O3Y

>  <Rbt.Executable>
rbdock ($Id: //depot/dev/client3/rdock/2013.1/src/exe/rbdock.cxx#4 $)

>  <Rbt.Library>
libRbt.so (2013.1, Build901 2013/11/27)

>  <Rbt.Parameter_File>
/export/apps/rDock/src/rDock_2013.1_src/data/scripts/dock_solv.prm

>  <Rbt.Receptor>
prm/pocket_docking_5.prm

>  <SCORE>
-10.31

>  <SCORE.INTER>
0.625206

>  <SCORE.INTER.CONST>
1

>  <SCORE.INTER.POLAR>
0

>  <SCORE.INTER.ROT>
11

>  <SCORE.INTER.SOLV>
7.79324

>  <SCORE.INTER.VDW>
-13.1143

>  <SCORE.INTER.norm>
0.0446575

>  <SCORE.INTRA>
-10.9352

>  <SCORE.INTRA.DIHEDRAL>
-23.0967

>  <SCORE.INTRA.DIHEDRAL.0>
24.1231

>  <SCORE.INTRA.POLAR>
0

>  <SCORE.INTRA.POLAR.0>
0

>  <SCORE.INTRA.REPUL>
0

>  <SCORE.INTRA.REPUL.0>
0

>  <SCORE.INTRA.SOLV>
0.311031

>  <SCORE.INTRA.SOLV.lig_0>
-48.2216

>  <SCORE.INTRA.VDW>
0.457639

>  <SCORE.INTRA.VDW.0>
-1.3967

>  <SCORE.INTRA.norm>
-0.781086

>  <SCORE.RESTR>
0

>  <SCORE.RESTR.CAVITY>
0

>  <SCORE.RESTR.norm>
0

>  <SCORE.SYSTEM>
0

>  <SCORE.SYSTEM.CONST>
0

>  <SCORE.SYSTEM.DIHEDRAL>
0

>  <SCORE.SYSTEM.SOLV>
0

>  <SCORE.SYSTEM.norm>
0

>  <SCORE.heavy>
14

>  <SCORE.norm>
-0.736428

>  <RMSD>
4.587

$$$$
ligand
 OpenBabel11021811463D
libRbt.so/2013.1/901 2013/11/27
 14 13  0  0  0  0  0  0  0  0999 V2000
   16.8484   13.9878   11.6453 N   0  0  0  0  0  0  0  0  0  0  0  0
   16.1694   14.4165   12.8754 C   0  0  0  0  0  0  0  0  0  0  0  0
   15.4656   13.2196   13.5067 C   0  0  0  0  0  0  0  0  0  0  0  0
   16.5170   12.2821   14.0775 C   0  0  0  0  0  0  0  0  0  0  0  0
   15.8519   11.0882   14.6114 N   0  0  0  0  0  0  0  0  0  0  0  0
   16.8990   10.2472   15.2173 C   0  0  0  0  0  0  0  0  0  0  0  0
   16.4760    8.7737   15.2139 C   0  0  0  0  0  0  0  0  0  0  0  0
   15.2407    8.6251   16.1147 C   0  0  0  0  0  0  0  0  0  0  0  0
   15.6269    8.7585   17.5289 C   0  0  0  0  0  0  0  0  0  0  0  0
   14.3854    8.8650   18.3219 N   0  0  0  0  0  0  0  0  0  0  0  0
   14.4243   10.1218   19.1987 C   0  0  0  0  0  0  0  0  0  0  0  0
   14.0301   11.3459   18.3634 C   0  0  0  0  0  0  0  0  0  0  0  0
   12.6367   11.2043   17.8989 C   0  0  0  0  0  0  0  0  0  0  0  0
   12.3013   12.3166   16.9841 N   0  0  0  0  0  0  0  0  0  0  0  0
  1  2  1  0  0  0  0
  2  3  1  0  0  0  0
  3  4  1  0  0  0  0
  4  5  1  0  0  0  0
  5  6  1  0  0  0  0
  6  7  1  0  0  0  0
  7  8  1  0  0  0  0
  8  9  1  0  0  0  0
  9 10  1  0  0  0  0
 10 11  1  0  0  0  0
 11 12  1  0  0  0  0
 12 13  1  0  0  0  0
 13 14  1  0  0  0  0
M  END
>  <CHROM.1>
70.98971222,-176.47513996,-176.96440547,-153.85659246,-64.30558143,-72.41224768
169.43760111,-126.03442490,81.22315234,63.44809168,-174.39105834,15.20533982
11.08926885,15.82576064,1.11043243,0.76194412,-0.64173878

>  <Name>
ligand

>  <RI>
0

>  <Rbt.Current_Directory>
/home/itssahil/PROJECTS/Mol_Feturizer/New_Systems/rnas/2O3Y

>  <Rbt.Executable>
rbdock ($Id: //depot/dev/client3/rdock/2013.1/src/exe/rbdock.cxx#4 $)

>  <Rbt.Library>
libRbt.so (2013.1, Build901 2013/11/27)

>  <Rbt.Parameter_File>
/export/apps/rDock/src/rDock_2013.1_src/data/scripts/dock_solv.prm

>  <Rbt.Receptor>
prm/pocket_docking_7.prm

>  <SCORE>
-9.1967

>  <SCORE.INTER>
-0.682734

>  <SCORE.INTER.CONST>
1

>  <SCORE.INTER.POLAR>
0

>  <SCORE.INTER.ROT>
11

>  <SCORE.INTER.SOLV>
8.20237

>  <SCORE.INTER.VDW>
-14.1226

>  <SCORE.INTER.norm>
-0.0487667

>  <SCORE.INTRA>
-8.51397

>  <SCORE.INTRA.DIHEDRAL>
-20.3723

>  <SCORE.INTRA.DIHEDRAL.0>
24.1231

>  <SCORE.INTRA.POLAR>
0

>  <SCORE.INTRA.POLAR.0>
0

>  <SCORE.INTRA.REPUL>
0

>  <SCORE.INTRA.REPUL.0>
0

>  <SCORE.INTRA.SOLV>
1.31325

>  <SCORE.INTRA.SOLV.lig_0>
-48.2216

>  <SCORE.INTRA.VDW>
1.01554

>  <SCORE.INTRA.VDW.0>
-1.3967

>  <SCORE.INTRA.norm>
-0.608141

>  <SCORE.RESTR>
0

>  <SCORE.RESTR.CAVITY>
0

>  <SCORE.RESTR.norm>
0

>  <SCORE.SYSTEM>
0

>  <SCORE.SYSTEM.CONST>
0

>  <SCORE.SYSTEM.DIHEDRAL>
0

>  <SCORE.SYSTEM.SOLV>
0

>  <SCORE.SYSTEM.norm>
0

>  <SCORE.heavy>
14

>  <SCORE.norm>
-0.656907

>  <RMSD>
4.594

$$$$
ligand
 OpenBabel11021811463D
libRbt.so/2013.1/901 2013/11/27
 14 13  0  0  0  0  0  0  0  0999 V2000
   15.8352   14.4052   10.3945 N   0  0  0  0  0  0  0  0  0  0  0  0
   16.7298   14.9937   11.4002 C   0  0  0  0  0  0  0  0  0  0  0  0
   16.2416   14.6135   12.7942 C   0  0  0  0  0  0  0  0  0  0  0  0
   16.3821   13.1099   12.9659 C   0  0  0  0  0  0  0  0  0  0  0  0
   15.9789   12.7458   14.3289 N   0  0  0  0  0  0  0  0  0  0  0  0
   16.5651   11.4241   14.6123 C   0  0  0  0  0  0  0  0  0  0  0  0
   16.1456   10.9354   16.0034 C   0  0  0  0  0  0  0  0  0  0  0  0
   16.6931    9.5137   16.2000 C   0  0  0  0  0  0  0  0  0  0  0  0
   15.7344    8.5259   15.6787 C   0  0  0  0  0  0  0  0  0  0  0  0
   15.6779    8.6904   14.2120 N   0  0  0  0  0  0  0  0  0  0  0  0
   14.2902    8.3017   13.6894 C   0  0  0  0  0  0  0  0  0  0  0  0
   14.0926    8.8694   12.2787 C   0  0  0  0  0  0  0  0  0  0  0  0
   12.7614    8.4869   11.7698 C   0  0  0  0  0  0  0  0  0  0  0  0
   11.7116    9.1394   12.5814 N   0  0  0  0  0  0  0  0  0  0  0  0
  1  2  1  0  0  0  0
  2  3  1  0  0  0  0
  3  4  1  0  0  0  0
  4  5  1  0  0  0  0
  5  6  1  0  0  0  0
  6  7  1  0  0  0  0
  7  8  1  0  0  0  0
  8  9  1  0  0  0  0
  9 10  1  0  0  0  0
 10 11  1  0  0  0  0
 11 12  1  0  0  0  0
 12 13  1  0  0  0  0
 13 14  1  0  0  0  0
M  END
>  <CHROM.1>
65.64141758,177.12407214,-160.20261575,-177.66725850,175.68165963,-87.62843888
67.15711147,-150.18366709,162.65035976,179.54349698,65.76928532,15.34590337
10.98240025,13.49378165,1.07793257,-0.81591666,-0.68227806

>  <Name>
ligand

>  <RI>
0

>  <Rbt.Current_Directory>
/home/itssahil/PROJECTS/Mol_Feturizer/New_Systems/rnas/2O3Y

>  <Rbt.Executable>
rbdock ($Id: //depot/dev/client3/rdock/2013.1/src/exe/rbdock.cxx#4 $)

>  <Rbt.Library>
libRbt.so (2013.1, Build901 2013/11/27)

>  <Rbt.Parameter_File>
/export/apps/rDock/src/rDock_2013.1_src/data/scripts/dock_solv.prm

>  <Rbt.Receptor>
prm/pocket_docking_6.prm

>  <SCORE>
-5.72204

>  <SCORE.INTER>
2.30213

>  <SCORE.INTER.CONST>
1

>  <SCORE.INTER.POLAR>
0

>  <SCORE.INTER.ROT>
11

>  <SCORE.INTER.SOLV>
7.2125

>  <SCORE.INTER.VDW>
-11.8027

>  <SCORE.INTER.norm>
0.164438

>  <SCORE.INTRA>
-8.02417

>  <SCORE.INTRA.DIHEDRAL>
-19.7796

>  <SCORE.INTRA.DIHEDRAL.0>
24.1231

>  <SCORE.INTRA.POLAR>
0

>  <SCORE.INTRA.POLAR.0>
0

>  <SCORE.INTRA.REPUL>
0

>  <SCORE.INTRA.REPUL.0>
0

>  <SCORE.INTRA.SOLV>
1.94626

>  <SCORE.INTRA.SOLV.lig_0>
-48.2216

>  <SCORE.INTRA.VDW>
0.892492

>  <SCORE.INTRA.VDW.0>
-1.3967

>  <SCORE.INTRA.norm>
-0.573155

>  <SCORE.RESTR>
0

>  <SCORE.RESTR.CAVITY>
0

>  <SCORE.RESTR.norm>
0

>  <SCORE.SYSTEM>
0

>  <SCORE.SYSTEM.CONST>
0

>  <SCORE.SYSTEM.DIHEDRAL>
0

>  <SCORE.SYSTEM.SOLV>
0

>  <SCORE.SYSTEM.norm>
0

>  <SCORE.heavy>
14

>  <SCORE.norm>
-0.408717

>  <RMSD>
4.598

$$$$
ligand
 OpenBabel11021811463D
libRbt.so/2013.1/901 2013/11/27
 14 13  0  0  0  0  0  0  0  0999 V2000
   15.4762    8.1196   15.2023 N   0  0  0  0  0  0  0  0  0  0  0  0
   14.2661    7.5024   14.6429 C   0  0  0  0  0  0  0  0  0  0  0  0
   13.0731    7.8325   15.5340 C   0  0  0  0  0  0  0  0  0  0  0  0
   11.8158    7.2682   14.8930 C   0  0  0  0  0  0  0  0  0  0  0  0
   11.5692    7.9701   13.6283 N   0  0  0  0  0  0  0  0  0  0  0  0
   10.1588    8.3960   13.6406 C   0  0  0  0  0  0  0  0  0  0  0  0
    9.7306    8.8827   12.2515 C   0  0  0  0  0  0  0  0  0  0  0  0
   10.5768   10.1125   11.8897 C   0  0  0  0  0  0  0  0  0  0  0  0
   10.2325   10.5838   10.5384 C   0  0  0  0  0  0  0  0  0  0  0  0
   11.0267   11.8010   10.2750 N   0  0  0  0  0  0  0  0  0  0  0  0
   12.2396   11.4620    9.4010 C   0  0  0  0  0  0  0  0  0  0  0  0
   12.6825   12.7096    8.6271 C   0  0  0  0  0  0  0  0  0  0  0  0
   13.7547   12.3526    7.6782 C   0  0  0  0  0  0  0  0  0  0  0  0
   14.9652   11.9468    8.4243 N   0  0  0  0  0  0  0  0  0  0  0  0
  1  2  1  0  0  0  0
  2  3  1  0  0  0  0
  3  4  1  0  0  0  0
  4  5  1  0  0  0  0
  5  6  1  0  0  0  0
  6  7  1  0  0  0  0
  7  8  1  0  0  0  0
  8  9  1  0  0  0  0
  9 10  1  0  0  0  0
 10 11  1  0  0  0  0
 11 12  1  0  0  0  0
 12 13  1  0  0  0  0
 13 14  1  0  0  0  0
M  END
>  <CHROM.1>
176.18766418,-65.41587919,-130.38789567,-168.45151265,-62.66771001,177.89207812
177.27016128,100.52350448,154.78445390,-173.93444946,-66.38102518,12.25444239
9.78134891,11.90189787,-1.58579190,-0.04009867,-0.94882473

>  <Name>
ligand

>  <RI>
0

>  <Rbt.Current_Directory>
/home/itssahil/PROJECTS/Mol_Feturizer/New_Systems/rnas/2O3Y

>  <Rbt.Executable>
rbdock ($Id: //depot/dev/client3/rdock/2013.1/src/exe/rbdock.cxx#4 $)

>  <Rbt.Library>
libRbt.so (2013.1, Build901 2013/11/27)

>  <Rbt.Parameter_File>
/export/apps/rDock/src/rDock_2013.1_src/data/scripts/dock_solv.prm

>  <Rbt.Receptor>
prm/pocket_docking_7.prm

>  <SCORE>
-9.03289

>  <SCORE.INTER>
0.30856

>  <SCORE.INTER.CONST>
1

>  <SCORE.INTER.POLAR>
0

>  <SCORE.INTER.ROT>
11

>  <SCORE.INTER.SOLV>
7.83893

>  <SCORE.INTER.VDW>
-13.3406

>  <SCORE.INTER.norm>
0.02204

>  <SCORE.INTRA>
-9.34145

>  <SCORE.INTRA.DIHEDRAL>
-21.0086

>  <SCORE.INTRA.DIHEDRAL.0>
24.1231

>  <SCORE.INTRA.POLAR>
0

>  <SCORE.INTRA.POLAR.0>
0

>  <SCORE.INTRA.REPUL>
0

>  <SCORE.INTRA.REPUL.0>
0

>  <SCORE.INTRA.SOLV>
0.729475

>  <SCORE.INTRA.SOLV.lig_0>
-48.2216

>  <SCORE.INTRA.VDW>
0.79811

>  <SCORE.INTRA.VDW.0>
-1.3967

>  <SCORE.INTRA.norm>
-0.667246

>  <SCORE.RESTR>
0

>  <SCORE.RESTR.CAVITY>
0

>  <SCORE.RESTR.norm>
0

>  <SCORE.SYSTEM>
0

>  <SCORE.SYSTEM.CONST>
0

>  <SCORE.SYSTEM.DIHEDRAL>
0

>  <SCORE.SYSTEM.SOLV>
0

>  <SCORE.SYSTEM.norm>
0

>  <SCORE.heavy>
14

>  <SCORE.norm>
-0.645206

>  <RMSD>
4.606

$$$$
ligand
 OpenBabel11021811463D
libRbt.so/2013.1/901 2013/11/27
 14 13  0  0  0  0  0  0  0  0999 V2000
   19.3215   14.1911    9.0454 N   0  0  0  0  0  0  0  0  0  0  0  0
   19.5853   13.3333   10.2085 C   0  0  0  0  0  0  0  0  0  0  0  0
   19.8207   11.9021    9.7370 C   0  0  0  0  0  0  0  0  0  0  0  0
   20.0301   11.0167   10.9545 C   0  0  0  0  0  0  0  0  0  0  0  0
   18.7746   10.9403   11.7102 N   0  0  0  0  0  0  0  0  0  0  0  0
   18.9795    9.9549   12.7862 C   0  0  0  0  0  0  0  0  0  0  0  0
   17.6381    9.5462   13.4054 C   0  0  0  0  0  0  0  0  0  0  0  0
   17.2840   10.5621   14.5017 C   0  0  0  0  0  0  0  0  0  0  0  0
   16.0882   10.1177   15.2361 C   0  0  0  0  0  0  0  0  0  0  0  0
   15.8653   11.0700   16.3430 N   0  0  0  0  0  0  0  0  0  0  0  0
   14.7920   10.5314   17.2957 C   0  0  0  0  0  0  0  0  0  0  0  0
   14.4442   11.6008   18.3383 C   0  0  0  0  0  0  0  0  0  0  0  0
   13.3681   11.1067   19.2188 C   0  0  0  0  0  0  0  0  0  0  0  0
   12.1278   10.9238   18.4347 N   0  0  0  0  0  0  0  0  0  0  0  0
  1  2  1  0  0  0  0
  2  3  1  0  0  0  0
  3  4  1  0  0  0  0
  4  5  1  0  0  0  0
  5  6  1  0  0  0  0
  6  7  1  0  0  0  0
  7  8  1  0  0  0  0
  8  9  1  0  0  0  0
  9 10  1  0  0  0  0
 10 11  1  0  0  0  0
 11 12  1  0  0  0  0
 12 13  1  0  0  0  0
 13 14  1  0  0  0  0
M  END
>  <CHROM.1>
-177.49633277,67.24780180,173.61121534,-165.79123891,-85.90981996,-173.02946001
175.33450453,-169.85081805,-172.97167908,177.46520709,-65.31372868,17.00872474
11.19955891,14.08689407,0.53999369,0.81998909,-0.52695177

>  <Name>
ligand

>  <RI>
0

>  <Rbt.Current_Directory>
/home/itssahil/PROJECTS/Mol_Feturizer/New_Systems/rnas/2O3Y

>  <Rbt.Executable>
rbdock ($Id: //depot/dev/client3/rdock/2013.1/src/exe/rbdock.cxx#4 $)

>  <Rbt.Library>
libRbt.so (2013.1, Build901 2013/11/27)

>  <Rbt.Parameter_File>
/export/apps/rDock/src/rDock_2013.1_src/data/scripts/dock_solv.prm

>  <Rbt.Receptor>
prm/pocket_docking_7.prm

>  <SCORE>
-10.2059

>  <SCORE.INTER>
-0.41028

>  <SCORE.INTER.CONST>
1

>  <SCORE.INTER.POLAR>
0

>  <SCORE.INTER.ROT>
11

>  <SCORE.INTER.SOLV>
8.59215

>  <SCORE.INTER.VDW>
-14.0709

>  <SCORE.INTER.norm>
-0.0293057

>  <SCORE.INTRA>
-9.79561

>  <SCORE.INTRA.DIHEDRAL>
-21.001

>  <SCORE.INTRA.DIHEDRAL.0>
24.1231

>  <SCORE.INTRA.POLAR>
0

>  <SCORE.INTRA.POLAR.0>
0

>  <SCORE.INTRA.REPUL>
0

>  <SCORE.INTRA.REPUL.0>
0

>  <SCORE.INTRA.SOLV>
0.604935

>  <SCORE.INTRA.SOLV.lig_0>
-48.2216

>  <SCORE.INTRA.VDW>
0.402436

>  <SCORE.INTRA.VDW.0>
-1.3967

>  <SCORE.INTRA.norm>
-0.699686

>  <SCORE.RESTR>
0

>  <SCORE.RESTR.CAVITY>
0

>  <SCORE.RESTR.norm>
0

>  <SCORE.SYSTEM>
0

>  <SCORE.SYSTEM.CONST>
0

>  <SCORE.SYSTEM.DIHEDRAL>
0

>  <SCORE.SYSTEM.SOLV>
0

>  <SCORE.SYSTEM.norm>
0

>  <SCORE.heavy>
14

>  <SCORE.norm>
-0.728992

>  <RMSD>
4.626

$$$$
ligand
 OpenBabel11021811463D
libRbt.so/2013.1/901 2013/11/27
 14 13  0  0  0  0  0  0  0  0999 V2000
   15.8684   13.7507    8.1219 N   0  0  0  0  0  0  0  0  0  0  0  0
   14.6587   13.3889    8.8728 C   0  0  0  0  0  0  0  0  0  0  0  0
   13.5870   12.9058    7.9010 C   0  0  0  0  0  0  0  0  0  0  0  0
   12.3247   12.5893    8.6863 C   0  0  0  0  0  0  0  0  0  0  0  0
   12.5702   11.4146    9.5305 N   0  0  0  0  0  0  0  0  0  0  0  0
   11.2859   11.0613   10.1601 C   0  0  0  0  0  0  0  0  0  0  0  0
   11.4643    9.8830   11.1242 C   0  0  0  0  0  0  0  0  0  0  0  0
   10.1059    9.5839   11.7760 C   0  0  0  0  0  0  0  0  0  0  0  0
   10.2077    8.3917   12.6333 C   0  0  0  0  0  0  0  0  0  0  0  0
   10.9835    8.7696   13.8321 N   0  0  0  0  0  0  0  0  0  0  0  0
   11.6876    7.5393   14.4157 C   0  0  0  0  0  0  0  0  0  0  0  0
   10.6725    6.6752   15.1736 C   0  0  0  0  0  0  0  0  0  0  0  0
   11.3603    5.5250   15.7911 C   0  0  0  0  0  0  0  0  0  0  0  0
   12.2556    5.9997   16.8680 N   0  0  0  0  0  0  0  0  0  0  0  0
  1  2  1  0  0  0  0
  2  3  1  0  0  0  0
  3  4  1  0  0  0  0
  4  5  1  0  0  0  0
  5  6  1  0  0  0  0
  6  7  1  0  0  0  0
  7  8  1  0  0  0  0
  8  9  1  0  0  0  0
  9 10  1  0  0  0  0
 10 11  1  0  0  0  0
 11 12  1  0  0  0  0
 12 13  1  0  0  0  0
 13 14  1  0  0  0  0
M  END
>  <CHROM.1>
-177.73164656,-68.06384734,-174.13545081,-176.96128583,178.54386599,175.67287160
72.20308464,-153.29660969,-76.47473047,-177.27631701,67.76143700,12.07338845
9.81977131,11.77748025,-1.28718304,0.20380395,2.25794142

>  <Name>
ligand

>  <RI>
0

>  <Rbt.Current_Directory>
/home/itssahil/PROJECTS/Mol_Feturizer/New_Systems/rnas/2O3Y

>  <Rbt.Executable>
rbdock ($Id: //depot/dev/client3/rdock/2013.1/src/exe/rbdock.cxx#4 $)

>  <Rbt.Library>
libRbt.so (2013.1, Build901 2013/11/27)

>  <Rbt.Parameter_File>
/export/apps/rDock/src/rDock_2013.1_src/data/scripts/dock_solv.prm

>  <Rbt.Receptor>
prm/pocket_docking_6.prm

>  <SCORE>
-10.4378

>  <SCORE.INTER>
-0.709764

>  <SCORE.INTER.CONST>
1

>  <SCORE.INTER.POLAR>
0

>  <SCORE.INTER.ROT>
11

>  <SCORE.INTER.SOLV>
5.30181

>  <SCORE.INTER.VDW>
-13.1738

>  <SCORE.INTER.norm>
-0.0506975

>  <SCORE.INTRA>
-9.72801

>  <SCORE.INTRA.DIHEDRAL>
-22.2354

>  <SCORE.INTRA.DIHEDRAL.0>
24.1231

>  <SCORE.INTRA.POLAR>
0

>  <SCORE.INTRA.POLAR.0>
0

>  <SCORE.INTRA.REPUL>
0

>  <SCORE.INTRA.REPUL.0>
0

>  <SCORE.INTRA.SOLV>
0.673801

>  <SCORE.INTRA.SOLV.lig_0>
-48.2216

>  <SCORE.INTRA.VDW>
1.05281

>  <SCORE.INTRA.VDW.0>
-1.3967

>  <SCORE.INTRA.norm>
-0.694858

>  <SCORE.RESTR>
0

>  <SCORE.RESTR.CAVITY>
0

>  <SCORE.RESTR.norm>
0

>  <SCORE.SYSTEM>
0

>  <SCORE.SYSTEM.CONST>
0

>  <SCORE.SYSTEM.DIHEDRAL>
0

>  <SCORE.SYSTEM.SOLV>
0

>  <SCORE.SYSTEM.norm>
0

>  <SCORE.heavy>
14

>  <SCORE.norm>
-0.745555

>  <RMSD>
4.653

$$$$
ligand
 OpenBabel11021811463D
libRbt.so/2013.1/901 2013/11/27
 14 13  0  0  0  0  0  0  0  0999 V2000
   10.4597    8.8685   13.7886 N   0  0  0  0  0  0  0  0  0  0  0  0
   10.5187    8.9603   12.3236 C   0  0  0  0  0  0  0  0  0  0  0  0
   10.2658   10.4029   11.8978 C   0  0  0  0  0  0  0  0  0  0  0  0
   10.2737   10.4707   10.3794 C   0  0  0  0  0  0  0  0  0  0  0  0
   11.6499   10.2963    9.9014 N   0  0  0  0  0  0  0  0  0  0  0  0
   12.1244   11.6207    9.4637 C   0  0  0  0  0  0  0  0  0  0  0  0
   13.3758   11.4830    8.5890 C   0  0  0  0  0  0  0  0  0  0  0  0
   13.7611   12.8787    8.0761 C   0  0  0  0  0  0  0  0  0  0  0  0
   14.9637   12.7931    7.2317 C   0  0  0  0  0  0  0  0  0  0  0  0
   15.2832   14.1597    6.7711 N   0  0  0  0  0  0  0  0  0  0  0  0
   16.4398   14.1219    5.7658 C   0  0  0  0  0  0  0  0  0  0  0  0
   17.7685   14.3395    6.4998 C   0  0  0  0  0  0  0  0  0  0  0  0
   17.7458   15.6405    7.1957 C   0  0  0  0  0  0  0  0  0  0  0  0
   18.9970   15.8161    7.9640 N   0  0  0  0  0  0  0  0  0  0  0  0
  1  2  1  0  0  0  0
  2  3  1  0  0  0  0
  3  4  1  0  0  0  0
  4  5  1  0  0  0  0
  5  6  1  0  0  0  0
  6  7  1  0  0  0  0
  7  8  1  0  0  0  0
  8  9  1  0  0  0  0
  9 10  1  0  0  0  0
 10 11  1  0  0  0  0
 11 12  1  0  0  0  0
 12 13  1  0  0  0  0
 13 14  1  0  0  0  0
M  END
>  <CHROM.1>
-177.71811884,-71.71029534,-105.63061103,-163.73992669,175.74798079,179.86143805
-179.99211421,-174.03302003,-93.46446807,-59.03448557,176.88226663,13.83039317
12.27512756,8.98886088,-2.49805829,-0.53580754,-1.37145749

>  <Name>
ligand

>  <RI>
0

>  <Rbt.Current_Directory>
/home/itssahil/PROJECTS/Mol_Feturizer/New_Systems/rnas/2O3Y

>  <Rbt.Executable>
rbdock ($Id: //depot/dev/client3/rdock/2013.1/src/exe/rbdock.cxx#4 $)

>  <Rbt.Library>
libRbt.so (2013.1, Build901 2013/11/27)

>  <Rbt.Parameter_File>
/export/apps/rDock/src/rDock_2013.1_src/data/scripts/dock_solv.prm

>  <Rbt.Receptor>
prm/pocket_docking_7.prm

>  <SCORE>
-10.0071

>  <SCORE.INTER>
0.122537

>  <SCORE.INTER.CONST>
1

>  <SCORE.INTER.POLAR>
0

>  <SCORE.INTER.ROT>
11

>  <SCORE.INTER.SOLV>
7.06839

>  <SCORE.INTER.VDW>
-13.2078

>  <SCORE.INTER.norm>
0.00875261

>  <SCORE.INTRA>
-10.1297

>  <SCORE.INTRA.DIHEDRAL>
-21.5123

>  <SCORE.INTRA.DIHEDRAL.0>
24.1231

>  <SCORE.INTRA.POLAR>
0

>  <SCORE.INTRA.POLAR.0>
0

>  <SCORE.INTRA.REPUL>
0

>  <SCORE.INTRA.REPUL.0>
0

>  <SCORE.INTRA.SOLV>
-0.0784501

>  <SCORE.INTRA.SOLV.lig_0>
-48.2216

>  <SCORE.INTRA.VDW>
0.665704

>  <SCORE.INTRA.VDW.0>
-1.3967

>  <SCORE.INTRA.norm>
-0.723548

>  <SCORE.RESTR>
0

>  <SCORE.RESTR.CAVITY>
0

>  <SCORE.RESTR.norm>
0

>  <SCORE.SYSTEM>
0

>  <SCORE.SYSTEM.CONST>
0

>  <SCORE.SYSTEM.DIHEDRAL>
0

>  <SCORE.SYSTEM.SOLV>
0

>  <SCORE.SYSTEM.norm>
0

>  <SCORE.heavy>
14

>  <SCORE.norm>
-0.714795

>  <RMSD>
4.661

$$$$
ligand
 OpenBabel11021811463D
libRbt.so/2013.1/901 2013/11/27
 14 13  0  0  0  0  0  0  0  0999 V2000
   15.6475   13.7611    8.4383 N   0  0  0  0  0  0  0  0  0  0  0  0
   14.4634   13.6736    7.5732 C   0  0  0  0  0  0  0  0  0  0  0  0
   13.2230   13.4626    8.4353 C   0  0  0  0  0  0  0  0  0  0  0  0
   13.3107   12.0925    9.0874 C   0  0  0  0  0  0  0  0  0  0  0  0
   12.1709   11.9227    9.9957 N   0  0  0  0  0  0  0  0  0  0  0  0
   11.5979   10.5931    9.7231 C   0  0  0  0  0  0  0  0  0  0  0  0
   10.1534   10.5143   10.2303 C   0  0  0  0  0  0  0  0  0  0  0  0
   10.1862   10.3951   11.7614 C   0  0  0  0  0  0  0  0  0  0  0  0
   10.4584    9.0029   12.1546 C   0  0  0  0  0  0  0  0  0  0  0  0
   10.4194    8.9407   13.6298 N   0  0  0  0  0  0  0  0  0  0  0  0
   10.6650    7.5041   14.1050 C   0  0  0  0  0  0  0  0  0  0  0  0
   10.5115    7.4316   15.6291 C   0  0  0  0  0  0  0  0  0  0  0  0
   10.7088    6.0418   16.0840 C   0  0  0  0  0  0  0  0  0  0  0  0
   10.6148    5.9824   17.5585 N   0  0  0  0  0  0  0  0  0  0  0  0
  1  2  1  0  0  0  0
  2  3  1  0  0  0  0
  3  4  1  0  0  0  0
  4  5  1  0  0  0  0
  5  6  1  0  0  0  0
  6  7  1  0  0  0  0
  7  8  1  0  0  0  0
  8  9  1  0  0  0  0
  9 10  1  0  0  0  0
 10 11  1  0  0  0  0
 11 12  1  0  0  0  0
 12 13  1  0  0  0  0
 13 14  1  0  0  0  0
M  END
>  <CHROM.1>
-66.85451476,175.84385993,132.99690748,-159.75744621,-74.80672904,-80.63980988
-177.58608665,178.71898735,-175.52323601,178.35926780,177.72634344,11.72343712
10.09414636,11.74297533,-1.22544337,0.25617829,2.18515603

>  <Name>
ligand

>  <RI>
0

>  <Rbt.Current_Directory>
/home/itssahil/PROJECTS/Mol_Feturizer/New_Systems/rnas/2O3Y

>  <Rbt.Executable>
rbdock ($Id: //depot/dev/client3/rdock/2013.1/src/exe/rbdock.cxx#4 $)

>  <Rbt.Library>
libRbt.so (2013.1, Build901 2013/11/27)

>  <Rbt.Parameter_File>
/export/apps/rDock/src/rDock_2013.1_src/data/scripts/dock_solv.prm

>  <Rbt.Receptor>
prm/pocket_docking_6.prm

>  <SCORE>
-9.44894

>  <SCORE.INTER>
-0.440755

>  <SCORE.INTER.CONST>
1

>  <SCORE.INTER.POLAR>
0

>  <SCORE.INTER.ROT>
11

>  <SCORE.INTER.SOLV>
5.11297

>  <SCORE.INTER.VDW>
-12.9315

>  <SCORE.INTER.norm>
-0.0314825

>  <SCORE.INTRA>
-9.00819

>  <SCORE.INTRA.DIHEDRAL>
-20.0313

>  <SCORE.INTRA.DIHEDRAL.0>
24.1231

>  <SCORE.INTRA.POLAR>
0

>  <SCORE.INTRA.POLAR.0>
0

>  <SCORE.INTRA.REPUL>
0

>  <SCORE.INTRA.REPUL.0>
0

>  <SCORE.INTRA.SOLV>
0.485418

>  <SCORE.INTRA.SOLV.lig_0>
-48.2216

>  <SCORE.INTRA.VDW>
0.764773

>  <SCORE.INTRA.VDW.0>
-1.3967

>  <SCORE.INTRA.norm>
-0.643442

>  <SCORE.RESTR>
0

>  <SCORE.RESTR.CAVITY>
0

>  <SCORE.RESTR.norm>
0

>  <SCORE.SYSTEM>
0

>  <SCORE.SYSTEM.CONST>
0

>  <SCORE.SYSTEM.DIHEDRAL>
0

>  <SCORE.SYSTEM.SOLV>
0

>  <SCORE.SYSTEM.norm>
0

>  <SCORE.heavy>
14

>  <SCORE.norm>
-0.674925

>  <RMSD>
4.682

$$$$
ligand
 OpenBabel11021811463D
libRbt.so/2013.1/901 2013/11/27
 14 13  0  0  0  0  0  0  0  0999 V2000
   14.8757   14.0018    7.1400 N   0  0  0  0  0  0  0  0  0  0  0  0
   13.6598   13.8048    7.9405 C   0  0  0  0  0  0  0  0  0  0  0  0
   13.4949   12.3207    8.2510 C   0  0  0  0  0  0  0  0  0  0  0  0
   12.2979   12.1459    9.1712 C   0  0  0  0  0  0  0  0  0  0  0  0
   12.1840   10.7308    9.5420 N   0  0  0  0  0  0  0  0  0  0  0  0
   10.9799   10.6016   10.3810 C   0  0  0  0  0  0  0  0  0  0  0  0
   11.1760    9.5117   11.4411 C   0  0  0  0  0  0  0  0  0  0  0  0
    9.8144    9.2196   12.0893 C   0  0  0  0  0  0  0  0  0  0  0  0
    9.9183    8.0526   12.9804 C   0  0  0  0  0  0  0  0  0  0  0  0
   10.6339    8.4840   14.1984 N   0  0  0  0  0  0  0  0  0  0  0  0
   12.0671    7.9403   14.1901 C   0  0  0  0  0  0  0  0  0  0  0  0
   12.1731    6.7510   15.1524 C   0  0  0  0  0  0  0  0  0  0  0  0
   13.5709    6.2819   15.2124 C   0  0  0  0  0  0  0  0  0  0  0  0
   14.4153    7.3135   15.8522 N   0  0  0  0  0  0  0  0  0  0  0  0
  1  2  1  0  0  0  0
  2  3  1  0  0  0  0
  3  4  1  0  0  0  0
  4  5  1  0  0  0  0
  5  6  1  0  0  0  0
  6  7  1  0  0  0  0
  7  8  1  0  0  0  0
  8  9  1  0  0  0  0
  9 10  1  0  0  0  0
 10 11  1  0  0  0  0
 11 12  1  0  0  0  0
 12 13  1  0  0  0  0
 13 14  1  0  0  0  0
M  END
>  <CHROM.1>
175.50300914,-176.47485294,-177.51015371,-146.63803587,-168.54644714,172.22128425
74.40249901,-105.54991415,-103.63238417,-176.33442640,67.17969066,12.23262263
9.79701425,11.68156902,-1.43530723,0.12902561,2.25864334

>  <Name>
ligand

>  <RI>
0

>  <Rbt.Current_Directory>
/home/itssahil/PROJECTS/Mol_Feturizer/New_Systems/rnas/2O3Y

>  <Rbt.Executable>
rbdock ($Id: //depot/dev/client3/rdock/2013.1/src/exe/rbdock.cxx#4 $)

>  <Rbt.Library>
libRbt.so (2013.1, Build901 2013/11/27)

>  <Rbt.Parameter_File>
/export/apps/rDock/src/rDock_2013.1_src/data/scripts/dock_solv.prm

>  <Rbt.Receptor>
prm/pocket_docking_5.prm

>  <SCORE>
-9.24049

>  <SCORE.INTER>
-0.255831

>  <SCORE.INTER.CONST>
1

>  <SCORE.INTER.POLAR>
0

>  <SCORE.INTER.ROT>
11

>  <SCORE.INTER.SOLV>
11.3319

>  <SCORE.INTER.VDW>
-14.8812

>  <SCORE.INTER.norm>
-0.0182736

>  <SCORE.INTRA>
-8.98466

>  <SCORE.INTRA.DIHEDRAL>
-19.5371

>  <SCORE.INTRA.DIHEDRAL.0>
24.1231

>  <SCORE.INTRA.POLAR>
0

>  <SCORE.INTRA.POLAR.0>
0

>  <SCORE.INTRA.REPUL>
0

>  <SCORE.INTRA.REPUL.0>
0

>  <SCORE.INTRA.SOLV>
0.225589

>  <SCORE.INTRA.SOLV.lig_0>
-48.2216

>  <SCORE.INTRA.VDW>
0.671115

>  <SCORE.INTRA.VDW.0>
-1.3967

>  <SCORE.INTRA.norm>
-0.641761

>  <SCORE.RESTR>
0

>  <SCORE.RESTR.CAVITY>
0

>  <SCORE.RESTR.norm>
0

>  <SCORE.SYSTEM>
0

>  <SCORE.SYSTEM.CONST>
0

>  <SCORE.SYSTEM.DIHEDRAL>
0

>  <SCORE.SYSTEM.SOLV>
0

>  <SCORE.SYSTEM.norm>
0

>  <SCORE.heavy>
14

>  <SCORE.norm>
-0.660035

>  <RMSD>
4.690

$$$$
ligand
 OpenBabel11021811463D
libRbt.so/2013.1/901 2013/11/27
 14 13  0  0  0  0  0  0  0  0999 V2000
   10.8806   11.6314   16.9931 N   0  0  0  0  0  0  0  0  0  0  0  0
   12.3442   11.7493   17.0393 C   0  0  0  0  0  0  0  0  0  0  0  0
   12.8305   11.4475   18.4530 C   0  0  0  0  0  0  0  0  0  0  0  0
   14.3470   11.5467   18.4777 C   0  0  0  0  0  0  0  0  0  0  0  0
   14.9092   10.4625   17.6646 N   0  0  0  0  0  0  0  0  0  0  0  0
   15.6635   11.0940   16.5678 C   0  0  0  0  0  0  0  0  0  0  0  0
   16.4167   10.0365   15.7528 C   0  0  0  0  0  0  0  0  0  0  0  0
   17.1278   10.7420   14.5883 C   0  0  0  0  0  0  0  0  0  0  0  0
   17.7662    9.7489   13.7091 C   0  0  0  0  0  0  0  0  0  0  0  0
   18.3740   10.4798   12.5786 N   0  0  0  0  0  0  0  0  0  0  0  0
   19.0734    9.4994   11.6301 C   0  0  0  0  0  0  0  0  0  0  0  0
   19.7381   10.2742   10.4858 C   0  0  0  0  0  0  0  0  0  0  0  0
   20.3584    9.3283    9.5382 C   0  0  0  0  0  0  0  0  0  0  0  0
   20.9180   10.0705    8.3882 N   0  0  0  0  0  0  0  0  0  0  0  0
  1  2  1  0  0  0  0
  2  3  1  0  0  0  0
  3  4  1  0  0  0  0
  4  5  1  0  0  0  0
  5  6  1  0  0  0  0
  6  7  1  0  0  0  0
  7  8  1  0  0  0  0
  8  9  1  0  0  0  0
  9 10  1  0  0  0  0
 10 11  1  0  0  0  0
 11 12  1  0  0  0  0
 12 13  1  0  0  0  0
 13 14  1  0  0  0  0
M  END
>  <CHROM.1>
178.90018261,-67.04526480,118.51439151,173.74628789,177.34231813,-174.97984243
177.29267092,179.31403102,-178.19340723,-177.39042400,176.13763624,16.48205878
10.57931619,14.41924824,2.33337603,-0.26205715,1.61335940

>  <Name>
ligand

>  <RI>
0

>  <Rbt.Current_Directory>
/home/itssahil/PROJECTS/Mol_Feturizer/New_Systems/rnas/2O3Y

>  <Rbt.Executable>
rbdock ($Id: //depot/dev/client3/rdock/2013.1/src/exe/rbdock.cxx#4 $)

>  <Rbt.Library>
libRbt.so (2013.1, Build901 2013/11/27)

>  <Rbt.Parameter_File>
/export/apps/rDock/src/rDock_2013.1_src/data/scripts/dock_solv.prm

>  <Rbt.Receptor>
prm/pocket_docking_8.prm

>  <SCORE>
-13.3632

>  <SCORE.INTER>
-2.15612

>  <SCORE.INTER.CONST>
1

>  <SCORE.INTER.POLAR>
0

>  <SCORE.INTER.ROT>
11

>  <SCORE.INTER.SOLV>
6.75676

>  <SCORE.INTER.VDW>
-14.623

>  <SCORE.INTER.norm>
-0.154009

>  <SCORE.INTRA>
-11.2071

>  <SCORE.INTRA.DIHEDRAL>
-22.4583

>  <SCORE.INTRA.DIHEDRAL.0>
24.1231

>  <SCORE.INTRA.POLAR>
0

>  <SCORE.INTRA.POLAR.0>
0

>  <SCORE.INTRA.REPUL>
0

>  <SCORE.INTRA.REPUL.0>
0

>  <SCORE.INTRA.SOLV>
-0.520593

>  <SCORE.INTRA.SOLV.lig_0>
-48.2216

>  <SCORE.INTRA.VDW>
0.282364

>  <SCORE.INTRA.VDW.0>
-1.3967

>  <SCORE.INTRA.norm>
-0.800506

>  <SCORE.RESTR>
0

>  <SCORE.RESTR.CAVITY>
0

>  <SCORE.RESTR.norm>
0

>  <SCORE.SYSTEM>
0

>  <SCORE.SYSTEM.CONST>
0

>  <SCORE.SYSTEM.DIHEDRAL>
0

>  <SCORE.SYSTEM.SOLV>
0

>  <SCORE.SYSTEM.norm>
0

>  <SCORE.heavy>
14

>  <SCORE.norm>
-0.954514

>  <RMSD>
4.692

$$$$
ligand
 OpenBabel11021811463D
libRbt.so/2013.1/901 2013/11/27
 14 13  0  0  0  0  0  0  0  0999 V2000
   11.4393   16.9227   12.4546 N   0  0  0  0  0  0  0  0  0  0  0  0
   12.5412   16.1669   11.8443 C   0  0  0  0  0  0  0  0  0  0  0  0
   12.4175   16.2319   10.3256 C   0  0  0  0  0  0  0  0  0  0  0  0
   13.5719   15.4585    9.7096 C   0  0  0  0  0  0  0  0  0  0  0  0
   13.3781   14.0270    9.9670 N   0  0  0  0  0  0  0  0  0  0  0  0
   12.9338   13.4185    8.7009 C   0  0  0  0  0  0  0  0  0  0  0  0
   12.6813   11.9176    8.8836 C   0  0  0  0  0  0  0  0  0  0  0  0
   11.5309   11.7411    9.8860 C   0  0  0  0  0  0  0  0  0  0  0  0
   11.3095   10.3110   10.1553 C   0  0  0  0  0  0  0  0  0  0  0  0
   10.2727   10.2098   11.2025 N   0  0  0  0  0  0  0  0  0  0  0  0
   10.5472    9.0001   12.1031 C   0  0  0  0  0  0  0  0  0  0  0  0
    9.4218    8.8596   13.1353 C   0  0  0  0  0  0  0  0  0  0  0  0
    9.4609    9.9984   14.0729 C   0  0  0  0  0  0  0  0  0  0  0  0
    8.4637    9.7948   15.1455 N   0  0  0  0  0  0  0  0  0  0  0  0
  1  2  1  0  0  0  0
  2  3  1  0  0  0  0
  3  4  1  0  0  0  0
  4  5  1  0  0  0  0
  5  6  1  0  0  0  0
  6  7  1  0  0  0  0
  7  8  1  0  0  0  0
  8  9  1  0  0  0  0
  9 10  1  0  0  0  0
 10 11  1  0  0  0  0
 11 12  1  0  0  0  0
 12 13  1  0  0  0  0
 13 14  1  0  0  0  0
M  END
>  <CHROM.1>
179.40638258,69.77856278,105.02724067,-178.99791683,63.41394339,-176.50156027
175.47398457,-146.15151994,-176.80056515,-67.12802067,-174.42118079,11.42663427
12.43259543,11.25578102,0.61397383,1.00702269,0.43109214

>  <Name>
ligand

>  <RI>
0

>  <Rbt.Current_Directory>
/home/itssahil/PROJECTS/Mol_Feturizer/New_Systems/rnas/2O3Y

>  <Rbt.Executable>
rbdock ($Id: //depot/dev/client3/rdock/2013.1/src/exe/rbdock.cxx#4 $)

>  <Rbt.Library>
libRbt.so (2013.1, Build901 2013/11/27)

>  <Rbt.Parameter_File>
/export/apps/rDock/src/rDock_2013.1_src/data/scripts/dock_solv.prm

>  <Rbt.Receptor>
prm/pocket_docking_8.prm

>  <SCORE>
-9.65835

>  <SCORE.INTER>
0.501612

>  <SCORE.INTER.CONST>
1

>  <SCORE.INTER.POLAR>
0

>  <SCORE.INTER.ROT>
11

>  <SCORE.INTER.SOLV>
6.6662

>  <SCORE.INTER.VDW>
-12.821

>  <SCORE.INTER.norm>
0.0358294

>  <SCORE.INTRA>
-10.16

>  <SCORE.INTRA.DIHEDRAL>
-21.5344

>  <SCORE.INTRA.DIHEDRAL.0>
24.1231

>  <SCORE.INTRA.POLAR>
0

>  <SCORE.INTRA.POLAR.0>
0

>  <SCORE.INTRA.REPUL>
0

>  <SCORE.INTRA.REPUL.0>
0

>  <SCORE.INTRA.SOLV>
0.241455

>  <SCORE.INTRA.SOLV.lig_0>
-48.2216

>  <SCORE.INTRA.VDW>
0.486525

>  <SCORE.INTRA.VDW.0>
-1.3967

>  <SCORE.INTRA.norm>
-0.725712

>  <SCORE.RESTR>
0

>  <SCORE.RESTR.CAVITY>
0

>  <SCORE.RESTR.norm>
0

>  <SCORE.SYSTEM>
0

>  <SCORE.SYSTEM.CONST>
0

>  <SCORE.SYSTEM.DIHEDRAL>
0

>  <SCORE.SYSTEM.SOLV>
0

>  <SCORE.SYSTEM.norm>
0

>  <SCORE.heavy>
14

>  <SCORE.norm>
-0.689882

>  <RMSD>
4.696

$$$$
ligand
 OpenBabel11021811463D
libRbt.so/2013.1/901 2013/11/27
 14 13  0  0  0  0  0  0  0  0999 V2000
   18.0470   13.0117    5.6127 N   0  0  0  0  0  0  0  0  0  0  0  0
   17.6146   14.4130    5.7003 C   0  0  0  0  0  0  0  0  0  0  0  0
   16.0978   14.4646    5.8513 C   0  0  0  0  0  0  0  0  0  0  0  0
   15.7189   13.8298    7.1793 C   0  0  0  0  0  0  0  0  0  0  0  0
   14.2581   13.8465    7.3164 N   0  0  0  0  0  0  0  0  0  0  0  0
   13.9396   13.2075    8.6051 C   0  0  0  0  0  0  0  0  0  0  0  0
   12.5287   12.6089    8.5758 C   0  0  0  0  0  0  0  0  0  0  0  0
   12.1983   12.0852    9.9815 C   0  0  0  0  0  0  0  0  0  0  0  0
   10.8449   11.5066   10.0006 C   0  0  0  0  0  0  0  0  0  0  0  0
   10.5001   11.2255   11.4091 N   0  0  0  0  0  0  0  0  0  0  0  0
   10.5996    9.7214   11.6878 C   0  0  0  0  0  0  0  0  0  0  0  0
   10.3252    9.4526   13.1724 C   0  0  0  0  0  0  0  0  0  0  0  0
   10.5228    8.0197   13.4639 C   0  0  0  0  0  0  0  0  0  0  0  0
   10.3458    7.7771   14.9118 N   0  0  0  0  0  0  0  0  0  0  0  0
  1  2  1  0  0  0  0
  2  3  1  0  0  0  0
  3  4  1  0  0  0  0
  4  5  1  0  0  0  0
  5  6  1  0  0  0  0
  6  7  1  0  0  0  0
  7  8  1  0  0  0  0
  8  9  1  0  0  0  0
  9 10  1  0  0  0  0
 10 11  1  0  0  0  0
 11 12  1  0  0  0  0
 12 13  1  0  0  0  0
 13 14  1  0  0  0  0
M  END
>  <CHROM.1>
64.91819558,-178.63258279,179.26758038,-154.39324477,-174.35318677,179.68959191
-170.89593162,-104.51488780,176.48189749,-175.64823407,176.27229369,13.11002465
11.79800316,9.53331320,-0.90963514,-0.30029358,2.41355794

>  <Name>
ligand

>  <RI>
0

>  <Rbt.Current_Directory>
/home/itssahil/PROJECTS/Mol_Feturizer/New_Systems/rnas/2O3Y

>  <Rbt.Executable>
rbdock ($Id: //depot/dev/client3/rdock/2013.1/src/exe/rbdock.cxx#4 $)

>  <Rbt.Library>
libRbt.so (2013.1, Build901 2013/11/27)

>  <Rbt.Parameter_File>
/export/apps/rDock/src/rDock_2013.1_src/data/scripts/dock_solv.prm

>  <Rbt.Receptor>
prm/pocket_docking_6.prm

>  <SCORE>
-11.033

>  <SCORE.INTER>
-0.387355

>  <SCORE.INTER.CONST>
1

>  <SCORE.INTER.POLAR>
0

>  <SCORE.INTER.ROT>
11

>  <SCORE.INTER.SOLV>
6.73727

>  <SCORE.INTER.VDW>
-13.4373

>  <SCORE.INTER.norm>
-0.0276682

>  <SCORE.INTRA>
-10.6457

>  <SCORE.INTRA.DIHEDRAL>
-21.9863

>  <SCORE.INTRA.DIHEDRAL.0>
24.1231

>  <SCORE.INTRA.POLAR>
0

>  <SCORE.INTRA.POLAR.0>
0

>  <SCORE.INTRA.REPUL>
0

>  <SCORE.INTRA.REPUL.0>
0

>  <SCORE.INTRA.SOLV>
-0.120976

>  <SCORE.INTRA.SOLV.lig_0>
-48.2216

>  <SCORE.INTRA.VDW>
0.407984

>  <SCORE.INTRA.VDW.0>
-1.3967

>  <SCORE.INTRA.norm>
-0.760404

>  <SCORE.RESTR>
0

>  <SCORE.RESTR.CAVITY>
0

>  <SCORE.RESTR.norm>
0

>  <SCORE.SYSTEM>
0

>  <SCORE.SYSTEM.CONST>
0

>  <SCORE.SYSTEM.DIHEDRAL>
0

>  <SCORE.SYSTEM.SOLV>
0

>  <SCORE.SYSTEM.norm>
0

>  <SCORE.heavy>
14

>  <SCORE.norm>
-0.788072

>  <RMSD>
4.701

$$$$
ligand
 OpenBabel11021811463D
libRbt.so/2013.1/901 2013/11/27
 14 13  0  0  0  0  0  0  0  0999 V2000
   15.9273   14.1245    7.8994 N   0  0  0  0  0  0  0  0  0  0  0  0
   14.8730   13.1580    8.2344 C   0  0  0  0  0  0  0  0  0  0  0  0
   13.5093   13.7830    7.9588 C   0  0  0  0  0  0  0  0  0  0  0  0
   12.4308   12.7668    8.2968 C   0  0  0  0  0  0  0  0  0  0  0  0
   12.4058   12.5632    9.7497 N   0  0  0  0  0  0  0  0  0  0  0  0
   11.7589   11.2617    9.9907 C   0  0  0  0  0  0  0  0  0  0  0  0
   11.3275   11.1373   11.4564 C   0  0  0  0  0  0  0  0  0  0  0  0
   10.9248    9.6782   11.7180 C   0  0  0  0  0  0  0  0  0  0  0  0
   10.5598    9.5000   13.1328 C   0  0  0  0  0  0  0  0  0  0  0  0
   10.4183    8.0502   13.3775 N   0  0  0  0  0  0  0  0  0  0  0  0
   10.5285    7.7540   14.8775 C   0  0  0  0  0  0  0  0  0  0  0  0
   10.5552    6.2375   15.1031 C   0  0  0  0  0  0  0  0  0  0  0  0
   10.6179    5.9501   16.5491 C   0  0  0  0  0  0  0  0  0  0  0  0
   11.9111    6.4165   17.0938 N   0  0  0  0  0  0  0  0  0  0  0  0
  1  2  1  0  0  0  0
  2  3  1  0  0  0  0
  3  4  1  0  0  0  0
  4  5  1  0  0  0  0
  5  6  1  0  0  0  0
  6  7  1  0  0  0  0
  7  8  1  0  0  0  0
  8  9  1  0  0  0  0
  9 10  1  0  0  0  0
 10 11  1  0  0  0  0
 11 12  1  0  0  0  0
 12 13  1  0  0  0  0
 13 14  1  0  0  0  0
M  END
>  <CHROM.1>
179.43935313,68.75173392,-158.87656611,-163.87939193,-168.75089226,177.47910398
-170.08458190,160.20843591,-173.01339081,-178.21384910,-66.30438738,11.98174120
10.17002575,11.81691427,-1.25633732,0.15890000,2.25145440

>  <Name>
ligand

>  <RI>
0

>  <Rbt.Current_Directory>
/home/itssahil/PROJECTS/Mol_Feturizer/New_Systems/rnas/2O3Y

>  <Rbt.Executable>
rbdock ($Id: //depot/dev/client3/rdock/2013.1/src/exe/rbdock.cxx#4 $)

>  <Rbt.Library>
libRbt.so (2013.1, Build901 2013/11/27)

>  <Rbt.Parameter_File>
/export/apps/rDock/src/rDock_2013.1_src/data/scripts/dock_solv.prm

>  <Rbt.Receptor>
prm/pocket_docking_7.prm

>  <SCORE>
-9.58658

>  <SCORE.INTER>
0.860671

>  <SCORE.INTER.CONST>
1

>  <SCORE.INTER.POLAR>
0

>  <SCORE.INTER.ROT>
11

>  <SCORE.INTER.SOLV>
5.26024

>  <SCORE.INTER.VDW>
-12.113

>  <SCORE.INTER.norm>
0.0614765

>  <SCORE.INTRA>
-10.4473

>  <SCORE.INTRA.DIHEDRAL>
-21.9543

>  <SCORE.INTRA.DIHEDRAL.0>
24.1231

>  <SCORE.INTRA.POLAR>
0

>  <SCORE.INTRA.POLAR.0>
0

>  <SCORE.INTRA.REPUL>
0

>  <SCORE.INTRA.REPUL.0>
0

>  <SCORE.INTRA.SOLV>
0.242683

>  <SCORE.INTRA.SOLV.lig_0>
-48.2216

>  <SCORE.INTRA.VDW>
0.408546

>  <SCORE.INTRA.VDW.0>
-1.3967

>  <SCORE.INTRA.norm>
-0.746232

>  <SCORE.RESTR>
0

>  <SCORE.RESTR.CAVITY>
0

>  <SCORE.RESTR.norm>
0

>  <SCORE.SYSTEM>
0

>  <SCORE.SYSTEM.CONST>
0

>  <SCORE.SYSTEM.DIHEDRAL>
0

>  <SCORE.SYSTEM.SOLV>
0

>  <SCORE.SYSTEM.norm>
0

>  <SCORE.heavy>
14

>  <SCORE.norm>
-0.684756

>  <RMSD>
4.702

$$$$
ligand
 OpenBabel11021811463D
libRbt.so/2013.1/901 2013/11/27
 14 13  0  0  0  0  0  0  0  0999 V2000
   11.2807   12.7687   17.6082 N   0  0  0  0  0  0  0  0  0  0  0  0
   12.5516   12.0771   17.3536 C   0  0  0  0  0  0  0  0  0  0  0  0
   13.1175   11.5597   18.6720 C   0  0  0  0  0  0  0  0  0  0  0  0
   14.4610   10.9027   18.4006 C   0  0  0  0  0  0  0  0  0  0  0  0
   14.2516    9.7188   17.5595 N   0  0  0  0  0  0  0  0  0  0  0  0
   15.5706    9.0926   17.3623 C   0  0  0  0  0  0  0  0  0  0  0  0
   16.0841    9.3531   15.9416 C   0  0  0  0  0  0  0  0  0  0  0  0
   16.5268   10.8212   15.8511 C   0  0  0  0  0  0  0  0  0  0  0  0
   16.8870   11.1563   14.4637 C   0  0  0  0  0  0  0  0  0  0  0  0
   18.0374   10.3107   14.0852 N   0  0  0  0  0  0  0  0  0  0  0  0
   18.2663   10.3764   12.5709 C   0  0  0  0  0  0  0  0  0  0  0  0
   19.7482   10.1306   12.2621 C   0  0  0  0  0  0  0  0  0  0  0  0
   19.9959   10.3272   10.8208 C   0  0  0  0  0  0  0  0  0  0  0  0
   19.2634    9.3031   10.0453 N   0  0  0  0  0  0  0  0  0  0  0  0
  1  2  1  0  0  0  0
  2  3  1  0  0  0  0
  3  4  1  0  0  0  0
  4  5  1  0  0  0  0
  5  6  1  0  0  0  0
  6  7  1  0  0  0  0
  7  8  1  0  0  0  0
  8  9  1  0  0  0  0
  9 10  1  0  0  0  0
 10 11  1  0  0  0  0
 11 12  1  0  0  0  0
 12 13  1  0  0  0  0
 13 14  1  0  0  0  0
M  END
>  <CHROM.1>
-177.47059882,-64.98366754,-178.11900666,-105.79391849,73.62361549,-173.71782514
-62.65580780,167.38481327,151.93108570,-174.34260704,-64.92334086,16.14605312
10.56417695,15.21423138,2.58770040,-0.63100761,2.12230055

>  <Name>
ligand

>  <RI>
0

>  <Rbt.Current_Directory>
/home/itssahil/PROJECTS/Mol_Feturizer/New_Systems/rnas/2O3Y

>  <Rbt.Executable>
rbdock ($Id: //depot/dev/client3/rdock/2013.1/src/exe/rbdock.cxx#4 $)

>  <Rbt.Library>
libRbt.so (2013.1, Build901 2013/11/27)

>  <Rbt.Parameter_File>
/export/apps/rDock/src/rDock_2013.1_src/data/scripts/dock_solv.prm

>  <Rbt.Receptor>
prm/pocket_docking_7.prm

>  <SCORE>
-11.7309

>  <SCORE.INTER>
-2.63109

>  <SCORE.INTER.CONST>
1

>  <SCORE.INTER.POLAR>
0

>  <SCORE.INTER.ROT>
11

>  <SCORE.INTER.SOLV>
12.0879

>  <SCORE.INTER.VDW>
-16.7167

>  <SCORE.INTER.norm>
-0.187935

>  <SCORE.INTRA>
-9.09979

>  <SCORE.INTRA.DIHEDRAL>
-21.2204

>  <SCORE.INTRA.DIHEDRAL.0>
24.1231

>  <SCORE.INTRA.POLAR>
0

>  <SCORE.INTRA.POLAR.0>
0

>  <SCORE.INTRA.REPUL>
0

>  <SCORE.INTRA.REPUL.0>
0

>  <SCORE.INTRA.SOLV>
1.15535

>  <SCORE.INTRA.SOLV.lig_0>
-48.2216

>  <SCORE.INTRA.VDW>
0.932736

>  <SCORE.INTRA.VDW.0>
-1.3967

>  <SCORE.INTRA.norm>
-0.649985

>  <SCORE.RESTR>
0

>  <SCORE.RESTR.CAVITY>
0

>  <SCORE.RESTR.norm>
0

>  <SCORE.SYSTEM>
0

>  <SCORE.SYSTEM.CONST>
0

>  <SCORE.SYSTEM.DIHEDRAL>
0

>  <SCORE.SYSTEM.SOLV>
0

>  <SCORE.SYSTEM.norm>
0

>  <SCORE.heavy>
14

>  <SCORE.norm>
-0.83792

>  <RMSD>
4.708

$$$$
ligand
 OpenBabel11021811463D
libRbt.so/2013.1/901 2013/11/27
 14 13  0  0  0  0  0  0  0  0999 V2000
   13.9571   13.8820    7.6511 N   0  0  0  0  0  0  0  0  0  0  0  0
   12.7151   13.2236    8.0782 C   0  0  0  0  0  0  0  0  0  0  0  0
   12.9777   12.4295    9.3536 C   0  0  0  0  0  0  0  0  0  0  0  0
   11.6816   11.7659    9.7893 C   0  0  0  0  0  0  0  0  0  0  0  0
   11.9255   11.0056   11.0203 N   0  0  0  0  0  0  0  0  0  0  0  0
   12.1431    9.6034   10.6239 C   0  0  0  0  0  0  0  0  0  0  0  0
   11.9316    8.6665   11.8187 C   0  0  0  0  0  0  0  0  0  0  0  0
   10.4738    8.8002   12.2837 C   0  0  0  0  0  0  0  0  0  0  0  0
   10.1704    7.7774   13.2979 C   0  0  0  0  0  0  0  0  0  0  0  0
   10.9963    8.0700   14.4870 N   0  0  0  0  0  0  0  0  0  0  0  0
   11.3720    6.7679   15.2032 C   0  0  0  0  0  0  0  0  0  0  0  0
   12.8901    6.5616   15.1358 C   0  0  0  0  0  0  0  0  0  0  0  0
   13.5700    7.6034   15.9294 C   0  0  0  0  0  0  0  0  0  0  0  0
   15.0347    7.4682   15.7779 N   0  0  0  0  0  0  0  0  0  0  0  0
  1  2  1  0  0  0  0
  2  3  1  0  0  0  0
  3  4  1  0  0  0  0
  4  5  1  0  0  0  0
  5  6  1  0  0  0  0
  6  7  1  0  0  0  0
  7  8  1  0  0  0  0
  8  9  1  0  0  0  0
  9 10  1  0  0  0  0
 10 11  1  0  0  0  0
 11 12  1  0  0  0  0
 12 13  1  0  0  0  0
 13 14  1  0  0  0  0
M  END
>  <CHROM.1>
179.46863810,-179.70596751,-97.46783064,-160.68900790,62.18761165,171.67440635
65.34925502,-147.84389866,115.13475863,66.81247951,-175.57660000,12.27393752
9.54442691,12.17497595,-1.52854414,0.28429917,2.26788616

>  <Name>
ligand

>  <RI>
0

>  <Rbt.Current_Directory>
/home/itssahil/PROJECTS/Mol_Feturizer/New_Systems/rnas/2O3Y

>  <Rbt.Executable>
rbdock ($Id: //depot/dev/client3/rdock/2013.1/src/exe/rbdock.cxx#4 $)

>  <Rbt.Library>
libRbt.so (2013.1, Build901 2013/11/27)

>  <Rbt.Parameter_File>
/export/apps/rDock/src/rDock_2013.1_src/data/scripts/dock_solv.prm

>  <Rbt.Receptor>
prm/pocket_docking_5.prm

>  <SCORE>
-8.32711

>  <SCORE.INTER>
1.14331

>  <SCORE.INTER.CONST>
1

>  <SCORE.INTER.POLAR>
0

>  <SCORE.INTER.ROT>
11

>  <SCORE.INTER.SOLV>
10.7289

>  <SCORE.INTER.VDW>
-13.7474

>  <SCORE.INTER.norm>
0.0816652

>  <SCORE.INTRA>
-9.47042

>  <SCORE.INTRA.DIHEDRAL>
-20.5041

>  <SCORE.INTRA.DIHEDRAL.0>
24.1231

>  <SCORE.INTRA.POLAR>
0

>  <SCORE.INTRA.POLAR.0>
0

>  <SCORE.INTRA.REPUL>
0

>  <SCORE.INTRA.REPUL.0>
0

>  <SCORE.INTRA.SOLV>
0.333839

>  <SCORE.INTRA.SOLV.lig_0>
-48.2216

>  <SCORE.INTRA.VDW>
0.614717

>  <SCORE.INTRA.VDW.0>
-1.3967

>  <SCORE.INTRA.norm>
-0.676459

>  <SCORE.RESTR>
0

>  <SCORE.RESTR.CAVITY>
0

>  <SCORE.RESTR.norm>
0

>  <SCORE.SYSTEM>
0

>  <SCORE.SYSTEM.CONST>
0

>  <SCORE.SYSTEM.DIHEDRAL>
0

>  <SCORE.SYSTEM.SOLV>
0

>  <SCORE.SYSTEM.norm>
0

>  <SCORE.heavy>
14

>  <SCORE.norm>
-0.594793

>  <RMSD>
4.710

$$$$
ligand
 OpenBabel11021811463D
libRbt.so/2013.1/901 2013/11/27
 14 13  0  0  0  0  0  0  0  0999 V2000
   15.5085   13.6356   12.0828 N   0  0  0  0  0  0  0  0  0  0  0  0
   16.4020   12.6101   12.6380 C   0  0  0  0  0  0  0  0  0  0  0  0
   16.0922   12.4190   14.1191 C   0  0  0  0  0  0  0  0  0  0  0  0
   17.0227   11.3550   14.6777 C   0  0  0  0  0  0  0  0  0  0  0  0
   16.7119   11.1469   16.0965 N   0  0  0  0  0  0  0  0  0  0  0  0
   15.7745   10.0126   16.1696 C   0  0  0  0  0  0  0  0  0  0  0  0
   14.4252   10.4643   16.7399 C   0  0  0  0  0  0  0  0  0  0  0  0
   14.6049   10.7426   18.2398 C   0  0  0  0  0  0  0  0  0  0  0  0
   13.3518   11.2616   18.8117 C   0  0  0  0  0  0  0  0  0  0  0  0
   13.1086   12.5923   18.2185 N   0  0  0  0  0  0  0  0  0  0  0  0
   11.7715   12.6005   17.4688 C   0  0  0  0  0  0  0  0  0  0  0  0
   11.5472   13.9762   16.8294 C   0  0  0  0  0  0  0  0  0  0  0  0
   10.2732   13.9775   16.0848 C   0  0  0  0  0  0  0  0  0  0  0  0
   10.3441   13.0031   14.9749 N   0  0  0  0  0  0  0  0  0  0  0  0
  1  2  1  0  0  0  0
  2  3  1  0  0  0  0
  3  4  1  0  0  0  0
  4  5  1  0  0  0  0
  5  6  1  0  0  0  0
  6  7  1  0  0  0  0
  7  8  1  0  0  0  0
  8  9  1  0  0  0  0
  9 10  1  0  0  0  0
 10 11  1  0  0  0  0
 11 12  1  0  0  0  0
 12 13  1  0  0  0  0
 13 14  1  0  0  0  0
M  END
>  <CHROM.1>
179.93541698,-178.88264606,94.61116129,-116.65688842,-71.92833866,176.43308099
-66.85185083,120.21315472,-178.63173941,178.88065930,-63.25481768,14.06708752
12.12817918,15.93963417,0.38544370,0.43125263,-1.10437365

>  <Name>
ligand

>  <RI>
0

>  <Rbt.Current_Directory>
/home/itssahil/PROJECTS/Mol_Feturizer/New_Systems/rnas/2O3Y

>  <Rbt.Executable>
rbdock ($Id: //depot/dev/client3/rdock/2013.1/src/exe/rbdock.cxx#4 $)

>  <Rbt.Library>
libRbt.so (2013.1, Build901 2013/11/27)

>  <Rbt.Parameter_File>
/export/apps/rDock/src/rDock_2013.1_src/data/scripts/dock_solv.prm

>  <Rbt.Receptor>
prm/pocket_docking_8.prm

>  <SCORE>
-10.1055

>  <SCORE.INTER>
-1.15143

>  <SCORE.INTER.CONST>
1

>  <SCORE.INTER.POLAR>
0

>  <SCORE.INTER.ROT>
11

>  <SCORE.INTER.SOLV>
9.03086

>  <SCORE.INTER.VDW>
-14.7112

>  <SCORE.INTER.norm>
-0.0822449

>  <SCORE.INTRA>
-8.95405

>  <SCORE.INTRA.DIHEDRAL>
-20.1879

>  <SCORE.INTRA.DIHEDRAL.0>
24.1231

>  <SCORE.INTRA.POLAR>
0

>  <SCORE.INTRA.POLAR.0>
0

>  <SCORE.INTRA.REPUL>
0

>  <SCORE.INTRA.REPUL.0>
0

>  <SCORE.INTRA.SOLV>
0.749141

>  <SCORE.INTRA.SOLV.lig_0>
-48.2216

>  <SCORE.INTRA.VDW>
0.765319

>  <SCORE.INTRA.VDW.0>
-1.3967

>  <SCORE.INTRA.norm>
-0.639575

>  <SCORE.RESTR>
0

>  <SCORE.RESTR.CAVITY>
0

>  <SCORE.RESTR.norm>
0

>  <SCORE.SYSTEM>
0

>  <SCORE.SYSTEM.CONST>
0

>  <SCORE.SYSTEM.DIHEDRAL>
0

>  <SCORE.SYSTEM.SOLV>
0

>  <SCORE.SYSTEM.norm>
0

>  <SCORE.heavy>
14

>  <SCORE.norm>
-0.72182

>  <RMSD>
4.710

$$$$
ligand
 OpenBabel11021811463D
libRbt.so/2013.1/901 2013/11/27
 14 13  0  0  0  0  0  0  0  0999 V2000
   10.3191   11.8376   16.9420 N   0  0  0  0  0  0  0  0  0  0  0  0
   11.3964   11.2131   17.7214 C   0  0  0  0  0  0  0  0  0  0  0  0
   12.5337   12.2131   17.9019 C   0  0  0  0  0  0  0  0  0  0  0  0
   13.6752   11.5255   18.6328 C   0  0  0  0  0  0  0  0  0  0  0  0
   14.1899   10.4359   17.7956 N   0  0  0  0  0  0  0  0  0  0  0  0
   15.3213   10.9824   17.0261 C   0  0  0  0  0  0  0  0  0  0  0  0
   15.7833    9.9805   15.9618 C   0  0  0  0  0  0  0  0  0  0  0  0
   17.0161   10.5633   15.2545 C   0  0  0  0  0  0  0  0  0  0  0  0
   17.4261    9.6848   14.1469 C   0  0  0  0  0  0  0  0  0  0  0  0
   18.6542   10.2551   13.5568 N   0  0  0  0  0  0  0  0  0  0  0  0
   18.7961    9.8086   12.0972 C   0  0  0  0  0  0  0  0  0  0  0  0
   20.0611   10.4266   11.4894 C   0  0  0  0  0  0  0  0  0  0  0  0
   20.0819   10.1880   10.0333 C   0  0  0  0  0  0  0  0  0  0  0  0
   20.3019    8.7501    9.7675 N   0  0  0  0  0  0  0  0  0  0  0  0
  1  2  1  0  0  0  0
  2  3  1  0  0  0  0
  3  4  1  0  0  0  0
  4  5  1  0  0  0  0
  5  6  1  0  0  0  0
  6  7  1  0  0  0  0
  7  8  1  0  0  0  0
  8  9  1  0  0  0  0
  9 10  1  0  0  0  0
 10 11  1  0  0  0  0
 11 12  1  0  0  0  0
 12 13  1  0  0  0  0
 13 14  1  0  0  0  0
M  END
>  <CHROM.1>
-176.46604968,63.70317658,93.98264181,-171.07300078,-176.41984689,-175.25442231
-176.88821436,-155.14537482,179.02689825,-170.53609165,-69.42015522,16.11127806
10.56185825,14.88064355,2.41193913,-0.20149205,1.54133700

>  <Name>
ligand

>  <RI>
0

>  <Rbt.Current_Directory>
/home/itssahil/PROJECTS/Mol_Feturizer/New_Systems/rnas/2O3Y

>  <Rbt.Executable>
rbdock ($Id: //depot/dev/client3/rdock/2013.1/src/exe/rbdock.cxx#4 $)

>  <Rbt.Library>
libRbt.so (2013.1, Build901 2013/11/27)

>  <Rbt.Parameter_File>
/export/apps/rDock/src/rDock_2013.1_src/data/scripts/dock_solv.prm

>  <Rbt.Receptor>
prm/pocket_docking_6.prm

>  <SCORE>
-11.386

>  <SCORE.INTER>
-1.30193

>  <SCORE.INTER.CONST>
1

>  <SCORE.INTER.POLAR>
0

>  <SCORE.INTER.ROT>
11

>  <SCORE.INTER.SOLV>
10.9077

>  <SCORE.INTER.VDW>
-15.4372

>  <SCORE.INTER.norm>
-0.0929949

>  <SCORE.INTRA>
-10.0841

>  <SCORE.INTRA.DIHEDRAL>
-21.9548

>  <SCORE.INTRA.DIHEDRAL.0>
24.1231

>  <SCORE.INTRA.POLAR>
0

>  <SCORE.INTRA.POLAR.0>
0

>  <SCORE.INTRA.REPUL>
0

>  <SCORE.INTRA.REPUL.0>
0

>  <SCORE.INTRA.SOLV>
0.227609

>  <SCORE.INTRA.SOLV.lig_0>
-48.2216

>  <SCORE.INTRA.VDW>
0.77951

>  <SCORE.INTRA.VDW.0>
-1.3967

>  <SCORE.INTRA.norm>
-0.720291

>  <SCORE.RESTR>
0

>  <SCORE.RESTR.CAVITY>
0

>  <SCORE.RESTR.norm>
0

>  <SCORE.SYSTEM>
0

>  <SCORE.SYSTEM.CONST>
0

>  <SCORE.SYSTEM.DIHEDRAL>
0

>  <SCORE.SYSTEM.SOLV>
0

>  <SCORE.SYSTEM.norm>
0

>  <SCORE.heavy>
14

>  <SCORE.norm>
-0.813286

>  <RMSD>
4.712

$$$$
ligand
 OpenBabel11021811463D
libRbt.so/2013.1/901 2013/11/27
 14 13  0  0  0  0  0  0  0  0999 V2000
   10.4160    9.7404   18.9873 N   0  0  0  0  0  0  0  0  0  0  0  0
   11.2178   10.6720   18.1827 C   0  0  0  0  0  0  0  0  0  0  0  0
   12.6949   10.3199   18.3255 C   0  0  0  0  0  0  0  0  0  0  0  0
   13.4920   11.1536   17.3357 C   0  0  0  0  0  0  0  0  0  0  0  0
   14.8984   10.7383   17.3862 N   0  0  0  0  0  0  0  0  0  0  0  0
   15.4766   11.0154   16.0597 C   0  0  0  0  0  0  0  0  0  0  0  0
   16.9606   10.6324   16.0279 C   0  0  0  0  0  0  0  0  0  0  0  0
   17.5429   11.0726   14.6763 C   0  0  0  0  0  0  0  0  0  0  0  0
   17.1383   10.1304   13.6202 C   0  0  0  0  0  0  0  0  0  0  0  0
   17.7970   10.5546   12.3681 N   0  0  0  0  0  0  0  0  0  0  0  0
   19.1944    9.9322   12.2687 C   0  0  0  0  0  0  0  0  0  0  0  0
   19.7862   10.2120   10.8819 C   0  0  0  0  0  0  0  0  0  0  0  0
   20.0965   11.6488   10.7535 C   0  0  0  0  0  0  0  0  0  0  0  0
   20.6768   11.9156    9.4198 N   0  0  0  0  0  0  0  0  0  0  0  0
  1  2  1  0  0  0  0
  2  3  1  0  0  0  0
  3  4  1  0  0  0  0
  4  5  1  0  0  0  0
  5  6  1  0  0  0  0
  6  7  1  0  0  0  0
  7  8  1  0  0  0  0
  8  9  1  0  0  0  0
  9 10  1  0  0  0  0
 10 11  1  0  0  0  0
 11 12  1  0  0  0  0
 12 13  1  0  0  0  0
 13 14  1  0  0  0  0
M  END
>  <CHROM.1>
171.77806484,-175.19130057,152.24229003,179.01348487,-174.33977605,-77.10040388
-176.38954359,86.90963297,171.88629725,69.42649122,179.56505199,16.24216007
10.69557689,14.73532351,2.38269162,0.11376083,1.52801262

>  <Name>
ligand

>  <RI>
0

>  <Rbt.Current_Directory>
/home/itssahil/PROJECTS/Mol_Feturizer/New_Systems/rnas/2O3Y

>  <Rbt.Executable>
rbdock ($Id: //depot/dev/client3/rdock/2013.1/src/exe/rbdock.cxx#4 $)

>  <Rbt.Library>
libRbt.so (2013.1, Build901 2013/11/27)

>  <Rbt.Parameter_File>
/export/apps/rDock/src/rDock_2013.1_src/data/scripts/dock_solv.prm

>  <Rbt.Receptor>
prm/pocket_docking_6.prm

>  <SCORE>
-9.50285

>  <SCORE.INTER>
0.0843274

>  <SCORE.INTER.CONST>
1

>  <SCORE.INTER.POLAR>
0

>  <SCORE.INTER.ROT>
11

>  <SCORE.INTER.SOLV>
6.56986

>  <SCORE.INTER.VDW>
-13.0671

>  <SCORE.INTER.norm>
0.00602338

>  <SCORE.INTRA>
-9.58717

>  <SCORE.INTRA.DIHEDRAL>
-21.0506

>  <SCORE.INTRA.DIHEDRAL.0>
24.1231

>  <SCORE.INTRA.POLAR>
0

>  <SCORE.INTRA.POLAR.0>
0

>  <SCORE.INTRA.REPUL>
0

>  <SCORE.INTRA.REPUL.0>
0

>  <SCORE.INTRA.SOLV>
-0.415862

>  <SCORE.INTRA.SOLV.lig_0>
-48.2216

>  <SCORE.INTRA.VDW>
1.14607

>  <SCORE.INTRA.VDW.0>
-1.3967

>  <SCORE.INTRA.norm>
-0.684798

>  <SCORE.RESTR>
0

>  <SCORE.RESTR.CAVITY>
0

>  <SCORE.RESTR.norm>
0

>  <SCORE.SYSTEM>
0

>  <SCORE.SYSTEM.CONST>
0

>  <SCORE.SYSTEM.DIHEDRAL>
0

>  <SCORE.SYSTEM.SOLV>
0

>  <SCORE.SYSTEM.norm>
0

>  <SCORE.heavy>
14

>  <SCORE.norm>
-0.678775

>  <RMSD>
4.723

$$$$
ligand
 OpenBabel11021811463D
libRbt.so/2013.1/901 2013/11/27
 14 13  0  0  0  0  0  0  0  0999 V2000
   11.0761    5.6337   16.8878 N   0  0  0  0  0  0  0  0  0  0  0  0
   11.0015    5.9437   15.4538 C   0  0  0  0  0  0  0  0  0  0  0  0
   10.4880    7.3682   15.2715 C   0  0  0  0  0  0  0  0  0  0  0  0
   10.4594    7.6889   13.7861 C   0  0  0  0  0  0  0  0  0  0  0  0
    9.8545    9.0121   13.5955 N   0  0  0  0  0  0  0  0  0  0  0  0
    9.9771    9.3390   12.1641 C   0  0  0  0  0  0  0  0  0  0  0  0
   10.8722   10.5677   11.9666 C   0  0  0  0  0  0  0  0  0  0  0  0
   10.9990   10.8341   10.4591 C   0  0  0  0  0  0  0  0  0  0  0  0
   11.8909   11.9807   10.2213 C   0  0  0  0  0  0  0  0  0  0  0  0
   11.9858   12.1761    8.7603 N   0  0  0  0  0  0  0  0  0  0  0  0
   13.0340   13.2470    8.4371 C   0  0  0  0  0  0  0  0  0  0  0  0
   14.1585   12.6308    7.5961 C   0  0  0  0  0  0  0  0  0  0  0  0
   15.1577   13.6652    7.2660 C   0  0  0  0  0  0  0  0  0  0  0  0
   15.8528   14.0971    8.4976 N   0  0  0  0  0  0  0  0  0  0  0  0
  1  2  1  0  0  0  0
  2  3  1  0  0  0  0
  3  4  1  0  0  0  0
  4  5  1  0  0  0  0
  5  6  1  0  0  0  0
  6  7  1  0  0  0  0
  7  8  1  0  0  0  0
  8  9  1  0  0  0  0
  9 10  1  0  0  0  0
 10 11  1  0  0  0  0
 11 12  1  0  0  0  0
 12 13  1  0  0  0  0
 13 14  1  0  0  0  0
M  END
>  <CHROM.1>
178.18551379,174.99516777,174.16660515,-116.26146921,178.25406277,-178.02774533
179.31481103,-173.12257398,118.39754277,179.10960156,67.22510948,11.91470775
10.29890741,11.45429460,-1.92946405,-0.02556151,-0.85019790

>  <Name>
ligand

>  <RI>
0

>  <Rbt.Current_Directory>
/home/itssahil/PROJECTS/Mol_Feturizer/New_Systems/rnas/2O3Y

>  <Rbt.Executable>
rbdock ($Id: //depot/dev/client3/rdock/2013.1/src/exe/rbdock.cxx#4 $)

>  <Rbt.Library>
libRbt.so (2013.1, Build901 2013/11/27)

>  <Rbt.Parameter_File>
/export/apps/rDock/src/rDock_2013.1_src/data/scripts/dock_solv.prm

>  <Rbt.Receptor>
prm/pocket_docking_8.prm

>  <SCORE>
-10.6978

>  <SCORE.INTER>
-0.230337

>  <SCORE.INTER.CONST>
1

>  <SCORE.INTER.POLAR>
0

>  <SCORE.INTER.ROT>
11

>  <SCORE.INTER.SOLV>
6.62601

>  <SCORE.INTER.VDW>
-13.2956

>  <SCORE.INTER.norm>
-0.0164526

>  <SCORE.INTRA>
-10.4675

>  <SCORE.INTRA.DIHEDRAL>
-21.336

>  <SCORE.INTRA.DIHEDRAL.0>
24.1231

>  <SCORE.INTRA.POLAR>
0

>  <SCORE.INTRA.POLAR.0>
0

>  <SCORE.INTRA.REPUL>
0

>  <SCORE.INTRA.REPUL.0>
0

>  <SCORE.INTRA.SOLV>
-0.22773

>  <SCORE.INTRA.SOLV.lig_0>
-48.2216

>  <SCORE.INTRA.VDW>
0.314383

>  <SCORE.INTRA.VDW.0>
-1.3967

>  <SCORE.INTRA.norm>
-0.747677

>  <SCORE.RESTR>
0

>  <SCORE.RESTR.CAVITY>
0

>  <SCORE.RESTR.norm>
0

>  <SCORE.SYSTEM>
0

>  <SCORE.SYSTEM.CONST>
0

>  <SCORE.SYSTEM.DIHEDRAL>
0

>  <SCORE.SYSTEM.SOLV>
0

>  <SCORE.SYSTEM.norm>
0

>  <SCORE.heavy>
14

>  <SCORE.norm>
-0.76413

>  <RMSD>
4.735

$$$$
ligand
 OpenBabel11021811463D
libRbt.so/2013.1/901 2013/11/27
 14 13  0  0  0  0  0  0  0  0999 V2000
   13.4153    6.4056   16.4547 N   0  0  0  0  0  0  0  0  0  0  0  0
   12.6967    6.7480   15.2200 C   0  0  0  0  0  0  0  0  0  0  0  0
   11.2007    6.8161   15.5092 C   0  0  0  0  0  0  0  0  0  0  0  0
   10.4727    7.1794   14.2254 C   0  0  0  0  0  0  0  0  0  0  0  0
   10.8613    8.5363   13.8245 N   0  0  0  0  0  0  0  0  0  0  0  0
   10.2832    8.7728   12.4901 C   0  0  0  0  0  0  0  0  0  0  0  0
   10.7883   10.0993   11.9111 C   0  0  0  0  0  0  0  0  0  0  0  0
   10.1165   10.3165   10.5470 C   0  0  0  0  0  0  0  0  0  0  0  0
   10.5423   11.6031    9.9725 C   0  0  0  0  0  0  0  0  0  0  0  0
   11.9793   11.4931    9.6491 N   0  0  0  0  0  0  0  0  0  0  0  0
   12.4004   12.6348    8.7169 C   0  0  0  0  0  0  0  0  0  0  0  0
   13.9219   12.6113    8.5272 C   0  0  0  0  0  0  0  0  0  0  0  0
   14.3149   11.3862    7.8047 C   0  0  0  0  0  0  0  0  0  0  0  0
   15.7886   11.3200    7.7015 N   0  0  0  0  0  0  0  0  0  0  0  0
  1  2  1  0  0  0  0
  2  3  1  0  0  0  0
  3  4  1  0  0  0  0
  4  5  1  0  0  0  0
  5  6  1  0  0  0  0
  6  7  1  0  0  0  0
  7  8  1  0  0  0  0
  8  9  1  0  0  0  0
  9 10  1  0  0  0  0
 10 11  1  0  0  0  0
 11 12  1  0  0  0  0
 12 13  1  0  0  0  0
 13 14  1  0  0  0  0
M  END
>  <CHROM.1>
179.65230243,-65.29868335,172.33201096,-172.66665865,-178.00505546,178.24148958
67.31069026,164.83886618,173.08404808,65.96666467,-176.25521342,12.05548611
9.70886750,11.61087545,-1.78301525,0.15510127,-0.90912086

>  <Name>
ligand

>  <RI>
0

>  <Rbt.Current_Directory>
/home/itssahil/PROJECTS/Mol_Feturizer/New_Systems/rnas/2O3Y

>  <Rbt.Executable>
rbdock ($Id: //depot/dev/client3/rdock/2013.1/src/exe/rbdock.cxx#4 $)

>  <Rbt.Library>
libRbt.so (2013.1, Build901 2013/11/27)

>  <Rbt.Parameter_File>
/export/apps/rDock/src/rDock_2013.1_src/data/scripts/dock_solv.prm

>  <Rbt.Receptor>
prm/pocket_docking_5.prm

>  <SCORE>
-10.1759

>  <SCORE.INTER>
0.739322

>  <SCORE.INTER.CONST>
1

>  <SCORE.INTER.POLAR>
0

>  <SCORE.INTER.ROT>
11

>  <SCORE.INTER.SOLV>
7.43157

>  <SCORE.INTER.VDW>
-12.9176

>  <SCORE.INTER.norm>
0.0528087

>  <SCORE.INTRA>
-10.9153

>  <SCORE.INTRA.DIHEDRAL>
-23.2932

>  <SCORE.INTRA.DIHEDRAL.0>
24.1231

>  <SCORE.INTRA.POLAR>
0

>  <SCORE.INTRA.POLAR.0>
0

>  <SCORE.INTRA.REPUL>
0

>  <SCORE.INTRA.REPUL.0>
0

>  <SCORE.INTRA.SOLV>
0.387118

>  <SCORE.INTRA.SOLV.lig_0>
-48.2216

>  <SCORE.INTRA.VDW>
0.537799

>  <SCORE.INTRA.VDW.0>
-1.3967

>  <SCORE.INTRA.norm>
-0.779661

>  <SCORE.RESTR>
0

>  <SCORE.RESTR.CAVITY>
0

>  <SCORE.RESTR.norm>
0

>  <SCORE.SYSTEM>
0

>  <SCORE.SYSTEM.CONST>
0

>  <SCORE.SYSTEM.DIHEDRAL>
0

>  <SCORE.SYSTEM.SOLV>
0

>  <SCORE.SYSTEM.norm>
0

>  <SCORE.heavy>
14

>  <SCORE.norm>
-0.726852

>  <RMSD>
4.736

$$$$
ligand
 OpenBabel11021811463D
libRbt.so/2013.1/901 2013/11/27
 14 13  0  0  0  0  0  0  0  0999 V2000
   14.2564   13.1438    7.8631 N   0  0  0  0  0  0  0  0  0  0  0  0
   12.8965   12.9170    8.3704 C   0  0  0  0  0  0  0  0  0  0  0  0
   12.8609   11.6070    9.1507 C   0  0  0  0  0  0  0  0  0  0  0  0
   11.4931   11.4626    9.7975 C   0  0  0  0  0  0  0  0  0  0  0  0
   11.4748   10.2385   10.6062 N   0  0  0  0  0  0  0  0  0  0  0  0
   10.1250   10.1261   11.1860 C   0  0  0  0  0  0  0  0  0  0  0  0
   10.1994    9.6189   12.6307 C   0  0  0  0  0  0  0  0  0  0  0  0
   10.4677    8.1068   12.5972 C   0  0  0  0  0  0  0  0  0  0  0  0
   10.5416    7.5757   13.9680 C   0  0  0  0  0  0  0  0  0  0  0  0
   11.8270    8.0154   14.5478 N   0  0  0  0  0  0  0  0  0  0  0  0
   12.6873    6.7993   14.9097 C   0  0  0  0  0  0  0  0  0  0  0  0
   14.1409    7.2401   15.1204 C   0  0  0  0  0  0  0  0  0  0  0  0
   14.2239    8.1425   16.2850 C   0  0  0  0  0  0  0  0  0  0  0  0
   15.5930    8.6907   16.3935 N   0  0  0  0  0  0  0  0  0  0  0  0
  1  2  1  0  0  0  0
  2  3  1  0  0  0  0
  3  4  1  0  0  0  0
  4  5  1  0  0  0  0
  5  6  1  0  0  0  0
  6  7  1  0  0  0  0
  7  8  1  0  0  0  0
  8  9  1  0  0  0  0
  9 10  1  0  0  0  0
 10 11  1  0  0  0  0
 11 12  1  0  0  0  0
 12 13  1  0  0  0  0
 13 14  1  0  0  0  0
M  END
>  <CHROM.1>
173.78680702,-177.11832195,-178.75037339,-140.63405164,-76.74676525,-179.77318594
-73.56289549,-118.73617142,163.69046872,64.56549946,-173.46806981,12.34157290
9.54868713,12.38760237,-1.66432404,0.29565499,2.19891518

>  <Name>
ligand

>  <RI>
0

>  <Rbt.Current_Directory>
/home/itssahil/PROJECTS/Mol_Feturizer/New_Systems/rnas/2O3Y

>  <Rbt.Executable>
rbdock ($Id: //depot/dev/client3/rdock/2013.1/src/exe/rbdock.cxx#4 $)

>  <Rbt.Library>
libRbt.so (2013.1, Build901 2013/11/27)

>  <Rbt.Parameter_File>
/export/apps/rDock/src/rDock_2013.1_src/data/scripts/dock_solv.prm

>  <Rbt.Receptor>
prm/pocket_docking_4.prm

>  <SCORE>
-8.569

>  <SCORE.INTER>
0.8936

>  <SCORE.INTER.CONST>
1

>  <SCORE.INTER.POLAR>
0

>  <SCORE.INTER.ROT>
11

>  <SCORE.INTER.SOLV>
8.60104

>  <SCORE.INTER.VDW>
-13.2046

>  <SCORE.INTER.norm>
0.0638286

>  <SCORE.INTRA>
-9.4626

>  <SCORE.INTRA.DIHEDRAL>
-19.7581

>  <SCORE.INTRA.DIHEDRAL.0>
24.1231

>  <SCORE.INTRA.POLAR>
0

>  <SCORE.INTRA.POLAR.0>
0

>  <SCORE.INTRA.REPUL>
0

>  <SCORE.INTRA.REPUL.0>
0

>  <SCORE.INTRA.SOLV>
0.259524

>  <SCORE.INTRA.SOLV.lig_0>
-48.2216

>  <SCORE.INTRA.VDW>
0.286687

>  <SCORE.INTRA.VDW.0>
-1.3967

>  <SCORE.INTRA.norm>
-0.6759

>  <SCORE.RESTR>
0

>  <SCORE.RESTR.CAVITY>
0

>  <SCORE.RESTR.norm>
0

>  <SCORE.SYSTEM>
0

>  <SCORE.SYSTEM.CONST>
0

>  <SCORE.SYSTEM.DIHEDRAL>
0

>  <SCORE.SYSTEM.SOLV>
0

>  <SCORE.SYSTEM.norm>
0

>  <SCORE.heavy>
14

>  <SCORE.norm>
-0.612071

>  <RMSD>
4.741

$$$$
ligand
 OpenBabel11021811463D
libRbt.so/2013.1/901 2013/11/27
 14 13  0  0  0  0  0  0  0  0999 V2000
   19.2012   12.7125    5.4854 N   0  0  0  0  0  0  0  0  0  0  0  0
   18.1159   13.6002    5.9240 C   0  0  0  0  0  0  0  0  0  0  0  0
   16.9268   12.7585    6.3755 C   0  0  0  0  0  0  0  0  0  0  0  0
   15.8272   13.6894    6.8596 C   0  0  0  0  0  0  0  0  0  0  0  0
   14.7164   12.8849    7.3810 N   0  0  0  0  0  0  0  0  0  0  0  0
   13.7027   13.8273    7.8859 C   0  0  0  0  0  0  0  0  0  0  0  0
   12.3652   13.1120    8.1084 C   0  0  0  0  0  0  0  0  0  0  0  0
   12.4952   12.2243    9.3553 C   0  0  0  0  0  0  0  0  0  0  0  0
   11.1932   11.6224    9.6858 C   0  0  0  0  0  0  0  0  0  0  0  0
   11.3784   10.7964   10.8962 N   0  0  0  0  0  0  0  0  0  0  0  0
   10.1009   10.0039   11.1959 C   0  0  0  0  0  0  0  0  0  0  0  0
   10.1579    9.4553   12.6267 C   0  0  0  0  0  0  0  0  0  0  0  0
   11.2205    8.4364   12.7276 C   0  0  0  0  0  0  0  0  0  0  0  0
   11.2197    7.8486   14.0844 N   0  0  0  0  0  0  0  0  0  0  0  0
  1  2  1  0  0  0  0
  2  3  1  0  0  0  0
  3  4  1  0  0  0  0
  4  5  1  0  0  0  0
  5  6  1  0  0  0  0
  6  7  1  0  0  0  0
  7  8  1  0  0  0  0
  8  9  1  0  0  0  0
  9 10  1  0  0  0  0
 10 11  1  0  0  0  0
 11 12  1  0  0  0  0
 12 13  1  0  0  0  0
 13 14  1  0  0  0  0
M  END
>  <CHROM.1>
178.54580904,-176.16329390,177.77673751,165.10374680,72.99448726,174.32119487
-179.37931121,-173.07469041,-164.87886160,-67.21492089,-176.53213422,13.47267549
11.64109420,9.18500880,-0.81240450,-0.28952937,2.41138924

>  <Name>
ligand

>  <RI>
0

>  <Rbt.Current_Directory>
/home/itssahil/PROJECTS/Mol_Feturizer/New_Systems/rnas/2O3Y

>  <Rbt.Executable>
rbdock ($Id: //depot/dev/client3/rdock/2013.1/src/exe/rbdock.cxx#4 $)

>  <Rbt.Library>
libRbt.so (2013.1, Build901 2013/11/27)

>  <Rbt.Parameter_File>
/export/apps/rDock/src/rDock_2013.1_src/data/scripts/dock_solv.prm

>  <Rbt.Receptor>
prm/pocket_docking_6.prm

>  <SCORE>
-10.0618

>  <SCORE.INTER>
1.21223

>  <SCORE.INTER.CONST>
1

>  <SCORE.INTER.POLAR>
0

>  <SCORE.INTER.ROT>
11

>  <SCORE.INTER.SOLV>
6.22969

>  <SCORE.INTER.VDW>
-12.2017

>  <SCORE.INTER.norm>
0.0865878

>  <SCORE.INTRA>
-11.274

>  <SCORE.INTRA.DIHEDRAL>
-22.6744

>  <SCORE.INTRA.DIHEDRAL.0>
24.1231

>  <SCORE.INTRA.POLAR>
0

>  <SCORE.INTRA.POLAR.0>
0

>  <SCORE.INTRA.REPUL>
0

>  <SCORE.INTRA.REPUL.0>
0

>  <SCORE.INTRA.SOLV>
-0.249847

>  <SCORE.INTRA.SOLV.lig_0>
-48.2216

>  <SCORE.INTRA.VDW>
0.18812

>  <SCORE.INTRA.VDW.0>
-1.3967

>  <SCORE.INTRA.norm>
-0.805285

>  <SCORE.RESTR>
0

>  <SCORE.RESTR.CAVITY>
0

>  <SCORE.RESTR.norm>
0

>  <SCORE.SYSTEM>
0

>  <SCORE.SYSTEM.CONST>
0

>  <SCORE.SYSTEM.DIHEDRAL>
0

>  <SCORE.SYSTEM.SOLV>
0

>  <SCORE.SYSTEM.norm>
0

>  <SCORE.heavy>
14

>  <SCORE.norm>
-0.718697

>  <RMSD>
4.759

$$$$
ligand
 OpenBabel11021811463D
libRbt.so/2013.1/901 2013/11/27
 14 13  0  0  0  0  0  0  0  0999 V2000
   16.0704   12.8343    7.2587 N   0  0  0  0  0  0  0  0  0  0  0  0
   14.7068   13.1792    7.6826 C   0  0  0  0  0  0  0  0  0  0  0  0
   14.0774   11.9797    8.3834 C   0  0  0  0  0  0  0  0  0  0  0  0
   12.6863   12.3674    8.8573 C   0  0  0  0  0  0  0  0  0  0  0  0
   12.1041   11.2426    9.5981 N   0  0  0  0  0  0  0  0  0  0  0  0
   10.7031   11.5962    9.8859 C   0  0  0  0  0  0  0  0  0  0  0  0
    9.9335   10.3743   10.4003 C   0  0  0  0  0  0  0  0  0  0  0  0
   10.4289   10.0550   11.8188 C   0  0  0  0  0  0  0  0  0  0  0  0
    9.6306    8.9632   12.3997 C   0  0  0  0  0  0  0  0  0  0  0  0
   10.0292    8.8237   13.8151 N   0  0  0  0  0  0  0  0  0  0  0  0
   10.5168    7.3964   14.0888 C   0  0  0  0  0  0  0  0  0  0  0  0
   11.5905    7.4191   15.1834 C   0  0  0  0  0  0  0  0  0  0  0  0
   12.0241    6.0412   15.4844 C   0  0  0  0  0  0  0  0  0  0  0  0
   13.0154    6.0595   16.5816 N   0  0  0  0  0  0  0  0  0  0  0  0
  1  2  1  0  0  0  0
  2  3  1  0  0  0  0
  3  4  1  0  0  0  0
  4  5  1  0  0  0  0
  5  6  1  0  0  0  0
  6  7  1  0  0  0  0
  7  8  1  0  0  0  0
  8  9  1  0  0  0  0
  9 10  1  0  0  0  0
 10 11  1  0  0  0  0
 11 12  1  0  0  0  0
 12 13  1  0  0  0  0
 13 14  1  0  0  0  0
M  END
>  <CHROM.1>
178.09235300,-176.86356125,-172.91104162,168.37876166,71.20229482,174.85948225
-172.60755106,-122.77963654,148.73315378,177.85694538,-177.49674340,11.96515210
9.88091387,11.53118375,-1.28741343,-0.04744351,2.25162717

>  <Name>
ligand

>  <RI>
0

>  <Rbt.Current_Directory>
/home/itssahil/PROJECTS/Mol_Feturizer/New_Systems/rnas/2O3Y

>  <Rbt.Executable>
rbdock ($Id: //depot/dev/client3/rdock/2013.1/src/exe/rbdock.cxx#4 $)

>  <Rbt.Library>
libRbt.so (2013.1, Build901 2013/11/27)

>  <Rbt.Parameter_File>
/export/apps/rDock/src/rDock_2013.1_src/data/scripts/dock_solv.prm

>  <Rbt.Receptor>
prm/pocket_docking_5.prm

>  <SCORE>
-11.3279

>  <SCORE.INTER>
-0.491852

>  <SCORE.INTER.CONST>
1

>  <SCORE.INTER.POLAR>
0

>  <SCORE.INTER.ROT>
11

>  <SCORE.INTER.SOLV>
7.80658

>  <SCORE.INTER.VDW>
-13.8634

>  <SCORE.INTER.norm>
-0.0351323

>  <SCORE.INTRA>
-10.8361

>  <SCORE.INTRA.DIHEDRAL>
-21.2735

>  <SCORE.INTRA.DIHEDRAL.0>
24.1231

>  <SCORE.INTRA.POLAR>
0

>  <SCORE.INTRA.POLAR.0>
0

>  <SCORE.INTRA.REPUL>
0

>  <SCORE.INTRA.REPUL.0>
0

>  <SCORE.INTRA.SOLV>
-0.623782

>  <SCORE.INTRA.SOLV.lig_0>
-48.2216

>  <SCORE.INTRA.VDW>
0.112594

>  <SCORE.INTRA.VDW.0>
-1.3967

>  <SCORE.INTRA.norm>
-0.774004

>  <SCORE.RESTR>
0

>  <SCORE.RESTR.CAVITY>
0

>  <SCORE.RESTR.norm>
0

>  <SCORE.SYSTEM>
0

>  <SCORE.SYSTEM.CONST>
0

>  <SCORE.SYSTEM.DIHEDRAL>
0

>  <SCORE.SYSTEM.SOLV>
0

>  <SCORE.SYSTEM.norm>
0

>  <SCORE.heavy>
14

>  <SCORE.norm>
-0.809137

>  <RMSD>
4.783

$$$$
ligand
 OpenBabel11021811463D
libRbt.so/2013.1/901 2013/11/27
 14 13  0  0  0  0  0  0  0  0999 V2000
   21.0329    9.1163    8.9970 N   0  0  0  0  0  0  0  0  0  0  0  0
   20.1839    8.6981   10.1205 C   0  0  0  0  0  0  0  0  0  0  0  0
   19.5755    9.9316   10.7798 C   0  0  0  0  0  0  0  0  0  0  0  0
   18.6548    9.4799   11.9016 C   0  0  0  0  0  0  0  0  0  0  0  0
   18.0119   10.6581   12.4945 N   0  0  0  0  0  0  0  0  0  0  0  0
   17.2435   10.1878   13.6603 C   0  0  0  0  0  0  0  0  0  0  0  0
   17.4263   11.1413   14.8466 C   0  0  0  0  0  0  0  0  0  0  0  0
   16.6872   10.5515   16.0571 C   0  0  0  0  0  0  0  0  0  0  0  0
   15.2455   10.8302   15.9545 C   0  0  0  0  0  0  0  0  0  0  0  0
   14.6029   10.3112   17.1790 N   0  0  0  0  0  0  0  0  0  0  0  0
   14.5353   11.4091   18.2467 C   0  0  0  0  0  0  0  0  0  0  0  0
   13.1588   11.3875   18.9223 C   0  0  0  0  0  0  0  0  0  0  0  0
   12.1315   11.8619   17.9751 C   0  0  0  0  0  0  0  0  0  0  0  0
   11.8841   10.8263   16.9490 N   0  0  0  0  0  0  0  0  0  0  0  0
  1  2  1  0  0  0  0
  2  3  1  0  0  0  0
  3  4  1  0  0  0  0
  4  5  1  0  0  0  0
  5  6  1  0  0  0  0
  6  7  1  0  0  0  0
  7  8  1  0  0  0  0
  8  9  1  0  0  0  0
  9 10  1  0  0  0  0
 10 11  1  0  0  0  0
 11 12  1  0  0  0  0
 12 13  1  0  0  0  0
 13 14  1  0  0  0  0
M  END
>  <CHROM.1>
177.63999392,-177.06983651,-174.22036667,137.22811161,-176.05323634,-79.61485356
-176.73169813,91.67770118,136.83080841,-70.24726634,72.98749512,16.45532319
10.45656863,14.57770585,0.85543556,-0.01802589,-1.82727944

>  <Name>
ligand

>  <RI>
0

>  <Rbt.Current_Directory>
/home/itssahil/PROJECTS/Mol_Feturizer/New_Systems/rnas/2O3Y

>  <Rbt.Executable>
rbdock ($Id: //depot/dev/client3/rdock/2013.1/src/exe/rbdock.cxx#4 $)

>  <Rbt.Library>
libRbt.so (2013.1, Build901 2013/11/27)

>  <Rbt.Parameter_File>
/export/apps/rDock/src/rDock_2013.1_src/data/scripts/dock_solv.prm

>  <Rbt.Receptor>
prm/pocket_docking_8.prm

>  <SCORE>
-10.5816

>  <SCORE.INTER>
-3.43503

>  <SCORE.INTER.CONST>
1

>  <SCORE.INTER.POLAR>
0

>  <SCORE.INTER.ROT>
11

>  <SCORE.INTER.SOLV>
6.37435

>  <SCORE.INTER.VDW>
-15.3481

>  <SCORE.INTER.norm>
-0.245359

>  <SCORE.INTRA>
-7.14654

>  <SCORE.INTRA.DIHEDRAL>
-18.8583

>  <SCORE.INTRA.DIHEDRAL.0>
24.1231

>  <SCORE.INTRA.POLAR>
0

>  <SCORE.INTRA.POLAR.0>
0

>  <SCORE.INTRA.REPUL>
0

>  <SCORE.INTRA.REPUL.0>
0

>  <SCORE.INTRA.SOLV>
2.66317

>  <SCORE.INTRA.SOLV.lig_0>
-48.2216

>  <SCORE.INTRA.VDW>
0.951049

>  <SCORE.INTRA.VDW.0>
-1.3967

>  <SCORE.INTRA.norm>
-0.510467

>  <SCORE.RESTR>
0

>  <SCORE.RESTR.CAVITY>
0

>  <SCORE.RESTR.norm>
0

>  <SCORE.SYSTEM>
0

>  <SCORE.SYSTEM.CONST>
0

>  <SCORE.SYSTEM.DIHEDRAL>
0

>  <SCORE.SYSTEM.SOLV>
0

>  <SCORE.SYSTEM.norm>
0

>  <SCORE.heavy>
14

>  <SCORE.norm>
-0.755826

>  <RMSD>
4.797

$$$$
ligand
 OpenBabel11021811463D
libRbt.so/2013.1/901 2013/11/27
 14 13  0  0  0  0  0  0  0  0999 V2000
   10.2749    7.2573   14.1271 N   0  0  0  0  0  0  0  0  0  0  0  0
   10.0513    7.8469   12.8002 C   0  0  0  0  0  0  0  0  0  0  0  0
   10.6439    9.2518   12.7658 C   0  0  0  0  0  0  0  0  0  0  0  0
   10.4101    9.8451   11.3861 C   0  0  0  0  0  0  0  0  0  0  0  0
   11.0575   11.1600   11.3165 N   0  0  0  0  0  0  0  0  0  0  0  0
   11.2131   11.4878    9.8885 C   0  0  0  0  0  0  0  0  0  0  0  0
   12.3785   12.4622    9.6830 C   0  0  0  0  0  0  0  0  0  0  0  0
   12.3829   12.9047    8.2121 C   0  0  0  0  0  0  0  0  0  0  0  0
   13.4878   13.8468    7.9705 C   0  0  0  0  0  0  0  0  0  0  0  0
   14.7528   13.1116    8.1730 N   0  0  0  0  0  0  0  0  0  0  0  0
   15.7070   13.3685    7.0011 C   0  0  0  0  0  0  0  0  0  0  0  0
   16.7536   14.4130    7.4076 C   0  0  0  0  0  0  0  0  0  0  0  0
   17.6035   14.7441    6.2476 C   0  0  0  0  0  0  0  0  0  0  0  0
   16.7907   15.4142    5.2099 N   0  0  0  0  0  0  0  0  0  0  0  0
  1  2  1  0  0  0  0
  2  3  1  0  0  0  0
  3  4  1  0  0  0  0
  4  5  1  0  0  0  0
  5  6  1  0  0  0  0
  6  7  1  0  0  0  0
  7  8  1  0  0  0  0
  8  9  1  0  0  0  0
  9 10  1  0  0  0  0
 10 11  1  0  0  0  0
 11 12  1  0  0  0  0
 12 13  1  0  0  0  0
 13 14  1  0  0  0  0
M  END
>  <CHROM.1>
179.74548401,-176.17287375,161.05198949,-154.59674977,-172.97025979,179.86388487
65.17449615,131.74777136,100.81586319,-175.34203902,65.59689986,13.10763950
11.93678747,9.44196814,-2.19426907,0.11564687,-0.73534476

>  <Name>
ligand

>  <RI>
0

>  <Rbt.Current_Directory>
/home/itssahil/PROJECTS/Mol_Feturizer/New_Systems/rnas/2O3Y

>  <Rbt.Executable>
rbdock ($Id: //depot/dev/client3/rdock/2013.1/src/exe/rbdock.cxx#4 $)

>  <Rbt.Library>
libRbt.so (2013.1, Build901 2013/11/27)

>  <Rbt.Parameter_File>
/export/apps/rDock/src/rDock_2013.1_src/data/scripts/dock_solv.prm

>  <Rbt.Receptor>
prm/pocket_docking_7.prm

>  <SCORE>
-8.70316

>  <SCORE.INTER>
0.865049

>  <SCORE.INTER.CONST>
1

>  <SCORE.INTER.POLAR>
0

>  <SCORE.INTER.ROT>
11

>  <SCORE.INTER.SOLV>
13.7931

>  <SCORE.INTER.VDW>
-14.9543

>  <SCORE.INTER.norm>
0.0617892

>  <SCORE.INTRA>
-9.56821

>  <SCORE.INTRA.DIHEDRAL>
-20.8419

>  <SCORE.INTRA.DIHEDRAL.0>
24.1231

>  <SCORE.INTRA.POLAR>
0

>  <SCORE.INTRA.POLAR.0>
0

>  <SCORE.INTRA.REPUL>
0

>  <SCORE.INTRA.REPUL.0>
0

>  <SCORE.INTRA.SOLV>
0.425103

>  <SCORE.INTRA.SOLV.lig_0>
-48.2216

>  <SCORE.INTRA.VDW>
0.640191

>  <SCORE.INTRA.VDW.0>
-1.3967

>  <SCORE.INTRA.norm>
-0.683443

>  <SCORE.RESTR>
0

>  <SCORE.RESTR.CAVITY>
0

>  <SCORE.RESTR.norm>
0

>  <SCORE.SYSTEM>
0

>  <SCORE.SYSTEM.CONST>
0

>  <SCORE.SYSTEM.DIHEDRAL>
0

>  <SCORE.SYSTEM.SOLV>
0

>  <SCORE.SYSTEM.norm>
0

>  <SCORE.heavy>
14

>  <SCORE.norm>
-0.621654

>  <RMSD>
4.807

$$$$
ligand
 OpenBabel11021811463D
libRbt.so/2013.1/901 2013/11/27
 14 13  0  0  0  0  0  0  0  0999 V2000
   10.3271    7.2475   14.0613 N   0  0  0  0  0  0  0  0  0  0  0  0
   10.0432    7.9978   12.8306 C   0  0  0  0  0  0  0  0  0  0  0  0
   11.1485    9.0227   12.5980 C   0  0  0  0  0  0  0  0  0  0  0  0
   10.8117    9.8280   11.3538 C   0  0  0  0  0  0  0  0  0  0  0  0
   11.8187   10.8810   11.1801 N   0  0  0  0  0  0  0  0  0  0  0  0
   11.6126   11.4564    9.8396 C   0  0  0  0  0  0  0  0  0  0  0  0
   12.7700   12.3914    9.4705 C   0  0  0  0  0  0  0  0  0  0  0  0
   12.4658   13.0174    8.1012 C   0  0  0  0  0  0  0  0  0  0  0  0
   13.5043   14.0006    7.7525 C   0  0  0  0  0  0  0  0  0  0  0  0
   14.7508   13.2555    7.4827 N   0  0  0  0  0  0  0  0  0  0  0  0
   15.7097   14.1134    6.6493 C   0  0  0  0  0  0  0  0  0  0  0  0
   17.1204   13.5150    6.7077 C   0  0  0  0  0  0  0  0  0  0  0  0
   18.0464   14.3440    5.9123 C   0  0  0  0  0  0  0  0  0  0  0  0
   19.4121   13.7828    5.9936 N   0  0  0  0  0  0  0  0  0  0  0  0
  1  2  1  0  0  0  0
  2  3  1  0  0  0  0
  3  4  1  0  0  0  0
  4  5  1  0  0  0  0
  5  6  1  0  0  0  0
  6  7  1  0  0  0  0
  7  8  1  0  0  0  0
  8  9  1  0  0  0  0
  9 10  1  0  0  0  0
 10 11  1  0  0  0  0
 11 12  1  0  0  0  0
 12 13  1  0  0  0  0
 13 14  1  0  0  0  0
M  END
>  <CHROM.1>
-177.72428409,175.85107372,169.00800310,-169.97961208,-177.03378873,175.79063943
69.49711057,159.79567188,164.12282557,-179.67662224,178.76352000,13.53845873
11.77545395,9.28077183,-2.26801621,0.20312672,-0.70178888

>  <Name>
ligand

>  <RI>
0

>  <Rbt.Current_Directory>
/home/itssahil/PROJECTS/Mol_Feturizer/New_Systems/rnas/2O3Y

>  <Rbt.Executable>
rbdock ($Id: //depot/dev/client3/rdock/2013.1/src/exe/rbdock.cxx#4 $)

>  <Rbt.Library>
libRbt.so (2013.1, Build901 2013/11/27)

>  <Rbt.Parameter_File>
/export/apps/rDock/src/rDock_2013.1_src/data/scripts/dock_solv.prm

>  <Rbt.Receptor>
prm/pocket_docking_6.prm

>  <SCORE>
-10.5431

>  <SCORE.INTER>
0.956909

>  <SCORE.INTER.CONST>
1

>  <SCORE.INTER.POLAR>
0

>  <SCORE.INTER.ROT>
11

>  <SCORE.INTER.SOLV>
8.19373

>  <SCORE.INTER.VDW>
-13.0266

>  <SCORE.INTER.norm>
0.0683507

>  <SCORE.INTRA>
-11.5

>  <SCORE.INTRA.DIHEDRAL>
-22.9124

>  <SCORE.INTRA.DIHEDRAL.0>
24.1231

>  <SCORE.INTRA.POLAR>
0

>  <SCORE.INTRA.POLAR.0>
0

>  <SCORE.INTRA.REPUL>
0

>  <SCORE.INTRA.REPUL.0>
0

>  <SCORE.INTRA.SOLV>
-0.57551

>  <SCORE.INTRA.SOLV.lig_0>
-48.2216

>  <SCORE.INTRA.VDW>
0.243951

>  <SCORE.INTRA.VDW.0>
-1.3967

>  <SCORE.INTRA.norm>
-0.821428

>  <SCORE.RESTR>
0

>  <SCORE.RESTR.CAVITY>
0

>  <SCORE.RESTR.norm>
0

>  <SCORE.SYSTEM>
0

>  <SCORE.SYSTEM.CONST>
0

>  <SCORE.SYSTEM.DIHEDRAL>
0

>  <SCORE.SYSTEM.SOLV>
0

>  <SCORE.SYSTEM.norm>
0

>  <SCORE.heavy>
14

>  <SCORE.norm>
-0.753077

>  <RMSD>
4.809

$$$$
ligand
 OpenBabel11021811463D
libRbt.so/2013.1/901 2013/11/27
 14 13  0  0  0  0  0  0  0  0999 V2000
   14.3576   14.2429    9.3782 N   0  0  0  0  0  0  0  0  0  0  0  0
   14.2507   13.2719    8.2810 C   0  0  0  0  0  0  0  0  0  0  0  0
   12.7899   12.8716    8.1019 C   0  0  0  0  0  0  0  0  0  0  0  0
   12.3277   12.1435    9.3534 C   0  0  0  0  0  0  0  0  0  0  0  0
   13.0859   10.8942    9.4858 N   0  0  0  0  0  0  0  0  0  0  0  0
   12.1529    9.8774   10.0019 C   0  0  0  0  0  0  0  0  0  0  0  0
   12.3298    9.7017   11.5144 C   0  0  0  0  0  0  0  0  0  0  0  0
   11.3201    8.6504   11.9987 C   0  0  0  0  0  0  0  0  0  0  0  0
   11.4221    8.4854   13.4578 C   0  0  0  0  0  0  0  0  0  0  0  0
   10.5221    7.3802   13.8455 N   0  0  0  0  0  0  0  0  0  0  0  0
   10.4677    7.2536   15.3722 C   0  0  0  0  0  0  0  0  0  0  0  0
   10.5233    5.7734   15.7693 C   0  0  0  0  0  0  0  0  0  0  0  0
   11.8923    5.2573   15.5770 C   0  0  0  0  0  0  0  0  0  0  0  0
   12.8086    5.9055   16.5397 N   0  0  0  0  0  0  0  0  0  0  0  0
  1  2  1  0  0  0  0
  2  3  1  0  0  0  0
  3  4  1  0  0  0  0
  4  5  1  0  0  0  0
  5  6  1  0  0  0  0
  6  7  1  0  0  0  0
  7  8  1  0  0  0  0
  8  9  1  0  0  0  0
  9 10  1  0  0  0  0
 10 11  1  0  0  0  0
 11 12  1  0  0  0  0
 12 13  1  0  0  0  0
 13 14  1  0  0  0  0
M  END
>  <CHROM.1>
-64.68378847,-64.47205343,-142.40939192,-99.22518059,179.10381693,-177.95139111
-174.86053878,-173.99833309,-137.52745822,73.79933580,67.03942309,12.16053650
9.40770555,12.04823336,-1.32023589,0.48151451,2.22994685

>  <Name>
ligand

>  <RI>
0

>  <Rbt.Current_Directory>
/home/itssahil/PROJECTS/Mol_Feturizer/New_Systems/rnas/2O3Y

>  <Rbt.Executable>
rbdock ($Id: //depot/dev/client3/rdock/2013.1/src/exe/rbdock.cxx#4 $)

>  <Rbt.Library>
libRbt.so (2013.1, Build901 2013/11/27)

>  <Rbt.Parameter_File>
/export/apps/rDock/src/rDock_2013.1_src/data/scripts/dock_solv.prm

>  <Rbt.Receptor>
prm/pocket_docking_7.prm

>  <SCORE>
-8.33106

>  <SCORE.INTER>
-0.445033

>  <SCORE.INTER.CONST>
1

>  <SCORE.INTER.POLAR>
0

>  <SCORE.INTER.ROT>
11

>  <SCORE.INTER.SOLV>
8.18446

>  <SCORE.INTER.VDW>
-13.9582

>  <SCORE.INTER.norm>
-0.0317881

>  <SCORE.INTRA>
-7.88603

>  <SCORE.INTRA.DIHEDRAL>
-20.2654

>  <SCORE.INTRA.DIHEDRAL.0>
24.1231

>  <SCORE.INTRA.POLAR>
0

>  <SCORE.INTRA.POLAR.0>
0

>  <SCORE.INTRA.REPUL>
0

>  <SCORE.INTRA.REPUL.0>
0

>  <SCORE.INTRA.SOLV>
2.80798

>  <SCORE.INTRA.SOLV.lig_0>
-48.2216

>  <SCORE.INTRA.VDW>
0.842675

>  <SCORE.INTRA.VDW.0>
-1.3967

>  <SCORE.INTRA.norm>
-0.563288

>  <SCORE.RESTR>
0

>  <SCORE.RESTR.CAVITY>
0

>  <SCORE.RESTR.norm>
0

>  <SCORE.SYSTEM>
0

>  <SCORE.SYSTEM.CONST>
0

>  <SCORE.SYSTEM.DIHEDRAL>
0

>  <SCORE.SYSTEM.SOLV>
0

>  <SCORE.SYSTEM.norm>
0

>  <SCORE.heavy>
14

>  <SCORE.norm>
-0.595076

>  <RMSD>
4.817

$$$$
ligand
 OpenBabel11021811463D
libRbt.so/2013.1/901 2013/11/27
 14 13  0  0  0  0  0  0  0  0999 V2000
   14.9046   13.9426    8.7539 N   0  0  0  0  0  0  0  0  0  0  0  0
   13.9490   13.7562    7.6538 C   0  0  0  0  0  0  0  0  0  0  0  0
   12.5956   13.3459    8.2249 C   0  0  0  0  0  0  0  0  0  0  0  0
   12.7414   11.9902    8.8964 C   0  0  0  0  0  0  0  0  0  0  0  0
   11.4801   11.6510    9.5649 N   0  0  0  0  0  0  0  0  0  0  0  0
   11.6975   10.3775   10.2732 C   0  0  0  0  0  0  0  0  0  0  0  0
   10.5913   10.1404   11.3077 C   0  0  0  0  0  0  0  0  0  0  0  0
   10.9077    8.8402   12.0619 C   0  0  0  0  0  0  0  0  0  0  0  0
    9.8537    8.5595   13.0504 C   0  0  0  0  0  0  0  0  0  0  0  0
   10.1457    7.2423   13.6515 N   0  0  0  0  0  0  0  0  0  0  0  0
   11.0576    7.4087   14.8724 C   0  0  0  0  0  0  0  0  0  0  0  0
   11.5021    6.0301   15.3759 C   0  0  0  0  0  0  0  0  0  0  0  0
   12.4981    6.1905   16.4528 C   0  0  0  0  0  0  0  0  0  0  0  0
   13.7064    6.8547   15.9185 N   0  0  0  0  0  0  0  0  0  0  0  0
  1  2  1  0  0  0  0
  2  3  1  0  0  0  0
  3  4  1  0  0  0  0
  4  5  1  0  0  0  0
  5  6  1  0  0  0  0
  6  7  1  0  0  0  0
  7  8  1  0  0  0  0
  8  9  1  0  0  0  0
  9 10  1  0  0  0  0
 10 11  1  0  0  0  0
 11 12  1  0  0  0  0
 12 13  1  0  0  0  0
 13 14  1  0  0  0  0
M  END
>  <CHROM.1>
-64.41592058,174.33456718,-176.31351480,164.04266637,-177.14340587,-178.90171410
174.84864112,88.98136949,-172.62319577,173.65284170,-63.22597662,11.97339877
9.73775983,11.86125660,-1.39599900,0.26982269,2.27632163

>  <Name>
ligand

>  <RI>
0

>  <Rbt.Current_Directory>
/home/itssahil/PROJECTS/Mol_Feturizer/New_Systems/rnas/2O3Y

>  <Rbt.Executable>
rbdock ($Id: //depot/dev/client3/rdock/2013.1/src/exe/rbdock.cxx#4 $)

>  <Rbt.Library>
libRbt.so (2013.1, Build901 2013/11/27)

>  <Rbt.Parameter_File>
/export/apps/rDock/src/rDock_2013.1_src/data/scripts/dock_solv.prm

>  <Rbt.Receptor>
prm/pocket_docking_5.prm

>  <SCORE>
-11.1568

>  <SCORE.INTER>
-1.0938

>  <SCORE.INTER.CONST>
1

>  <SCORE.INTER.POLAR>
0

>  <SCORE.INTER.ROT>
11

>  <SCORE.INTER.SOLV>
9.73936

>  <SCORE.INTER.VDW>
-14.909

>  <SCORE.INTER.norm>
-0.0781283

>  <SCORE.INTRA>
-10.063

>  <SCORE.INTRA.DIHEDRAL>
-22.7823

>  <SCORE.INTRA.DIHEDRAL.0>
24.1231

>  <SCORE.INTRA.POLAR>
0

>  <SCORE.INTRA.POLAR.0>
0

>  <SCORE.INTRA.REPUL>
0

>  <SCORE.INTRA.REPUL.0>
0

>  <SCORE.INTRA.SOLV>
0.841834

>  <SCORE.INTRA.SOLV.lig_0>
-48.2216

>  <SCORE.INTRA.VDW>
0.907182

>  <SCORE.INTRA.VDW.0>
-1.3967

>  <SCORE.INTRA.norm>
-0.718788

>  <SCORE.RESTR>
0

>  <SCORE.RESTR.CAVITY>
0

>  <SCORE.RESTR.norm>
0

>  <SCORE.SYSTEM>
0

>  <SCORE.SYSTEM.CONST>
0

>  <SCORE.SYSTEM.DIHEDRAL>
0

>  <SCORE.SYSTEM.SOLV>
0

>  <SCORE.SYSTEM.norm>
0

>  <SCORE.heavy>
14

>  <SCORE.norm>
-0.796916

>  <RMSD>
4.818

$$$$
ligand
 OpenBabel11021811463D
libRbt.so/2013.1/901 2013/11/27
 14 13  0  0  0  0  0  0  0  0999 V2000
   15.8664   11.7111    7.7341 N   0  0  0  0  0  0  0  0  0  0  0  0
   14.7261   11.8800    8.6449 C   0  0  0  0  0  0  0  0  0  0  0  0
   13.5244   12.3942    7.8590 C   0  0  0  0  0  0  0  0  0  0  0  0
   12.3865   12.6631    8.8302 C   0  0  0  0  0  0  0  0  0  0  0  0
   11.9656   11.3941    9.4347 N   0  0  0  0  0  0  0  0  0  0  0  0
   10.6247   11.6129   10.0046 C   0  0  0  0  0  0  0  0  0  0  0  0
   10.0925   10.3239   10.6410 C   0  0  0  0  0  0  0  0  0  0  0  0
   10.9945    9.9665   11.8319 C   0  0  0  0  0  0  0  0  0  0  0  0
   10.4872    8.7608   12.5069 C   0  0  0  0  0  0  0  0  0  0  0  0
   11.4306    8.4280   13.5936 N   0  0  0  0  0  0  0  0  0  0  0  0
   10.8625    7.2975   14.4591 C   0  0  0  0  0  0  0  0  0  0  0  0
   12.0031    6.5999   15.2101 C   0  0  0  0  0  0  0  0  0  0  0  0
   11.4673    5.4657   15.9873 C   0  0  0  0  0  0  0  0  0  0  0  0
   10.6079    5.9720   17.0790 N   0  0  0  0  0  0  0  0  0  0  0  0
  1  2  1  0  0  0  0
  2  3  1  0  0  0  0
  3  4  1  0  0  0  0
  4  5  1  0  0  0  0
  5  6  1  0  0  0  0
  6  7  1  0  0  0  0
  7  8  1  0  0  0  0
  8  9  1  0  0  0  0
  9 10  1  0  0  0  0
 10 11  1  0  0  0  0
 11 12  1  0  0  0  0
 12 13  1  0  0  0  0
 13 14  1  0  0  0  0
M  END
>  <CHROM.1>
-175.78661627,-64.76565922,-161.92520599,179.04788380,64.73469537,177.76980011
177.08945611,172.20943725,158.39245510,-176.98288783,-67.42936754,11.93117187
9.60507660,11.70108176,-1.30359619,-0.18524077,2.28505886

>  <Name>
ligand

>  <RI>
0

>  <Rbt.Current_Directory>
/home/itssahil/PROJECTS/Mol_Feturizer/New_Systems/rnas/2O3Y

>  <Rbt.Executable>
rbdock ($Id: //depot/dev/client3/rdock/2013.1/src/exe/rbdock.cxx#4 $)

>  <Rbt.Library>
libRbt.so (2013.1, Build901 2013/11/27)

>  <Rbt.Parameter_File>
/export/apps/rDock/src/rDock_2013.1_src/data/scripts/dock_solv.prm

>  <Rbt.Receptor>
prm/pocket_docking_6.prm

>  <SCORE>
-11.9585

>  <SCORE.INTER>
-1.38679

>  <SCORE.INTER.CONST>
1

>  <SCORE.INTER.POLAR>
0

>  <SCORE.INTER.ROT>
11

>  <SCORE.INTER.SOLV>
5.56297

>  <SCORE.INTER.VDW>
-13.7122

>  <SCORE.INTER.norm>
-0.0990564

>  <SCORE.INTRA>
-10.5717

>  <SCORE.INTRA.DIHEDRAL>
-22.949

>  <SCORE.INTRA.DIHEDRAL.0>
24.1231

>  <SCORE.INTRA.POLAR>
0

>  <SCORE.INTRA.POLAR.0>
0

>  <SCORE.INTRA.REPUL>
0

>  <SCORE.INTRA.REPUL.0>
0

>  <SCORE.INTRA.SOLV>
0.656279

>  <SCORE.INTRA.SOLV.lig_0>
-48.2216

>  <SCORE.INTRA.VDW>
0.574659

>  <SCORE.INTRA.VDW.0>
-1.3967

>  <SCORE.INTRA.norm>
-0.755122

>  <SCORE.RESTR>
0

>  <SCORE.RESTR.CAVITY>
0

>  <SCORE.RESTR.norm>
0

>  <SCORE.SYSTEM>
0

>  <SCORE.SYSTEM.CONST>
0

>  <SCORE.SYSTEM.DIHEDRAL>
0

>  <SCORE.SYSTEM.SOLV>
0

>  <SCORE.SYSTEM.norm>
0

>  <SCORE.heavy>
14

>  <SCORE.norm>
-0.854178

>  <RMSD>
4.819

$$$$
ligand
 OpenBabel11021811463D
libRbt.so/2013.1/901 2013/11/27
 14 13  0  0  0  0  0  0  0  0999 V2000
   14.8791   11.7140    7.9756 N   0  0  0  0  0  0  0  0  0  0  0  0
   15.0387   13.1698    7.8607 C   0  0  0  0  0  0  0  0  0  0  0  0
   13.6706   13.8132    7.6593 C   0  0  0  0  0  0  0  0  0  0  0  0
   12.8684   13.6628    8.9414 C   0  0  0  0  0  0  0  0  0  0  0  0
   12.3756   12.2841    9.0366 N   0  0  0  0  0  0  0  0  0  0  0  0
   11.8324   12.1143   10.3956 C   0  0  0  0  0  0  0  0  0  0  0  0
   10.9981   10.8314   10.4863 C   0  0  0  0  0  0  0  0  0  0  0  0
   10.6545   10.5835   11.9628 C   0  0  0  0  0  0  0  0  0  0  0  0
    9.9210    9.3153   12.1054 C   0  0  0  0  0  0  0  0  0  0  0  0
    9.8433    9.0051   13.5474 N   0  0  0  0  0  0  0  0  0  0  0  0
   10.4677    7.6334   13.8275 C   0  0  0  0  0  0  0  0  0  0  0  0
   10.4273    7.3460   15.3333 C   0  0  0  0  0  0  0  0  0  0  0  0
   10.9369    5.9861   15.5947 C   0  0  0  0  0  0  0  0  0  0  0  0
   10.9050    5.7131   17.0476 N   0  0  0  0  0  0  0  0  0  0  0  0
  1  2  1  0  0  0  0
  2  3  1  0  0  0  0
  3  4  1  0  0  0  0
  4  5  1  0  0  0  0
  5  6  1  0  0  0  0
  6  7  1  0  0  0  0
  7  8  1  0  0  0  0
  8  9  1  0  0  0  0
  9 10  1  0  0  0  0
 10 11  1  0  0  0  0
 11 12  1  0  0  0  0
 12 13  1  0  0  0  0
 13 14  1  0  0  0  0
M  END
>  <CHROM.1>
68.51391708,-76.58879478,169.44895789,166.42228440,170.76404490,-176.60072621
169.51591469,-122.55723350,177.93098428,175.87687803,179.66859381,11.77266775
10.22680334,11.55514642,-1.22961635,-0.26450562,2.37927527

>  <Name>
ligand

>  <RI>
0

>  <Rbt.Current_Directory>
/home/itssahil/PROJECTS/Mol_Feturizer/New_Systems/rnas/2O3Y

>  <Rbt.Executable>
rbdock ($Id: //depot/dev/client3/rdock/2013.1/src/exe/rbdock.cxx#4 $)

>  <Rbt.Library>
libRbt.so (2013.1, Build901 2013/11/27)

>  <Rbt.Parameter_File>
/export/apps/rDock/src/rDock_2013.1_src/data/scripts/dock_solv.prm

>  <Rbt.Receptor>
prm/pocket_docking_7.prm

>  <SCORE>
-9.19234

>  <SCORE.INTER>
-0.195413

>  <SCORE.INTER.CONST>
1

>  <SCORE.INTER.POLAR>
0

>  <SCORE.INTER.ROT>
11

>  <SCORE.INTER.SOLV>
6.11822

>  <SCORE.INTER.VDW>
-13.103

>  <SCORE.INTER.norm>
-0.0139581

>  <SCORE.INTRA>
-8.99693

>  <SCORE.INTRA.DIHEDRAL>
-20.6085

>  <SCORE.INTRA.DIHEDRAL.0>
24.1231

>  <SCORE.INTRA.POLAR>
0

>  <SCORE.INTRA.POLAR.0>
0

>  <SCORE.INTRA.REPUL>
0

>  <SCORE.INTRA.REPUL.0>
0

>  <SCORE.INTRA.SOLV>
2.15464

>  <SCORE.INTRA.SOLV.lig_0>
-48.2216

>  <SCORE.INTRA.VDW>
0.230003

>  <SCORE.INTRA.VDW.0>
-1.3967

>  <SCORE.INTRA.norm>
-0.642638

>  <SCORE.RESTR>
0

>  <SCORE.RESTR.CAVITY>
0

>  <SCORE.RESTR.norm>
0

>  <SCORE.SYSTEM>
0

>  <SCORE.SYSTEM.CONST>
0

>  <SCORE.SYSTEM.DIHEDRAL>
0

>  <SCORE.SYSTEM.SOLV>
0

>  <SCORE.SYSTEM.norm>
0

>  <SCORE.heavy>
14

>  <SCORE.norm>
-0.656596

>  <RMSD>
4.828

$$$$
ligand
 OpenBabel11021811463D
libRbt.so/2013.1/901 2013/11/27
 14 13  0  0  0  0  0  0  0  0999 V2000
   13.7676    6.9549   17.1131 N   0  0  0  0  0  0  0  0  0  0  0  0
   12.5158    7.3683   16.4649 C   0  0  0  0  0  0  0  0  0  0  0  0
   12.0260    6.2485   15.5526 C   0  0  0  0  0  0  0  0  0  0  0  0
   10.7162    6.6793   14.9131 C   0  0  0  0  0  0  0  0  0  0  0  0
   10.9769    7.7967   13.9986 N   0  0  0  0  0  0  0  0  0  0  0  0
    9.9472    7.7404   12.9463 C   0  0  0  0  0  0  0  0  0  0  0  0
    9.7921    9.1076   12.2704 C   0  0  0  0  0  0  0  0  0  0  0  0
   11.0950    9.4254   11.5214 C   0  0  0  0  0  0  0  0  0  0  0  0
   10.9105   10.6081   10.6648 C   0  0  0  0  0  0  0  0  0  0  0  0
   12.1492   10.7882    9.8807 N   0  0  0  0  0  0  0  0  0  0  0  0
   12.1862   12.1919    9.2657 C   0  0  0  0  0  0  0  0  0  0  0  0
   13.4705   12.3618    8.4452 C   0  0  0  0  0  0  0  0  0  0  0  0
   13.5356   13.7314    7.8997 C   0  0  0  0  0  0  0  0  0  0  0  0
   14.8166   13.9230    7.1865 N   0  0  0  0  0  0  0  0  0  0  0  0
  1  2  1  0  0  0  0
  2  3  1  0  0  0  0
  3  4  1  0  0  0  0
  4  5  1  0  0  0  0
  5  6  1  0  0  0  0
  6  7  1  0  0  0  0
  7  8  1  0  0  0  0
  8  9  1  0  0  0  0
  9 10  1  0  0  0  0
 10 11  1  0  0  0  0
 11 12  1  0  0  0  0
 12 13  1  0  0  0  0
 13 14  1  0  0  0  0
M  END
>  <CHROM.1>
178.80061521,67.17589007,151.78764960,158.55100099,65.91714238,169.97097881
-174.84821777,-164.44698678,-179.52537220,-177.60757344,176.16641092,11.99286847
9.63744053,12.00878166,-1.74371352,-0.33016133,-0.94461430

>  <Name>
ligand

>  <RI>
0

>  <Rbt.Current_Directory>
/home/itssahil/PROJECTS/Mol_Feturizer/New_Systems/rnas/2O3Y

>  <Rbt.Executable>
rbdock ($Id: //depot/dev/client3/rdock/2013.1/src/exe/rbdock.cxx#4 $)

>  <Rbt.Library>
libRbt.so (2013.1, Build901 2013/11/27)

>  <Rbt.Parameter_File>
/export/apps/rDock/src/rDock_2013.1_src/data/scripts/dock_solv.prm

>  <Rbt.Receptor>
prm/pocket_docking_8.prm

>  <SCORE>
-10.2302

>  <SCORE.INTER>
0.569157

>  <SCORE.INTER.CONST>
1

>  <SCORE.INTER.POLAR>
0

>  <SCORE.INTER.ROT>
11

>  <SCORE.INTER.SOLV>
10.6818

>  <SCORE.INTER.VDW>
-14.1145

>  <SCORE.INTER.norm>
0.0406541

>  <SCORE.INTRA>
-10.7993

>  <SCORE.INTRA.DIHEDRAL>
-22.132

>  <SCORE.INTRA.DIHEDRAL.0>
24.1231

>  <SCORE.INTRA.POLAR>
0

>  <SCORE.INTRA.POLAR.0>
0

>  <SCORE.INTRA.REPUL>
0

>  <SCORE.INTRA.REPUL.0>
0

>  <SCORE.INTRA.SOLV>
-0.149786

>  <SCORE.INTRA.SOLV.lig_0>
-48.2216

>  <SCORE.INTRA.VDW>
0.341586

>  <SCORE.INTRA.VDW.0>
-1.3967

>  <SCORE.INTRA.norm>
-0.77138

>  <SCORE.RESTR>
0

>  <SCORE.RESTR.CAVITY>
0

>  <SCORE.RESTR.norm>
0

>  <SCORE.SYSTEM>
0

>  <SCORE.SYSTEM.CONST>
0

>  <SCORE.SYSTEM.DIHEDRAL>
0

>  <SCORE.SYSTEM.SOLV>
0

>  <SCORE.SYSTEM.norm>
0

>  <SCORE.heavy>
14

>  <SCORE.norm>
-0.730726

>  <RMSD>
4.834

$$$$
ligand
 OpenBabel11021811463D
libRbt.so/2013.1/901 2013/11/27
 14 13  0  0  0  0  0  0  0  0999 V2000
   21.6386   13.3848    8.7729 N   0  0  0  0  0  0  0  0  0  0  0  0
   20.7944   12.1994    8.9739 C   0  0  0  0  0  0  0  0  0  0  0  0
   20.5875   11.9747   10.4682 C   0  0  0  0  0  0  0  0  0  0  0  0
   19.7844   10.6989   10.6620 C   0  0  0  0  0  0  0  0  0  0  0  0
   19.5673   10.4855   12.0973 N   0  0  0  0  0  0  0  0  0  0  0  0
   18.2928    9.7594   12.2363 C   0  0  0  0  0  0  0  0  0  0  0  0
   17.8452    9.7320   13.7022 C   0  0  0  0  0  0  0  0  0  0  0  0
   16.5661    8.8869   13.7996 C   0  0  0  0  0  0  0  0  0  0  0  0
   16.1798    8.7148   15.2095 C   0  0  0  0  0  0  0  0  0  0  0  0
   15.7205   10.0266   15.7093 N   0  0  0  0  0  0  0  0  0  0  0  0
   15.2129    9.8954   17.1497 C   0  0  0  0  0  0  0  0  0  0  0  0
   14.3894   11.1346   17.5213 C   0  0  0  0  0  0  0  0  0  0  0  0
   13.9332   11.0282   18.9206 C   0  0  0  0  0  0  0  0  0  0  0  0
   13.0062    9.8842   19.0566 N   0  0  0  0  0  0  0  0  0  0  0  0
  1  2  1  0  0  0  0
  2  3  1  0  0  0  0
  3  4  1  0  0  0  0
  4  5  1  0  0  0  0
  5  6  1  0  0  0  0
  6  7  1  0  0  0  0
  7  8  1  0  0  0  0
  8  9  1  0  0  0  0
  9 10  1  0  0  0  0
 10 11  1  0  0  0  0
 11 12  1  0  0  0  0
 12 13  1  0  0  0  0
 13 14  1  0  0  0  0
M  END
>  <CHROM.1>
-176.59784450,-179.30293865,150.58061242,-168.89344496,-176.32165740,174.02729695
69.60994011,176.19167135,-164.21701620,-178.34732208,-64.61803647,17.39411856
10.55737071,13.87710287,-0.00471303,0.90907729,0.21603583

>  <Name>
ligand

>  <RI>
0

>  <Rbt.Current_Directory>
/home/itssahil/PROJECTS/Mol_Feturizer/New_Systems/rnas/2O3Y

>  <Rbt.Executable>
rbdock ($Id: //depot/dev/client3/rdock/2013.1/src/exe/rbdock.cxx#4 $)

>  <Rbt.Library>
libRbt.so (2013.1, Build901 2013/11/27)

>  <Rbt.Parameter_File>
/export/apps/rDock/src/rDock_2013.1_src/data/scripts/dock_solv.prm

>  <Rbt.Receptor>
prm/pocket_docking_8.prm

>  <SCORE>
-9.99764

>  <SCORE.INTER>
0.675256

>  <SCORE.INTER.CONST>
1

>  <SCORE.INTER.POLAR>
0

>  <SCORE.INTER.ROT>
11

>  <SCORE.INTER.SOLV>
7.50788

>  <SCORE.INTER.VDW>
-12.9858

>  <SCORE.INTER.norm>
0.0482326

>  <SCORE.INTRA>
-10.6729

>  <SCORE.INTRA.DIHEDRAL>
-22.5597

>  <SCORE.INTRA.DIHEDRAL.0>
24.1231

>  <SCORE.INTRA.POLAR>
0

>  <SCORE.INTRA.POLAR.0>
0

>  <SCORE.INTRA.REPUL>
0

>  <SCORE.INTRA.REPUL.0>
0

>  <SCORE.INTRA.SOLV>
0.251873

>  <SCORE.INTRA.SOLV.lig_0>
-48.2216

>  <SCORE.INTRA.VDW>
0.481006

>  <SCORE.INTRA.VDW.0>
-1.3967

>  <SCORE.INTRA.norm>
-0.76235

>  <SCORE.RESTR>
0

>  <SCORE.RESTR.CAVITY>
0

>  <SCORE.RESTR.norm>
0

>  <SCORE.SYSTEM>
0

>  <SCORE.SYSTEM.CONST>
0

>  <SCORE.SYSTEM.DIHEDRAL>
0

>  <SCORE.SYSTEM.SOLV>
0

>  <SCORE.SYSTEM.norm>
0

>  <SCORE.heavy>
14

>  <SCORE.norm>
-0.714117

>  <RMSD>
4.836

$$$$
ligand
 OpenBabel11021811463D
libRbt.so/2013.1/901 2013/11/27
 14 13  0  0  0  0  0  0  0  0999 V2000
   13.1306   10.2224   17.0040 N   0  0  0  0  0  0  0  0  0  0  0  0
   14.1985   10.3687   16.0059 C   0  0  0  0  0  0  0  0  0  0  0  0
   15.4924   10.7704   16.7063 C   0  0  0  0  0  0  0  0  0  0  0  0
   16.5698   10.9813   15.6552 C   0  0  0  0  0  0  0  0  0  0  0  0
   16.8836    9.6921   15.0287 N   0  0  0  0  0  0  0  0  0  0  0  0
   17.0841    9.9495   13.5919 C   0  0  0  0  0  0  0  0  0  0  0  0
   18.5782    9.9577   13.2490 C   0  0  0  0  0  0  0  0  0  0  0  0
   18.7304   10.3343   11.7676 C   0  0  0  0  0  0  0  0  0  0  0  0
   20.1561   10.4169   11.4106 C   0  0  0  0  0  0  0  0  0  0  0  0
   20.2391   10.8873   10.0129 N   0  0  0  0  0  0  0  0  0  0  0  0
   20.7793   12.3212    9.9688 C   0  0  0  0  0  0  0  0  0  0  0  0
   19.6245   13.3133   10.1524 C   0  0  0  0  0  0  0  0  0  0  0  0
   18.6959   13.2137    9.0099 C   0  0  0  0  0  0  0  0  0  0  0  0
   17.5527   14.1286    9.2162 N   0  0  0  0  0  0  0  0  0  0  0  0
  1  2  1  0  0  0  0
  2  3  1  0  0  0  0
  3  4  1  0  0  0  0
  4  5  1  0  0  0  0
  5  6  1  0  0  0  0
  6  7  1  0  0  0  0
  7  8  1  0  0  0  0
  8  9  1  0  0  0  0
  9 10  1  0  0  0  0
 10 11  1  0  0  0  0
 11 12  1  0  0  0  0
 12 13  1  0  0  0  0
 13 14  1  0  0  0  0
M  END
>  <CHROM.1>
-177.36958941,-66.99330790,140.72468228,102.68444738,-175.78392923,177.31040646
-175.47067667,109.36739405,-85.74786629,-64.88660734,177.57107276,17.69423985
11.18265967,12.76993638,2.29079903,-0.53081600,2.30675278

>  <Name>
ligand

>  <RI>
0

>  <Rbt.Current_Directory>
/home/itssahil/PROJECTS/Mol_Feturizer/New_Systems/rnas/2O3Y

>  <Rbt.Executable>
rbdock ($Id: //depot/dev/client3/rdock/2013.1/src/exe/rbdock.cxx#4 $)

>  <Rbt.Library>
libRbt.so (2013.1, Build901 2013/11/27)

>  <Rbt.Parameter_File>
/export/apps/rDock/src/rDock_2013.1_src/data/scripts/dock_solv.prm

>  <Rbt.Receptor>
prm/pocket_docking_8.prm

>  <SCORE>
-7.67861

>  <SCORE.INTER>
1.84335

>  <SCORE.INTER.CONST>
1

>  <SCORE.INTER.POLAR>
0

>  <SCORE.INTER.ROT>
11

>  <SCORE.INTER.SOLV>
4.79464

>  <SCORE.INTER.VDW>
-11.3026

>  <SCORE.INTER.norm>
0.131668

>  <SCORE.INTRA>
-9.52196

>  <SCORE.INTRA.DIHEDRAL>
-20.2005

>  <SCORE.INTRA.DIHEDRAL.0>
24.1231

>  <SCORE.INTRA.POLAR>
0

>  <SCORE.INTRA.POLAR.0>
0

>  <SCORE.INTRA.REPUL>
0

>  <SCORE.INTRA.REPUL.0>
0

>  <SCORE.INTRA.SOLV>
-0.0894874

>  <SCORE.INTRA.SOLV.lig_0>
-48.2216

>  <SCORE.INTRA.VDW>
0.623039

>  <SCORE.INTRA.VDW.0>
-1.3967

>  <SCORE.INTRA.norm>
-0.68014

>  <SCORE.RESTR>
0

>  <SCORE.RESTR.CAVITY>
0

>  <SCORE.RESTR.norm>
0

>  <SCORE.SYSTEM>
0

>  <SCORE.SYSTEM.CONST>
0

>  <SCORE.SYSTEM.DIHEDRAL>
0

>  <SCORE.SYSTEM.SOLV>
0

>  <SCORE.SYSTEM.norm>
0

>  <SCORE.heavy>
14

>  <SCORE.norm>
-0.548472

>  <RMSD>
4.842

$$$$
ligand
 OpenBabel11021811463D
libRbt.so/2013.1/901 2013/11/27
 14 13  0  0  0  0  0  0  0  0999 V2000
   11.8162   17.4063   11.4400 N   0  0  0  0  0  0  0  0  0  0  0  0
   12.0179   16.6979   10.1689 C   0  0  0  0  0  0  0  0  0  0  0  0
   12.8293   15.4312   10.4204 C   0  0  0  0  0  0  0  0  0  0  0  0
   13.0624   14.7307    9.0918 C   0  0  0  0  0  0  0  0  0  0  0  0
   13.7029   13.4345    9.3421 N   0  0  0  0  0  0  0  0  0  0  0  0
   12.7133   12.3946    9.0104 C   0  0  0  0  0  0  0  0  0  0  0  0
   12.0442   11.8618   10.2826 C   0  0  0  0  0  0  0  0  0  0  0  0
   10.9530   10.8623    9.8707 C   0  0  0  0  0  0  0  0  0  0  0  0
   10.3183   10.2849   11.0667 C   0  0  0  0  0  0  0  0  0  0  0  0
   11.3272    9.4470   11.7463 N   0  0  0  0  0  0  0  0  0  0  0  0
   10.6487    8.5241   12.7649 C   0  0  0  0  0  0  0  0  0  0  0  0
   11.6862    8.0198   13.7753 C   0  0  0  0  0  0  0  0  0  0  0  0
   11.0290    7.1560   14.7750 C   0  0  0  0  0  0  0  0  0  0  0  0
   10.1139    7.9657   15.6079 N   0  0  0  0  0  0  0  0  0  0  0  0
  1  2  1  0  0  0  0
  2  3  1  0  0  0  0
  3  4  1  0  0  0  0
  4  5  1  0  0  0  0
  5  6  1  0  0  0  0
  6  7  1  0  0  0  0
  7  8  1  0  0  0  0
  8  9  1  0  0  0  0
  9 10  1  0  0  0  0
 10 11  1  0  0  0  0
 11 12  1  0  0  0  0
 12 13  1  0  0  0  0
 13 14  1  0  0  0  0
M  END
>  <CHROM.1>
-178.43612410,-173.38396743,110.99961459,-99.99406812,175.80247117,177.79623131
-67.45896102,-164.63244416,-161.00106489,178.70103903,-67.35117173,11.73303688
11.72962742,11.38280758,0.81269156,1.27079863,0.25224125

>  <Name>
ligand

>  <RI>
0

>  <Rbt.Current_Directory>
/home/itssahil/PROJECTS/Mol_Feturizer/New_Systems/rnas/2O3Y

>  <Rbt.Executable>
rbdock ($Id: //depot/dev/client3/rdock/2013.1/src/exe/rbdock.cxx#4 $)

>  <Rbt.Library>
libRbt.so (2013.1, Build901 2013/11/27)

>  <Rbt.Parameter_File>
/export/apps/rDock/src/rDock_2013.1_src/data/scripts/dock_solv.prm

>  <Rbt.Receptor>
prm/pocket_docking_6.prm

>  <SCORE>
-9.2824

>  <SCORE.INTER>
0.431502

>  <SCORE.INTER.CONST>
1

>  <SCORE.INTER.POLAR>
0

>  <SCORE.INTER.ROT>
11

>  <SCORE.INTER.SOLV>
6.98411

>  <SCORE.INTER.VDW>
-12.9737

>  <SCORE.INTER.norm>
0.0308216

>  <SCORE.INTRA>
-9.7139

>  <SCORE.INTRA.DIHEDRAL>
-20.9554

>  <SCORE.INTRA.DIHEDRAL.0>
24.1231

>  <SCORE.INTRA.POLAR>
0

>  <SCORE.INTRA.POLAR.0>
0

>  <SCORE.INTRA.REPUL>
0

>  <SCORE.INTRA.REPUL.0>
0

>  <SCORE.INTRA.SOLV>
0.263231

>  <SCORE.INTRA.SOLV.lig_0>
-48.2216

>  <SCORE.INTRA.VDW>
0.632186

>  <SCORE.INTRA.VDW.0>
-1.3967

>  <SCORE.INTRA.norm>
-0.69385

>  <SCORE.RESTR>
0

>  <SCORE.RESTR.CAVITY>
0

>  <SCORE.RESTR.norm>
0

>  <SCORE.SYSTEM>
0

>  <SCORE.SYSTEM.CONST>
0

>  <SCORE.SYSTEM.DIHEDRAL>
0

>  <SCORE.SYSTEM.SOLV>
0

>  <SCORE.SYSTEM.norm>
0

>  <SCORE.heavy>
14

>  <SCORE.norm>
-0.663029

>  <RMSD>
4.843

$$$$
ligand
 OpenBabel11021811463D
libRbt.so/2013.1/901 2013/11/27
 14 13  0  0  0  0  0  0  0  0999 V2000
   13.3582   10.7763   18.7184 N   0  0  0  0  0  0  0  0  0  0  0  0
   14.5819   11.2337   18.0464 C   0  0  0  0  0  0  0  0  0  0  0  0
   14.7548   10.4696   16.7378 C   0  0  0  0  0  0  0  0  0  0  0  0
   16.0138   10.9667   16.0465 C   0  0  0  0  0  0  0  0  0  0  0  0
   16.1670   10.2609   14.7694 N   0  0  0  0  0  0  0  0  0  0  0  0
   17.4563   10.6844   14.1957 C   0  0  0  0  0  0  0  0  0  0  0  0
   18.0131    9.6021   13.2637 C   0  0  0  0  0  0  0  0  0  0  0  0
   19.3311   10.1144   12.6638 C   0  0  0  0  0  0  0  0  0  0  0  0
   19.0687   10.8352   11.4075 C   0  0  0  0  0  0  0  0  0  0  0  0
   20.3365   11.4604   10.9791 N   0  0  0  0  0  0  0  0  0  0  0  0
   20.2157   11.9663    9.5371 C   0  0  0  0  0  0  0  0  0  0  0  0
   20.2063   13.4997    9.5275 C   0  0  0  0  0  0  0  0  0  0  0  0
   18.9517   13.9939   10.1268 C   0  0  0  0  0  0  0  0  0  0  0  0
   18.8906   15.4667   10.0105 N   0  0  0  0  0  0  0  0  0  0  0  0
  1  2  1  0  0  0  0
  2  3  1  0  0  0  0
  3  4  1  0  0  0  0
  4  5  1  0  0  0  0
  5  6  1  0  0  0  0
  6  7  1  0  0  0  0
  7  8  1  0  0  0  0
  8  9  1  0  0  0  0
  9 10  1  0  0  0  0
 10 11  1  0  0  0  0
 11 12  1  0  0  0  0
 12 13  1  0  0  0  0
 13 14  1  0  0  0  0
M  END
>  <CHROM.1>
179.26887863,-178.50737556,-175.02199498,153.90380907,178.29137457,-90.04047905
172.28740327,167.72406465,110.10459494,-68.97212442,-175.09266134,17.66773237
11.52339977,13.28773834,2.54465864,-0.83424936,2.70451957

>  <Name>
ligand

>  <RI>
0

>  <Rbt.Current_Directory>
/home/itssahil/PROJECTS/Mol_Feturizer/New_Systems/rnas/2O3Y

>  <Rbt.Executable>
rbdock ($Id: //depot/dev/client3/rdock/2013.1/src/exe/rbdock.cxx#4 $)

>  <Rbt.Library>
libRbt.so (2013.1, Build901 2013/11/27)

>  <Rbt.Parameter_File>
/export/apps/rDock/src/rDock_2013.1_src/data/scripts/dock_solv.prm

>  <Rbt.Receptor>
prm/pocket_docking_6.prm

>  <SCORE>
-7.55121

>  <SCORE.INTER>
1.65092

>  <SCORE.INTER.CONST>
1

>  <SCORE.INTER.POLAR>
0

>  <SCORE.INTER.ROT>
11

>  <SCORE.INTER.SOLV>
8.53041

>  <SCORE.INTER.VDW>
-12.6762

>  <SCORE.INTER.norm>
0.117923

>  <SCORE.INTRA>
-9.20212

>  <SCORE.INTRA.DIHEDRAL>
-18.6841

>  <SCORE.INTRA.DIHEDRAL.0>
24.1231

>  <SCORE.INTRA.POLAR>
0

>  <SCORE.INTRA.POLAR.0>
0

>  <SCORE.INTRA.REPUL>
0

>  <SCORE.INTRA.REPUL.0>
0

>  <SCORE.INTRA.SOLV>
-0.453835

>  <SCORE.INTRA.SOLV.lig_0>
-48.2216

>  <SCORE.INTRA.VDW>
0.366824

>  <SCORE.INTRA.VDW.0>
-1.3967

>  <SCORE.INTRA.norm>
-0.657295

>  <SCORE.RESTR>
0

>  <SCORE.RESTR.CAVITY>
0

>  <SCORE.RESTR.norm>
0

>  <SCORE.SYSTEM>
0

>  <SCORE.SYSTEM.CONST>
0

>  <SCORE.SYSTEM.DIHEDRAL>
0

>  <SCORE.SYSTEM.SOLV>
0

>  <SCORE.SYSTEM.norm>
0

>  <SCORE.heavy>
14

>  <SCORE.norm>
-0.539372

>  <RMSD>
4.843

$$$$
ligand
 OpenBabel11021811463D
libRbt.so/2013.1/901 2013/11/27
 14 13  0  0  0  0  0  0  0  0999 V2000
   15.1164   15.5404   11.8968 N   0  0  0  0  0  0  0  0  0  0  0  0
   14.8692   14.3027   12.6485 C   0  0  0  0  0  0  0  0  0  0  0  0
   16.1985   13.7309   13.1304 C   0  0  0  0  0  0  0  0  0  0  0  0
   15.9288   12.4346   13.8768 C   0  0  0  0  0  0  0  0  0  0  0  0
   17.1914   11.9308   14.4290 N   0  0  0  0  0  0  0  0  0  0  0  0
   16.9914   10.5014   14.7252 C   0  0  0  0  0  0  0  0  0  0  0  0
   16.4893   10.3136   16.1613 C   0  0  0  0  0  0  0  0  0  0  0  0
   16.1826    8.8235   16.3735 C   0  0  0  0  0  0  0  0  0  0  0  0
   15.6470    8.6050   17.7270 C   0  0  0  0  0  0  0  0  0  0  0  0
   14.3538    9.3133   17.8144 N   0  0  0  0  0  0  0  0  0  0  0  0
   14.3316   10.2228   19.0482 C   0  0  0  0  0  0  0  0  0  0  0  0
   14.1928   11.6853   18.6083 C   0  0  0  0  0  0  0  0  0  0  0  0
   12.8083   11.9438   18.1679 C   0  0  0  0  0  0  0  0  0  0  0  0
   12.5540   11.2456   16.8895 N   0  0  0  0  0  0  0  0  0  0  0  0
  1  2  1  0  0  0  0
  2  3  1  0  0  0  0
  3  4  1  0  0  0  0
  4  5  1  0  0  0  0
  5  6  1  0  0  0  0
  6  7  1  0  0  0  0
  7  8  1  0  0  0  0
  8  9  1  0  0  0  0
  9 10  1  0  0  0  0
 10 11  1  0  0  0  0
 11 12  1  0  0  0  0
 12 13  1  0  0  0  0
 13 14  1  0  0  0  0
M  END
>  <CHROM.1>
-178.65969855,-175.83086626,-161.01296007,-90.64905938,175.13153349,-177.82992884
64.46303758,-128.18266823,117.16743487,74.54595725,-70.18761237,15.20409119
11.47075352,15.82142716,1.35079673,0.64743159,-0.77266888

>  <Name>
ligand

>  <RI>
0

>  <Rbt.Current_Directory>
/home/itssahil/PROJECTS/Mol_Feturizer/New_Systems/rnas/2O3Y

>  <Rbt.Executable>
rbdock ($Id: //depot/dev/client3/rdock/2013.1/src/exe/rbdock.cxx#4 $)

>  <Rbt.Library>
libRbt.so (2013.1, Build901 2013/11/27)

>  <Rbt.Parameter_File>
/export/apps/rDock/src/rDock_2013.1_src/data/scripts/dock_solv.prm

>  <Rbt.Receptor>
prm/pocket_docking_7.prm

>  <SCORE>
-10.6665

>  <SCORE.INTER>
-2.78277

>  <SCORE.INTER.CONST>
1

>  <SCORE.INTER.POLAR>
0

>  <SCORE.INTER.ROT>
11

>  <SCORE.INTER.SOLV>
7.74252

>  <SCORE.INTER.VDW>
-15.3694

>  <SCORE.INTER.norm>
-0.198769

>  <SCORE.INTRA>
-7.88369

>  <SCORE.INTRA.DIHEDRAL>
-19.4884

>  <SCORE.INTRA.DIHEDRAL.0>
24.1231

>  <SCORE.INTRA.POLAR>
0

>  <SCORE.INTRA.POLAR.0>
0

>  <SCORE.INTRA.REPUL>
0

>  <SCORE.INTRA.REPUL.0>
0

>  <SCORE.INTRA.SOLV>
3.02665

>  <SCORE.INTRA.SOLV.lig_0>
-48.2216

>  <SCORE.INTRA.VDW>
0.34721

>  <SCORE.INTRA.VDW.0>
-1.3967

>  <SCORE.INTRA.norm>
-0.563121

>  <SCORE.RESTR>
0

>  <SCORE.RESTR.CAVITY>
0

>  <SCORE.RESTR.norm>
0

>  <SCORE.SYSTEM>
0

>  <SCORE.SYSTEM.CONST>
0

>  <SCORE.SYSTEM.DIHEDRAL>
0

>  <SCORE.SYSTEM.SOLV>
0

>  <SCORE.SYSTEM.norm>
0

>  <SCORE.heavy>
14

>  <SCORE.norm>
-0.761889

>  <RMSD>
4.851

$$$$
ligand
 OpenBabel11021811463D
libRbt.so/2013.1/901 2013/11/27
 14 13  0  0  0  0  0  0  0  0999 V2000
   11.4173   12.8061   17.7092 N   0  0  0  0  0  0  0  0  0  0  0  0
   12.4847   11.8670   17.3391 C   0  0  0  0  0  0  0  0  0  0  0  0
   13.3588   11.5907   18.5580 C   0  0  0  0  0  0  0  0  0  0  0  0
   14.4778   10.6462   18.1505 C   0  0  0  0  0  0  0  0  0  0  0  0
   15.3588   11.3329   17.1991 N   0  0  0  0  0  0  0  0  0  0  0  0
   15.8270   10.3195   16.2377 C   0  0  0  0  0  0  0  0  0  0  0  0
   16.9460   10.8878   15.3575 C   0  0  0  0  0  0  0  0  0  0  0  0
   17.2730    9.8558   14.2677 C   0  0  0  0  0  0  0  0  0  0  0  0
   18.4017   10.3259   13.4481 C   0  0  0  0  0  0  0  0  0  0  0  0
   18.5291    9.4090   12.2971 N   0  0  0  0  0  0  0  0  0  0  0  0
   19.7474    9.7914   11.4490 C   0  0  0  0  0  0  0  0  0  0  0  0
   19.8397    8.8639   10.2312 C   0  0  0  0  0  0  0  0  0  0  0  0
   18.7138    9.1307    9.3155 C   0  0  0  0  0  0  0  0  0  0  0  0
   18.8236    8.2609    8.1247 N   0  0  0  0  0  0  0  0  0  0  0  0
  1  2  1  0  0  0  0
  2  3  1  0  0  0  0
  3  4  1  0  0  0  0
  4  5  1  0  0  0  0
  5  6  1  0  0  0  0
  6  7  1  0  0  0  0
  7  8  1  0  0  0  0
  8  9  1  0  0  0  0
  9 10  1  0  0  0  0
 10 11  1  0  0  0  0
 11 12  1  0  0  0  0
 12 13  1  0  0  0  0
 13 14  1  0  0  0  0
M  END
>  <CHROM.1>
-178.58727278,66.10141332,-145.05872664,-169.89322586,-173.10052829,-176.52195985
-171.10073686,-176.35818747,-178.00282511,68.03949769,178.51304642,16.51437646
10.36337096,14.26335769,2.21550113,-0.24180708,1.41791881

>  <Name>
ligand

>  <RI>
0

>  <Rbt.Current_Directory>
/home/itssahil/PROJECTS/Mol_Feturizer/New_Systems/rnas/2O3Y

>  <Rbt.Executable>
rbdock ($Id: //depot/dev/client3/rdock/2013.1/src/exe/rbdock.cxx#4 $)

>  <Rbt.Library>
libRbt.so (2013.1, Build901 2013/11/27)

>  <Rbt.Parameter_File>
/export/apps/rDock/src/rDock_2013.1_src/data/scripts/dock_solv.prm

>  <Rbt.Receptor>
prm/pocket_docking_7.prm

>  <SCORE>
-11.59

>  <SCORE.INTER>
-0.636601

>  <SCORE.INTER.CONST>
1

>  <SCORE.INTER.POLAR>
0

>  <SCORE.INTER.ROT>
11

>  <SCORE.INTER.SOLV>
13.3892

>  <SCORE.INTER.VDW>
-15.8208

>  <SCORE.INTER.norm>
-0.0454715

>  <SCORE.INTRA>
-10.9534

>  <SCORE.INTRA.DIHEDRAL>
-22.3539

>  <SCORE.INTRA.DIHEDRAL.0>
24.1231

>  <SCORE.INTRA.POLAR>
0

>  <SCORE.INTRA.POLAR.0>
0

>  <SCORE.INTRA.REPUL>
0

>  <SCORE.INTRA.REPUL.0>
0

>  <SCORE.INTRA.SOLV>
-0.119203

>  <SCORE.INTRA.SOLV.lig_0>
-48.2216

>  <SCORE.INTRA.VDW>
0.283106

>  <SCORE.INTRA.VDW.0>
-1.3967

>  <SCORE.INTRA.norm>
-0.782388

>  <SCORE.RESTR>
0

>  <SCORE.RESTR.CAVITY>
0

>  <SCORE.RESTR.norm>
0

>  <SCORE.SYSTEM>
0

>  <SCORE.SYSTEM.CONST>
0

>  <SCORE.SYSTEM.DIHEDRAL>
0

>  <SCORE.SYSTEM.SOLV>
0

>  <SCORE.SYSTEM.norm>
0

>  <SCORE.heavy>
14

>  <SCORE.norm>
-0.82786

>  <RMSD>
4.855

$$$$
ligand
 OpenBabel11021811463D
libRbt.so/2013.1/901 2013/11/27
 14 13  0  0  0  0  0  0  0  0999 V2000
   10.5338    5.9275   17.1062 N   0  0  0  0  0  0  0  0  0  0  0  0
   11.3855    5.3726   16.0456 C   0  0  0  0  0  0  0  0  0  0  0  0
   12.0252    6.5147   15.2628 C   0  0  0  0  0  0  0  0  0  0  0  0
   10.9426    7.2269   14.4687 C   0  0  0  0  0  0  0  0  0  0  0  0
   11.5569    8.3045   13.6848 N   0  0  0  0  0  0  0  0  0  0  0  0
   10.6005    8.6633   12.6232 C   0  0  0  0  0  0  0  0  0  0  0  0
   11.0650    9.9222   11.8821 C   0  0  0  0  0  0  0  0  0  0  0  0
   10.0835   10.1941   10.7321 C   0  0  0  0  0  0  0  0  0  0  0  0
   10.4660   11.4248   10.0210 C   0  0  0  0  0  0  0  0  0  0  0  0
   11.8010   11.2016    9.4298 N   0  0  0  0  0  0  0  0  0  0  0  0
   12.3292   12.5007    8.8109 C   0  0  0  0  0  0  0  0  0  0  0  0
   13.1488   13.2722    9.8523 C   0  0  0  0  0  0  0  0  0  0  0  0
   13.6096   14.5502    9.2763 C   0  0  0  0  0  0  0  0  0  0  0  0
   14.4678   15.2556   10.2523 N   0  0  0  0  0  0  0  0  0  0  0  0
  1  2  1  0  0  0  0
  2  3  1  0  0  0  0
  3  4  1  0  0  0  0
  4  5  1  0  0  0  0
  5  6  1  0  0  0  0
  6  7  1  0  0  0  0
  7  8  1  0  0  0  0
  8  9  1  0  0  0  0
  9 10  1  0  0  0  0
 10 11  1  0  0  0  0
 11 12  1  0  0  0  0
 12 13  1  0  0  0  0
 13 14  1  0  0  0  0
M  END
>  <CHROM.1>
-69.11200273,-178.48686857,161.58181506,171.52986733,176.30356531,178.00428341
62.86359709,-173.49103730,91.25068674,-177.59350051,-176.58943025,11.71523839
10.02357574,12.10323142,-1.81862127,-0.66679989,-0.85740852

>  <Name>
ligand

>  <RI>
0

>  <Rbt.Current_Directory>
/home/itssahil/PROJECTS/Mol_Feturizer/New_Systems/rnas/2O3Y

>  <Rbt.Executable>
rbdock ($Id: //depot/dev/client3/rdock/2013.1/src/exe/rbdock.cxx#4 $)

>  <Rbt.Library>
libRbt.so (2013.1, Build901 2013/11/27)

>  <Rbt.Parameter_File>
/export/apps/rDock/src/rDock_2013.1_src/data/scripts/dock_solv.prm

>  <Rbt.Receptor>
prm/pocket_docking_6.prm

>  <SCORE>
-11.2173

>  <SCORE.INTER>
-0.727189

>  <SCORE.INTER.CONST>
1

>  <SCORE.INTER.POLAR>
0

>  <SCORE.INTER.ROT>
11

>  <SCORE.INTER.SOLV>
7.12235

>  <SCORE.INTER.VDW>
-13.7922

>  <SCORE.INTER.norm>
-0.0519421

>  <SCORE.INTRA>
-10.4901

>  <SCORE.INTRA.DIHEDRAL>
-22.6514

>  <SCORE.INTRA.DIHEDRAL.0>
24.1231

>  <SCORE.INTRA.POLAR>
0

>  <SCORE.INTRA.POLAR.0>
0

>  <SCORE.INTRA.REPUL>
0

>  <SCORE.INTRA.REPUL.0>
0

>  <SCORE.INTRA.SOLV>
0.282795

>  <SCORE.INTRA.SOLV.lig_0>
-48.2216

>  <SCORE.INTRA.VDW>
0.694206

>  <SCORE.INTRA.VDW.0>
-1.3967

>  <SCORE.INTRA.norm>
-0.749293

>  <SCORE.RESTR>
0

>  <SCORE.RESTR.CAVITY>
0

>  <SCORE.RESTR.norm>
0

>  <SCORE.SYSTEM>
0

>  <SCORE.SYSTEM.CONST>
0

>  <SCORE.SYSTEM.DIHEDRAL>
0

>  <SCORE.SYSTEM.SOLV>
0

>  <SCORE.SYSTEM.norm>
0

>  <SCORE.heavy>
14

>  <SCORE.norm>
-0.801235

>  <RMSD>
4.860

$$$$
ligand
 OpenBabel11021811463D
libRbt.so/2013.1/901 2013/11/27
 14 13  0  0  0  0  0  0  0  0999 V2000
   11.9922   10.7452   18.2813 N   0  0  0  0  0  0  0  0  0  0  0  0
   13.1230   10.8997   19.2063 C   0  0  0  0  0  0  0  0  0  0  0  0
   14.2857   11.5632   18.4755 C   0  0  0  0  0  0  0  0  0  0  0  0
   14.7373   10.6493   17.3482 C   0  0  0  0  0  0  0  0  0  0  0  0
   15.8432   11.2907   16.6282 N   0  0  0  0  0  0  0  0  0  0  0  0
   16.0321   10.5412   15.3739 C   0  0  0  0  0  0  0  0  0  0  0  0
   17.4440   10.7644   14.8200 C   0  0  0  0  0  0  0  0  0  0  0  0
   17.5661   10.0033   13.4913 C   0  0  0  0  0  0  0  0  0  0  0  0
   18.9428   10.0977   12.9789 C   0  0  0  0  0  0  0  0  0  0  0  0
   18.9241    9.6615   11.5679 N   0  0  0  0  0  0  0  0  0  0  0  0
   20.0873   10.3014   10.8013 C   0  0  0  0  0  0  0  0  0  0  0  0
   19.7172   11.7361   10.4059 C   0  0  0  0  0  0  0  0  0  0  0  0
   20.8249   12.3442    9.6440 C   0  0  0  0  0  0  0  0  0  0  0  0
   20.9369   11.6919    8.3217 N   0  0  0  0  0  0  0  0  0  0  0  0
  1  2  1  0  0  0  0
  2  3  1  0  0  0  0
  3  4  1  0  0  0  0
  4  5  1  0  0  0  0
  5  6  1  0  0  0  0
  6  7  1  0  0  0  0
  7  8  1  0  0  0  0
  8  9  1  0  0  0  0
  9 10  1  0  0  0  0
 10 11  1  0  0  0  0
 11 12  1  0  0  0  0
 12 13  1  0  0  0  0
 13 14  1  0  0  0  0
M  END
>  <CHROM.1>
-62.87914049,179.16765828,-166.78705552,-158.39757254,-177.97345112,-175.29899996
-165.79521549,154.30603743,-80.69626483,-178.85302274,69.24392837,17.17558034
10.87785728,14.09617831,2.96863624,-0.88250089,2.95273867

>  <Name>
ligand

>  <RI>
0

>  <Rbt.Current_Directory>
/home/itssahil/PROJECTS/Mol_Feturizer/New_Systems/rnas/2O3Y

>  <Rbt.Executable>
rbdock ($Id: //depot/dev/client3/rdock/2013.1/src/exe/rbdock.cxx#4 $)

>  <Rbt.Library>
libRbt.so (2013.1, Build901 2013/11/27)

>  <Rbt.Parameter_File>
/export/apps/rDock/src/rDock_2013.1_src/data/scripts/dock_solv.prm

>  <Rbt.Receptor>
prm/pocket_docking_7.prm

>  <SCORE>
-11.3082

>  <SCORE.INTER>
-1.67917

>  <SCORE.INTER.CONST>
1

>  <SCORE.INTER.POLAR>
0

>  <SCORE.INTER.ROT>
11

>  <SCORE.INTER.SOLV>
8.87054

>  <SCORE.INTER.VDW>
-15.0096

>  <SCORE.INTER.norm>
-0.119941

>  <SCORE.INTRA>
-9.62908

>  <SCORE.INTRA.DIHEDRAL>
-21.663

>  <SCORE.INTRA.DIHEDRAL.0>
24.1231

>  <SCORE.INTRA.POLAR>
0

>  <SCORE.INTRA.POLAR.0>
0

>  <SCORE.INTRA.REPUL>
0

>  <SCORE.INTRA.REPUL.0>
0

>  <SCORE.INTRA.SOLV>
0.690824

>  <SCORE.INTRA.SOLV.lig_0>
-48.2216

>  <SCORE.INTRA.VDW>
0.857028

>  <SCORE.INTRA.VDW.0>
-1.3967

>  <SCORE.INTRA.norm>
-0.687791

>  <SCORE.RESTR>
0

>  <SCORE.RESTR.CAVITY>
0

>  <SCORE.RESTR.norm>
0

>  <SCORE.SYSTEM>
0

>  <SCORE.SYSTEM.CONST>
0

>  <SCORE.SYSTEM.DIHEDRAL>
0

>  <SCORE.SYSTEM.SOLV>
0

>  <SCORE.SYSTEM.norm>
0

>  <SCORE.heavy>
14

>  <SCORE.norm>
-0.807732

>  <RMSD>
4.860

$$$$
ligand
 OpenBabel11021811463D
libRbt.so/2013.1/901 2013/11/27
 14 13  0  0  0  0  0  0  0  0999 V2000
   14.8987   13.7009    8.1083 N   0  0  0  0  0  0  0  0  0  0  0  0
   13.4819   14.0691    7.9843 C   0  0  0  0  0  0  0  0  0  0  0  0
   12.6240   12.8112    8.0731 C   0  0  0  0  0  0  0  0  0  0  0  0
   12.7260   12.2509    9.4823 C   0  0  0  0  0  0  0  0  0  0  0  0
   11.9035   11.0394    9.5745 N   0  0  0  0  0  0  0  0  0  0  0  0
   10.6860   11.4018   10.3209 C   0  0  0  0  0  0  0  0  0  0  0  0
    9.9993   10.1477   10.8738 C   0  0  0  0  0  0  0  0  0  0  0  0
   10.9226    9.5179   11.9276 C   0  0  0  0  0  0  0  0  0  0  0  0
   10.2489    8.3808   12.5757 C   0  0  0  0  0  0  0  0  0  0  0  0
   11.2236    7.7443   13.4847 N   0  0  0  0  0  0  0  0  0  0  0  0
   10.5915    7.5172   14.8626 C   0  0  0  0  0  0  0  0  0  0  0  0
   10.9732    6.1259   15.3823 C   0  0  0  0  0  0  0  0  0  0  0  0
   12.4373    6.0394   15.5449 C   0  0  0  0  0  0  0  0  0  0  0  0
   12.8629    6.8848   16.6809 N   0  0  0  0  0  0  0  0  0  0  0  0
  1  2  1  0  0  0  0
  2  3  1  0  0  0  0
  3  4  1  0  0  0  0
  4  5  1  0  0  0  0
  5  6  1  0  0  0  0
  6  7  1  0  0  0  0
  7  8  1  0  0  0  0
  8  9  1  0  0  0  0
  9 10  1  0  0  0  0
 10 11  1  0  0  0  0
 11 12  1  0  0  0  0
 12 13  1  0  0  0  0
 13 14  1  0  0  0  0
M  END
>  <CHROM.1>
67.54800697,-179.95220839,-104.64187134,-161.00759090,66.09120664,174.74201079
174.95775929,131.66098528,137.12848108,62.08808158,70.18650707,11.82673560
9.83080874,11.77677971,-1.39871241,0.23854242,2.27502266

>  <Name>
ligand

>  <RI>
0

>  <Rbt.Current_Directory>
/home/itssahil/PROJECTS/Mol_Feturizer/New_Systems/rnas/2O3Y

>  <Rbt.Executable>
rbdock ($Id: //depot/dev/client3/rdock/2013.1/src/exe/rbdock.cxx#4 $)

>  <Rbt.Library>
libRbt.so (2013.1, Build901 2013/11/27)

>  <Rbt.Parameter_File>
/export/apps/rDock/src/rDock_2013.1_src/data/scripts/dock_solv.prm

>  <Rbt.Receptor>
prm/pocket_docking_5.prm

>  <SCORE>
-11.131

>  <SCORE.INTER>
-3.08145

>  <SCORE.INTER.CONST>
1

>  <SCORE.INTER.POLAR>
0

>  <SCORE.INTER.ROT>
11

>  <SCORE.INTER.SOLV>
7.85644

>  <SCORE.INTER.VDW>
-15.6064

>  <SCORE.INTER.norm>
-0.220104

>  <SCORE.INTRA>
-8.05296

>  <SCORE.INTRA.DIHEDRAL>
-19.8052

>  <SCORE.INTRA.DIHEDRAL.0>
24.1231

>  <SCORE.INTRA.POLAR>
0

>  <SCORE.INTRA.POLAR.0>
0

>  <SCORE.INTRA.REPUL>
0

>  <SCORE.INTRA.REPUL.0>
0

>  <SCORE.INTRA.SOLV>
2.0151

>  <SCORE.INTRA.SOLV.lig_0>
-48.2216

>  <SCORE.INTRA.VDW>
0.842069

>  <SCORE.INTRA.VDW.0>
-1.3967

>  <SCORE.INTRA.norm>
-0.575212

>  <SCORE.RESTR>
0.00339776

>  <SCORE.RESTR.CAVITY>
0.00339776

>  <SCORE.RESTR.norm>
0.000242697

>  <SCORE.SYSTEM>
0

>  <SCORE.SYSTEM.CONST>
0

>  <SCORE.SYSTEM.DIHEDRAL>
0

>  <SCORE.SYSTEM.SOLV>
0

>  <SCORE.SYSTEM.norm>
0

>  <SCORE.heavy>
14

>  <SCORE.norm>
-0.795073

>  <RMSD>
4.863

$$$$
ligand
 OpenBabel11021811463D
libRbt.so/2013.1/901 2013/11/27
 14 13  0  0  0  0  0  0  0  0999 V2000
   18.7220   14.1426    6.2736 N   0  0  0  0  0  0  0  0  0  0  0  0
   17.6762   14.3775    5.2691 C   0  0  0  0  0  0  0  0  0  0  0  0
   16.4769   13.4849    5.5708 C   0  0  0  0  0  0  0  0  0  0  0  0
   15.8596   13.9275    6.8874 C   0  0  0  0  0  0  0  0  0  0  0  0
   14.7127   13.0640    7.1905 N   0  0  0  0  0  0  0  0  0  0  0  0
   13.6453   13.9345    7.7136 C   0  0  0  0  0  0  0  0  0  0  0  0
   12.4067   13.1085    8.0789 C   0  0  0  0  0  0  0  0  0  0  0  0
   12.7369   12.2690    9.3222 C   0  0  0  0  0  0  0  0  0  0  0  0
   11.5399   11.5407    9.7734 C   0  0  0  0  0  0  0  0  0  0  0  0
   11.9318   10.7141   10.9330 N   0  0  0  0  0  0  0  0  0  0  0  0
   10.7523    9.8463   11.3864 C   0  0  0  0  0  0  0  0  0  0  0  0
   11.1899    8.9482   12.5499 C   0  0  0  0  0  0  0  0  0  0  0  0
   10.0600    8.1009   12.9773 C   0  0  0  0  0  0  0  0  0  0  0  0
   10.4621    7.2860   14.1439 N   0  0  0  0  0  0  0  0  0  0  0  0
  1  2  1  0  0  0  0
  2  3  1  0  0  0  0
  3  4  1  0  0  0  0
  4  5  1  0  0  0  0
  5  6  1  0  0  0  0
  6  7  1  0  0  0  0
  7  8  1  0  0  0  0
  8  9  1  0  0  0  0
  9 10  1  0  0  0  0
 10 11  1  0  0  0  0
 11 12  1  0  0  0  0
 12 13  1  0  0  0  0
 13 14  1  0  0  0  0
M  END
>  <CHROM.1>
66.07072665,-179.45073727,-138.64171140,-179.16085369,70.16955245,175.45236641
177.78331219,-175.69559843,177.49660686,-179.34479632,-177.09106541,13.44068247
11.76766012,9.14765624,-0.92780882,-0.19262877,2.39390508

>  <Name>
ligand

>  <RI>
0

>  <Rbt.Current_Directory>
/home/itssahil/PROJECTS/Mol_Feturizer/New_Systems/rnas/2O3Y

>  <Rbt.Executable>
rbdock ($Id: //depot/dev/client3/rdock/2013.1/src/exe/rbdock.cxx#4 $)

>  <Rbt.Library>
libRbt.so (2013.1, Build901 2013/11/27)

>  <Rbt.Parameter_File>
/export/apps/rDock/src/rDock_2013.1_src/data/scripts/dock_solv.prm

>  <Rbt.Receptor>
prm/pocket_docking_7.prm

>  <SCORE>
-11.4203

>  <SCORE.INTER>
-0.658604

>  <SCORE.INTER.CONST>
1

>  <SCORE.INTER.POLAR>
0

>  <SCORE.INTER.ROT>
11

>  <SCORE.INTER.SOLV>
8.62456

>  <SCORE.INTER.VDW>
-14.2473

>  <SCORE.INTER.norm>
-0.0470431

>  <SCORE.INTRA>
-10.7617

>  <SCORE.INTRA.DIHEDRAL>
-22.506

>  <SCORE.INTRA.DIHEDRAL.0>
24.1231

>  <SCORE.INTRA.POLAR>
0

>  <SCORE.INTRA.POLAR.0>
0

>  <SCORE.INTRA.REPUL>
0

>  <SCORE.INTRA.REPUL.0>
0

>  <SCORE.INTRA.SOLV>
0.25569

>  <SCORE.INTRA.SOLV.lig_0>
-48.2216

>  <SCORE.INTRA.VDW>
0.363448

>  <SCORE.INTRA.VDW.0>
-1.3967

>  <SCORE.INTRA.norm>
-0.768695

>  <SCORE.RESTR>
0

>  <SCORE.RESTR.CAVITY>
0

>  <SCORE.RESTR.norm>
0

>  <SCORE.SYSTEM>
0

>  <SCORE.SYSTEM.CONST>
0

>  <SCORE.SYSTEM.DIHEDRAL>
0

>  <SCORE.SYSTEM.SOLV>
0

>  <SCORE.SYSTEM.norm>
0

>  <SCORE.heavy>
14

>  <SCORE.norm>
-0.815738

>  <RMSD>
4.886

$$$$
ligand
 OpenBabel11021811463D
libRbt.so/2013.1/901 2013/11/27
 14 13  0  0  0  0  0  0  0  0999 V2000
   13.0495    5.5542   16.5410 N   0  0  0  0  0  0  0  0  0  0  0  0
   12.3968    5.9551   15.2875 C   0  0  0  0  0  0  0  0  0  0  0  0
   11.2507    6.9121   15.5988 C   0  0  0  0  0  0  0  0  0  0  0  0
   10.5225    7.2369   14.3049 C   0  0  0  0  0  0  0  0  0  0  0  0
   11.3496    8.1504   13.5085 N   0  0  0  0  0  0  0  0  0  0  0  0
   10.5278    8.5911   12.3679 C   0  0  0  0  0  0  0  0  0  0  0  0
   11.1093    9.8655   11.7451 C   0  0  0  0  0  0  0  0  0  0  0  0
   10.1694   10.3239   10.6198 C   0  0  0  0  0  0  0  0  0  0  0  0
   10.6483   11.5919   10.0459 C   0  0  0  0  0  0  0  0  0  0  0  0
   11.9211   11.3137    9.3499 N   0  0  0  0  0  0  0  0  0  0  0  0
   12.5015   12.6093    8.7715 C   0  0  0  0  0  0  0  0  0  0  0  0
   13.8579   12.3198    8.1173 C   0  0  0  0  0  0  0  0  0  0  0  0
   14.4715   13.5826    7.6632 C   0  0  0  0  0  0  0  0  0  0  0  0
   15.8472   13.3245    7.1863 N   0  0  0  0  0  0  0  0  0  0  0  0
  1  2  1  0  0  0  0
  2  3  1  0  0  0  0
  3  4  1  0  0  0  0
  4  5  1  0  0  0  0
  5  6  1  0  0  0  0
  6  7  1  0  0  0  0
  7  8  1  0  0  0  0
  8  9  1  0  0  0  0
  9 10  1  0  0  0  0
 10 11  1  0  0  0  0
 11 12  1  0  0  0  0
 12 13  1  0  0  0  0
 13 14  1  0  0  0  0
M  END
>  <CHROM.1>
-175.89361539,-73.94098320,-171.85835615,161.53323403,-176.65210995,176.63283841
67.54500823,-177.90690119,177.00061967,-175.15187402,173.01616393,12.11557441
9.80944834,11.50763033,-1.78657366,0.02104079,-0.84889317

>  <Name>
ligand

>  <RI>
0

>  <Rbt.Current_Directory>
/home/itssahil/PROJECTS/Mol_Feturizer/New_Systems/rnas/2O3Y

>  <Rbt.Executable>
rbdock ($Id: //depot/dev/client3/rdock/2013.1/src/exe/rbdock.cxx#4 $)

>  <Rbt.Library>
libRbt.so (2013.1, Build901 2013/11/27)

>  <Rbt.Parameter_File>
/export/apps/rDock/src/rDock_2013.1_src/data/scripts/dock_solv.prm

>  <Rbt.Receptor>
prm/pocket_docking_7.prm

>  <SCORE>
-11.1977

>  <SCORE.INTER>
-0.203883

>  <SCORE.INTER.CONST>
1

>  <SCORE.INTER.POLAR>
0

>  <SCORE.INTER.ROT>
11

>  <SCORE.INTER.SOLV>
10.7391

>  <SCORE.INTER.VDW>
-14.649

>  <SCORE.INTER.norm>
-0.0145631

>  <SCORE.INTRA>
-10.9938

>  <SCORE.INTRA.DIHEDRAL>
-22.4591

>  <SCORE.INTRA.DIHEDRAL.0>
24.1231

>  <SCORE.INTRA.POLAR>
0

>  <SCORE.INTRA.POLAR.0>
0

>  <SCORE.INTRA.REPUL>
0

>  <SCORE.INTRA.REPUL.0>
0

>  <SCORE.INTRA.SOLV>
-0.193867

>  <SCORE.INTRA.SOLV.lig_0>
-48.2216

>  <SCORE.INTRA.VDW>
0.332693

>  <SCORE.INTRA.VDW.0>
-1.3967

>  <SCORE.INTRA.norm>
-0.785271

>  <SCORE.RESTR>
0

>  <SCORE.RESTR.CAVITY>
0

>  <SCORE.RESTR.norm>
0

>  <SCORE.SYSTEM>
0

>  <SCORE.SYSTEM.CONST>
0

>  <SCORE.SYSTEM.DIHEDRAL>
0

>  <SCORE.SYSTEM.SOLV>
0

>  <SCORE.SYSTEM.norm>
0

>  <SCORE.heavy>
14

>  <SCORE.norm>
-0.799834

>  <RMSD>
4.892

$$$$
ligand
 OpenBabel11021811463D
libRbt.so/2013.1/901 2013/11/27
 14 13  0  0  0  0  0  0  0  0999 V2000
   11.6439    5.2400   17.3389 N   0  0  0  0  0  0  0  0  0  0  0  0
   10.7220    5.8578   16.3763 C   0  0  0  0  0  0  0  0  0  0  0  0
   11.5257    6.5766   15.2976 C   0  0  0  0  0  0  0  0  0  0  0  0
   10.5657    7.3539   14.4120 C   0  0  0  0  0  0  0  0  0  0  0  0
   11.3295    8.0230   13.3529 N   0  0  0  0  0  0  0  0  0  0  0  0
   10.4560    9.0648   12.7851 C   0  0  0  0  0  0  0  0  0  0  0  0
   11.1069    9.7006   11.5514 C   0  0  0  0  0  0  0  0  0  0  0  0
   10.2359   10.8837   11.1029 C   0  0  0  0  0  0  0  0  0  0  0  0
   10.7060   11.3945    9.8049 C   0  0  0  0  0  0  0  0  0  0  0  0
   12.0514   11.9678   10.0123 N   0  0  0  0  0  0  0  0  0  0  0  0
   12.5519   12.6228    8.7199 C   0  0  0  0  0  0  0  0  0  0  0  0
   14.0324   12.9934    8.8693 C   0  0  0  0  0  0  0  0  0  0  0  0
   14.5255   13.5908    7.6134 C   0  0  0  0  0  0  0  0  0  0  0  0
   15.9604   13.9216    7.7490 N   0  0  0  0  0  0  0  0  0  0  0  0
  1  2  1  0  0  0  0
  2  3  1  0  0  0  0
  3  4  1  0  0  0  0
  4  5  1  0  0  0  0
  5  6  1  0  0  0  0
  6  7  1  0  0  0  0
  7  8  1  0  0  0  0
  8  9  1  0  0  0  0
  9 10  1  0  0  0  0
 10 11  1  0  0  0  0
 11 12  1  0  0  0  0
 12 13  1  0  0  0  0
 13 14  1  0  0  0  0
M  END
>  <CHROM.1>
-172.97742216,-178.69557702,-163.16343840,-172.87650715,-173.41054329,-171.28962493
-66.13632397,-175.34156927,-170.12410572,178.48104591,-178.81318836,11.95774268
9.94229702,11.78458615,-1.84661532,-0.05763791,-0.84042291

>  <Name>
ligand

>  <RI>
0

>  <Rbt.Current_Directory>
/home/itssahil/PROJECTS/Mol_Feturizer/New_Systems/rnas/2O3Y

>  <Rbt.Executable>
rbdock ($Id: //depot/dev/client3/rdock/2013.1/src/exe/rbdock.cxx#4 $)

>  <Rbt.Library>
libRbt.so (2013.1, Build901 2013/11/27)

>  <Rbt.Parameter_File>
/export/apps/rDock/src/rDock_2013.1_src/data/scripts/dock_solv.prm

>  <Rbt.Receptor>
prm/pocket_docking_8.prm

>  <SCORE>
-10.6928

>  <SCORE.INTER>
0.75141

>  <SCORE.INTER.CONST>
1

>  <SCORE.INTER.POLAR>
0

>  <SCORE.INTER.ROT>
11

>  <SCORE.INTER.SOLV>
7.09005

>  <SCORE.INTER.VDW>
-12.7957

>  <SCORE.INTER.norm>
0.0536721

>  <SCORE.INTRA>
-11.4442

>  <SCORE.INTRA.DIHEDRAL>
-22.9456

>  <SCORE.INTRA.DIHEDRAL.0>
24.1231

>  <SCORE.INTRA.POLAR>
0

>  <SCORE.INTRA.POLAR.0>
0

>  <SCORE.INTRA.REPUL>
0

>  <SCORE.INTRA.REPUL.0>
0

>  <SCORE.INTRA.SOLV>
-0.55745

>  <SCORE.INTRA.SOLV.lig_0>
-48.2216

>  <SCORE.INTRA.VDW>
0.307352

>  <SCORE.INTRA.VDW.0>
-1.3967

>  <SCORE.INTRA.norm>
-0.81744

>  <SCORE.RESTR>
0

>  <SCORE.RESTR.CAVITY>
0

>  <SCORE.RESTR.norm>
0

>  <SCORE.SYSTEM>
0

>  <SCORE.SYSTEM.CONST>
0

>  <SCORE.SYSTEM.DIHEDRAL>
0

>  <SCORE.SYSTEM.SOLV>
0

>  <SCORE.SYSTEM.norm>
0

>  <SCORE.heavy>
14

>  <SCORE.norm>
-0.763768

>  <RMSD>
4.900

$$$$
ligand
 OpenBabel11021811463D
libRbt.so/2013.1/901 2013/11/27
 14 13  0  0  0  0  0  0  0  0999 V2000
   12.1123    4.9946   16.4610 N   0  0  0  0  0  0  0  0  0  0  0  0
   11.0308    5.7534   15.8187 C   0  0  0  0  0  0  0  0  0  0  0  0
   11.6233    6.9472   15.0771 C   0  0  0  0  0  0  0  0  0  0  0  0
   10.4895    7.7443   14.4533 C   0  0  0  0  0  0  0  0  0  0  0  0
   11.0576    8.8302   13.6464 N   0  0  0  0  0  0  0  0  0  0  0  0
   11.1469    8.3355   12.2614 C   0  0  0  0  0  0  0  0  0  0  0  0
   11.4937    9.4795   11.3017 C   0  0  0  0  0  0  0  0  0  0  0  0
   10.2702   10.4014   11.1890 C   0  0  0  0  0  0  0  0  0  0  0  0
   10.4240   11.3079   10.0396 C   0  0  0  0  0  0  0  0  0  0  0  0
   11.5852   12.1794   10.3114 N   0  0  0  0  0  0  0  0  0  0  0  0
   12.4743   12.2791    9.0667 C   0  0  0  0  0  0  0  0  0  0  0  0
   13.0034   13.7114    8.9241 C   0  0  0  0  0  0  0  0  0  0  0  0
   13.8943   13.7988    7.7510 C   0  0  0  0  0  0  0  0  0  0  0  0
   15.1236   13.0157    7.9998 N   0  0  0  0  0  0  0  0  0  0  0  0
  1  2  1  0  0  0  0
  2  3  1  0  0  0  0
  3  4  1  0  0  0  0
  4  5  1  0  0  0  0
  5  6  1  0  0  0  0
  6  7  1  0  0  0  0
  7  8  1  0  0  0  0
  8  9  1  0  0  0  0
  9 10  1  0  0  0  0
 10 11  1  0  0  0  0
 11 12  1  0  0  0  0
 12 13  1  0  0  0  0
 13 14  1  0  0  0  0
M  END
>  <CHROM.1>
-178.34219939,-175.36821950,94.41047841,169.89799818,-70.88209588,-165.75990627
-64.22861564,134.81206550,141.23031926,178.19172624,-67.64618704,11.83754032
9.91282982,11.73566002,-1.77156965,0.06457234,-0.77499472

>  <Name>
ligand

>  <RI>
0

>  <Rbt.Current_Directory>
/home/itssahil/PROJECTS/Mol_Feturizer/New_Systems/rnas/2O3Y

>  <Rbt.Executable>
rbdock ($Id: //depot/dev/client3/rdock/2013.1/src/exe/rbdock.cxx#4 $)

>  <Rbt.Library>
libRbt.so (2013.1, Build901 2013/11/27)

>  <Rbt.Parameter_File>
/export/apps/rDock/src/rDock_2013.1_src/data/scripts/dock_solv.prm

>  <Rbt.Receptor>
prm/pocket_docking_6.prm

>  <SCORE>
-9.35044

>  <SCORE.INTER>
-0.686024

>  <SCORE.INTER.CONST>
1

>  <SCORE.INTER.POLAR>
0

>  <SCORE.INTER.ROT>
11

>  <SCORE.INTER.SOLV>
8.95394

>  <SCORE.INTER.VDW>
-14.3753

>  <SCORE.INTER.norm>
-0.0490017

>  <SCORE.INTRA>
-8.66441

>  <SCORE.INTRA.DIHEDRAL>
-19.7724

>  <SCORE.INTRA.DIHEDRAL.0>
24.1231

>  <SCORE.INTRA.POLAR>
0

>  <SCORE.INTRA.POLAR.0>
0

>  <SCORE.INTRA.REPUL>
0

>  <SCORE.INTRA.REPUL.0>
0

>  <SCORE.INTRA.SOLV>
0.64495

>  <SCORE.INTRA.SOLV.lig_0>
-48.2216

>  <SCORE.INTRA.VDW>
0.899291

>  <SCORE.INTRA.VDW.0>
-1.3967

>  <SCORE.INTRA.norm>
-0.618887

>  <SCORE.RESTR>
0

>  <SCORE.RESTR.CAVITY>
0

>  <SCORE.RESTR.norm>
0

>  <SCORE.SYSTEM>
0

>  <SCORE.SYSTEM.CONST>
0

>  <SCORE.SYSTEM.DIHEDRAL>
0

>  <SCORE.SYSTEM.SOLV>
0

>  <SCORE.SYSTEM.norm>
0

>  <SCORE.heavy>
14

>  <SCORE.norm>
-0.667888

>  <RMSD>
4.909

$$$$
ligand
 OpenBabel11021811463D
libRbt.so/2013.1/901 2013/11/27
 14 13  0  0  0  0  0  0  0  0999 V2000
   14.8220   13.3852    7.6451 N   0  0  0  0  0  0  0  0  0  0  0  0
   13.4981   13.9722    7.8918 C   0  0  0  0  0  0  0  0  0  0  0  0
   12.9368   13.4203    9.1981 C   0  0  0  0  0  0  0  0  0  0  0  0
   12.6328   11.9429    9.0117 C   0  0  0  0  0  0  0  0  0  0  0  0
   12.0390   11.4187   10.2468 N   0  0  0  0  0  0  0  0  0  0  0  0
   10.5767   11.5210   10.0983 C   0  0  0  0  0  0  0  0  0  0  0  0
    9.8982   10.2166   10.5321 C   0  0  0  0  0  0  0  0  0  0  0  0
   10.2186    9.9770   12.0152 C   0  0  0  0  0  0  0  0  0  0  0  0
    9.6107    8.7147   12.4665 C   0  0  0  0  0  0  0  0  0  0  0  0
    9.9710    8.5293   13.8869 N   0  0  0  0  0  0  0  0  0  0  0  0
   11.3097    7.7913   14.0008 C   0  0  0  0  0  0  0  0  0  0  0  0
   11.4585    7.2075   15.4110 C   0  0  0  0  0  0  0  0  0  0  0  0
   10.4736    6.1267   15.6091 C   0  0  0  0  0  0  0  0  0  0  0  0
   10.5804    5.6021   16.9875 N   0  0  0  0  0  0  0  0  0  0  0  0
  1  2  1  0  0  0  0
  2  3  1  0  0  0  0
  3  4  1  0  0  0  0
  4  5  1  0  0  0  0
  5  6  1  0  0  0  0
  6  7  1  0  0  0  0
  7  8  1  0  0  0  0
  8  9  1  0  0  0  0
  9 10  1  0  0  0  0
 10 11  1  0  0  0  0
 11 12  1  0  0  0  0
 12 13  1  0  0  0  0
 13 14  1  0  0  0  0
M  END
>  <CHROM.1>
-68.01169675,-177.60841487,93.07147685,133.70931879,61.40259616,-178.68428743
179.07959996,-88.13567644,-161.80935293,67.87486221,-177.68545654,11.43027111
9.98763516,11.78561960,-1.29615066,0.11955675,2.27705072

>  <Name>
ligand

>  <RI>
0

>  <Rbt.Current_Directory>
/home/itssahil/PROJECTS/Mol_Feturizer/New_Systems/rnas/2O3Y

>  <Rbt.Executable>
rbdock ($Id: //depot/dev/client3/rdock/2013.1/src/exe/rbdock.cxx#4 $)

>  <Rbt.Library>
libRbt.so (2013.1, Build901 2013/11/27)

>  <Rbt.Parameter_File>
/export/apps/rDock/src/rDock_2013.1_src/data/scripts/dock_solv.prm

>  <Rbt.Receptor>
prm/pocket_docking_8.prm

>  <SCORE>
-10.9206

>  <SCORE.INTER>
-2.05545

>  <SCORE.INTER.CONST>
1

>  <SCORE.INTER.POLAR>
0

>  <SCORE.INTER.ROT>
11

>  <SCORE.INTER.SOLV>
8.18822

>  <SCORE.INTER.VDW>
-15.033

>  <SCORE.INTER.norm>
-0.146818

>  <SCORE.INTRA>
-8.86516

>  <SCORE.INTRA.DIHEDRAL>
-21.051

>  <SCORE.INTRA.DIHEDRAL.0>
24.1231

>  <SCORE.INTRA.POLAR>
0

>  <SCORE.INTRA.POLAR.0>
0

>  <SCORE.INTRA.REPUL>
0

>  <SCORE.INTRA.REPUL.0>
0

>  <SCORE.INTRA.SOLV>
0.708084

>  <SCORE.INTRA.SOLV.lig_0>
-48.2216

>  <SCORE.INTRA.VDW>
1.3063

>  <SCORE.INTRA.VDW.0>
-1.3967

>  <SCORE.INTRA.norm>
-0.633226

>  <SCORE.RESTR>
0

>  <SCORE.RESTR.CAVITY>
0

>  <SCORE.RESTR.norm>
0

>  <SCORE.SYSTEM>
0

>  <SCORE.SYSTEM.CONST>
0

>  <SCORE.SYSTEM.DIHEDRAL>
0

>  <SCORE.SYSTEM.SOLV>
0

>  <SCORE.SYSTEM.norm>
0

>  <SCORE.heavy>
14

>  <SCORE.norm>
-0.780044

>  <RMSD>
4.912

$$$$
ligand
 OpenBabel11021811463D
libRbt.so/2013.1/901 2013/11/27
 14 13  0  0  0  0  0  0  0  0999 V2000
   16.8967   12.9058    6.6521 N   0  0  0  0  0  0  0  0  0  0  0  0
   17.3137   11.8067    7.5332 C   0  0  0  0  0  0  0  0  0  0  0  0
   18.7449   11.4031    7.1940 C   0  0  0  0  0  0  0  0  0  0  0  0
   19.1513   10.2481    8.0944 C   0  0  0  0  0  0  0  0  0  0  0  0
   19.2123   10.7232    9.4813 N   0  0  0  0  0  0  0  0  0  0  0  0
   19.7847    9.6297   10.2859 C   0  0  0  0  0  0  0  0  0  0  0  0
   19.7275    9.9720   11.7790 C   0  0  0  0  0  0  0  0  0  0  0  0
   18.2556    9.9666   12.2185 C   0  0  0  0  0  0  0  0  0  0  0  0
   18.1576   10.2396   13.6616 C   0  0  0  0  0  0  0  0  0  0  0  0
   16.7255   10.2191   14.0228 N   0  0  0  0  0  0  0  0  0  0  0  0
   16.5385   10.6888   15.4700 C   0  0  0  0  0  0  0  0  0  0  0  0
   15.0735   10.5087   15.8855 C   0  0  0  0  0  0  0  0  0  0  0  0
   14.8937   10.9512   17.2817 C   0  0  0  0  0  0  0  0  0  0  0  0
   13.4867   10.7511   17.6903 N   0  0  0  0  0  0  0  0  0  0  0  0
  1  2  1  0  0  0  0
  2  3  1  0  0  0  0
  3  4  1  0  0  0  0
  4  5  1  0  0  0  0
  5  6  1  0  0  0  0
  6  7  1  0  0  0  0
  7  8  1  0  0  0  0
  8  9  1  0  0  0  0
  9 10  1  0  0  0  0
 10 11  1  0  0  0  0
 11 12  1  0  0  0  0
 12 13  1  0  0  0  0
 13 14  1  0  0  0  0
M  END
>  <CHROM.1>
-178.88901208,-66.23916918,-172.39387273,-173.04326885,68.64356671,177.79791236
-179.90069547,-172.11152069,-173.45106438,179.58624653,-178.84436281,17.42622093
10.71508190,11.94644516,1.15047515,0.46477489,-1.30129730

>  <Name>
ligand

>  <RI>
0

>  <Rbt.Current_Directory>
/home/itssahil/PROJECTS/Mol_Feturizer/New_Systems/rnas/2O3Y

>  <Rbt.Executable>
rbdock ($Id: //depot/dev/client3/rdock/2013.1/src/exe/rbdock.cxx#4 $)

>  <Rbt.Library>
libRbt.so (2013.1, Build901 2013/11/27)

>  <Rbt.Parameter_File>
/export/apps/rDock/src/rDock_2013.1_src/data/scripts/dock_solv.prm

>  <Rbt.Receptor>
prm/pocket_docking_5.prm

>  <SCORE>
-7.69765

>  <SCORE.INTER>
3.85399

>  <SCORE.INTER.CONST>
1

>  <SCORE.INTER.POLAR>
0

>  <SCORE.INTER.ROT>
11

>  <SCORE.INTER.SOLV>
2.86688

>  <SCORE.INTER.VDW>
-9.31963

>  <SCORE.INTER.norm>
0.275285

>  <SCORE.INTRA>
-11.5556

>  <SCORE.INTRA.DIHEDRAL>
-23.4968

>  <SCORE.INTRA.DIHEDRAL.0>
24.1231

>  <SCORE.INTRA.POLAR>
0

>  <SCORE.INTRA.POLAR.0>
0

>  <SCORE.INTRA.REPUL>
0

>  <SCORE.INTRA.REPUL.0>
0

>  <SCORE.INTRA.SOLV>
-0.141438

>  <SCORE.INTRA.SOLV.lig_0>
-48.2216

>  <SCORE.INTRA.VDW>
0.263553

>  <SCORE.INTRA.VDW.0>
-1.3967

>  <SCORE.INTRA.norm>
-0.825399

>  <SCORE.RESTR>
0.00394373

>  <SCORE.RESTR.CAVITY>
0.00394373

>  <SCORE.RESTR.norm>
0.000281695

>  <SCORE.SYSTEM>
0

>  <SCORE.SYSTEM.CONST>
0

>  <SCORE.SYSTEM.DIHEDRAL>
0

>  <SCORE.SYSTEM.SOLV>
0

>  <SCORE.SYSTEM.norm>
0

>  <SCORE.heavy>
14

>  <SCORE.norm>
-0.549832

>  <RMSD>
4.919

$$$$
ligand
 OpenBabel11021811463D
libRbt.so/2013.1/901 2013/11/27
 14 13  0  0  0  0  0  0  0  0999 V2000
   13.1611    6.2434   16.9818 N   0  0  0  0  0  0  0  0  0  0  0  0
   12.5456    6.3933   15.6563 C   0  0  0  0  0  0  0  0  0  0  0  0
   11.0917    6.8238   15.8208 C   0  0  0  0  0  0  0  0  0  0  0  0
   10.4924    7.0511   14.4427 C   0  0  0  0  0  0  0  0  0  0  0  0
   11.1278    8.2254   13.8341 N   0  0  0  0  0  0  0  0  0  0  0  0
   10.3375    8.5715   12.6398 C   0  0  0  0  0  0  0  0  0  0  0  0
   10.8933    9.8352   11.9734 C   0  0  0  0  0  0  0  0  0  0  0  0
    9.9944   10.1844   10.7777 C   0  0  0  0  0  0  0  0  0  0  0  0
   10.5099   11.3790   10.0892 C   0  0  0  0  0  0  0  0  0  0  0  0
   11.8161   11.0238    9.4979 N   0  0  0  0  0  0  0  0  0  0  0  0
   12.7104   12.2655    9.4069 C   0  0  0  0  0  0  0  0  0  0  0  0
   12.5189   12.9402    8.0432 C   0  0  0  0  0  0  0  0  0  0  0  0
   13.4153   14.1074    7.9347 C   0  0  0  0  0  0  0  0  0  0  0  0
   14.8235   13.6566    7.9478 N   0  0  0  0  0  0  0  0  0  0  0  0
  1  2  1  0  0  0  0
  2  3  1  0  0  0  0
  3  4  1  0  0  0  0
  4  5  1  0  0  0  0
  5  6  1  0  0  0  0
  6  7  1  0  0  0  0
  7  8  1  0  0  0  0
  8  9  1  0  0  0  0
  9 10  1  0  0  0  0
 10 11  1  0  0  0  0
 11 12  1  0  0  0  0
 12 13  1  0  0  0  0
 13 14  1  0  0  0  0
M  END
>  <CHROM.1>
176.81184581,-67.99171779,-168.62910177,177.30807801,-177.38019317,-178.78933803
65.99290918,-151.35186590,-91.54100235,-177.94387518,64.99970693,11.81662103
9.90723512,11.78891876,-1.70956846,-0.20666945,-0.88040480

>  <Name>
ligand

>  <RI>
0

>  <Rbt.Current_Directory>
/home/itssahil/PROJECTS/Mol_Feturizer/New_Systems/rnas/2O3Y

>  <Rbt.Executable>
rbdock ($Id: //depot/dev/client3/rdock/2013.1/src/exe/rbdock.cxx#4 $)

>  <Rbt.Library>
libRbt.so (2013.1, Build901 2013/11/27)

>  <Rbt.Parameter_File>
/export/apps/rDock/src/rDock_2013.1_src/data/scripts/dock_solv.prm

>  <Rbt.Receptor>
prm/pocket_docking_6.prm

>  <SCORE>
-11.0426

>  <SCORE.INTER>
-1.19222

>  <SCORE.INTER.CONST>
1

>  <SCORE.INTER.POLAR>
0

>  <SCORE.INTER.ROT>
11

>  <SCORE.INTER.SOLV>
9.6233

>  <SCORE.INTER.VDW>
-14.9359

>  <SCORE.INTER.norm>
-0.0851583

>  <SCORE.INTRA>
-9.85037

>  <SCORE.INTRA.DIHEDRAL>
-22.2547

>  <SCORE.INTRA.DIHEDRAL.0>
24.1231

>  <SCORE.INTRA.POLAR>
0

>  <SCORE.INTRA.POLAR.0>
0

>  <SCORE.INTRA.REPUL>
0

>  <SCORE.INTRA.REPUL.0>
0

>  <SCORE.INTRA.SOLV>
0.814302

>  <SCORE.INTRA.SOLV.lig_0>
-48.2216

>  <SCORE.INTRA.VDW>
0.869801

>  <SCORE.INTRA.VDW.0>
-1.3967

>  <SCORE.INTRA.norm>
-0.703598

>  <SCORE.RESTR>
0

>  <SCORE.RESTR.CAVITY>
0

>  <SCORE.RESTR.norm>
0

>  <SCORE.SYSTEM>
0

>  <SCORE.SYSTEM.CONST>
0

>  <SCORE.SYSTEM.DIHEDRAL>
0

>  <SCORE.SYSTEM.SOLV>
0

>  <SCORE.SYSTEM.norm>
0

>  <SCORE.heavy>
14

>  <SCORE.norm>
-0.788756

>  <RMSD>
4.922

$$$$
ligand
 OpenBabel11021811463D
libRbt.so/2013.1/901 2013/11/27
 14 13  0  0  0  0  0  0  0  0999 V2000
   14.8547   12.5894    7.4573 N   0  0  0  0  0  0  0  0  0  0  0  0
   13.9848   13.7000    7.8672 C   0  0  0  0  0  0  0  0  0  0  0  0
   12.5718   13.1750    8.0996 C   0  0  0  0  0  0  0  0  0  0  0  0
   12.5976   12.2114    9.2747 C   0  0  0  0  0  0  0  0  0  0  0  0
   11.2372   11.7178    9.5167 N   0  0  0  0  0  0  0  0  0  0  0  0
   11.3365   10.6716   10.5493 C   0  0  0  0  0  0  0  0  0  0  0  0
    9.9465   10.1316   10.9049 C   0  0  0  0  0  0  0  0  0  0  0  0
   10.1135    9.0319   11.9643 C   0  0  0  0  0  0  0  0  0  0  0  0
   10.3415    9.6348   13.2877 C   0  0  0  0  0  0  0  0  0  0  0  0
   10.0509    8.6029   14.3037 N   0  0  0  0  0  0  0  0  0  0  0  0
   11.2614    7.6791   14.4803 C   0  0  0  0  0  0  0  0  0  0  0  0
   10.8372    6.4109   15.2308 C   0  0  0  0  0  0  0  0  0  0  0  0
   12.0237    5.5823   15.5191 C   0  0  0  0  0  0  0  0  0  0  0  0
   12.8884    6.2746   16.4987 N   0  0  0  0  0  0  0  0  0  0  0  0
  1  2  1  0  0  0  0
  2  3  1  0  0  0  0
  3  4  1  0  0  0  0
  4  5  1  0  0  0  0
  5  6  1  0  0  0  0
  6  7  1  0  0  0  0
  7  8  1  0  0  0  0
  8  9  1  0  0  0  0
  9 10  1  0  0  0  0
 10 11  1  0  0  0  0
 11 12  1  0  0  0  0
 12 13  1  0  0  0  0
 13 14  1  0  0  0  0
M  END
>  <CHROM.1>
64.87395041,179.15268133,173.30086126,177.90738626,179.05526295,78.09297383
161.58889094,81.97169617,-164.75863347,-174.44812962,67.55615757,11.71732904
9.81525019,11.78238127,-1.38177623,-0.07453488,2.29255281

>  <Name>
ligand

>  <RI>
0

>  <Rbt.Current_Directory>
/home/itssahil/PROJECTS/Mol_Feturizer/New_Systems/rnas/2O3Y

>  <Rbt.Executable>
rbdock ($Id: //depot/dev/client3/rdock/2013.1/src/exe/rbdock.cxx#4 $)

>  <Rbt.Library>
libRbt.so (2013.1, Build901 2013/11/27)

>  <Rbt.Parameter_File>
/export/apps/rDock/src/rDock_2013.1_src/data/scripts/dock_solv.prm

>  <Rbt.Receptor>
prm/pocket_docking_6.prm

>  <SCORE>
-10.0015

>  <SCORE.INTER>
-1.76372

>  <SCORE.INTER.CONST>
1

>  <SCORE.INTER.POLAR>
0

>  <SCORE.INTER.ROT>
11

>  <SCORE.INTER.SOLV>
8.27976

>  <SCORE.INTER.VDW>
-14.8691

>  <SCORE.INTER.norm>
-0.12598

>  <SCORE.INTRA>
-8.23776

>  <SCORE.INTRA.DIHEDRAL>
-20.6626

>  <SCORE.INTRA.DIHEDRAL.0>
24.1231

>  <SCORE.INTRA.POLAR>
0

>  <SCORE.INTRA.POLAR.0>
0

>  <SCORE.INTRA.REPUL>
0

>  <SCORE.INTRA.REPUL.0>
0

>  <SCORE.INTRA.SOLV>
0.905867

>  <SCORE.INTRA.SOLV.lig_0>
-48.2216

>  <SCORE.INTRA.VDW>
1.64062

>  <SCORE.INTRA.VDW.0>
-1.3967

>  <SCORE.INTRA.norm>
-0.588411

>  <SCORE.RESTR>
0

>  <SCORE.RESTR.CAVITY>
0

>  <SCORE.RESTR.norm>
0

>  <SCORE.SYSTEM>
0

>  <SCORE.SYSTEM.CONST>
0

>  <SCORE.SYSTEM.DIHEDRAL>
0

>  <SCORE.SYSTEM.SOLV>
0

>  <SCORE.SYSTEM.norm>
0

>  <SCORE.heavy>
14

>  <SCORE.norm>
-0.714391

>  <RMSD>
4.937

$$$$
ligand
 OpenBabel11021811463D
libRbt.so/2013.1/901 2013/11/27
 14 13  0  0  0  0  0  0  0  0999 V2000
   19.7060    8.8258    8.1639 N   0  0  0  0  0  0  0  0  0  0  0  0
   19.2689    9.4732    9.4081 C   0  0  0  0  0  0  0  0  0  0  0  0
   20.3144    9.2384   10.4934 C   0  0  0  0  0  0  0  0  0  0  0  0
   19.9304   10.0463   11.7222 C   0  0  0  0  0  0  0  0  0  0  0  0
   18.7206    9.4657   12.3157 N   0  0  0  0  0  0  0  0  0  0  0  0
   18.2947   10.3713   13.3970 C   0  0  0  0  0  0  0  0  0  0  0  0
   17.2743    9.6800   14.3085 C   0  0  0  0  0  0  0  0  0  0  0  0
   16.8337   10.6824   15.3858 C   0  0  0  0  0  0  0  0  0  0  0  0
   15.8504   10.0582   16.2858 C   0  0  0  0  0  0  0  0  0  0  0  0
   15.3442   11.1097   17.1912 N   0  0  0  0  0  0  0  0  0  0  0  0
   14.4935   10.4854   18.3032 C   0  0  0  0  0  0  0  0  0  0  0  0
   13.6082   11.5625   18.9416 C   0  0  0  0  0  0  0  0  0  0  0  0
   12.6601   12.0865   17.9395 C   0  0  0  0  0  0  0  0  0  0  0  0
   11.7024   11.0264   17.5581 N   0  0  0  0  0  0  0  0  0  0  0  0
  1  2  1  0  0  0  0
  2  3  1  0  0  0  0
  3  4  1  0  0  0  0
  4  5  1  0  0  0  0
  5  6  1  0  0  0  0
  6  7  1  0  0  0  0
  7  8  1  0  0  0  0
  8  9  1  0  0  0  0
  9 10  1  0  0  0  0
 10 11  1  0  0  0  0
 11 12  1  0  0  0  0
 12 13  1  0  0  0  0
 13 14  1  0  0  0  0
M  END
>  <CHROM.1>
173.46419799,69.03517300,-173.23961040,-165.07115847,-178.19370023,179.99100510
-173.22624332,-170.60869433,-161.25959599,63.59606121,66.69134976,16.71454560
10.29378002,14.38697077,0.91373530,0.11436578,-1.71624553

>  <Name>
ligand

>  <RI>
0

>  <Rbt.Current_Directory>
/home/itssahil/PROJECTS/Mol_Feturizer/New_Systems/rnas/2O3Y

>  <Rbt.Executable>
rbdock ($Id: //depot/dev/client3/rdock/2013.1/src/exe/rbdock.cxx#4 $)

>  <Rbt.Library>
libRbt.so (2013.1, Build901 2013/11/27)

>  <Rbt.Parameter_File>
/export/apps/rDock/src/rDock_2013.1_src/data/scripts/dock_solv.prm

>  <Rbt.Receptor>
prm/pocket_docking_7.prm

>  <SCORE>
-13.1167

>  <SCORE.INTER>
-2.93647

>  <SCORE.INTER.CONST>
1

>  <SCORE.INTER.POLAR>
0

>  <SCORE.INTER.ROT>
11

>  <SCORE.INTER.SOLV>
8.8033

>  <SCORE.INTER.VDW>
-15.8254

>  <SCORE.INTER.norm>
-0.209748

>  <SCORE.INTRA>
-10.1802

>  <SCORE.INTRA.DIHEDRAL>
-22.7105

>  <SCORE.INTRA.DIHEDRAL.0>
24.1231

>  <SCORE.INTRA.POLAR>
0

>  <SCORE.INTRA.POLAR.0>
0

>  <SCORE.INTRA.REPUL>
0

>  <SCORE.INTRA.REPUL.0>
0

>  <SCORE.INTRA.SOLV>
1.39583

>  <SCORE.INTRA.SOLV.lig_0>
-48.2216

>  <SCORE.INTRA.VDW>
0.477163

>  <SCORE.INTRA.VDW.0>
-1.3967

>  <SCORE.INTRA.norm>
-0.727156

>  <SCORE.RESTR>
0

>  <SCORE.RESTR.CAVITY>
0

>  <SCORE.RESTR.norm>
0

>  <SCORE.SYSTEM>
0

>  <SCORE.SYSTEM.CONST>
0

>  <SCORE.SYSTEM.DIHEDRAL>
0

>  <SCORE.SYSTEM.SOLV>
0

>  <SCORE.SYSTEM.norm>
0

>  <SCORE.heavy>
14

>  <SCORE.norm>
-0.936904

>  <RMSD>
4.975

$$$$
ligand
 OpenBabel11021811463D
libRbt.so/2013.1/901 2013/11/27
 14 13  0  0  0  0  0  0  0  0999 V2000
   10.4224   16.2168   15.9294 N   0  0  0  0  0  0  0  0  0  0  0  0
   10.3417   14.9805   16.7188 C   0  0  0  0  0  0  0  0  0  0  0  0
   11.6752   14.2442   16.6413 C   0  0  0  0  0  0  0  0  0  0  0  0
   11.5724   12.9640   17.4540 C   0  0  0  0  0  0  0  0  0  0  0  0
   12.8747   12.2881   17.4459 N   0  0  0  0  0  0  0  0  0  0  0  0
   12.8790   11.3489   18.5811 C   0  0  0  0  0  0  0  0  0  0  0  0
   14.3033   10.8632   18.8734 C   0  0  0  0  0  0  0  0  0  0  0  0
   14.7708   10.0017   17.6907 C   0  0  0  0  0  0  0  0  0  0  0  0
   15.3430   10.8561   16.6375 C   0  0  0  0  0  0  0  0  0  0  0  0
   15.7534    9.9767   15.5240 N   0  0  0  0  0  0  0  0  0  0  0  0
   17.0810   10.4607   14.9297 C   0  0  0  0  0  0  0  0  0  0  0  0
   17.3195    9.7789   13.5769 C   0  0  0  0  0  0  0  0  0  0  0  0
   18.6483   10.1552   13.0570 C   0  0  0  0  0  0  0  0  0  0  0  0
   18.7993    9.6604   11.6718 N   0  0  0  0  0  0  0  0  0  0  0  0
  1  2  1  0  0  0  0
  2  3  1  0  0  0  0
  3  4  1  0  0  0  0
  4  5  1  0  0  0  0
  5  6  1  0  0  0  0
  6  7  1  0  0  0  0
  7  8  1  0  0  0  0
  8  9  1  0  0  0  0
  9 10  1  0  0  0  0
 10 11  1  0  0  0  0
 11 12  1  0  0  0  0
 12 13  1  0  0  0  0
 13 14  1  0  0  0  0
M  END
>  <CHROM.1>
-179.59960684,-176.85999700,160.72877242,-165.51444626,-67.15290776,85.69405133
-179.14726643,-140.77655430,-165.79678641,-175.23840670,-171.84293381,14.41313285
11.69953054,16.05260972,3.05293374,-0.69676330,2.13248331

>  <Name>
ligand

>  <RI>
0

>  <Rbt.Current_Directory>
/home/itssahil/PROJECTS/Mol_Feturizer/New_Systems/rnas/2O3Y

>  <Rbt.Executable>
rbdock ($Id: //depot/dev/client3/rdock/2013.1/src/exe/rbdock.cxx#4 $)

>  <Rbt.Library>
libRbt.so (2013.1, Build901 2013/11/27)

>  <Rbt.Parameter_File>
/export/apps/rDock/src/rDock_2013.1_src/data/scripts/dock_solv.prm

>  <Rbt.Receptor>
prm/pocket_docking_7.prm

>  <SCORE>
-10.6166

>  <SCORE.INTER>
-1.40504

>  <SCORE.INTER.CONST>
1

>  <SCORE.INTER.POLAR>
0

>  <SCORE.INTER.ROT>
11

>  <SCORE.INTER.SOLV>
9.37871

>  <SCORE.INTER.VDW>
-14.9963

>  <SCORE.INTER.norm>
-0.10036

>  <SCORE.INTRA>
-9.21152

>  <SCORE.INTRA.DIHEDRAL>
-19.7001

>  <SCORE.INTRA.DIHEDRAL.0>
24.1231

>  <SCORE.INTRA.POLAR>
0

>  <SCORE.INTRA.POLAR.0>
0

>  <SCORE.INTRA.REPUL>
0

>  <SCORE.INTRA.REPUL.0>
0

>  <SCORE.INTRA.SOLV>
0.152091

>  <SCORE.INTRA.SOLV.lig_0>
-48.2216

>  <SCORE.INTRA.VDW>
0.562497

>  <SCORE.INTRA.VDW.0>
-1.3967

>  <SCORE.INTRA.norm>
-0.657966

>  <SCORE.RESTR>
0

>  <SCORE.RESTR.CAVITY>
0

>  <SCORE.RESTR.norm>
0

>  <SCORE.SYSTEM>
0

>  <SCORE.SYSTEM.CONST>
0

>  <SCORE.SYSTEM.DIHEDRAL>
0

>  <SCORE.SYSTEM.SOLV>
0

>  <SCORE.SYSTEM.norm>
0

>  <SCORE.heavy>
14

>  <SCORE.norm>
-0.758326

>  <RMSD>
4.978

$$$$
ligand
 OpenBabel11021811463D
libRbt.so/2013.1/901 2013/11/27
 14 13  0  0  0  0  0  0  0  0999 V2000
   21.6291    7.9409    8.1684 N   0  0  0  0  0  0  0  0  0  0  0  0
   20.9957    9.0823    8.8425 C   0  0  0  0  0  0  0  0  0  0  0  0
   20.4034    8.6194   10.1696 C   0  0  0  0  0  0  0  0  0  0  0  0
   19.6273    9.7724   10.7848 C   0  0  0  0  0  0  0  0  0  0  0  0
   19.0692    9.3392   12.0708 N   0  0  0  0  0  0  0  0  0  0  0  0
   18.1101   10.3744   12.4941 C   0  0  0  0  0  0  0  0  0  0  0  0
   17.7731   10.2211   13.9817 C   0  0  0  0  0  0  0  0  0  0  0  0
   16.9729   11.4554   14.4241 C   0  0  0  0  0  0  0  0  0  0  0  0
   16.6461   11.3597   15.8561 C   0  0  0  0  0  0  0  0  0  0  0  0
   15.6471   10.2832   16.0144 N   0  0  0  0  0  0  0  0  0  0  0  0
   14.8046   10.5246   17.2721 C   0  0  0  0  0  0  0  0  0  0  0  0
   13.4871   11.2084   16.8869 C   0  0  0  0  0  0  0  0  0  0  0  0
   12.7146   11.5227   18.1042 C   0  0  0  0  0  0  0  0  0  0  0  0
   11.4435   12.1800   17.7314 N   0  0  0  0  0  0  0  0  0  0  0  0
  1  2  1  0  0  0  0
  2  3  1  0  0  0  0
  3  4  1  0  0  0  0
  4  5  1  0  0  0  0
  5  6  1  0  0  0  0
  6  7  1  0  0  0  0
  7  8  1  0  0  0  0
  8  9  1  0  0  0  0
  9 10  1  0  0  0  0
 10 11  1  0  0  0  0
 11 12  1  0  0  0  0
 12 13  1  0  0  0  0
 13 14  1  0  0  0  0
M  END
>  <CHROM.1>
-174.10454642,-179.27244851,-168.64888198,-164.07179855,170.29555453,-179.08188974
-70.00584055,-154.23094908,97.35216215,-176.25605813,-179.90717499,17.09461758
10.27754150,13.77162577,0.83111005,0.17685333,-1.73162277

>  <Name>
ligand

>  <RI>
0

>  <Rbt.Current_Directory>
/home/itssahil/PROJECTS/Mol_Feturizer/New_Systems/rnas/2O3Y

>  <Rbt.Executable>
rbdock ($Id: //depot/dev/client3/rdock/2013.1/src/exe/rbdock.cxx#4 $)

>  <Rbt.Library>
libRbt.so (2013.1, Build901 2013/11/27)

>  <Rbt.Parameter_File>
/export/apps/rDock/src/rDock_2013.1_src/data/scripts/dock_solv.prm

>  <Rbt.Receptor>
prm/pocket_docking_8.prm

>  <SCORE>
-10.9125

>  <SCORE.INTER>
-0.137003

>  <SCORE.INTER.CONST>
1

>  <SCORE.INTER.POLAR>
0

>  <SCORE.INTER.ROT>
11

>  <SCORE.INTER.SOLV>
11.5223

>  <SCORE.INTER.VDW>
-14.8654

>  <SCORE.INTER.norm>
-0.00978595

>  <SCORE.INTRA>
-10.7755

>  <SCORE.INTRA.DIHEDRAL>
-21.6221

>  <SCORE.INTRA.DIHEDRAL.0>
24.1231

>  <SCORE.INTRA.POLAR>
0

>  <SCORE.INTRA.POLAR.0>
0

>  <SCORE.INTRA.REPUL>
0

>  <SCORE.INTRA.REPUL.0>
0

>  <SCORE.INTRA.SOLV>
-0.563265

>  <SCORE.INTRA.SOLV.lig_0>
-48.2216

>  <SCORE.INTRA.VDW>
0.317195

>  <SCORE.INTRA.VDW.0>
-1.3967

>  <SCORE.INTRA.norm>
-0.769678

>  <SCORE.RESTR>
0

>  <SCORE.RESTR.CAVITY>
0

>  <SCORE.RESTR.norm>
0

>  <SCORE.SYSTEM>
0

>  <SCORE.SYSTEM.CONST>
0

>  <SCORE.SYSTEM.DIHEDRAL>
0

>  <SCORE.SYSTEM.SOLV>
0

>  <SCORE.SYSTEM.norm>
0

>  <SCORE.heavy>
14

>  <SCORE.norm>
-0.779464

>  <RMSD>
4.998

$$$$
ligand
 OpenBabel11021811463D
libRbt.so/2013.1/901 2013/11/27
 14 13  0  0  0  0  0  0  0  0999 V2000
   14.3384   14.0321    9.6375 N   0  0  0  0  0  0  0  0  0  0  0  0
   13.0608   14.1307    8.9190 C   0  0  0  0  0  0  0  0  0  0  0  0
   12.8203   12.8429    8.1380 C   0  0  0  0  0  0  0  0  0  0  0  0
   12.5583   11.7169    9.1247 C   0  0  0  0  0  0  0  0  0  0  0  0
   11.2288   11.9018    9.7172 N   0  0  0  0  0  0  0  0  0  0  0  0
   10.7672   10.5748   10.1609 C   0  0  0  0  0  0  0  0  0  0  0  0
   10.8759   10.4480   11.6847 C   0  0  0  0  0  0  0  0  0  0  0  0
   10.4648    9.0217   12.0800 C   0  0  0  0  0  0  0  0  0  0  0  0
   10.6386    8.8283   13.5288 C   0  0  0  0  0  0  0  0  0  0  0  0
   10.3788    7.4043   13.8228 N   0  0  0  0  0  0  0  0  0  0  0  0
   10.6246    7.1178   15.3085 C   0  0  0  0  0  0  0  0  0  0  0  0
   11.3618    5.7819   15.4611 C   0  0  0  0  0  0  0  0  0  0  0  0
   11.5759    5.4917   16.8920 C   0  0  0  0  0  0  0  0  0  0  0  0
   12.4593    6.5204   17.4819 N   0  0  0  0  0  0  0  0  0  0  0  0
  1  2  1  0  0  0  0
  2  3  1  0  0  0  0
  3  4  1  0  0  0  0
  4  5  1  0  0  0  0
  5  6  1  0  0  0  0
  6  7  1  0  0  0  0
  7  8  1  0  0  0  0
  8  9  1  0  0  0  0
  9 10  1  0  0  0  0
 10 11  1  0  0  0  0
 11 12  1  0  0  0  0
 12 13  1  0  0  0  0
 13 14  1  0  0  0  0
M  END
>  <CHROM.1>
68.80076130,72.16435972,155.31289566,104.49799824,-176.58393346,176.31933669
-173.61069026,176.67024170,-138.22069877,-178.90212815,-63.69352134,11.65364391
9.70085504,12.28249982,-1.40050527,0.53475888,2.24333658

>  <Name>
ligand

>  <RI>
0

>  <Rbt.Current_Directory>
/home/itssahil/PROJECTS/Mol_Feturizer/New_Systems/rnas/2O3Y

>  <Rbt.Executable>
rbdock ($Id: //depot/dev/client3/rdock/2013.1/src/exe/rbdock.cxx#4 $)

>  <Rbt.Library>
libRbt.so (2013.1, Build901 2013/11/27)

>  <Rbt.Parameter_File>
/export/apps/rDock/src/rDock_2013.1_src/data/scripts/dock_solv.prm

>  <Rbt.Receptor>
prm/pocket_docking_7.prm

>  <SCORE>
-10.3532

>  <SCORE.INTER>
-1.48722

>  <SCORE.INTER.CONST>
1

>  <SCORE.INTER.POLAR>
0

>  <SCORE.INTER.ROT>
11

>  <SCORE.INTER.SOLV>
6.82631

>  <SCORE.INTER.VDW>
-14.2003

>  <SCORE.INTER.norm>
-0.10623

>  <SCORE.INTRA>
-8.86594

>  <SCORE.INTRA.DIHEDRAL>
-20.58

>  <SCORE.INTRA.DIHEDRAL.0>
24.1231

>  <SCORE.INTRA.POLAR>
0

>  <SCORE.INTRA.POLAR.0>
0

>  <SCORE.INTRA.REPUL>
0

>  <SCORE.INTRA.REPUL.0>
0

>  <SCORE.INTRA.SOLV>
1.46662

>  <SCORE.INTRA.SOLV.lig_0>
-48.2216

>  <SCORE.INTRA.VDW>
0.690763

>  <SCORE.INTRA.VDW.0>
-1.3967

>  <SCORE.INTRA.norm>
-0.633282

>  <SCORE.RESTR>
0

>  <SCORE.RESTR.CAVITY>
0

>  <SCORE.RESTR.norm>
0

>  <SCORE.SYSTEM>
0

>  <SCORE.SYSTEM.CONST>
0

>  <SCORE.SYSTEM.DIHEDRAL>
0

>  <SCORE.SYSTEM.SOLV>
0

>  <SCORE.SYSTEM.norm>
0

>  <SCORE.heavy>
14

>  <SCORE.norm>
-0.739511

>  <RMSD>
5.014

$$$$
ligand
 OpenBabel11021811463D
libRbt.so/2013.1/901 2013/11/27
 14 13  0  0  0  0  0  0  0  0999 V2000
   11.7808    5.9196   17.5484 N   0  0  0  0  0  0  0  0  0  0  0  0
   12.3104    5.3352   16.3089 C   0  0  0  0  0  0  0  0  0  0  0  0
   12.4481    6.4283   15.2542 C   0  0  0  0  0  0  0  0  0  0  0  0
   11.0614    6.9379   14.8972 C   0  0  0  0  0  0  0  0  0  0  0  0
   11.1904    8.0344   13.9308 N   0  0  0  0  0  0  0  0  0  0  0  0
   10.0688    7.9073   12.9839 C   0  0  0  0  0  0  0  0  0  0  0  0
    9.8499    9.2228   12.2279 C   0  0  0  0  0  0  0  0  0  0  0  0
   11.1086    9.5166   11.3978 C   0  0  0  0  0  0  0  0  0  0  0  0
   10.8963   10.7097   10.5622 C   0  0  0  0  0  0  0  0  0  0  0  0
   12.0939   10.8788    9.7142 N   0  0  0  0  0  0  0  0  0  0  0  0
   12.3793   12.3686    9.4935 C   0  0  0  0  0  0  0  0  0  0  0  0
   12.9783   12.5777    8.0974 C   0  0  0  0  0  0  0  0  0  0  0  0
   13.3319   13.9987    7.9149 C   0  0  0  0  0  0  0  0  0  0  0  0
   14.4469   14.3545    8.8186 N   0  0  0  0  0  0  0  0  0  0  0  0
  1  2  1  0  0  0  0
  2  3  1  0  0  0  0
  3  4  1  0  0  0  0
  4  5  1  0  0  0  0
  5  6  1  0  0  0  0
  6  7  1  0  0  0  0
  7  8  1  0  0  0  0
  8  9  1  0  0  0  0
  9 10  1  0  0  0  0
 10 11  1  0  0  0  0
 11 12  1  0  0  0  0
 12 13  1  0  0  0  0
 13 14  1  0  0  0  0
M  END
>  <CHROM.1>
-65.54490141,177.29392694,142.92670910,161.86718772,63.02602316,174.98735258
-175.65446420,-145.61898290,-146.71681106,-176.48097406,67.25248238,11.85300513
9.58492280,12.08196235,-1.72717901,-0.33684830,-0.86271481

>  <Name>
ligand

>  <RI>
0

>  <Rbt.Current_Directory>
/home/itssahil/PROJECTS/Mol_Feturizer/New_Systems/rnas/2O3Y

>  <Rbt.Executable>
rbdock ($Id: //depot/dev/client3/rdock/2013.1/src/exe/rbdock.cxx#4 $)

>  <Rbt.Library>
libRbt.so (2013.1, Build901 2013/11/27)

>  <Rbt.Parameter_File>
/export/apps/rDock/src/rDock_2013.1_src/data/scripts/dock_solv.prm

>  <Rbt.Receptor>
prm/pocket_docking_6.prm

>  <SCORE>
-12.0573

>  <SCORE.INTER>
-2.81612

>  <SCORE.INTER.CONST>
1

>  <SCORE.INTER.POLAR>
0

>  <SCORE.INTER.ROT>
11

>  <SCORE.INTER.SOLV>
7.68183

>  <SCORE.INTER.VDW>
-15.3714

>  <SCORE.INTER.norm>
-0.201151

>  <SCORE.INTRA>
-9.24115

>  <SCORE.INTRA.DIHEDRAL>
-21.0192

>  <SCORE.INTRA.DIHEDRAL.0>
24.1231

>  <SCORE.INTRA.POLAR>
0

>  <SCORE.INTRA.POLAR.0>
0

>  <SCORE.INTRA.REPUL>
0

>  <SCORE.INTRA.REPUL.0>
0

>  <SCORE.INTRA.SOLV>
1.15846

>  <SCORE.INTRA.SOLV.lig_0>
-48.2216

>  <SCORE.INTRA.VDW>
0.689201

>  <SCORE.INTRA.VDW.0>
-1.3967

>  <SCORE.INTRA.norm>
-0.660082

>  <SCORE.RESTR>
0

>  <SCORE.RESTR.CAVITY>
0

>  <SCORE.RESTR.norm>
0

>  <SCORE.SYSTEM>
0

>  <SCORE.SYSTEM.CONST>
0

>  <SCORE.SYSTEM.DIHEDRAL>
0

>  <SCORE.SYSTEM.SOLV>
0

>  <SCORE.SYSTEM.norm>
0

>  <SCORE.heavy>
14

>  <SCORE.norm>
-0.861233

>  <RMSD>
5.022

$$$$
ligand
 OpenBabel11021811463D
libRbt.so/2013.1/901 2013/11/27
 14 13  0  0  0  0  0  0  0  0999 V2000
   13.2633    6.4675   16.4441 N   0  0  0  0  0  0  0  0  0  0  0  0
   12.4716    5.5779   15.5839 C   0  0  0  0  0  0  0  0  0  0  0  0
   11.1103    6.2126   15.3185 C   0  0  0  0  0  0  0  0  0  0  0  0
   11.3100    7.4534   14.4637 C   0  0  0  0  0  0  0  0  0  0  0  0
    9.9991    8.0351   14.1539 N   0  0  0  0  0  0  0  0  0  0  0  0
   10.0127    8.3889   12.7237 C   0  0  0  0  0  0  0  0  0  0  0  0
   10.1945    9.9003   12.5440 C   0  0  0  0  0  0  0  0  0  0  0  0
   10.3596   10.1908   11.0447 C   0  0  0  0  0  0  0  0  0  0  0  0
   10.5828   11.6298   10.8298 C   0  0  0  0  0  0  0  0  0  0  0  0
   10.8590   11.8284    9.3924 N   0  0  0  0  0  0  0  0  0  0  0  0
   12.3396   12.1638    9.1799 C   0  0  0  0  0  0  0  0  0  0  0  0
   12.4805   13.1725    8.0335 C   0  0  0  0  0  0  0  0  0  0  0  0
   13.9086   13.4516    7.7883 C   0  0  0  0  0  0  0  0  0  0  0  0
   14.4990   14.1062    8.9754 N   0  0  0  0  0  0  0  0  0  0  0  0
  1  2  1  0  0  0  0
  2  3  1  0  0  0  0
  3  4  1  0  0  0  0
  4  5  1  0  0  0  0
  5  6  1  0  0  0  0
  6  7  1  0  0  0  0
  7  8  1  0  0  0  0
  8  9  1  0  0  0  0
  9 10  1  0  0  0  0
 10 11  1  0  0  0  0
 11 12  1  0  0  0  0
 12 13  1  0  0  0  0
 13 14  1  0  0  0  0
M  END
>  <CHROM.1>
67.51599438,177.47005358,-135.77911160,-103.36762939,173.72087908,-178.10485397
174.80374445,-108.00127010,-144.21711019,-177.53232220,-64.18408441,11.67056112
9.89840019,11.89097912,-1.70382205,-0.10620991,-0.81164168

>  <Name>
ligand

>  <RI>
0

>  <Rbt.Current_Directory>
/home/itssahil/PROJECTS/Mol_Feturizer/New_Systems/rnas/2O3Y

>  <Rbt.Executable>
rbdock ($Id: //depot/dev/client3/rdock/2013.1/src/exe/rbdock.cxx#4 $)

>  <Rbt.Library>
libRbt.so (2013.1, Build901 2013/11/27)

>  <Rbt.Parameter_File>
/export/apps/rDock/src/rDock_2013.1_src/data/scripts/dock_solv.prm

>  <Rbt.Receptor>
prm/pocket_docking_5.prm

>  <SCORE>
-10.9134

>  <SCORE.INTER>
-2.15139

>  <SCORE.INTER.CONST>
1

>  <SCORE.INTER.POLAR>
0

>  <SCORE.INTER.ROT>
11

>  <SCORE.INTER.SOLV>
9.96057

>  <SCORE.INTER.VDW>
-15.6878

>  <SCORE.INTER.norm>
-0.153671

>  <SCORE.INTRA>
-8.76202

>  <SCORE.INTRA.DIHEDRAL>
-19.6771

>  <SCORE.INTRA.DIHEDRAL.0>
24.1231

>  <SCORE.INTRA.POLAR>
0

>  <SCORE.INTRA.POLAR.0>
0

>  <SCORE.INTRA.REPUL>
0

>  <SCORE.INTRA.REPUL.0>
0

>  <SCORE.INTRA.SOLV>
0.64596

>  <SCORE.INTRA.SOLV.lig_0>
-48.2216

>  <SCORE.INTRA.VDW>
0.753561

>  <SCORE.INTRA.VDW.0>
-1.3967

>  <SCORE.INTRA.norm>
-0.625858

>  <SCORE.RESTR>
0

>  <SCORE.RESTR.CAVITY>
0

>  <SCORE.RESTR.norm>
0

>  <SCORE.SYSTEM>
0

>  <SCORE.SYSTEM.CONST>
0

>  <SCORE.SYSTEM.DIHEDRAL>
0

>  <SCORE.SYSTEM.SOLV>
0

>  <SCORE.SYSTEM.norm>
0

>  <SCORE.heavy>
14

>  <SCORE.norm>
-0.779529

>  <RMSD>
5.026

$$$$
ligand
 OpenBabel11021811463D
libRbt.so/2013.1/901 2013/11/27
 14 13  0  0  0  0  0  0  0  0999 V2000
   15.7310   13.4547    7.1767 N   0  0  0  0  0  0  0  0  0  0  0  0
   14.3757   13.6674    7.7023 C   0  0  0  0  0  0  0  0  0  0  0  0
   13.8101   12.3385    8.1925 C   0  0  0  0  0  0  0  0  0  0  0  0
   12.5098   12.6062    8.9325 C   0  0  0  0  0  0  0  0  0  0  0  0
   12.0093   11.3442    9.4890 N   0  0  0  0  0  0  0  0  0  0  0  0
   10.6141   11.5787    9.9003 C   0  0  0  0  0  0  0  0  0  0  0  0
   10.0055   10.3032   10.4941 C   0  0  0  0  0  0  0  0  0  0  0  0
   10.7051   10.0124   11.8303 C   0  0  0  0  0  0  0  0  0  0  0  0
   10.0364    8.8965   12.5190 C   0  0  0  0  0  0  0  0  0  0  0  0
   10.7506    8.6656   13.7912 N   0  0  0  0  0  0  0  0  0  0  0  0
   10.4687    7.2497   14.3063 C   0  0  0  0  0  0  0  0  0  0  0  0
   11.5883    6.8154   15.2600 C   0  0  0  0  0  0  0  0  0  0  0  0
   11.3800    5.4122   15.6665 C   0  0  0  0  0  0  0  0  0  0  0  0
   12.4719    4.9879   16.5688 N   0  0  0  0  0  0  0  0  0  0  0  0
  1  2  1  0  0  0  0
  2  3  1  0  0  0  0
  3  4  1  0  0  0  0
  4  5  1  0  0  0  0
  5  6  1  0  0  0  0
  6  7  1  0  0  0  0
  7  8  1  0  0  0  0
  8  9  1  0  0  0  0
  9 10  1  0  0  0  0
 10 11  1  0  0  0  0
 11 12  1  0  0  0  0
 12 13  1  0  0  0  0
 13 14  1  0  0  0  0
M  END
>  <CHROM.1>
170.99885086,-176.01591366,-166.41828557,179.84407292,68.28430849,172.75688271
-179.97512110,-159.27208396,157.53900778,-175.19152836,179.09766875,11.88940460
9.80955440,11.55917435,-1.32794967,-0.06051450,2.32431062

>  <Name>
ligand

>  <RI>
0

>  <Rbt.Current_Directory>
/home/itssahil/PROJECTS/Mol_Feturizer/New_Systems/rnas/2O3Y

>  <Rbt.Executable>
rbdock ($Id: //depot/dev/client3/rdock/2013.1/src/exe/rbdock.cxx#4 $)

>  <Rbt.Library>
libRbt.so (2013.1, Build901 2013/11/27)

>  <Rbt.Parameter_File>
/export/apps/rDock/src/rDock_2013.1_src/data/scripts/dock_solv.prm

>  <Rbt.Receptor>
prm/pocket_docking_6.prm

>  <SCORE>
-12.2355

>  <SCORE.INTER>
-0.89568

>  <SCORE.INTER.CONST>
1

>  <SCORE.INTER.POLAR>
0

>  <SCORE.INTER.ROT>
11

>  <SCORE.INTER.SOLV>
10.7439

>  <SCORE.INTER.VDW>
-15.1117

>  <SCORE.INTER.norm>
-0.0639772

>  <SCORE.INTRA>
-11.3398

>  <SCORE.INTRA.DIHEDRAL>
-22.3645

>  <SCORE.INTRA.DIHEDRAL.0>
24.1231

>  <SCORE.INTRA.POLAR>
0

>  <SCORE.INTRA.POLAR.0>
0

>  <SCORE.INTRA.REPUL>
0

>  <SCORE.INTRA.REPUL.0>
0

>  <SCORE.INTRA.SOLV>
-0.602159

>  <SCORE.INTRA.SOLV.lig_0>
-48.2216

>  <SCORE.INTRA.VDW>
0.143519

>  <SCORE.INTRA.VDW.0>
-1.3967

>  <SCORE.INTRA.norm>
-0.809987

>  <SCORE.RESTR>
0

>  <SCORE.RESTR.CAVITY>
0

>  <SCORE.RESTR.norm>
0

>  <SCORE.SYSTEM>
0

>  <SCORE.SYSTEM.CONST>
0

>  <SCORE.SYSTEM.DIHEDRAL>
0

>  <SCORE.SYSTEM.SOLV>
0

>  <SCORE.SYSTEM.norm>
0

>  <SCORE.heavy>
14

>  <SCORE.norm>
-0.873964

>  <RMSD>
5.045

$$$$
ligand
 OpenBabel11021811463D
libRbt.so/2013.1/901 2013/11/27
 14 13  0  0  0  0  0  0  0  0999 V2000
    9.7720    8.7640   13.8215 N   0  0  0  0  0  0  0  0  0  0  0  0
   10.9220    7.8918   14.0955 C   0  0  0  0  0  0  0  0  0  0  0  0
   10.5875    6.9669   15.2613 C   0  0  0  0  0  0  0  0  0  0  0  0
   11.8150    6.1325   15.5884 C   0  0  0  0  0  0  0  0  0  0  0  0
   12.8778    7.0186   16.0765 N   0  0  0  0  0  0  0  0  0  0  0  0
   14.1209    6.6145   15.3967 C   0  0  0  0  0  0  0  0  0  0  0  0
   15.0274    7.8286   15.1644 C   0  0  0  0  0  0  0  0  0  0  0  0
   15.5455    8.3109   16.5277 C   0  0  0  0  0  0  0  0  0  0  0  0
   16.4537    9.4553   16.3477 C   0  0  0  0  0  0  0  0  0  0  0  0
   15.6481   10.5902   15.8529 N   0  0  0  0  0  0  0  0  0  0  0  0
   16.4981   11.4852   14.9439 C   0  0  0  0  0  0  0  0  0  0  0  0
   15.5863   12.2617   13.9861 C   0  0  0  0  0  0  0  0  0  0  0  0
   16.4053   13.0915   13.0816 C   0  0  0  0  0  0  0  0  0  0  0  0
   15.5262   13.8231   12.1444 N   0  0  0  0  0  0  0  0  0  0  0  0
  1  2  1  0  0  0  0
  2  3  1  0  0  0  0
  3  4  1  0  0  0  0
  4  5  1  0  0  0  0
  5  6  1  0  0  0  0
  6  7  1  0  0  0  0
  7  8  1  0  0  0  0
  8  9  1  0  0  0  0
  9 10  1  0  0  0  0
 10 11  1  0  0  0  0
 11 12  1  0  0  0  0
 12 13  1  0  0  0  0
 13 14  1  0  0  0  0
M  END
>  <CHROM.1>
-176.51214891,65.26633892,-134.84263986,147.31244190,68.80906459,178.37609015
67.42463208,-148.67859925,155.83999519,-178.21384610,179.09854218,14.05637318
9.30217883,14.87791953,2.32018757,0.36784291,2.57949260

>  <Name>
ligand

>  <RI>
0

>  <Rbt.Current_Directory>
/home/itssahil/PROJECTS/Mol_Feturizer/New_Systems/rnas/2O3Y

>  <Rbt.Executable>
rbdock ($Id: //depot/dev/client3/rdock/2013.1/src/exe/rbdock.cxx#4 $)

>  <Rbt.Library>
libRbt.so (2013.1, Build901 2013/11/27)

>  <Rbt.Parameter_File>
/export/apps/rDock/src/rDock_2013.1_src/data/scripts/dock_solv.prm

>  <Rbt.Receptor>
prm/pocket_docking_5.prm

>  <SCORE>
-9.79728

>  <SCORE.INTER>
0.0127063

>  <SCORE.INTER.CONST>
1

>  <SCORE.INTER.POLAR>
0

>  <SCORE.INTER.ROT>
11

>  <SCORE.INTER.SOLV>
6.46689

>  <SCORE.INTER.VDW>
-13.0805

>  <SCORE.INTER.norm>
0.000907593

>  <SCORE.INTRA>
-9.80999

>  <SCORE.INTRA.DIHEDRAL>
-20.6796

>  <SCORE.INTRA.DIHEDRAL.0>
24.1231

>  <SCORE.INTRA.POLAR>
0

>  <SCORE.INTRA.POLAR.0>
0

>  <SCORE.INTRA.REPUL>
0

>  <SCORE.INTRA.REPUL.0>
0

>  <SCORE.INTRA.SOLV>
0.382834

>  <SCORE.INTRA.SOLV.lig_0>
-48.2216

>  <SCORE.INTRA.VDW>
0.338417

>  <SCORE.INTRA.VDW.0>
-1.3967

>  <SCORE.INTRA.norm>
-0.700713

>  <SCORE.RESTR>
0

>  <SCORE.RESTR.CAVITY>
0

>  <SCORE.RESTR.norm>
0

>  <SCORE.SYSTEM>
0

>  <SCORE.SYSTEM.CONST>
0

>  <SCORE.SYSTEM.DIHEDRAL>
0

>  <SCORE.SYSTEM.SOLV>
0

>  <SCORE.SYSTEM.norm>
0

>  <SCORE.heavy>
14

>  <SCORE.norm>
-0.699806

>  <RMSD>
5.048

$$$$
ligand
 OpenBabel11021811463D
libRbt.so/2013.1/901 2013/11/27
 14 13  0  0  0  0  0  0  0  0999 V2000
   14.2464    6.3662   16.0049 N   0  0  0  0  0  0  0  0  0  0  0  0
   13.0511    6.4742   15.1576 C   0  0  0  0  0  0  0  0  0  0  0  0
   11.8324    5.9975   15.9410 C   0  0  0  0  0  0  0  0  0  0  0  0
   10.5921    6.2105   15.0888 C   0  0  0  0  0  0  0  0  0  0  0  0
   10.3917    7.6504   14.8898 N   0  0  0  0  0  0  0  0  0  0  0  0
   10.4883    7.9020   13.4413 C   0  0  0  0  0  0  0  0  0  0  0  0
   10.5598    9.4071   13.1592 C   0  0  0  0  0  0  0  0  0  0  0  0
   10.8425    9.6037   11.6622 C   0  0  0  0  0  0  0  0  0  0  0  0
   11.0133   11.0349   11.3635 C   0  0  0  0  0  0  0  0  0  0  0  0
   11.4154   11.1497    9.9468 N   0  0  0  0  0  0  0  0  0  0  0  0
   12.3554   12.3459    9.7593 C   0  0  0  0  0  0  0  0  0  0  0  0
   12.4414   12.7059    8.2711 C   0  0  0  0  0  0  0  0  0  0  0  0
   13.3092   13.8861    8.0935 C   0  0  0  0  0  0  0  0  0  0  0  0
   14.7003   13.5404    8.4566 N   0  0  0  0  0  0  0  0  0  0  0  0
  1  2  1  0  0  0  0
  2  3  1  0  0  0  0
  3  4  1  0  0  0  0
  4  5  1  0  0  0  0
  5  6  1  0  0  0  0
  6  7  1  0  0  0  0
  7  8  1  0  0  0  0
  8  9  1  0  0  0  0
  9 10  1  0  0  0  0
 10 11  1  0  0  0  0
 11 12  1  0  0  0  0
 12 13  1  0  0  0  0
 13 14  1  0  0  0  0
M  END
>  <CHROM.1>
175.89759791,-65.50983603,118.15495052,-169.16192035,172.72460647,-176.03972961
174.38483249,-147.02185577,-163.66221658,178.06614951,66.45773918,11.94535712
9.59100661,12.23106429,-1.69033181,-0.05157296,-0.80621010

>  <Name>
ligand

>  <RI>
0

>  <Rbt.Current_Directory>
/home/itssahil/PROJECTS/Mol_Feturizer/New_Systems/rnas/2O3Y

>  <Rbt.Executable>
rbdock ($Id: //depot/dev/client3/rdock/2013.1/src/exe/rbdock.cxx#4 $)

>  <Rbt.Library>
libRbt.so (2013.1, Build901 2013/11/27)

>  <Rbt.Parameter_File>
/export/apps/rDock/src/rDock_2013.1_src/data/scripts/dock_solv.prm

>  <Rbt.Receptor>
prm/pocket_docking_8.prm

>  <SCORE>
-10.0813

>  <SCORE.INTER>
-0.140847

>  <SCORE.INTER.CONST>
1

>  <SCORE.INTER.POLAR>
0

>  <SCORE.INTER.ROT>
11

>  <SCORE.INTER.SOLV>
10.5923

>  <SCORE.INTER.VDW>
-14.558

>  <SCORE.INTER.norm>
-0.0100605

>  <SCORE.INTRA>
-9.94041

>  <SCORE.INTRA.DIHEDRAL>
-21.2025

>  <SCORE.INTRA.DIHEDRAL.0>
24.1231

>  <SCORE.INTRA.POLAR>
0

>  <SCORE.INTRA.POLAR.0>
0

>  <SCORE.INTRA.REPUL>
0

>  <SCORE.INTRA.REPUL.0>
0

>  <SCORE.INTRA.SOLV>
0.325034

>  <SCORE.INTRA.SOLV.lig_0>
-48.2216

>  <SCORE.INTRA.VDW>
0.498305

>  <SCORE.INTRA.VDW.0>
-1.3967

>  <SCORE.INTRA.norm>
-0.71003

>  <SCORE.RESTR>
0

>  <SCORE.RESTR.CAVITY>
0

>  <SCORE.RESTR.norm>
0

>  <SCORE.SYSTEM>
0

>  <SCORE.SYSTEM.CONST>
0

>  <SCORE.SYSTEM.DIHEDRAL>
0

>  <SCORE.SYSTEM.SOLV>
0

>  <SCORE.SYSTEM.norm>
0

>  <SCORE.heavy>
14

>  <SCORE.norm>
-0.72009

>  <RMSD>
5.058

$$$$
ligand
 OpenBabel11021811463D
libRbt.so/2013.1/901 2013/11/27
 14 13  0  0  0  0  0  0  0  0999 V2000
   19.1505   14.2687    3.8302 N   0  0  0  0  0  0  0  0  0  0  0  0
   18.3175   13.4074    4.6802 C   0  0  0  0  0  0  0  0  0  0  0  0
   17.1690   14.2278    5.2583 C   0  0  0  0  0  0  0  0  0  0  0  0
   16.3299   13.3288    6.1514 C   0  0  0  0  0  0  0  0  0  0  0  0
   15.2098   14.1064    6.6933 N   0  0  0  0  0  0  0  0  0  0  0  0
   14.9324   13.5794    8.0409 C   0  0  0  0  0  0  0  0  0  0  0  0
   13.5503   12.9179    8.0871 C   0  0  0  0  0  0  0  0  0  0  0  0
   13.4638   12.0715    9.3660 C   0  0  0  0  0  0  0  0  0  0  0  0
   12.1487   11.4155    9.4504 C   0  0  0  0  0  0  0  0  0  0  0  0
   12.2279   10.3935   10.5138 N   0  0  0  0  0  0  0  0  0  0  0  0
   10.8259   10.0732   11.0447 C   0  0  0  0  0  0  0  0  0  0  0  0
   10.9377    9.3399   12.3868 C   0  0  0  0  0  0  0  0  0  0  0  0
    9.5889    9.0761   12.9241 C   0  0  0  0  0  0  0  0  0  0  0  0
    9.6947    8.5746   14.3111 N   0  0  0  0  0  0  0  0  0  0  0  0
  1  2  1  0  0  0  0
  2  3  1  0  0  0  0
  3  4  1  0  0  0  0
  4  5  1  0  0  0  0
  5  6  1  0  0  0  0
  6  7  1  0  0  0  0
  7  8  1  0  0  0  0
  8  9  1  0  0  0  0
  9 10  1  0  0  0  0
 10 11  1  0  0  0  0
 11 12  1  0  0  0  0
 12 13  1  0  0  0  0
 13 14  1  0  0  0  0
M  END
>  <CHROM.1>
-179.13132913,-179.06416478,-146.94390038,-114.27003885,165.08545829,-179.96597085
167.46569018,157.36309822,-163.81129121,177.86837699,-170.70698800,13.82469275
11.91293333,8.76698247,-0.75432443,-0.51755679,2.60764134

>  <Name>
ligand

>  <RI>
0

>  <Rbt.Current_Directory>
/home/itssahil/PROJECTS/Mol_Feturizer/New_Systems/rnas/2O3Y

>  <Rbt.Executable>
rbdock ($Id: //depot/dev/client3/rdock/2013.1/src/exe/rbdock.cxx#4 $)

>  <Rbt.Library>
libRbt.so (2013.1, Build901 2013/11/27)

>  <Rbt.Parameter_File>
/export/apps/rDock/src/rDock_2013.1_src/data/scripts/dock_solv.prm

>  <Rbt.Receptor>
prm/pocket_docking_8.prm

>  <SCORE>
-8.52616

>  <SCORE.INTER>
1.84562

>  <SCORE.INTER.CONST>
1

>  <SCORE.INTER.POLAR>
0

>  <SCORE.INTER.ROT>
11

>  <SCORE.INTER.SOLV>
8.48018

>  <SCORE.INTER.VDW>
-12.5296

>  <SCORE.INTER.norm>
0.13183

>  <SCORE.INTRA>
-10.3718

>  <SCORE.INTRA.DIHEDRAL>
-19.9603

>  <SCORE.INTRA.DIHEDRAL.0>
24.1231

>  <SCORE.INTRA.POLAR>
0

>  <SCORE.INTRA.POLAR.0>
0

>  <SCORE.INTRA.REPUL>
0

>  <SCORE.INTRA.REPUL.0>
0

>  <SCORE.INTRA.SOLV>
-1.00453

>  <SCORE.INTRA.SOLV.lig_0>
-48.2216

>  <SCORE.INTRA.VDW>
0.110621

>  <SCORE.INTRA.VDW.0>
-1.3967

>  <SCORE.INTRA.norm>
-0.740842

>  <SCORE.RESTR>
0

>  <SCORE.RESTR.CAVITY>
0

>  <SCORE.RESTR.norm>
0

>  <SCORE.SYSTEM>
0

>  <SCORE.SYSTEM.CONST>
0

>  <SCORE.SYSTEM.DIHEDRAL>
0

>  <SCORE.SYSTEM.SOLV>
0

>  <SCORE.SYSTEM.norm>
0

>  <SCORE.heavy>
14

>  <SCORE.norm>
-0.609011

>  <RMSD>
5.058

$$$$
ligand
 OpenBabel11021811463D
libRbt.so/2013.1/901 2013/11/27
 14 13  0  0  0  0  0  0  0  0999 V2000
   13.1171   11.4004   17.7596 N   0  0  0  0  0  0  0  0  0  0  0  0
   14.3321   11.2577   18.5729 C   0  0  0  0  0  0  0  0  0  0  0  0
   14.4694    9.8075   19.0250 C   0  0  0  0  0  0  0  0  0  0  0  0
   14.6627    8.9314   17.7981 C   0  0  0  0  0  0  0  0  0  0  0  0
   15.9513    9.2580   17.1770 N   0  0  0  0  0  0  0  0  0  0  0  0
   15.8565    8.8685   15.7593 C   0  0  0  0  0  0  0  0  0  0  0  0
   16.8817    9.6385   14.9190 C   0  0  0  0  0  0  0  0  0  0  0  0
   16.6259    9.3219   13.4379 C   0  0  0  0  0  0  0  0  0  0  0  0
   17.5043   10.1407   12.5866 C   0  0  0  0  0  0  0  0  0  0  0  0
   18.8605    9.5595   12.6561 N   0  0  0  0  0  0  0  0  0  0  0  0
   19.8268   10.3660   11.7810 C   0  0  0  0  0  0  0  0  0  0  0  0
   20.3864    9.4699   10.6695 C   0  0  0  0  0  0  0  0  0  0  0  0
   19.3178    9.1470    9.7045 C   0  0  0  0  0  0  0  0  0  0  0  0
   19.8937    8.4353    8.5434 N   0  0  0  0  0  0  0  0  0  0  0  0
  1  2  1  0  0  0  0
  2  3  1  0  0  0  0
  3  4  1  0  0  0  0
  4  5  1  0  0  0  0
  5  6  1  0  0  0  0
  6  7  1  0  0  0  0
  7  8  1  0  0  0  0
  8  9  1  0  0  0  0
  9 10  1  0  0  0  0
 10 11  1  0  0  0  0
 11 12  1  0  0  0  0
 12 13  1  0  0  0  0
 13 14  1  0  0  0  0
M  END
>  <CHROM.1>
64.01196617,66.15493239,-155.96252883,157.71645243,-173.27833259,174.57163860
75.72012687,179.71322883,-117.99378020,69.40309817,172.57524531,16.97759332
9.68588343,14.31368273,2.85512791,-0.95452249,2.68247347

>  <Name>
ligand

>  <RI>
0

>  <Rbt.Current_Directory>
/home/itssahil/PROJECTS/Mol_Feturizer/New_Systems/rnas/2O3Y

>  <Rbt.Executable>
rbdock ($Id: //depot/dev/client3/rdock/2013.1/src/exe/rbdock.cxx#4 $)

>  <Rbt.Library>
libRbt.so (2013.1, Build901 2013/11/27)

>  <Rbt.Parameter_File>
/export/apps/rDock/src/rDock_2013.1_src/data/scripts/dock_solv.prm

>  <Rbt.Receptor>
prm/pocket_docking_8.prm

>  <SCORE>
-8.65247

>  <SCORE.INTER>
0.0087974

>  <SCORE.INTER.CONST>
1

>  <SCORE.INTER.POLAR>
0

>  <SCORE.INTER.ROT>
11

>  <SCORE.INTER.SOLV>
10.7014

>  <SCORE.INTER.VDW>
-14.4946

>  <SCORE.INTER.norm>
0.000628386

>  <SCORE.INTRA>
-8.66126

>  <SCORE.INTRA.DIHEDRAL>
-20.2347

>  <SCORE.INTRA.DIHEDRAL.0>
24.1231

>  <SCORE.INTRA.POLAR>
0

>  <SCORE.INTRA.POLAR.0>
0

>  <SCORE.INTRA.REPUL>
0

>  <SCORE.INTRA.REPUL.0>
0

>  <SCORE.INTRA.SOLV>
1.93502

>  <SCORE.INTRA.SOLV.lig_0>
-48.2216

>  <SCORE.INTRA.VDW>
0.488573

>  <SCORE.INTRA.VDW.0>
-1.3967

>  <SCORE.INTRA.norm>
-0.618662

>  <SCORE.RESTR>
0

>  <SCORE.RESTR.CAVITY>
0

>  <SCORE.RESTR.norm>
0

>  <SCORE.SYSTEM>
0

>  <SCORE.SYSTEM.CONST>
0

>  <SCORE.SYSTEM.DIHEDRAL>
0

>  <SCORE.SYSTEM.SOLV>
0

>  <SCORE.SYSTEM.norm>
0

>  <SCORE.heavy>
14

>  <SCORE.norm>
-0.618033

>  <RMSD>
5.062

$$$$
ligand
 OpenBabel11021811463D
libRbt.so/2013.1/901 2013/11/27
 14 13  0  0  0  0  0  0  0  0999 V2000
   12.5189    5.6361   16.8668 N   0  0  0  0  0  0  0  0  0  0  0  0
   11.9459    5.0791   15.6341 C   0  0  0  0  0  0  0  0  0  0  0  0
   10.5032    5.5523   15.4894 C   0  0  0  0  0  0  0  0  0  0  0  0
   10.5039    7.0563   15.2703 C   0  0  0  0  0  0  0  0  0  0  0  0
   11.1389    7.3500   13.9805 N   0  0  0  0  0  0  0  0  0  0  0  0
   10.2644    8.3053   13.2781 C   0  0  0  0  0  0  0  0  0  0  0  0
   10.9996    8.9362   12.0901 C   0  0  0  0  0  0  0  0  0  0  0  0
   10.0652    9.9656   11.4368 C   0  0  0  0  0  0  0  0  0  0  0  0
   10.6382   10.4329   10.1640 C   0  0  0  0  0  0  0  0  0  0  0  0
   11.8090   11.2744   10.4846 N   0  0  0  0  0  0  0  0  0  0  0  0
   12.2308   12.0845    9.2534 C   0  0  0  0  0  0  0  0  0  0  0  0
   13.5710   12.7779    9.5265 C   0  0  0  0  0  0  0  0  0  0  0  0
   13.9932   13.5339    8.3317 C   0  0  0  0  0  0  0  0  0  0  0  0
   15.3301   14.1226    8.5617 N   0  0  0  0  0  0  0  0  0  0  0  0
  1  2  1  0  0  0  0
  2  3  1  0  0  0  0
  3  4  1  0  0  0  0
  4  5  1  0  0  0  0
  5  6  1  0  0  0  0
  6  7  1  0  0  0  0
  7  8  1  0  0  0  0
  8  9  1  0  0  0  0
  9 10  1  0  0  0  0
 10 11  1  0  0  0  0
 11 12  1  0  0  0  0
 12 13  1  0  0  0  0
 13 14  1  0  0  0  0
M  END
>  <CHROM.1>
66.22519621,65.75211798,132.85542817,165.93217063,-177.48353402,-170.58053616
-70.67115916,-165.21203939,-170.97926154,178.74744286,-175.98633975,11.82194667
9.43617030,12.16903435,-1.80925483,-0.21733347,-0.80730472

>  <Name>
ligand

>  <RI>
0

>  <Rbt.Current_Directory>
/home/itssahil/PROJECTS/Mol_Feturizer/New_Systems/rnas/2O3Y

>  <Rbt.Executable>
rbdock ($Id: //depot/dev/client3/rdock/2013.1/src/exe/rbdock.cxx#4 $)

>  <Rbt.Library>
libRbt.so (2013.1, Build901 2013/11/27)

>  <Rbt.Parameter_File>
/export/apps/rDock/src/rDock_2013.1_src/data/scripts/dock_solv.prm

>  <Rbt.Receptor>
prm/pocket_docking_8.prm

>  <SCORE>
-11.3783

>  <SCORE.INTER>
-1.87229

>  <SCORE.INTER.CONST>
1

>  <SCORE.INTER.POLAR>
0

>  <SCORE.INTER.ROT>
11

>  <SCORE.INTER.SOLV>
8.43567

>  <SCORE.INTER.VDW>
-14.9934

>  <SCORE.INTER.norm>
-0.133735

>  <SCORE.INTRA>
-9.50604

>  <SCORE.INTRA.DIHEDRAL>
-21.5171

>  <SCORE.INTRA.DIHEDRAL.0>
24.1231

>  <SCORE.INTRA.POLAR>
0

>  <SCORE.INTRA.POLAR.0>
0

>  <SCORE.INTRA.REPUL>
0

>  <SCORE.INTRA.REPUL.0>
0

>  <SCORE.INTRA.SOLV>
1.23256

>  <SCORE.INTRA.SOLV.lig_0>
-48.2216

>  <SCORE.INTRA.VDW>
0.636254

>  <SCORE.INTRA.VDW.0>
-1.3967

>  <SCORE.INTRA.norm>
-0.679003

>  <SCORE.RESTR>
0

>  <SCORE.RESTR.CAVITY>
0

>  <SCORE.RESTR.norm>
0

>  <SCORE.SYSTEM>
0

>  <SCORE.SYSTEM.CONST>
0

>  <SCORE.SYSTEM.DIHEDRAL>
0

>  <SCORE.SYSTEM.SOLV>
0

>  <SCORE.SYSTEM.norm>
0

>  <SCORE.heavy>
14

>  <SCORE.norm>
-0.812738

>  <RMSD>
5.063

$$$$
ligand
 OpenBabel11021811463D
libRbt.so/2013.1/901 2013/11/27
 14 13  0  0  0  0  0  0  0  0999 V2000
   10.2022    7.9207   14.0500 N   0  0  0  0  0  0  0  0  0  0  0  0
   10.5890    8.2476   12.6710 C   0  0  0  0  0  0  0  0  0  0  0  0
   12.1045    8.4013   12.5948 C   0  0  0  0  0  0  0  0  0  0  0  0
   12.4832    8.7938   11.1761 C   0  0  0  0  0  0  0  0  0  0  0  0
   11.9349   10.1237   10.8868 N   0  0  0  0  0  0  0  0  0  0  0  0
   12.5355   10.5698    9.6175 C   0  0  0  0  0  0  0  0  0  0  0  0
   12.3309   12.0767    9.4247 C   0  0  0  0  0  0  0  0  0  0  0  0
   13.0336   12.4958    8.1246 C   0  0  0  0  0  0  0  0  0  0  0  0
   12.8902   13.9460    7.9169 C   0  0  0  0  0  0  0  0  0  0  0  0
   13.6689   14.6265    8.9715 N   0  0  0  0  0  0  0  0  0  0  0  0
   12.7764   15.6109    9.7358 C   0  0  0  0  0  0  0  0  0  0  0  0
   13.6498   16.5843   10.5366 C   0  0  0  0  0  0  0  0  0  0  0  0
   12.7978   17.5985   11.1869 C   0  0  0  0  0  0  0  0  0  0  0  0
   13.6460   18.5827   11.8929 N   0  0  0  0  0  0  0  0  0  0  0  0
  1  2  1  0  0  0  0
  2  3  1  0  0  0  0
  3  4  1  0  0  0  0
  4  5  1  0  0  0  0
  5  6  1  0  0  0  0
  6  7  1  0  0  0  0
  7  8  1  0  0  0  0
  8  9  1  0  0  0  0
  9 10  1  0  0  0  0
 10 11  1  0  0  0  0
 11 12  1  0  0  0  0
 12 13  1  0  0  0  0
 13 14  1  0  0  0  0
M  END
>  <CHROM.1>
-177.75244869,65.30695746,169.36849355,-164.54689117,177.29540855,-178.60674380
67.60026186,-125.13138392,-163.96390976,175.52645032,-176.68260433,12.47454213
12.54118282,10.62722980,2.43780748,-1.26975513,-2.53436728

>  <Name>
ligand

>  <RI>
0

>  <Rbt.Current_Directory>
/home/itssahil/PROJECTS/Mol_Feturizer/New_Systems/rnas/2O3Y

>  <Rbt.Executable>
rbdock ($Id: //depot/dev/client3/rdock/2013.1/src/exe/rbdock.cxx#4 $)

>  <Rbt.Library>
libRbt.so (2013.1, Build901 2013/11/27)

>  <Rbt.Parameter_File>
/export/apps/rDock/src/rDock_2013.1_src/data/scripts/dock_solv.prm

>  <Rbt.Receptor>
prm/pocket_docking_7.prm

>  <SCORE>
-10.3413

>  <SCORE.INTER>
0.222253

>  <SCORE.INTER.CONST>
1

>  <SCORE.INTER.POLAR>
0

>  <SCORE.INTER.ROT>
11

>  <SCORE.INTER.SOLV>
9.5247

>  <SCORE.INTER.VDW>
-13.9601

>  <SCORE.INTER.norm>
0.0158752

>  <SCORE.INTRA>
-10.5635

>  <SCORE.INTRA.DIHEDRAL>
-21.9755

>  <SCORE.INTRA.DIHEDRAL.0>
24.1231

>  <SCORE.INTRA.POLAR>
0

>  <SCORE.INTRA.POLAR.0>
0

>  <SCORE.INTRA.REPUL>
0

>  <SCORE.INTRA.REPUL.0>
0

>  <SCORE.INTRA.SOLV>
-0.0289887

>  <SCORE.INTRA.SOLV.lig_0>
-48.2216

>  <SCORE.INTRA.VDW>
0.438694

>  <SCORE.INTRA.VDW.0>
-1.3967

>  <SCORE.INTRA.norm>
-0.754538

>  <SCORE.RESTR>
0

>  <SCORE.RESTR.CAVITY>
0

>  <SCORE.RESTR.norm>
0

>  <SCORE.SYSTEM>
0

>  <SCORE.SYSTEM.CONST>
0

>  <SCORE.SYSTEM.DIHEDRAL>
0

>  <SCORE.SYSTEM.SOLV>
0

>  <SCORE.SYSTEM.norm>
0

>  <SCORE.heavy>
14

>  <SCORE.norm>
-0.738663

>  <RMSD>
5.069

$$$$
ligand
 OpenBabel11021811463D
libRbt.so/2013.1/901 2013/11/27
 14 13  0  0  0  0  0  0  0  0999 V2000
   14.8531   12.0471    7.4089 N   0  0  0  0  0  0  0  0  0  0  0  0
   14.2317   13.2617    7.9536 C   0  0  0  0  0  0  0  0  0  0  0  0
   12.7525   12.9980    8.2156 C   0  0  0  0  0  0  0  0  0  0  0  0
   12.6313   11.9034    9.2631 C   0  0  0  0  0  0  0  0  0  0  0  0
   11.2131   11.7029    9.5814 N   0  0  0  0  0  0  0  0  0  0  0  0
   11.1200   10.4595   10.3663 C   0  0  0  0  0  0  0  0  0  0  0  0
   10.3261   10.6946   11.6564 C   0  0  0  0  0  0  0  0  0  0  0  0
    9.9200    9.3279   12.2281 C   0  0  0  0  0  0  0  0  0  0  0  0
   11.0008    8.7907   13.0707 C   0  0  0  0  0  0  0  0  0  0  0  0
   10.4865    7.5755   13.7343 N   0  0  0  0  0  0  0  0  0  0  0  0
   11.4701    7.1052   14.8120 C   0  0  0  0  0  0  0  0  0  0  0  0
   10.9405    5.8256   15.4706 C   0  0  0  0  0  0  0  0  0  0  0  0
   11.9573    5.2818   16.3914 C   0  0  0  0  0  0  0  0  0  0  0  0
   12.1225    6.1924   17.5447 N   0  0  0  0  0  0  0  0  0  0  0  0
  1  2  1  0  0  0  0
  2  3  1  0  0  0  0
  3  4  1  0  0  0  0
  4  5  1  0  0  0  0
  5  6  1  0  0  0  0
  6  7  1  0  0  0  0
  7  8  1  0  0  0  0
  8  9  1  0  0  0  0
  9 10  1  0  0  0  0
 10 11  1  0  0  0  0
 11 12  1  0  0  0  0
 12 13  1  0  0  0  0
 13 14  1  0  0  0  0
M  END
>  <CHROM.1>
62.54386540,176.50188082,168.10072744,128.67541176,164.25310307,85.99641485
172.44976292,-170.04788489,-178.69639843,173.25156962,68.05808055,11.78737881
9.51192972,11.97832008,-1.38867304,-0.09271600,2.27717819

>  <Name>
ligand

>  <RI>
0

>  <Rbt.Current_Directory>
/home/itssahil/PROJECTS/Mol_Feturizer/New_Systems/rnas/2O3Y

>  <Rbt.Executable>
rbdock ($Id: //depot/dev/client3/rdock/2013.1/src/exe/rbdock.cxx#4 $)

>  <Rbt.Library>
libRbt.so (2013.1, Build901 2013/11/27)

>  <Rbt.Parameter_File>
/export/apps/rDock/src/rDock_2013.1_src/data/scripts/dock_solv.prm

>  <Rbt.Receptor>
prm/pocket_docking_8.prm

>  <SCORE>
-9.76023

>  <SCORE.INTER>
-1.63642

>  <SCORE.INTER.CONST>
1

>  <SCORE.INTER.POLAR>
0

>  <SCORE.INTER.ROT>
11

>  <SCORE.INTER.SOLV>
8.63011

>  <SCORE.INTER.VDW>
-14.901

>  <SCORE.INTER.norm>
-0.116887

>  <SCORE.INTRA>
-8.12381

>  <SCORE.INTRA.DIHEDRAL>
-18.7847

>  <SCORE.INTRA.DIHEDRAL.0>
24.1231

>  <SCORE.INTRA.POLAR>
0

>  <SCORE.INTRA.POLAR.0>
0

>  <SCORE.INTRA.REPUL>
0

>  <SCORE.INTRA.REPUL.0>
0

>  <SCORE.INTRA.SOLV>
0.772016

>  <SCORE.INTRA.SOLV.lig_0>
-48.2216

>  <SCORE.INTRA.VDW>
0.882548

>  <SCORE.INTRA.VDW.0>
-1.3967

>  <SCORE.INTRA.norm>
-0.580272

>  <SCORE.RESTR>
0

>  <SCORE.RESTR.CAVITY>
0

>  <SCORE.RESTR.norm>
0

>  <SCORE.SYSTEM>
0

>  <SCORE.SYSTEM.CONST>
0

>  <SCORE.SYSTEM.DIHEDRAL>
0

>  <SCORE.SYSTEM.SOLV>
0

>  <SCORE.SYSTEM.norm>
0

>  <SCORE.heavy>
14

>  <SCORE.norm>
-0.697159

>  <RMSD>
5.081

$$$$
ligand
 OpenBabel11021811463D
libRbt.so/2013.1/901 2013/11/27
 14 13  0  0  0  0  0  0  0  0999 V2000
   13.9503    8.1263   19.0170 N   0  0  0  0  0  0  0  0  0  0  0  0
   15.0261    8.3416   18.0400 C   0  0  0  0  0  0  0  0  0  0  0  0
   14.9551    9.7731   17.5183 C   0  0  0  0  0  0  0  0  0  0  0  0
   16.0565    9.9717   16.4899 C   0  0  0  0  0  0  0  0  0  0  0  0
   16.0945   11.3853   16.0987 N   0  0  0  0  0  0  0  0  0  0  0  0
   16.8069   11.4564   14.8111 C   0  0  0  0  0  0  0  0  0  0  0  0
   16.0139   12.2943   13.8017 C   0  0  0  0  0  0  0  0  0  0  0  0
   16.7348   12.2262   12.4471 C   0  0  0  0  0  0  0  0  0  0  0  0
   15.9916   12.9997   11.4390 C   0  0  0  0  0  0  0  0  0  0  0  0
   16.7484   12.9250   10.1728 N   0  0  0  0  0  0  0  0  0  0  0  0
   15.9737   13.6270    9.0517 C   0  0  0  0  0  0  0  0  0  0  0  0
   16.7263   13.4656    7.7253 C   0  0  0  0  0  0  0  0  0  0  0  0
   16.0196   14.2010    6.6590 C   0  0  0  0  0  0  0  0  0  0  0  0
   16.7879   14.1111    5.3987 N   0  0  0  0  0  0  0  0  0  0  0  0
  1  2  1  0  0  0  0
  2  3  1  0  0  0  0
  3  4  1  0  0  0  0
  4  5  1  0  0  0  0
  5  6  1  0  0  0  0
  6  7  1  0  0  0  0
  7  8  1  0  0  0  0
  8  9  1  0  0  0  0
  9 10  1  0  0  0  0
 10 11  1  0  0  0  0
 11 12  1  0  0  0  0
 12 13  1  0  0  0  0
 13 14  1  0  0  0  0
M  END
>  <CHROM.1>
-178.91536974,-173.49683686,-160.60780697,130.89437127,-174.83787731,178.96987666
178.59105578,175.86809553,-176.42947158,-177.01276565,176.69031525,15.99187301
11.77894089,12.76220426,1.74751308,0.82450144,1.85274961

>  <Name>
ligand

>  <RI>
0

>  <Rbt.Current_Directory>
/home/itssahil/PROJECTS/Mol_Feturizer/New_Systems/rnas/2O3Y

>  <Rbt.Executable>
rbdock ($Id: //depot/dev/client3/rdock/2013.1/src/exe/rbdock.cxx#4 $)

>  <Rbt.Library>
libRbt.so (2013.1, Build901 2013/11/27)

>  <Rbt.Parameter_File>
/export/apps/rDock/src/rDock_2013.1_src/data/scripts/dock_solv.prm

>  <Rbt.Receptor>
prm/pocket_docking_6.prm

>  <SCORE>
-6.77385

>  <SCORE.INTER>
4.84298

>  <SCORE.INTER.CONST>
1

>  <SCORE.INTER.POLAR>
0

>  <SCORE.INTER.ROT>
11

>  <SCORE.INTER.SOLV>
7.15039

>  <SCORE.INTER.VDW>
-10.0881

>  <SCORE.INTER.norm>
0.345927

>  <SCORE.INTRA>
-11.6181

>  <SCORE.INTRA.DIHEDRAL>
-22.3599

>  <SCORE.INTRA.DIHEDRAL.0>
24.1231

>  <SCORE.INTRA.POLAR>
0

>  <SCORE.INTRA.POLAR.0>
0

>  <SCORE.INTRA.REPUL>
0

>  <SCORE.INTRA.REPUL.0>
0

>  <SCORE.INTRA.SOLV>
-1.02233

>  <SCORE.INTRA.SOLV.lig_0>
-48.2216

>  <SCORE.INTRA.VDW>
0.0730176

>  <SCORE.INTRA.VDW.0>
-1.3967

>  <SCORE.INTRA.norm>
-0.829866

>  <SCORE.RESTR>
0.00128244

>  <SCORE.RESTR.CAVITY>
0.00128244

>  <SCORE.RESTR.norm>
9.16026e-05

>  <SCORE.SYSTEM>
0

>  <SCORE.SYSTEM.CONST>
0

>  <SCORE.SYSTEM.DIHEDRAL>
0

>  <SCORE.SYSTEM.SOLV>
0

>  <SCORE.SYSTEM.norm>
0

>  <SCORE.heavy>
14

>  <SCORE.norm>
-0.483847

>  <RMSD>
5.126

$$$$
ligand
 OpenBabel11021811463D
libRbt.so/2013.1/901 2013/11/27
 14 13  0  0  0  0  0  0  0  0999 V2000
   11.7088    6.0786   18.5710 N   0  0  0  0  0  0  0  0  0  0  0  0
   11.7717    6.4604   17.1538 C   0  0  0  0  0  0  0  0  0  0  0  0
   10.4996    5.9995   16.4499 C   0  0  0  0  0  0  0  0  0  0  0  0
   10.5831    6.3953   14.9849 C   0  0  0  0  0  0  0  0  0  0  0  0
   10.4992    7.8564   14.8801 N   0  0  0  0  0  0  0  0  0  0  0  0
   10.7117    8.1990   13.4630 C   0  0  0  0  0  0  0  0  0  0  0  0
    9.8380    9.3924   13.0600 C   0  0  0  0  0  0  0  0  0  0  0  0
   10.0944    9.6982   11.5767 C   0  0  0  0  0  0  0  0  0  0  0  0
   11.3243   10.4934   11.4295 C   0  0  0  0  0  0  0  0  0  0  0  0
   11.3897   10.9581   10.0289 N   0  0  0  0  0  0  0  0  0  0  0  0
   12.5189   11.9815    9.8636 C   0  0  0  0  0  0  0  0  0  0  0  0
   12.4232   12.6362    8.4802 C   0  0  0  0  0  0  0  0  0  0  0  0
   13.5076   13.6242    8.3207 C   0  0  0  0  0  0  0  0  0  0  0  0
   14.8071   12.9257    8.2217 N   0  0  0  0  0  0  0  0  0  0  0  0
  1  2  1  0  0  0  0
  2  3  1  0  0  0  0
  3  4  1  0  0  0  0
  4  5  1  0  0  0  0
  5  6  1  0  0  0  0
  6  7  1  0  0  0  0
  7  8  1  0  0  0  0
  8  9  1  0  0  0  0
  9 10  1  0  0  0  0
 10 11  1  0  0  0  0
 11 12  1  0  0  0  0
 12 13  1  0  0  0  0
 13 14  1  0  0  0  0
M  END
>  <CHROM.1>
-179.71621484,-68.77029918,174.76588324,143.95243149,-179.68434671,-81.15302245
-170.08359165,170.60682588,-170.15466954,179.86065724,69.54112463,11.54817379
9.47849957,12.60587093,-1.78127814,-0.26879230,-0.96170170

>  <Name>
ligand

>  <RI>
0

>  <Rbt.Current_Directory>
/home/itssahil/PROJECTS/Mol_Feturizer/New_Systems/rnas/2O3Y

>  <Rbt.Executable>
rbdock ($Id: //depot/dev/client3/rdock/2013.1/src/exe/rbdock.cxx#4 $)

>  <Rbt.Library>
libRbt.so (2013.1, Build901 2013/11/27)

>  <Rbt.Parameter_File>
/export/apps/rDock/src/rDock_2013.1_src/data/scripts/dock_solv.prm

>  <Rbt.Receptor>
prm/pocket_docking_7.prm

>  <SCORE>
-8.40031

>  <SCORE.INTER>
0.827482

>  <SCORE.INTER.CONST>
1

>  <SCORE.INTER.POLAR>
0

>  <SCORE.INTER.ROT>
11

>  <SCORE.INTER.SOLV>
5.26409

>  <SCORE.INTER.VDW>
-12.1364

>  <SCORE.INTER.norm>
0.0591059

>  <SCORE.INTRA>
-9.22779

>  <SCORE.INTRA.DIHEDRAL>
-20.4844

>  <SCORE.INTRA.DIHEDRAL.0>
24.1231

>  <SCORE.INTRA.POLAR>
0

>  <SCORE.INTRA.POLAR.0>
0

>  <SCORE.INTRA.REPUL>
0

>  <SCORE.INTRA.REPUL.0>
0

>  <SCORE.INTRA.SOLV>
0.384087

>  <SCORE.INTRA.SOLV.lig_0>
-48.2216

>  <SCORE.INTRA.VDW>
0.82235

>  <SCORE.INTRA.VDW.0>
-1.3967

>  <SCORE.INTRA.norm>
-0.659128

>  <SCORE.RESTR>
0

>  <SCORE.RESTR.CAVITY>
0

>  <SCORE.RESTR.norm>
0

>  <SCORE.SYSTEM>
0

>  <SCORE.SYSTEM.CONST>
0

>  <SCORE.SYSTEM.DIHEDRAL>
0

>  <SCORE.SYSTEM.SOLV>
0

>  <SCORE.SYSTEM.norm>
0

>  <SCORE.heavy>
14

>  <SCORE.norm>
-0.600022

>  <RMSD>
5.135

$$$$
ligand
 OpenBabel11021811463D
libRbt.so/2013.1/901 2013/11/27
 14 13  0  0  0  0  0  0  0  0999 V2000
   12.5357    6.0429   18.0686 N   0  0  0  0  0  0  0  0  0  0  0  0
   11.5727    5.8906   16.9697 C   0  0  0  0  0  0  0  0  0  0  0  0
   11.8322    6.9650   15.9186 C   0  0  0  0  0  0  0  0  0  0  0  0
   10.7648    6.8603   14.8417 C   0  0  0  0  0  0  0  0  0  0  0  0
   10.9750    7.9272   13.8566 N   0  0  0  0  0  0  0  0  0  0  0  0
    9.9691    7.7385   12.7968 C   0  0  0  0  0  0  0  0  0  0  0  0
    9.5939    9.0834   12.1641 C   0  0  0  0  0  0  0  0  0  0  0  0
   10.8786    9.7471   11.6458 C   0  0  0  0  0  0  0  0  0  0  0  0
   10.5701   11.0674   11.0727 C   0  0  0  0  0  0  0  0  0  0  0  0
   11.8492   11.7818   10.8850 N   0  0  0  0  0  0  0  0  0  0  0  0
   12.0469   12.1323    9.4059 C   0  0  0  0  0  0  0  0  0  0  0  0
   13.5247   12.4470    9.1435 C   0  0  0  0  0  0  0  0  0  0  0  0
   13.6861   12.9752    7.7751 C   0  0  0  0  0  0  0  0  0  0  0  0
   13.0702   14.3164    7.6832 N   0  0  0  0  0  0  0  0  0  0  0  0
  1  2  1  0  0  0  0
  2  3  1  0  0  0  0
  3  4  1  0  0  0  0
  4  5  1  0  0  0  0
  5  6  1  0  0  0  0
  6  7  1  0  0  0  0
  7  8  1  0  0  0  0
  8  9  1  0  0  0  0
  9 10  1  0  0  0  0
 10 11  1  0  0  0  0
 11 12  1  0  0  0  0
 12 13  1  0  0  0  0
 13 14  1  0  0  0  0
M  END
>  <CHROM.1>
-175.78800528,177.62956040,176.80940946,150.24888253,56.24481737,-177.92961929
167.00728173,120.16264348,-161.75027394,-171.71270798,68.95769948,11.63332933
9.64092473,12.30182326,-1.71185850,-0.32390657,-0.91087009

>  <Name>
ligand

>  <RI>
0

>  <Rbt.Current_Directory>
/home/itssahil/PROJECTS/Mol_Feturizer/New_Systems/rnas/2O3Y

>  <Rbt.Executable>
rbdock ($Id: //depot/dev/client3/rdock/2013.1/src/exe/rbdock.cxx#4 $)

>  <Rbt.Library>
libRbt.so (2013.1, Build901 2013/11/27)

>  <Rbt.Parameter_File>
/export/apps/rDock/src/rDock_2013.1_src/data/scripts/dock_solv.prm

>  <Rbt.Receptor>
prm/pocket_docking_6.prm

>  <SCORE>
-7.75866

>  <SCORE.INTER>
1.87104

>  <SCORE.INTER.CONST>
1

>  <SCORE.INTER.POLAR>
0

>  <SCORE.INTER.ROT>
11

>  <SCORE.INTER.SOLV>
11.7552

>  <SCORE.INTER.VDW>
-13.6044

>  <SCORE.INTER.norm>
0.133646

>  <SCORE.INTRA>
-9.63243

>  <SCORE.INTRA.DIHEDRAL>
-20.7414

>  <SCORE.INTRA.DIHEDRAL.0>
24.1231

>  <SCORE.INTRA.POLAR>
0

>  <SCORE.INTRA.POLAR.0>
0

>  <SCORE.INTRA.REPUL>
0

>  <SCORE.INTRA.REPUL.0>
0

>  <SCORE.INTRA.SOLV>
0.338978

>  <SCORE.INTRA.SOLV.lig_0>
-48.2216

>  <SCORE.INTRA.VDW>
0.568787

>  <SCORE.INTRA.VDW.0>
-1.3967

>  <SCORE.INTRA.norm>
-0.688031

>  <SCORE.RESTR>
0.00273333

>  <SCORE.RESTR.CAVITY>
0.00273333

>  <SCORE.RESTR.norm>
0.000195238

>  <SCORE.SYSTEM>
0

>  <SCORE.SYSTEM.CONST>
0

>  <SCORE.SYSTEM.DIHEDRAL>
0

>  <SCORE.SYSTEM.SOLV>
0

>  <SCORE.SYSTEM.norm>
0

>  <SCORE.heavy>
14

>  <SCORE.norm>
-0.55419

>  <RMSD>
5.136

$$$$
ligand
 OpenBabel11021811463D
libRbt.so/2013.1/901 2013/11/27
 14 13  0  0  0  0  0  0  0  0999 V2000
   20.7113   12.3833    9.1557 N   0  0  0  0  0  0  0  0  0  0  0  0
   20.3236   11.9114   10.4918 C   0  0  0  0  0  0  0  0  0  0  0  0
   20.0140   10.4193   10.4299 C   0  0  0  0  0  0  0  0  0  0  0  0
   19.6488    9.9396   11.8251 C   0  0  0  0  0  0  0  0  0  0  0  0
   18.4068   10.5978   12.2459 N   0  0  0  0  0  0  0  0  0  0  0  0
   18.0517   10.0441   13.5642 C   0  0  0  0  0  0  0  0  0  0  0  0
   17.1314   11.0069   14.3232 C   0  0  0  0  0  0  0  0  0  0  0  0
   16.6457   10.3036   15.5995 C   0  0  0  0  0  0  0  0  0  0  0  0
   15.7172   11.1766   16.3360 C   0  0  0  0  0  0  0  0  0  0  0  0
   15.2255   10.4191   17.5048 N   0  0  0  0  0  0  0  0  0  0  0  0
   14.3564   11.3192   18.3906 C   0  0  0  0  0  0  0  0  0  0  0  0
   13.5380   10.4554   19.3579 C   0  0  0  0  0  0  0  0  0  0  0  0
   12.5835    9.6250   18.5984 C   0  0  0  0  0  0  0  0  0  0  0  0
   11.7612    8.8290   19.5348 N   0  0  0  0  0  0  0  0  0  0  0  0
  1  2  1  0  0  0  0
  2  3  1  0  0  0  0
  3  4  1  0  0  0  0
  4  5  1  0  0  0  0
  5  6  1  0  0  0  0
  6  7  1  0  0  0  0
  7  8  1  0  0  0  0
  8  9  1  0  0  0  0
  9 10  1  0  0  0  0
 10 11  1  0  0  0  0
 11 12  1  0  0  0  0
 12 13  1  0  0  0  0
 13 14  1  0  0  0  0
M  END
>  <CHROM.1>
178.59659048,64.70423872,176.72024753,157.84415438,172.59635898,-177.92704740
176.72842432,174.56879334,163.99526490,-65.00126504,-177.95615258,16.72257633
10.60218374,14.81135482,-0.17826927,0.87477637,0.37328595

>  <Name>
ligand

>  <RI>
0

>  <Rbt.Current_Directory>
/home/itssahil/PROJECTS/Mol_Feturizer/New_Systems/rnas/2O3Y

>  <Rbt.Executable>
rbdock ($Id: //depot/dev/client3/rdock/2013.1/src/exe/rbdock.cxx#4 $)

>  <Rbt.Library>
libRbt.so (2013.1, Build901 2013/11/27)

>  <Rbt.Parameter_File>
/export/apps/rDock/src/rDock_2013.1_src/data/scripts/dock_solv.prm

>  <Rbt.Receptor>
prm/pocket_docking_8.prm

>  <SCORE>
-12.9227

>  <SCORE.INTER>
-1.70307

>  <SCORE.INTER.CONST>
1

>  <SCORE.INTER.POLAR>
0

>  <SCORE.INTER.ROT>
11

>  <SCORE.INTER.SOLV>
6.31141

>  <SCORE.INTER.VDW>
-14.1725

>  <SCORE.INTER.norm>
-0.121648

>  <SCORE.INTRA>
-11.2197

>  <SCORE.INTRA.DIHEDRAL>
-23.0673

>  <SCORE.INTRA.DIHEDRAL.0>
24.1231

>  <SCORE.INTRA.POLAR>
0

>  <SCORE.INTRA.POLAR.0>
0

>  <SCORE.INTRA.REPUL>
0

>  <SCORE.INTRA.REPUL.0>
0

>  <SCORE.INTRA.SOLV>
-0.0964364

>  <SCORE.INTRA.SOLV.lig_0>
-48.2216

>  <SCORE.INTRA.VDW>
0.362182

>  <SCORE.INTRA.VDW.0>
-1.3967

>  <SCORE.INTRA.norm>
-0.801406

>  <SCORE.RESTR>
0

>  <SCORE.RESTR.CAVITY>
0

>  <SCORE.RESTR.norm>
0

>  <SCORE.SYSTEM>
0

>  <SCORE.SYSTEM.CONST>
0

>  <SCORE.SYSTEM.DIHEDRAL>
0

>  <SCORE.SYSTEM.SOLV>
0

>  <SCORE.SYSTEM.norm>
0

>  <SCORE.heavy>
14

>  <SCORE.norm>
-0.923054

>  <RMSD>
5.144

$$$$
ligand
 OpenBabel11021811463D
libRbt.so/2013.1/901 2013/11/27
 14 13  0  0  0  0  0  0  0  0999 V2000
   15.0313   12.6576    7.8670 N   0  0  0  0  0  0  0  0  0  0  0  0
   14.0032   13.7044    7.9404 C   0  0  0  0  0  0  0  0  0  0  0  0
   12.6283   13.0543    8.0552 C   0  0  0  0  0  0  0  0  0  0  0  0
   12.5427   12.3284    9.3878 C   0  0  0  0  0  0  0  0  0  0  0  0
   11.2259   11.6908    9.4998 N   0  0  0  0  0  0  0  0  0  0  0  0
   11.1677   11.0544   10.8273 C   0  0  0  0  0  0  0  0  0  0  0  0
   10.0096   10.0522   10.8943 C   0  0  0  0  0  0  0  0  0  0  0  0
    9.9208    9.5139   12.3303 C   0  0  0  0  0  0  0  0  0  0  0  0
   10.9654    8.5019   12.5567 C   0  0  0  0  0  0  0  0  0  0  0  0
   10.7087    7.8831   13.8730 N   0  0  0  0  0  0  0  0  0  0  0  0
   12.0192    7.3699   14.4806 C   0  0  0  0  0  0  0  0  0  0  0  0
   11.7197    6.2416   15.4750 C   0  0  0  0  0  0  0  0  0  0  0  0
   12.9795    5.7525   16.0676 C   0  0  0  0  0  0  0  0  0  0  0  0
   12.6879    4.6780   17.0407 N   0  0  0  0  0  0  0  0  0  0  0  0
  1  2  1  0  0  0  0
  2  3  1  0  0  0  0
  3  4  1  0  0  0  0
  4  5  1  0  0  0  0
  5  6  1  0  0  0  0
  6  7  1  0  0  0  0
  7  8  1  0  0  0  0
  8  9  1  0  0  0  0
  9 10  1  0  0  0  0
 10 11  1  0  0  0  0
 11 12  1  0  0  0  0
 12 13  1  0  0  0  0
 13 14  1  0  0  0  0
M  END
>  <CHROM.1>
66.03800583,-179.52367257,-177.48065311,-164.47961896,-175.09941326,-77.85004366
-171.84847666,-152.49634379,-155.46330402,-179.61905664,179.18961396,11.97194765
9.60607901,11.87818535,-1.46748323,-0.02389395,2.32278695

>  <Name>
ligand

>  <RI>
0

>  <Rbt.Current_Directory>
/home/itssahil/PROJECTS/Mol_Feturizer/New_Systems/rnas/2O3Y

>  <Rbt.Executable>
rbdock ($Id: //depot/dev/client3/rdock/2013.1/src/exe/rbdock.cxx#4 $)

>  <Rbt.Library>
libRbt.so (2013.1, Build901 2013/11/27)

>  <Rbt.Parameter_File>
/export/apps/rDock/src/rDock_2013.1_src/data/scripts/dock_solv.prm

>  <Rbt.Receptor>
prm/pocket_docking_7.prm

>  <SCORE>
-10.3637

>  <SCORE.INTER>
-0.599285

>  <SCORE.INTER.CONST>
1

>  <SCORE.INTER.POLAR>
0

>  <SCORE.INTER.ROT>
11

>  <SCORE.INTER.SOLV>
12.0323

>  <SCORE.INTER.VDW>
-15.3436

>  <SCORE.INTER.norm>
-0.0428061

>  <SCORE.INTRA>
-9.76443

>  <SCORE.INTRA.DIHEDRAL>
-21.2573

>  <SCORE.INTRA.DIHEDRAL.0>
24.1231

>  <SCORE.INTRA.POLAR>
0

>  <SCORE.INTRA.POLAR.0>
0

>  <SCORE.INTRA.REPUL>
0

>  <SCORE.INTRA.REPUL.0>
0

>  <SCORE.INTRA.SOLV>
0.0588719

>  <SCORE.INTRA.SOLV.lig_0>
-48.2216

>  <SCORE.INTRA.VDW>
0.834789

>  <SCORE.INTRA.VDW.0>
-1.3967

>  <SCORE.INTRA.norm>
-0.697459

>  <SCORE.RESTR>
0

>  <SCORE.RESTR.CAVITY>
0

>  <SCORE.RESTR.norm>
0

>  <SCORE.SYSTEM>
0

>  <SCORE.SYSTEM.CONST>
0

>  <SCORE.SYSTEM.DIHEDRAL>
0

>  <SCORE.SYSTEM.SOLV>
0

>  <SCORE.SYSTEM.norm>
0

>  <SCORE.heavy>
14

>  <SCORE.norm>
-0.740265

>  <RMSD>
5.159

$$$$
ligand
 OpenBabel11021811463D
libRbt.so/2013.1/901 2013/11/27
 14 13  0  0  0  0  0  0  0  0999 V2000
   18.9429   12.6759    3.8983 N   0  0  0  0  0  0  0  0  0  0  0  0
   18.1490   13.5952    4.7247 C   0  0  0  0  0  0  0  0  0  0  0  0
   16.9735   12.8385    5.3345 C   0  0  0  0  0  0  0  0  0  0  0  0
   16.2316   13.7705    6.2784 C   0  0  0  0  0  0  0  0  0  0  0  0
   15.1572   13.0222    6.9406 N   0  0  0  0  0  0  0  0  0  0  0  0
   14.5854   13.9094    7.9685 C   0  0  0  0  0  0  0  0  0  0  0  0
   13.1216   13.5450    8.2415 C   0  0  0  0  0  0  0  0  0  0  0  0
   13.0944   12.2791    9.1112 C   0  0  0  0  0  0  0  0  0  0  0  0
   11.7080   11.9463    9.4769 C   0  0  0  0  0  0  0  0  0  0  0  0
   11.7510   10.7574   10.3523 N   0  0  0  0  0  0  0  0  0  0  0  0
   10.3297   10.2583   10.6363 C   0  0  0  0  0  0  0  0  0  0  0  0
   10.2376    9.7601   12.0837 C   0  0  0  0  0  0  0  0  0  0  0  0
   11.1320    8.6012   12.2694 C   0  0  0  0  0  0  0  0  0  0  0  0
   11.0498    8.1278   13.6679 N   0  0  0  0  0  0  0  0  0  0  0  0
  1  2  1  0  0  0  0
  2  3  1  0  0  0  0
  3  4  1  0  0  0  0
  4  5  1  0  0  0  0
  5  6  1  0  0  0  0
  6  7  1  0  0  0  0
  7  8  1  0  0  0  0
  8  9  1  0  0  0  0
  9 10  1  0  0  0  0
 10 11  1  0  0  0  0
 11 12  1  0  0  0  0
 12 13  1  0  0  0  0
 13 14  1  0  0  0  0
M  END
>  <CHROM.1>
175.23358939,-176.02736294,172.66489944,153.05548390,76.68888530,176.04321414
-177.81258764,-173.35438927,-142.69635753,-63.43125590,179.59024188,13.74720706
11.79217455,8.64169103,-0.71370949,-0.55431317,2.63415460

>  <Name>
ligand

>  <RI>
0

>  <Rbt.Current_Directory>
/home/itssahil/PROJECTS/Mol_Feturizer/New_Systems/rnas/2O3Y

>  <Rbt.Executable>
rbdock ($Id: //depot/dev/client3/rdock/2013.1/src/exe/rbdock.cxx#4 $)

>  <Rbt.Library>
libRbt.so (2013.1, Build901 2013/11/27)

>  <Rbt.Parameter_File>
/export/apps/rDock/src/rDock_2013.1_src/data/scripts/dock_solv.prm

>  <Rbt.Receptor>
prm/pocket_docking_8.prm

>  <SCORE>
-9.82477

>  <SCORE.INTER>
0.779802

>  <SCORE.INTER.CONST>
1

>  <SCORE.INTER.POLAR>
0

>  <SCORE.INTER.ROT>
11

>  <SCORE.INTER.SOLV>
7.35803

>  <SCORE.INTER.VDW>
-12.8661

>  <SCORE.INTER.norm>
0.0557002

>  <SCORE.INTRA>
-10.6046

>  <SCORE.INTRA.DIHEDRAL>
-21.4532

>  <SCORE.INTRA.DIHEDRAL.0>
24.1231

>  <SCORE.INTRA.POLAR>
0

>  <SCORE.INTRA.POLAR.0>
0

>  <SCORE.INTRA.REPUL>
0

>  <SCORE.INTRA.REPUL.0>
0

>  <SCORE.INTRA.SOLV>
-0.196787

>  <SCORE.INTRA.SOLV.lig_0>
-48.2216

>  <SCORE.INTRA.VDW>
0.220411

>  <SCORE.INTRA.VDW.0>
-1.3967

>  <SCORE.INTRA.norm>
-0.757469

>  <SCORE.RESTR>
0

>  <SCORE.RESTR.CAVITY>
0

>  <SCORE.RESTR.norm>
0

>  <SCORE.SYSTEM>
0

>  <SCORE.SYSTEM.CONST>
0

>  <SCORE.SYSTEM.DIHEDRAL>
0

>  <SCORE.SYSTEM.SOLV>
0

>  <SCORE.SYSTEM.norm>
0

>  <SCORE.heavy>
14

>  <SCORE.norm>
-0.701769

>  <RMSD>
5.175

$$$$
ligand
 OpenBabel11021811463D
libRbt.so/2013.1/901 2013/11/27
 14 13  0  0  0  0  0  0  0  0999 V2000
   18.9796   13.3198    9.3594 N   0  0  0  0  0  0  0  0  0  0  0  0
   18.8802   12.0523   10.0953 C   0  0  0  0  0  0  0  0  0  0  0  0
   20.2407   11.7071   10.6920 C   0  0  0  0  0  0  0  0  0  0  0  0
   20.1577   10.3293   11.3283 C   0  0  0  0  0  0  0  0  0  0  0  0
   19.2983   10.4031   12.5152 N   0  0  0  0  0  0  0  0  0  0  0  0
   18.1368    9.5333   12.2601 C   0  0  0  0  0  0  0  0  0  0  0  0
   17.2645    9.4168   13.5152 C   0  0  0  0  0  0  0  0  0  0  0  0
   16.1097    8.4506   13.2114 C   0  0  0  0  0  0  0  0  0  0  0  0
   15.3495    8.1686   14.4400 C   0  0  0  0  0  0  0  0  0  0  0  0
   14.2753    7.2168   14.0910 N   0  0  0  0  0  0  0  0  0  0  0  0
   13.8123    6.4604   15.3413 C   0  0  0  0  0  0  0  0  0  0  0  0
   12.2806    6.4750   15.4153 C   0  0  0  0  0  0  0  0  0  0  0  0
   11.8329    5.7424   16.6154 C   0  0  0  0  0  0  0  0  0  0  0  0
   10.3705    5.8931   16.7742 N   0  0  0  0  0  0  0  0  0  0  0  0
  1  2  1  0  0  0  0
  2  3  1  0  0  0  0
  3  4  1  0  0  0  0
  4  5  1  0  0  0  0
  5  6  1  0  0  0  0
  6  7  1  0  0  0  0
  7  8  1  0  0  0  0
  8  9  1  0  0  0  0
  9 10  1  0  0  0  0
 10 11  1  0  0  0  0
 11 12  1  0  0  0  0
 12 13  1  0  0  0  0
 13 14  1  0  0  0  0
M  END
>  <CHROM.1>
-174.33589793,-68.96662150,117.01204737,173.26646439,-177.41268688,172.47059990
-178.84926499,157.57416652,132.12267426,179.76170730,173.29409728,16.21365896
8.94050529,13.26104682,0.79776725,0.03645327,-0.73537682

>  <Name>
ligand

>  <RI>
0

>  <Rbt.Current_Directory>
/home/itssahil/PROJECTS/Mol_Feturizer/New_Systems/rnas/2O3Y

>  <Rbt.Executable>
rbdock ($Id: //depot/dev/client3/rdock/2013.1/src/exe/rbdock.cxx#4 $)

>  <Rbt.Library>
libRbt.so (2013.1, Build901 2013/11/27)

>  <Rbt.Parameter_File>
/export/apps/rDock/src/rDock_2013.1_src/data/scripts/dock_solv.prm

>  <Rbt.Receptor>
prm/pocket_docking_6.prm

>  <SCORE>
-8.49762

>  <SCORE.INTER>
1.81427

>  <SCORE.INTER.CONST>
1

>  <SCORE.INTER.POLAR>
0

>  <SCORE.INTER.ROT>
11

>  <SCORE.INTER.SOLV>
10.421

>  <SCORE.INTER.VDW>
-13.1975

>  <SCORE.INTER.norm>
0.129591

>  <SCORE.INTRA>
-10.3188

>  <SCORE.INTRA.DIHEDRAL>
-20.5894

>  <SCORE.INTRA.DIHEDRAL.0>
24.1231

>  <SCORE.INTRA.POLAR>
0

>  <SCORE.INTRA.POLAR.0>
0

>  <SCORE.INTRA.REPUL>
0

>  <SCORE.INTRA.REPUL.0>
0

>  <SCORE.INTRA.SOLV>
-0.585196

>  <SCORE.INTRA.SOLV.lig_0>
-48.2216

>  <SCORE.INTRA.VDW>
0.268513

>  <SCORE.INTRA.VDW.0>
-1.3967

>  <SCORE.INTRA.norm>
-0.737056

>  <SCORE.RESTR>
0.00689164

>  <SCORE.RESTR.CAVITY>
0.00689164

>  <SCORE.RESTR.norm>
0.00049226

>  <SCORE.SYSTEM>
0

>  <SCORE.SYSTEM.CONST>
0

>  <SCORE.SYSTEM.DIHEDRAL>
0

>  <SCORE.SYSTEM.SOLV>
0

>  <SCORE.SYSTEM.norm>
0

>  <SCORE.heavy>
14

>  <SCORE.norm>
-0.606973

>  <RMSD>
5.191

$$$$
ligand
 OpenBabel11021811463D
libRbt.so/2013.1/901 2013/11/27
 14 13  0  0  0  0  0  0  0  0999 V2000
   14.9832   12.7361    8.0192 N   0  0  0  0  0  0  0  0  0  0  0  0
   13.9288   13.7422    7.8345 C   0  0  0  0  0  0  0  0  0  0  0  0
   12.5647   13.0649    7.9176 C   0  0  0  0  0  0  0  0  0  0  0  0
   12.3972   12.4768    9.3091 C   0  0  0  0  0  0  0  0  0  0  0  0
   11.0831   11.8302    9.3985 N   0  0  0  0  0  0  0  0  0  0  0  0
   10.8190   11.5885   10.8277 C   0  0  0  0  0  0  0  0  0  0  0  0
   10.4219   10.1267   11.0628 C   0  0  0  0  0  0  0  0  0  0  0  0
   10.3150    9.8941   12.5774 C   0  0  0  0  0  0  0  0  0  0  0  0
   10.0379    8.4749   12.8530 C   0  0  0  0  0  0  0  0  0  0  0  0
   10.0422    8.2964   14.3192 N   0  0  0  0  0  0  0  0  0  0  0  0
   10.6217    6.9247   14.6831 C   0  0  0  0  0  0  0  0  0  0  0  0
   10.7765    6.8175   16.2050 C   0  0  0  0  0  0  0  0  0  0  0  0
   11.4496    5.5502   16.5491 C   0  0  0  0  0  0  0  0  0  0  0  0
   11.5783    5.4376   18.0179 N   0  0  0  0  0  0  0  0  0  0  0  0
  1  2  1  0  0  0  0
  2  3  1  0  0  0  0
  3  4  1  0  0  0  0
  4  5  1  0  0  0  0
  5  6  1  0  0  0  0
  6  7  1  0  0  0  0
  7  8  1  0  0  0  0
  8  9  1  0  0  0  0
  9 10  1  0  0  0  0
 10 11  1  0  0  0  0
 11 12  1  0  0  0  0
 12 13  1  0  0  0  0
 13 14  1  0  0  0  0
M  END
>  <CHROM.1>
62.91749428,179.66987774,-165.67894725,-128.62756184,173.67399668,-175.59884192
176.04196052,-144.87378555,173.28301727,-174.75741076,-179.06686245,11.50119354
9.78299172,12.11231228,-1.36718950,-0.00423377,2.26632574

>  <Name>
ligand

>  <RI>
0

>  <Rbt.Current_Directory>
/home/itssahil/PROJECTS/Mol_Feturizer/New_Systems/rnas/2O3Y

>  <Rbt.Executable>
rbdock ($Id: //depot/dev/client3/rdock/2013.1/src/exe/rbdock.cxx#4 $)

>  <Rbt.Library>
libRbt.so (2013.1, Build901 2013/11/27)

>  <Rbt.Parameter_File>
/export/apps/rDock/src/rDock_2013.1_src/data/scripts/dock_solv.prm

>  <Rbt.Receptor>
prm/pocket_docking_7.prm

>  <SCORE>
-11.6867

>  <SCORE.INTER>
-1.19555

>  <SCORE.INTER.CONST>
1

>  <SCORE.INTER.POLAR>
0

>  <SCORE.INTER.ROT>
11

>  <SCORE.INTER.SOLV>
7.73088

>  <SCORE.INTER.VDW>
-14.3073

>  <SCORE.INTER.norm>
-0.0853967

>  <SCORE.INTRA>
-10.4912

>  <SCORE.INTRA.DIHEDRAL>
-21.5974

>  <SCORE.INTRA.DIHEDRAL.0>
24.1231

>  <SCORE.INTRA.POLAR>
0

>  <SCORE.INTRA.POLAR.0>
0

>  <SCORE.INTRA.REPUL>
0

>  <SCORE.INTRA.REPUL.0>
0

>  <SCORE.INTRA.SOLV>
-0.10062

>  <SCORE.INTRA.SOLV.lig_0>
-48.2216

>  <SCORE.INTRA.VDW>
0.357835

>  <SCORE.INTRA.VDW.0>
-1.3967

>  <SCORE.INTRA.norm>
-0.749369

>  <SCORE.RESTR>
0

>  <SCORE.RESTR.CAVITY>
0

>  <SCORE.RESTR.norm>
0

>  <SCORE.SYSTEM>
0

>  <SCORE.SYSTEM.CONST>
0

>  <SCORE.SYSTEM.DIHEDRAL>
0

>  <SCORE.SYSTEM.SOLV>
0

>  <SCORE.SYSTEM.norm>
0

>  <SCORE.heavy>
14

>  <SCORE.norm>
-0.834765

>  <RMSD>
5.196

$$$$
ligand
 OpenBabel11021811463D
libRbt.so/2013.1/901 2013/11/27
 14 13  0  0  0  0  0  0  0  0999 V2000
   20.8744   13.3347    8.6813 N   0  0  0  0  0  0  0  0  0  0  0  0
   20.8614   12.1149    9.4998 C   0  0  0  0  0  0  0  0  0  0  0  0
   19.5898   12.0853   10.3415 C   0  0  0  0  0  0  0  0  0  0  0  0
   19.6036   10.8315   11.2005 C   0  0  0  0  0  0  0  0  0  0  0  0
   18.3621   10.7741   11.9804 N   0  0  0  0  0  0  0  0  0  0  0  0
   18.5976    9.8406   13.0957 C   0  0  0  0  0  0  0  0  0  0  0  0
   17.4116    9.8512   14.0670 C   0  0  0  0  0  0  0  0  0  0  0  0
   17.3865   11.2105   14.7820 C   0  0  0  0  0  0  0  0  0  0  0  0
   16.0954   11.4001   15.4630 C   0  0  0  0  0  0  0  0  0  0  0  0
   16.0272   10.4235   16.5691 N   0  0  0  0  0  0  0  0  0  0  0  0
   14.6853   10.5454   17.3000 C   0  0  0  0  0  0  0  0  0  0  0  0
   14.7198    9.7088   18.5848 C   0  0  0  0  0  0  0  0  0  0  0  0
   14.8367    8.2778   18.2443 C   0  0  0  0  0  0  0  0  0  0  0  0
   13.5940    7.8192   17.5872 N   0  0  0  0  0  0  0  0  0  0  0  0
  1  2  1  0  0  0  0
  2  3  1  0  0  0  0
  3  4  1  0  0  0  0
  4  5  1  0  0  0  0
  5  6  1  0  0  0  0
  6  7  1  0  0  0  0
  7  8  1  0  0  0  0
  8  9  1  0  0  0  0
  9 10  1  0  0  0  0
 10 11  1  0  0  0  0
 11 12  1  0  0  0  0
 12 13  1  0  0  0  0
 13 14  1  0  0  0  0
M  END
>  <CHROM.1>
-178.97051729,-178.15238230,-161.35632802,172.88007188,-68.81783741,165.89384206
67.71776346,-178.56977598,-170.17362990,-65.33157403,-67.73818241,17.33186204
10.58696645,14.09992814,0.21935250,0.96497611,0.08178172

>  <Name>
ligand

>  <RI>
0

>  <Rbt.Current_Directory>
/home/itssahil/PROJECTS/Mol_Feturizer/New_Systems/rnas/2O3Y

>  <Rbt.Executable>
rbdock ($Id: //depot/dev/client3/rdock/2013.1/src/exe/rbdock.cxx#4 $)

>  <Rbt.Library>
libRbt.so (2013.1, Build901 2013/11/27)

>  <Rbt.Parameter_File>
/export/apps/rDock/src/rDock_2013.1_src/data/scripts/dock_solv.prm

>  <Rbt.Receptor>
prm/pocket_docking_8.prm

>  <SCORE>
-9.86694

>  <SCORE.INTER>
-0.17812

>  <SCORE.INTER.CONST>
1

>  <SCORE.INTER.POLAR>
0

>  <SCORE.INTER.ROT>
11

>  <SCORE.INTER.SOLV>
5.94421

>  <SCORE.INTER.VDW>
-13.0335

>  <SCORE.INTER.norm>
-0.0127228

>  <SCORE.INTRA>
-9.68882

>  <SCORE.INTRA.DIHEDRAL>
-22.0827

>  <SCORE.INTRA.DIHEDRAL.0>
24.1231

>  <SCORE.INTRA.POLAR>
0

>  <SCORE.INTRA.POLAR.0>
0

>  <SCORE.INTRA.REPUL>
0

>  <SCORE.INTRA.REPUL.0>
0

>  <SCORE.INTRA.SOLV>
1.6073

>  <SCORE.INTRA.SOLV.lig_0>
-48.2216

>  <SCORE.INTRA.VDW>
0.548911

>  <SCORE.INTRA.VDW.0>
-1.3967

>  <SCORE.INTRA.norm>
-0.692058

>  <SCORE.RESTR>
0

>  <SCORE.RESTR.CAVITY>
0

>  <SCORE.RESTR.norm>
0

>  <SCORE.SYSTEM>
0

>  <SCORE.SYSTEM.CONST>
0

>  <SCORE.SYSTEM.DIHEDRAL>
0

>  <SCORE.SYSTEM.SOLV>
0

>  <SCORE.SYSTEM.norm>
0

>  <SCORE.heavy>
14

>  <SCORE.norm>
-0.704781

>  <RMSD>
5.235

$$$$
ligand
 OpenBabel11021811463D
libRbt.so/2013.1/901 2013/11/27
 14 13  0  0  0  0  0  0  0  0999 V2000
   10.2421    8.7902   13.6407 N   0  0  0  0  0  0  0  0  0  0  0  0
    9.8843    9.4014   12.3536 C   0  0  0  0  0  0  0  0  0  0  0  0
   11.1564    9.7151   11.5729 C   0  0  0  0  0  0  0  0  0  0  0  0
   10.7745   10.4271   10.2856 C   0  0  0  0  0  0  0  0  0  0  0  0
   11.9720   10.5798    9.4516 N   0  0  0  0  0  0  0  0  0  0  0  0
   12.2481   12.0238    9.3555 C   0  0  0  0  0  0  0  0  0  0  0  0
   13.5451   12.2740    8.5776 C   0  0  0  0  0  0  0  0  0  0  0  0
   13.8864   13.7683    8.6778 C   0  0  0  0  0  0  0  0  0  0  0  0
   15.2270   14.0193    8.1243 C   0  0  0  0  0  0  0  0  0  0  0  0
   15.1455   13.8403    6.6603 N   0  0  0  0  0  0  0  0  0  0  0  0
   16.4051   14.3988    5.9885 C   0  0  0  0  0  0  0  0  0  0  0  0
   17.1573   13.2658    5.2799 C   0  0  0  0  0  0  0  0  0  0  0  0
   18.4242   13.7798    4.7248 C   0  0  0  0  0  0  0  0  0  0  0  0
   19.1792   12.6730    4.0992 N   0  0  0  0  0  0  0  0  0  0  0  0
  1  2  1  0  0  0  0
  2  3  1  0  0  0  0
  3  4  1  0  0  0  0
  4  5  1  0  0  0  0
  5  6  1  0  0  0  0
  6  7  1  0  0  0  0
  7  8  1  0  0  0  0
  8  9  1  0  0  0  0
  9 10  1  0  0  0  0
 10 11  1  0  0  0  0
 11 12  1  0  0  0  0
 12 13  1  0  0  0  0
 13 14  1  0  0  0  0
M  END
>  <CHROM.1>
-176.40321819,-172.87790922,-114.31408280,176.10154524,-172.14955587,171.30609553
70.52594015,166.79672665,117.22781450,-175.50098428,177.26287332,13.94615843
12.06857810,8.48518279,-2.62897564,0.69151046,-0.18824796

>  <Name>
ligand

>  <RI>
0

>  <Rbt.Current_Directory>
/home/itssahil/PROJECTS/Mol_Feturizer/New_Systems/rnas/2O3Y

>  <Rbt.Executable>
rbdock ($Id: //depot/dev/client3/rdock/2013.1/src/exe/rbdock.cxx#4 $)

>  <Rbt.Library>
libRbt.so (2013.1, Build901 2013/11/27)

>  <Rbt.Parameter_File>
/export/apps/rDock/src/rDock_2013.1_src/data/scripts/dock_solv.prm

>  <Rbt.Receptor>
prm/pocket_docking_8.prm

>  <SCORE>
-9.48686

>  <SCORE.INTER>
0.667026

>  <SCORE.INTER.CONST>
1

>  <SCORE.INTER.POLAR>
0

>  <SCORE.INTER.ROT>
11

>  <SCORE.INTER.SOLV>
6.95069

>  <SCORE.INTER.VDW>
-12.8055

>  <SCORE.INTER.norm>
0.0476447

>  <SCORE.INTRA>
-10.1539

>  <SCORE.INTRA.DIHEDRAL>
-20.3124

>  <SCORE.INTRA.DIHEDRAL.0>
24.1231

>  <SCORE.INTRA.POLAR>
0

>  <SCORE.INTRA.POLAR.0>
0

>  <SCORE.INTRA.REPUL>
0

>  <SCORE.INTRA.REPUL.0>
0

>  <SCORE.INTRA.SOLV>
-0.582602

>  <SCORE.INTRA.SOLV.lig_0>
-48.2216

>  <SCORE.INTRA.VDW>
0.293618

>  <SCORE.INTRA.VDW.0>
-1.3967

>  <SCORE.INTRA.norm>
-0.725277

>  <SCORE.RESTR>
0

>  <SCORE.RESTR.CAVITY>
0

>  <SCORE.RESTR.norm>
0

>  <SCORE.SYSTEM>
0

>  <SCORE.SYSTEM.CONST>
0

>  <SCORE.SYSTEM.DIHEDRAL>
0

>  <SCORE.SYSTEM.SOLV>
0

>  <SCORE.SYSTEM.norm>
0

>  <SCORE.heavy>
14

>  <SCORE.norm>
-0.677633

>  <RMSD>
5.240

$$$$
ligand
 OpenBabel11021811463D
libRbt.so/2013.1/901 2013/11/27
 14 13  0  0  0  0  0  0  0  0999 V2000
   13.4595   14.3116    7.7914 N   0  0  0  0  0  0  0  0  0  0  0  0
   12.6361   13.1525    8.1611 C   0  0  0  0  0  0  0  0  0  0  0  0
   13.4891   12.1544    8.9373 C   0  0  0  0  0  0  0  0  0  0  0  0
   12.6310   10.9499    9.2880 C   0  0  0  0  0  0  0  0  0  0  0  0
   11.6758   11.3332   10.3338 N   0  0  0  0  0  0  0  0  0  0  0  0
   10.5212   10.4256   10.2154 C   0  0  0  0  0  0  0  0  0  0  0  0
   10.1035    9.9021   11.5943 C   0  0  0  0  0  0  0  0  0  0  0  0
   11.2210    8.9898   12.1221 C   0  0  0  0  0  0  0  0  0  0  0  0
   10.8338    8.4150   13.4207 C   0  0  0  0  0  0  0  0  0  0  0  0
   11.9999    7.6768   13.9470 N   0  0  0  0  0  0  0  0  0  0  0  0
   11.5639    6.7339   15.0743 C   0  0  0  0  0  0  0  0  0  0  0  0
   12.7489    5.8601   15.5031 C   0  0  0  0  0  0  0  0  0  0  0  0
   12.3114    4.8983   16.5331 C   0  0  0  0  0  0  0  0  0  0  0  0
   11.8944    5.6273   17.7501 N   0  0  0  0  0  0  0  0  0  0  0  0
  1  2  1  0  0  0  0
  2  3  1  0  0  0  0
  3  4  1  0  0  0  0
  4  5  1  0  0  0  0
  5  6  1  0  0  0  0
  6  7  1  0  0  0  0
  7  8  1  0  0  0  0
  8  9  1  0  0  0  0
  9 10  1  0  0  0  0
 10 11  1  0  0  0  0
 11 12  1  0  0  0  0
 12 13  1  0  0  0  0
 13 14  1  0  0  0  0
M  END
>  <CHROM.1>
-178.88391404,-72.02792526,154.61133530,134.41682060,-67.36221010,-177.44114600
-173.67807761,-163.87994790,173.61271152,-176.72745105,-64.44106253,11.93481924
9.31628354,12.19072528,-1.50720077,0.07625745,2.30063267

>  <Name>
ligand

>  <RI>
0

>  <Rbt.Current_Directory>
/home/itssahil/PROJECTS/Mol_Feturizer/New_Systems/rnas/2O3Y

>  <Rbt.Executable>
rbdock ($Id: //depot/dev/client3/rdock/2013.1/src/exe/rbdock.cxx#4 $)

>  <Rbt.Library>
libRbt.so (2013.1, Build901 2013/11/27)

>  <Rbt.Parameter_File>
/export/apps/rDock/src/rDock_2013.1_src/data/scripts/dock_solv.prm

>  <Rbt.Receptor>
prm/pocket_docking_8.prm

>  <SCORE>
-10.8977

>  <SCORE.INTER>
-0.975213

>  <SCORE.INTER.CONST>
1

>  <SCORE.INTER.POLAR>
0

>  <SCORE.INTER.ROT>
11

>  <SCORE.INTER.SOLV>
11.6418

>  <SCORE.INTER.VDW>
-15.4641

>  <SCORE.INTER.norm>
-0.0696581

>  <SCORE.INTRA>
-9.92253

>  <SCORE.INTRA.DIHEDRAL>
-21.3663

>  <SCORE.INTRA.DIHEDRAL.0>
24.1231

>  <SCORE.INTRA.POLAR>
0

>  <SCORE.INTRA.POLAR.0>
0

>  <SCORE.INTRA.REPUL>
0

>  <SCORE.INTRA.REPUL.0>
0

>  <SCORE.INTRA.SOLV>
0.630108

>  <SCORE.INTRA.SOLV.lig_0>
-48.2216

>  <SCORE.INTRA.VDW>
0.445558

>  <SCORE.INTRA.VDW.0>
-1.3967

>  <SCORE.INTRA.norm>
-0.708752

>  <SCORE.RESTR>
0

>  <SCORE.RESTR.CAVITY>
0

>  <SCORE.RESTR.norm>
0

>  <SCORE.SYSTEM>
0

>  <SCORE.SYSTEM.CONST>
0

>  <SCORE.SYSTEM.DIHEDRAL>
0

>  <SCORE.SYSTEM.SOLV>
0

>  <SCORE.SYSTEM.norm>
0

>  <SCORE.heavy>
14

>  <SCORE.norm>
-0.77841

>  <RMSD>
5.241

$$$$
ligand
 OpenBabel11021811463D
libRbt.so/2013.1/901 2013/11/27
 14 13  0  0  0  0  0  0  0  0999 V2000
   12.7376   14.2086    8.3487 N   0  0  0  0  0  0  0  0  0  0  0  0
   12.9412   12.7835    8.0554 C   0  0  0  0  0  0  0  0  0  0  0  0
   13.3254   12.0540    9.3385 C   0  0  0  0  0  0  0  0  0  0  0  0
   12.0717   11.8389   10.1703 C   0  0  0  0  0  0  0  0  0  0  0  0
   11.3677   10.6512    9.6736 N   0  0  0  0  0  0  0  0  0  0  0  0
   10.2850   10.3616   10.6298 C   0  0  0  0  0  0  0  0  0  0  0  0
   10.8154    9.5444   11.8134 C   0  0  0  0  0  0  0  0  0  0  0  0
    9.6268    9.1699   12.7115 C   0  0  0  0  0  0  0  0  0  0  0  0
   10.1069    8.7607   14.0414 C   0  0  0  0  0  0  0  0  0  0  0  0
   10.8037    7.4677   13.8855 N   0  0  0  0  0  0  0  0  0  0  0  0
   11.6683    7.1809   15.1183 C   0  0  0  0  0  0  0  0  0  0  0  0
   11.6444    5.6790   15.4271 C   0  0  0  0  0  0  0  0  0  0  0  0
   12.5604    5.3860   16.5463 C   0  0  0  0  0  0  0  0  0  0  0  0
   12.0826    6.0628   17.7711 N   0  0  0  0  0  0  0  0  0  0  0  0
  1  2  1  0  0  0  0
  2  3  1  0  0  0  0
  3  4  1  0  0  0  0
  4  5  1  0  0  0  0
  5  6  1  0  0  0  0
  6  7  1  0  0  0  0
  7  8  1  0  0  0  0
  8  9  1  0  0  0  0
  9 10  1  0  0  0  0
 10 11  1  0  0  0  0
 11 12  1  0  0  0  0
 12 13  1  0  0  0  0
 13 14  1  0  0  0  0
M  END
>  <CHROM.1>
77.57791647,82.13297033,171.41227791,-83.67892786,-175.18902083,-162.58884938
-69.26139741,163.61966673,143.73786384,175.50670919,63.88622688,11.57401584
9.36771863,12.39506260,-1.49625757,0.12026921,2.28403359

>  <Name>
ligand

>  <RI>
0

>  <Rbt.Current_Directory>
/home/itssahil/PROJECTS/Mol_Feturizer/New_Systems/rnas/2O3Y

>  <Rbt.Executable>
rbdock ($Id: //depot/dev/client3/rdock/2013.1/src/exe/rbdock.cxx#4 $)

>  <Rbt.Library>
libRbt.so (2013.1, Build901 2013/11/27)

>  <Rbt.Parameter_File>
/export/apps/rDock/src/rDock_2013.1_src/data/scripts/dock_solv.prm

>  <Rbt.Receptor>
prm/pocket_docking_6.prm

>  <SCORE>
-8.16031

>  <SCORE.INTER>
-0.889836

>  <SCORE.INTER.CONST>
1

>  <SCORE.INTER.POLAR>
0

>  <SCORE.INTER.ROT>
11

>  <SCORE.INTER.SOLV>
11.4583

>  <SCORE.INTER.VDW>
-15.346

>  <SCORE.INTER.norm>
-0.0635597

>  <SCORE.INTRA>
-7.27048

>  <SCORE.INTRA.DIHEDRAL>
-18.1898

>  <SCORE.INTRA.DIHEDRAL.0>
24.1231

>  <SCORE.INTRA.POLAR>
0

>  <SCORE.INTRA.POLAR.0>
0

>  <SCORE.INTRA.REPUL>
0

>  <SCORE.INTRA.REPUL.0>
0

>  <SCORE.INTRA.SOLV>
1.46796

>  <SCORE.INTRA.SOLV.lig_0>
-48.2216

>  <SCORE.INTRA.VDW>
1.09044

>  <SCORE.INTRA.VDW.0>
-1.3967

>  <SCORE.INTRA.norm>
-0.51932

>  <SCORE.RESTR>
0

>  <SCORE.RESTR.CAVITY>
0

>  <SCORE.RESTR.norm>
0

>  <SCORE.SYSTEM>
0

>  <SCORE.SYSTEM.CONST>
0

>  <SCORE.SYSTEM.DIHEDRAL>
0

>  <SCORE.SYSTEM.SOLV>
0

>  <SCORE.SYSTEM.norm>
0

>  <SCORE.heavy>
14

>  <SCORE.norm>
-0.58288

>  <RMSD>
5.245

$$$$
ligand
 OpenBabel11021811463D
libRbt.so/2013.1/901 2013/11/27
 14 13  0  0  0  0  0  0  0  0999 V2000
   12.0622   10.7572   18.2869 N   0  0  0  0  0  0  0  0  0  0  0  0
   13.2063   10.9731   19.1828 C   0  0  0  0  0  0  0  0  0  0  0  0
   14.3617   11.5752   18.3898 C   0  0  0  0  0  0  0  0  0  0  0  0
   14.8280   10.5584   17.3609 C   0  0  0  0  0  0  0  0  0  0  0  0
   15.8730   11.1662   16.5293 N   0  0  0  0  0  0  0  0  0  0  0  0
   16.3122   10.1376   15.5703 C   0  0  0  0  0  0  0  0  0  0  0  0
   17.3373   10.7178   14.5892 C   0  0  0  0  0  0  0  0  0  0  0  0
   17.6913    9.6308   13.5633 C   0  0  0  0  0  0  0  0  0  0  0  0
   18.7284   10.1231   12.6421 C   0  0  0  0  0  0  0  0  0  0  0  0
   18.9347    9.0879   11.6089 N   0  0  0  0  0  0  0  0  0  0  0  0
   20.0662    9.5041   10.6621 C   0  0  0  0  0  0  0  0  0  0  0  0
   19.9503    8.7253    9.3461 C   0  0  0  0  0  0  0  0  0  0  0  0
   21.0558    9.1031    8.4447 C   0  0  0  0  0  0  0  0  0  0  0  0
   22.3268    8.5451    8.9545 N   0  0  0  0  0  0  0  0  0  0  0  0
  1  2  1  0  0  0  0
  2  3  1  0  0  0  0
  3  4  1  0  0  0  0
  4  5  1  0  0  0  0
  5  6  1  0  0  0  0
  6  7  1  0  0  0  0
  7  8  1  0  0  0  0
  8  9  1  0  0  0  0
  9 10  1  0  0  0  0
 10 11  1  0  0  0  0
 11 12  1  0  0  0  0
 12 13  1  0  0  0  0
 13 14  1  0  0  0  0
M  END
>  <CHROM.1>
-64.97496820,175.89347336,178.79982716,175.91109693,-176.49261608,-177.01886741
-174.81264975,-176.63354234,-159.80879261,-178.77366528,71.39241571,17.33816030
10.04327074,13.93794859,2.26605636,0.26270703,1.12795284

>  <Name>
ligand

>  <RI>
0

>  <Rbt.Current_Directory>
/home/itssahil/PROJECTS/Mol_Feturizer/New_Systems/rnas/2O3Y

>  <Rbt.Executable>
rbdock ($Id: //depot/dev/client3/rdock/2013.1/src/exe/rbdock.cxx#4 $)

>  <Rbt.Library>
libRbt.so (2013.1, Build901 2013/11/27)

>  <Rbt.Parameter_File>
/export/apps/rDock/src/rDock_2013.1_src/data/scripts/dock_solv.prm

>  <Rbt.Receptor>
prm/pocket_docking_8.prm

>  <SCORE>
-12.2702

>  <SCORE.INTER>
-1.54276

>  <SCORE.INTER.CONST>
1

>  <SCORE.INTER.POLAR>
0

>  <SCORE.INTER.ROT>
11

>  <SCORE.INTER.SOLV>
13.5258

>  <SCORE.INTER.VDW>
-16.4704

>  <SCORE.INTER.norm>
-0.110197

>  <SCORE.INTRA>
-10.7275

>  <SCORE.INTRA.DIHEDRAL>
-22.9699

>  <SCORE.INTRA.DIHEDRAL.0>
24.1231

>  <SCORE.INTRA.POLAR>
0

>  <SCORE.INTRA.POLAR.0>
0

>  <SCORE.INTRA.REPUL>
0

>  <SCORE.INTRA.REPUL.0>
0

>  <SCORE.INTRA.SOLV>
0.634244

>  <SCORE.INTRA.SOLV.lig_0>
-48.2216

>  <SCORE.INTRA.VDW>
0.440388

>  <SCORE.INTRA.VDW.0>
-1.3967

>  <SCORE.INTRA.norm>
-0.766247

>  <SCORE.RESTR>
0

>  <SCORE.RESTR.CAVITY>
0

>  <SCORE.RESTR.norm>
0

>  <SCORE.SYSTEM>
0

>  <SCORE.SYSTEM.CONST>
0

>  <SCORE.SYSTEM.DIHEDRAL>
0

>  <SCORE.SYSTEM.SOLV>
0

>  <SCORE.SYSTEM.norm>
0

>  <SCORE.heavy>
14

>  <SCORE.norm>
-0.876444

>  <RMSD>
5.272

$$$$
ligand
 OpenBabel11021811463D
libRbt.so/2013.1/901 2013/11/27
 14 13  0  0  0  0  0  0  0  0999 V2000
   14.5292    9.6288    8.8614 N   0  0  0  0  0  0  0  0  0  0  0  0
   13.1570    9.3650    9.3149 C   0  0  0  0  0  0  0  0  0  0  0  0
   12.5464   10.6550    9.8527 C   0  0  0  0  0  0  0  0  0  0  0  0
   11.1538   10.3514   10.3804 C   0  0  0  0  0  0  0  0  0  0  0  0
   11.2646    9.4283   11.5155 N   0  0  0  0  0  0  0  0  0  0  0  0
    9.9165    9.2947   12.0946 C   0  0  0  0  0  0  0  0  0  0  0  0
    9.7664    7.9447   12.8052 C   0  0  0  0  0  0  0  0  0  0  0  0
   10.6905    7.9408   14.0322 C   0  0  0  0  0  0  0  0  0  0  0  0
   10.4841    6.7127   14.8170 C   0  0  0  0  0  0  0  0  0  0  0  0
   11.4613    6.7219   15.9246 N   0  0  0  0  0  0  0  0  0  0  0  0
   12.5451    5.6653   15.6822 C   0  0  0  0  0  0  0  0  0  0  0  0
   13.7480    6.3110   14.9837 C   0  0  0  0  0  0  0  0  0  0  0  0
   14.5146    7.1157   15.9543 C   0  0  0  0  0  0  0  0  0  0  0  0
   13.7368    8.3155   16.3310 N   0  0  0  0  0  0  0  0  0  0  0  0
  1  2  1  0  0  0  0
  2  3  1  0  0  0  0
  3  4  1  0  0  0  0
  4  5  1  0  0  0  0
  5  6  1  0  0  0  0
  6  7  1  0  0  0  0
  7  8  1  0  0  0  0
  8  9  1  0  0  0  0
  9 10  1  0  0  0  0
 10 11  1  0  0  0  0
 11 12  1  0  0  0  0
 12 13  1  0  0  0  0
 13 14  1  0  0  0  0
M  END
>  <CHROM.1>
-177.23518781,63.93345290,173.17806490,153.68745736,67.05149967,174.65029472
176.11698517,-108.74522324,94.15299957,75.22447527,-70.17079986,12.10790534
8.24636299,13.03921327,-1.59882428,-0.03635040,2.06426617

>  <Name>
ligand

>  <RI>
0

>  <Rbt.Current_Directory>
/home/itssahil/PROJECTS/Mol_Feturizer/New_Systems/rnas/2O3Y

>  <Rbt.Executable>
rbdock ($Id: //depot/dev/client3/rdock/2013.1/src/exe/rbdock.cxx#4 $)

>  <Rbt.Library>
libRbt.so (2013.1, Build901 2013/11/27)

>  <Rbt.Parameter_File>
/export/apps/rDock/src/rDock_2013.1_src/data/scripts/dock_solv.prm

>  <Rbt.Receptor>
prm/pocket_docking_6.prm

>  <SCORE>
-9.05168

>  <SCORE.INTER>
-1.34593

>  <SCORE.INTER.CONST>
1

>  <SCORE.INTER.POLAR>
0

>  <SCORE.INTER.ROT>
11

>  <SCORE.INTER.SOLV>
7.77969

>  <SCORE.INTER.VDW>
-14.4238

>  <SCORE.INTER.norm>
-0.0961376

>  <SCORE.INTRA>
-7.70575

>  <SCORE.INTRA.DIHEDRAL>
-20.1092

>  <SCORE.INTRA.DIHEDRAL.0>
24.1231

>  <SCORE.INTRA.POLAR>
0

>  <SCORE.INTRA.POLAR.0>
0

>  <SCORE.INTRA.REPUL>
0

>  <SCORE.INTRA.REPUL.0>
0

>  <SCORE.INTRA.SOLV>
3.64196

>  <SCORE.INTRA.SOLV.lig_0>
-48.2216

>  <SCORE.INTRA.VDW>
0.527842

>  <SCORE.INTRA.VDW.0>
-1.3967

>  <SCORE.INTRA.norm>
-0.550411

>  <SCORE.RESTR>
0

>  <SCORE.RESTR.CAVITY>
0

>  <SCORE.RESTR.norm>
0

>  <SCORE.SYSTEM>
0

>  <SCORE.SYSTEM.CONST>
0

>  <SCORE.SYSTEM.DIHEDRAL>
0

>  <SCORE.SYSTEM.SOLV>
0

>  <SCORE.SYSTEM.norm>
0

>  <SCORE.heavy>
14

>  <SCORE.norm>
-0.646548

>  <RMSD>
5.275

$$$$
ligand
 OpenBabel11021811463D
libRbt.so/2013.1/901 2013/11/27
 14 13  0  0  0  0  0  0  0  0999 V2000
   14.1295   12.9851    8.3247 N   0  0  0  0  0  0  0  0  0  0  0  0
   12.9636   12.1993    8.7504 C   0  0  0  0  0  0  0  0  0  0  0  0
   13.4235   10.8154    9.1970 C   0  0  0  0  0  0  0  0  0  0  0  0
   12.2091   10.0212    9.6493 C   0  0  0  0  0  0  0  0  0  0  0  0
   11.6613   10.6375   10.8630 N   0  0  0  0  0  0  0  0  0  0  0  0
   10.2436   10.2447   10.9427 C   0  0  0  0  0  0  0  0  0  0  0  0
   10.0458    9.1504   11.9978 C   0  0  0  0  0  0  0  0  0  0  0  0
   10.4509    9.7208   13.3653 C   0  0  0  0  0  0  0  0  0  0  0  0
   10.1275    8.7581   14.4308 C   0  0  0  0  0  0  0  0  0  0  0  0
   10.9614    7.5581   14.2155 N   0  0  0  0  0  0  0  0  0  0  0  0
   11.6248    7.1325   15.5303 C   0  0  0  0  0  0  0  0  0  0  0  0
   12.0440    5.6599   15.4435 C   0  0  0  0  0  0  0  0  0  0  0  0
   12.6836    5.2488   16.7081 C   0  0  0  0  0  0  0  0  0  0  0  0
   11.6913    5.2874   17.8036 N   0  0  0  0  0  0  0  0  0  0  0  0
  1  2  1  0  0  0  0
  2  3  1  0  0  0  0
  3  4  1  0  0  0  0
  4  5  1  0  0  0  0
  5  6  1  0  0  0  0
  6  7  1  0  0  0  0
  7  8  1  0  0  0  0
  8  9  1  0  0  0  0
  9 10  1  0  0  0  0
 10 11  1  0  0  0  0
 11 12  1  0  0  0  0
 12 13  1  0  0  0  0
 13 14  1  0  0  0  0
M  END
>  <CHROM.1>
179.33856885,-66.61822200,156.48272341,103.89503160,62.17422259,173.33159369
64.43995075,132.38776500,159.26230384,179.96331625,65.74172344,11.73270030
8.95844880,12.65865635,-1.44718504,-0.21947087,2.26103391

>  <Name>
ligand

>  <RI>
0

>  <Rbt.Current_Directory>
/home/itssahil/PROJECTS/Mol_Feturizer/New_Systems/rnas/2O3Y

>  <Rbt.Executable>
rbdock ($Id: //depot/dev/client3/rdock/2013.1/src/exe/rbdock.cxx#4 $)

>  <Rbt.Library>
libRbt.so (2013.1, Build901 2013/11/27)

>  <Rbt.Parameter_File>
/export/apps/rDock/src/rDock_2013.1_src/data/scripts/dock_solv.prm

>  <Rbt.Receptor>
prm/pocket_docking_7.prm

>  <SCORE>
-8.11242

>  <SCORE.INTER>
0.623135

>  <SCORE.INTER.CONST>
1

>  <SCORE.INTER.POLAR>
0

>  <SCORE.INTER.ROT>
11

>  <SCORE.INTER.SOLV>
6.77223

>  <SCORE.INTER.VDW>
-12.7753

>  <SCORE.INTER.norm>
0.0445097

>  <SCORE.INTRA>
-8.73556

>  <SCORE.INTRA.DIHEDRAL>
-20.7592

>  <SCORE.INTRA.DIHEDRAL.0>
24.1231

>  <SCORE.INTRA.POLAR>
0

>  <SCORE.INTRA.POLAR.0>
0

>  <SCORE.INTRA.REPUL>
0

>  <SCORE.INTRA.REPUL.0>
0

>  <SCORE.INTRA.SOLV>
1.2072

>  <SCORE.INTRA.SOLV.lig_0>
-48.2216

>  <SCORE.INTRA.VDW>
1.04043

>  <SCORE.INTRA.VDW.0>
-1.3967

>  <SCORE.INTRA.norm>
-0.623968

>  <SCORE.RESTR>
0

>  <SCORE.RESTR.CAVITY>
0

>  <SCORE.RESTR.norm>
0

>  <SCORE.SYSTEM>
0

>  <SCORE.SYSTEM.CONST>
0

>  <SCORE.SYSTEM.DIHEDRAL>
0

>  <SCORE.SYSTEM.SOLV>
0

>  <SCORE.SYSTEM.norm>
0

>  <SCORE.heavy>
14

>  <SCORE.norm>
-0.579459

>  <RMSD>
5.286

$$$$
ligand
 OpenBabel11021811463D
libRbt.so/2013.1/901 2013/11/27
 14 13  0  0  0  0  0  0  0  0999 V2000
   17.9929   10.7938   12.3989 N   0  0  0  0  0  0  0  0  0  0  0  0
   17.7699   10.0628   13.6535 C   0  0  0  0  0  0  0  0  0  0  0  0
   17.0542   10.9721   14.6470 C   0  0  0  0  0  0  0  0  0  0  0  0
   16.6878   10.1569   15.8764 C   0  0  0  0  0  0  0  0  0  0  0  0
   15.8315   10.9683   16.7489 N   0  0  0  0  0  0  0  0  0  0  0  0
   14.9139   10.0412   17.4338 C   0  0  0  0  0  0  0  0  0  0  0  0
   14.4800   10.6144   18.7878 C   0  0  0  0  0  0  0  0  0  0  0  0
   13.6829   11.9024   18.5326 C   0  0  0  0  0  0  0  0  0  0  0  0
   12.3841   11.5804   17.9191 C   0  0  0  0  0  0  0  0  0  0  0  0
   11.6137   12.8367   17.8211 N   0  0  0  0  0  0  0  0  0  0  0  0
   11.7614   13.4395   16.4194 C   0  0  0  0  0  0  0  0  0  0  0  0
   11.6544   14.9671   16.5010 C   0  0  0  0  0  0  0  0  0  0  0  0
   10.3271   15.3462   17.0224 C   0  0  0  0  0  0  0  0  0  0  0  0
    9.2821   14.9676   16.0471 N   0  0  0  0  0  0  0  0  0  0  0  0
  1  2  1  0  0  0  0
  2  3  1  0  0  0  0
  3  4  1  0  0  0  0
  4  5  1  0  0  0  0
  5  6  1  0  0  0  0
  6  7  1  0  0  0  0
  7  8  1  0  0  0  0
  8  9  1  0  0  0  0
  9 10  1  0  0  0  0
 10 11  1  0  0  0  0
 11 12  1  0  0  0  0
 12 13  1  0  0  0  0
 13 14  1  0  0  0  0
M  END
>  <CHROM.1>
173.53148562,-171.84039673,148.20236995,152.53883329,63.83889145,69.79561887
174.53071250,96.79889641,-149.82627468,-61.54867753,-66.42506793,13.95981186
12.04624105,16.41520511,0.04144072,0.61602294,-1.08174453

>  <Name>
ligand

>  <RI>
0

>  <Rbt.Current_Directory>
/home/itssahil/PROJECTS/Mol_Feturizer/New_Systems/rnas/2O3Y

>  <Rbt.Executable>
rbdock ($Id: //depot/dev/client3/rdock/2013.1/src/exe/rbdock.cxx#4 $)

>  <Rbt.Library>
libRbt.so (2013.1, Build901 2013/11/27)

>  <Rbt.Parameter_File>
/export/apps/rDock/src/rDock_2013.1_src/data/scripts/dock_solv.prm

>  <Rbt.Receptor>
prm/pocket_docking_6.prm

>  <SCORE>
-10.5939

>  <SCORE.INTER>
-2.85948

>  <SCORE.INTER.CONST>
1

>  <SCORE.INTER.POLAR>
0

>  <SCORE.INTER.ROT>
11

>  <SCORE.INTER.SOLV>
10.1568

>  <SCORE.INTER.VDW>
-16.2252

>  <SCORE.INTER.norm>
-0.204248

>  <SCORE.INTRA>
-7.73447

>  <SCORE.INTRA.DIHEDRAL>
-20.4013

>  <SCORE.INTRA.DIHEDRAL.0>
24.1231

>  <SCORE.INTRA.POLAR>
0

>  <SCORE.INTRA.POLAR.0>
0

>  <SCORE.INTRA.REPUL>
0

>  <SCORE.INTRA.REPUL.0>
0

>  <SCORE.INTRA.SOLV>
1.64411

>  <SCORE.INTRA.SOLV.lig_0>
-48.2216

>  <SCORE.INTRA.VDW>
1.64412

>  <SCORE.INTRA.VDW.0>
-1.3967

>  <SCORE.INTRA.norm>
-0.552462

>  <SCORE.RESTR>
0

>  <SCORE.RESTR.CAVITY>
0

>  <SCORE.RESTR.norm>
0

>  <SCORE.SYSTEM>
0

>  <SCORE.SYSTEM.CONST>
0

>  <SCORE.SYSTEM.DIHEDRAL>
0

>  <SCORE.SYSTEM.SOLV>
0

>  <SCORE.SYSTEM.norm>
0

>  <SCORE.heavy>
14

>  <SCORE.norm>
-0.756711

>  <RMSD>
5.305

$$$$
ligand
 OpenBabel11021811463D
libRbt.so/2013.1/901 2013/11/27
 14 13  0  0  0  0  0  0  0  0999 V2000
   16.4273   12.2885   13.0781 N   0  0  0  0  0  0  0  0  0  0  0  0
   16.3573   11.9132   14.4967 C   0  0  0  0  0  0  0  0  0  0  0  0
   16.9464   10.5183   14.6794 C   0  0  0  0  0  0  0  0  0  0  0  0
   16.8216   10.1249   16.1421 C   0  0  0  0  0  0  0  0  0  0  0  0
   15.4235    9.7821   16.4262 N   0  0  0  0  0  0  0  0  0  0  0  0
   14.8344   10.9313   17.1355 C   0  0  0  0  0  0  0  0  0  0  0  0
   13.5656   10.5093   17.8852 C   0  0  0  0  0  0  0  0  0  0  0  0
   12.8025   11.7785   18.2931 C   0  0  0  0  0  0  0  0  0  0  0  0
   12.1642   12.3859   17.1140 C   0  0  0  0  0  0  0  0  0  0  0  0
   11.6106   13.6908   17.5293 N   0  0  0  0  0  0  0  0  0  0  0  0
   11.5815   14.6559   16.3387 C   0  0  0  0  0  0  0  0  0  0  0  0
   11.4045   16.0929   16.8439 C   0  0  0  0  0  0  0  0  0  0  0  0
   11.4718   17.0321   15.7077 C   0  0  0  0  0  0  0  0  0  0  0  0
   10.3043   16.8283   14.8234 N   0  0  0  0  0  0  0  0  0  0  0  0
  1  2  1  0  0  0  0
  2  3  1  0  0  0  0
  3  4  1  0  0  0  0
  4  5  1  0  0  0  0
  5  6  1  0  0  0  0
  6  7  1  0  0  0  0
  7  8  1  0  0  0  0
  8  9  1  0  0  0  0
  9 10  1  0  0  0  0
 10 11  1  0  0  0  0
 11 12  1  0  0  0  0
 12 13  1  0  0  0  0
 13 14  1  0  0  0  0
M  END
>  <CHROM.1>
-178.00475890,74.77621301,-102.73015061,-160.69234095,-165.51685712,73.43334943
-172.22780762,151.45819162,-163.54603098,176.02990520,66.83075533,13.69405976
12.75211248,16.17838992,-0.50602346,0.66646633,-0.73312255

>  <Name>
ligand

>  <RI>
0

>  <Rbt.Current_Directory>
/home/itssahil/PROJECTS/Mol_Feturizer/New_Systems/rnas/2O3Y

>  <Rbt.Executable>
rbdock ($Id: //depot/dev/client3/rdock/2013.1/src/exe/rbdock.cxx#4 $)

>  <Rbt.Library>
libRbt.so (2013.1, Build901 2013/11/27)

>  <Rbt.Parameter_File>
/export/apps/rDock/src/rDock_2013.1_src/data/scripts/dock_solv.prm

>  <Rbt.Receptor>
prm/pocket_docking_6.prm

>  <SCORE>
-8.16818

>  <SCORE.INTER>
-0.214075

>  <SCORE.INTER.CONST>
1

>  <SCORE.INTER.POLAR>
0

>  <SCORE.INTER.ROT>
11

>  <SCORE.INTER.SOLV>
9.50435

>  <SCORE.INTER.VDW>
-14.2442

>  <SCORE.INTER.norm>
-0.0152911

>  <SCORE.INTRA>
-7.95411

>  <SCORE.INTRA.DIHEDRAL>
-19.3646

>  <SCORE.INTRA.DIHEDRAL.0>
24.1231

>  <SCORE.INTRA.POLAR>
0

>  <SCORE.INTRA.POLAR.0>
0

>  <SCORE.INTRA.REPUL>
0

>  <SCORE.INTRA.REPUL.0>
0

>  <SCORE.INTRA.SOLV>
0.611938

>  <SCORE.INTRA.SOLV.lig_0>
-48.2216

>  <SCORE.INTRA.VDW>
1.42223

>  <SCORE.INTRA.VDW.0>
-1.3967

>  <SCORE.INTRA.norm>
-0.568151

>  <SCORE.RESTR>
0

>  <SCORE.RESTR.CAVITY>
0

>  <SCORE.RESTR.norm>
0

>  <SCORE.SYSTEM>
0

>  <SCORE.SYSTEM.CONST>
0

>  <SCORE.SYSTEM.DIHEDRAL>
0

>  <SCORE.SYSTEM.SOLV>
0

>  <SCORE.SYSTEM.norm>
0

>  <SCORE.heavy>
14

>  <SCORE.norm>
-0.583442

>  <RMSD>
5.308

$$$$
ligand
 OpenBabel11021811463D
libRbt.so/2013.1/901 2013/11/27
 14 13  0  0  0  0  0  0  0  0999 V2000
   12.9304    8.5360   20.0851 N   0  0  0  0  0  0  0  0  0  0  0  0
   13.9546    9.3308   19.3941 C   0  0  0  0  0  0  0  0  0  0  0  0
   13.3981   10.7185   19.0925 C   0  0  0  0  0  0  0  0  0  0  0  0
   14.4019   11.4692   18.2329 C   0  0  0  0  0  0  0  0  0  0  0  0
   14.4905   10.8156   16.9223 N   0  0  0  0  0  0  0  0  0  0  0  0
   15.8471   11.0685   16.4062 C   0  0  0  0  0  0  0  0  0  0  0  0
   16.0408   10.3914   15.0446 C   0  0  0  0  0  0  0  0  0  0  0  0
   17.4791   10.6567   14.5749 C   0  0  0  0  0  0  0  0  0  0  0  0
   17.7492    9.9181   13.3306 C   0  0  0  0  0  0  0  0  0  0  0  0
   19.1632   10.1504   12.9724 N   0  0  0  0  0  0  0  0  0  0  0  0
   19.4062    9.7726   11.5067 C   0  0  0  0  0  0  0  0  0  0  0  0
   20.1229   10.9231   10.7896 C   0  0  0  0  0  0  0  0  0  0  0  0
   20.2637   10.6054    9.3555 C   0  0  0  0  0  0  0  0  0  0  0  0
   20.9317   11.7266    8.6603 N   0  0  0  0  0  0  0  0  0  0  0  0
  1  2  1  0  0  0  0
  2  3  1  0  0  0  0
  3  4  1  0  0  0  0
  4  5  1  0  0  0  0
  5  6  1  0  0  0  0
  6  7  1  0  0  0  0
  7  8  1  0  0  0  0
  8  9  1  0  0  0  0
  9 10  1  0  0  0  0
 10 11  1  0  0  0  0
 11 12  1  0  0  0  0
 12 13  1  0  0  0  0
 13 14  1  0  0  0  0
M  END
>  <CHROM.1>
-173.22015993,66.66834268,-151.66021749,178.75535245,-178.51816462,174.66785226
-176.83851359,-163.23835914,129.54355613,-175.61654056,178.92328176,16.86996155
10.43454762,14.74057548,-2.85480294,0.90878227,-0.27307782

>  <Name>
ligand

>  <RI>
0

>  <Rbt.Current_Directory>
/home/itssahil/PROJECTS/Mol_Feturizer/New_Systems/rnas/2O3Y

>  <Rbt.Executable>
rbdock ($Id: //depot/dev/client3/rdock/2013.1/src/exe/rbdock.cxx#4 $)

>  <Rbt.Library>
libRbt.so (2013.1, Build901 2013/11/27)

>  <Rbt.Parameter_File>
/export/apps/rDock/src/rDock_2013.1_src/data/scripts/dock_solv.prm

>  <Rbt.Receptor>
prm/pocket_docking_7.prm

>  <SCORE>
-12.2444

>  <SCORE.INTER>
-1.37608

>  <SCORE.INTER.CONST>
1

>  <SCORE.INTER.POLAR>
0

>  <SCORE.INTER.ROT>
11

>  <SCORE.INTER.SOLV>
7.21982

>  <SCORE.INTER.VDW>
-14.2573

>  <SCORE.INTER.norm>
-0.0982913

>  <SCORE.INTRA>
-10.8684

>  <SCORE.INTRA.DIHEDRAL>
-21.6508

>  <SCORE.INTRA.DIHEDRAL.0>
24.1231

>  <SCORE.INTRA.POLAR>
0

>  <SCORE.INTRA.POLAR.0>
0

>  <SCORE.INTRA.REPUL>
0

>  <SCORE.INTRA.REPUL.0>
0

>  <SCORE.INTRA.SOLV>
-0.474335

>  <SCORE.INTRA.SOLV.lig_0>
-48.2216

>  <SCORE.INTRA.VDW>
0.194203

>  <SCORE.INTRA.VDW.0>
-1.3967

>  <SCORE.INTRA.norm>
-0.776311

>  <SCORE.RESTR>
0

>  <SCORE.RESTR.CAVITY>
0

>  <SCORE.RESTR.norm>
0

>  <SCORE.SYSTEM>
0

>  <SCORE.SYSTEM.CONST>
0

>  <SCORE.SYSTEM.DIHEDRAL>
0

>  <SCORE.SYSTEM.SOLV>
0

>  <SCORE.SYSTEM.norm>
0

>  <SCORE.heavy>
14

>  <SCORE.norm>
-0.874602

>  <RMSD>
5.313

$$$$
ligand
 OpenBabel11021811463D
libRbt.so/2013.1/901 2013/11/27
 14 13  0  0  0  0  0  0  0  0999 V2000
   21.8042    8.6774    7.6436 N   0  0  0  0  0  0  0  0  0  0  0  0
   21.2097    9.6497    8.5706 C   0  0  0  0  0  0  0  0  0  0  0  0
   20.4833    8.9048    9.6858 C   0  0  0  0  0  0  0  0  0  0  0  0
   19.8396    9.9231   10.6125 C   0  0  0  0  0  0  0  0  0  0  0  0
   19.0963    9.2126   11.6592 N   0  0  0  0  0  0  0  0  0  0  0  0
   18.4260   10.2356   12.4807 C   0  0  0  0  0  0  0  0  0  0  0  0
   17.8511    9.6105   13.7569 C   0  0  0  0  0  0  0  0  0  0  0  0
   17.1245   10.7095   14.5466 C   0  0  0  0  0  0  0  0  0  0  0  0
   16.5974   10.1622   15.8073 C   0  0  0  0  0  0  0  0  0  0  0  0
   15.6801   11.1678   16.3809 N   0  0  0  0  0  0  0  0  0  0  0  0
   14.8850   10.5575   17.5407 C   0  0  0  0  0  0  0  0  0  0  0  0
   13.8780   11.5845   18.0725 C   0  0  0  0  0  0  0  0  0  0  0  0
   13.1715   11.0294   19.2430 C   0  0  0  0  0  0  0  0  0  0  0  0
   12.3564    9.8676   18.8279 N   0  0  0  0  0  0  0  0  0  0  0  0
  1  2  1  0  0  0  0
  2  3  1  0  0  0  0
  3  4  1  0  0  0  0
  4  5  1  0  0  0  0
  5  6  1  0  0  0  0
  6  7  1  0  0  0  0
  7  8  1  0  0  0  0
  8  9  1  0  0  0  0
  9 10  1  0  0  0  0
 10 11  1  0  0  0  0
 11 12  1  0  0  0  0
 12 13  1  0  0  0  0
 13 14  1  0  0  0  0
M  END
>  <CHROM.1>
-178.33879016,177.87761211,-176.65139282,-168.91844142,-178.03986735,-177.94929879
-168.33720931,168.75439583,-176.63823733,-176.44337236,-64.95819002,17.31453729
10.09244699,13.91641826,0.51367164,-0.79946880,-2.64374814

>  <Name>
ligand

>  <RI>
0

>  <Rbt.Current_Directory>
/home/itssahil/PROJECTS/Mol_Feturizer/New_Systems/rnas/2O3Y

>  <Rbt.Executable>
rbdock ($Id: //depot/dev/client3/rdock/2013.1/src/exe/rbdock.cxx#4 $)

>  <Rbt.Library>
libRbt.so (2013.1, Build901 2013/11/27)

>  <Rbt.Parameter_File>
/export/apps/rDock/src/rDock_2013.1_src/data/scripts/dock_solv.prm

>  <Rbt.Receptor>
prm/pocket_docking_8.prm

>  <SCORE>
-12.5445

>  <SCORE.INTER>
-1.16279

>  <SCORE.INTER.CONST>
1

>  <SCORE.INTER.POLAR>
0

>  <SCORE.INTER.ROT>
11

>  <SCORE.INTER.SOLV>
8.53123

>  <SCORE.INTER.VDW>
-14.5523

>  <SCORE.INTER.norm>
-0.0830566

>  <SCORE.INTRA>
-11.3817

>  <SCORE.INTRA.DIHEDRAL>
-23.2068

>  <SCORE.INTRA.DIHEDRAL.0>
24.1231

>  <SCORE.INTRA.POLAR>
0

>  <SCORE.INTRA.POLAR.0>
0

>  <SCORE.INTRA.REPUL>
0

>  <SCORE.INTRA.REPUL.0>
0

>  <SCORE.INTRA.SOLV>
-0.205092

>  <SCORE.INTRA.SOLV.lig_0>
-48.2216

>  <SCORE.INTRA.VDW>
0.32426

>  <SCORE.INTRA.VDW.0>
-1.3967

>  <SCORE.INTRA.norm>
-0.812976

>  <SCORE.RESTR>
0

>  <SCORE.RESTR.CAVITY>
0

>  <SCORE.RESTR.norm>
0

>  <SCORE.SYSTEM>
0

>  <SCORE.SYSTEM.CONST>
0

>  <SCORE.SYSTEM.DIHEDRAL>
0

>  <SCORE.SYSTEM.SOLV>
0

>  <SCORE.SYSTEM.norm>
0

>  <SCORE.heavy>
14

>  <SCORE.norm>
-0.896033

>  <RMSD>
5.323

$$$$
ligand
 OpenBabel11021811463D
libRbt.so/2013.1/901 2013/11/27
 14 13  0  0  0  0  0  0  0  0999 V2000
   14.6292   13.7090    8.4156 N   0  0  0  0  0  0  0  0  0  0  0  0
   13.2796   13.1289    8.3993 C   0  0  0  0  0  0  0  0  0  0  0  0
   13.0244   12.4073    9.7186 C   0  0  0  0  0  0  0  0  0  0  0  0
   11.6456   11.7701    9.6661 C   0  0  0  0  0  0  0  0  0  0  0  0
   11.3856   11.0903   10.9401 N   0  0  0  0  0  0  0  0  0  0  0  0
   10.2483   10.1804   10.7180 C   0  0  0  0  0  0  0  0  0  0  0  0
    9.8490    9.4873   12.0258 C   0  0  0  0  0  0  0  0  0  0  0  0
   11.0353    8.6348   12.5008 C   0  0  0  0  0  0  0  0  0  0  0  0
   10.6921    7.9448   13.7550 C   0  0  0  0  0  0  0  0  0  0  0  0
   11.9323    7.3444   14.2871 N   0  0  0  0  0  0  0  0  0  0  0  0
   11.5953    6.2637   15.3207 C   0  0  0  0  0  0  0  0  0  0  0  0
   12.8873    5.7401   15.9595 C   0  0  0  0  0  0  0  0  0  0  0  0
   12.5610    4.7471   17.0012 C   0  0  0  0  0  0  0  0  0  0  0  0
   11.7835    5.3941   18.0797 N   0  0  0  0  0  0  0  0  0  0  0  0
  1  2  1  0  0  0  0
  2  3  1  0  0  0  0
  3  4  1  0  0  0  0
  4  5  1  0  0  0  0
  5  6  1  0  0  0  0
  6  7  1  0  0  0  0
  7  8  1  0  0  0  0
  8  9  1  0  0  0  0
  9 10  1  0  0  0  0
 10 11  1  0  0  0  0
 11 12  1  0  0  0  0
 12 13  1  0  0  0  0
 13 14  1  0  0  0  0
M  END
>  <CHROM.1>
-177.94459231,-179.18980488,-164.01722729,-176.51108993,-62.51000770,-179.76020489
-169.99427391,-162.21779145,-174.78214292,177.25359296,-63.00894106,11.89609519
9.13149513,12.62755521,-1.49069150,0.15320715,2.31721629

>  <Name>
ligand

>  <RI>
0

>  <Rbt.Current_Directory>
/home/itssahil/PROJECTS/Mol_Feturizer/New_Systems/rnas/2O3Y

>  <Rbt.Executable>
rbdock ($Id: //depot/dev/client3/rdock/2013.1/src/exe/rbdock.cxx#4 $)

>  <Rbt.Library>
libRbt.so (2013.1, Build901 2013/11/27)

>  <Rbt.Parameter_File>
/export/apps/rDock/src/rDock_2013.1_src/data/scripts/dock_solv.prm

>  <Rbt.Receptor>
prm/pocket_docking_8.prm

>  <SCORE>
-12.0766

>  <SCORE.INTER>
-1.15595

>  <SCORE.INTER.CONST>
1

>  <SCORE.INTER.POLAR>
0

>  <SCORE.INTER.ROT>
11

>  <SCORE.INTER.SOLV>
7.62398

>  <SCORE.INTER.VDW>
-14.2453

>  <SCORE.INTER.norm>
-0.0825681

>  <SCORE.INTRA>
-10.9207

>  <SCORE.INTRA.DIHEDRAL>
-23.1756

>  <SCORE.INTRA.DIHEDRAL.0>
24.1231

>  <SCORE.INTRA.POLAR>
0

>  <SCORE.INTRA.POLAR.0>
0

>  <SCORE.INTRA.REPUL>
0

>  <SCORE.INTRA.REPUL.0>
0

>  <SCORE.INTRA.SOLV>
0.342882

>  <SCORE.INTRA.SOLV.lig_0>
-48.2216

>  <SCORE.INTRA.VDW>
0.495668

>  <SCORE.INTRA.VDW.0>
-1.3967

>  <SCORE.INTRA.norm>
-0.780049

>  <SCORE.RESTR>
0

>  <SCORE.RESTR.CAVITY>
0

>  <SCORE.RESTR.norm>
0

>  <SCORE.SYSTEM>
0

>  <SCORE.SYSTEM.CONST>
0

>  <SCORE.SYSTEM.DIHEDRAL>
0

>  <SCORE.SYSTEM.SOLV>
0

>  <SCORE.SYSTEM.norm>
0

>  <SCORE.heavy>
14

>  <SCORE.norm>
-0.862617

>  <RMSD>
5.366

$$$$
ligand
 OpenBabel11021811463D
libRbt.so/2013.1/901 2013/11/27
 14 13  0  0  0  0  0  0  0  0999 V2000
   14.1424   13.7988    9.3566 N   0  0  0  0  0  0  0  0  0  0  0  0
   13.2668   14.9488    9.6186 C   0  0  0  0  0  0  0  0  0  0  0  0
   14.0202   15.9761   10.4572 C   0  0  0  0  0  0  0  0  0  0  0  0
   14.1906   15.4257   11.8636 C   0  0  0  0  0  0  0  0  0  0  0  0
   15.2364   14.3966   11.8495 N   0  0  0  0  0  0  0  0  0  0  0  0
   15.2583   13.7871   13.1907 C   0  0  0  0  0  0  0  0  0  0  0  0
   16.3692   12.7351   13.2866 C   0  0  0  0  0  0  0  0  0  0  0  0
   16.2383   12.0182   14.6388 C   0  0  0  0  0  0  0  0  0  0  0  0
   17.3254   11.0388   14.7994 C   0  0  0  0  0  0  0  0  0  0  0  0
   17.0712   10.2913   16.0477 N   0  0  0  0  0  0  0  0  0  0  0  0
   16.3940    8.9524   15.7335 C   0  0  0  0  0  0  0  0  0  0  0  0
   15.0761    8.8462   16.5104 C   0  0  0  0  0  0  0  0  0  0  0  0
   15.3548    8.7857   17.9582 C   0  0  0  0  0  0  0  0  0  0  0  0
   14.0837    8.6774   18.7059 N   0  0  0  0  0  0  0  0  0  0  0  0
  1  2  1  0  0  0  0
  2  3  1  0  0  0  0
  3  4  1  0  0  0  0
  4  5  1  0  0  0  0
  5  6  1  0  0  0  0
  6  7  1  0  0  0  0
  7  8  1  0  0  0  0
  8  9  1  0  0  0  0
  9 10  1  0  0  0  0
 10 11  1  0  0  0  0
 11 12  1  0  0  0  0
 12 13  1  0  0  0  0
 13 14  1  0  0  0  0
M  END
>  <CHROM.1>
-70.98101373,75.14005417,-173.63606490,-177.56501863,-173.31236121,-177.43743629
-174.45047692,98.25191318,-124.06400632,-65.88243135,-179.76043675,15.28773575
12.12000628,13.85827634,1.73159441,0.03462327,-0.84952636

>  <Name>
ligand

>  <RI>
0

>  <Rbt.Current_Directory>
/home/itssahil/PROJECTS/Mol_Feturizer/New_Systems/rnas/2O3Y

>  <Rbt.Executable>
rbdock ($Id: //depot/dev/client3/rdock/2013.1/src/exe/rbdock.cxx#4 $)

>  <Rbt.Library>
libRbt.so (2013.1, Build901 2013/11/27)

>  <Rbt.Parameter_File>
/export/apps/rDock/src/rDock_2013.1_src/data/scripts/dock_solv.prm

>  <Rbt.Receptor>
prm/pocket_docking_8.prm

>  <SCORE>
-7.08663

>  <SCORE.INTER>
1.42946

>  <SCORE.INTER.CONST>
1

>  <SCORE.INTER.POLAR>
0

>  <SCORE.INTER.ROT>
11

>  <SCORE.INTER.SOLV>
7.43174

>  <SCORE.INTER.VDW>
-12.4576

>  <SCORE.INTER.norm>
0.102104

>  <SCORE.INTRA>
-8.51609

>  <SCORE.INTRA.DIHEDRAL>
-20.3402

>  <SCORE.INTRA.DIHEDRAL.0>
24.1231

>  <SCORE.INTRA.POLAR>
0

>  <SCORE.INTRA.POLAR.0>
0

>  <SCORE.INTRA.REPUL>
0

>  <SCORE.INTRA.REPUL.0>
0

>  <SCORE.INTRA.SOLV>
2.53145

>  <SCORE.INTRA.SOLV.lig_0>
-48.2216

>  <SCORE.INTRA.VDW>
0.388286

>  <SCORE.INTRA.VDW.0>
-1.3967

>  <SCORE.INTRA.norm>
-0.608292

>  <SCORE.RESTR>
0

>  <SCORE.RESTR.CAVITY>
0

>  <SCORE.RESTR.norm>
0

>  <SCORE.SYSTEM>
0

>  <SCORE.SYSTEM.CONST>
0

>  <SCORE.SYSTEM.DIHEDRAL>
0

>  <SCORE.SYSTEM.SOLV>
0

>  <SCORE.SYSTEM.norm>
0

>  <SCORE.heavy>
14

>  <SCORE.norm>
-0.506188

>  <RMSD>
5.368

$$$$
ligand
 OpenBabel11021811463D
libRbt.so/2013.1/901 2013/11/27
 14 13  0  0  0  0  0  0  0  0999 V2000
   14.3094   13.4471    8.2842 N   0  0  0  0  0  0  0  0  0  0  0  0
   12.9269   12.9974    8.4956 C   0  0  0  0  0  0  0  0  0  0  0  0
   12.8697   12.1055    9.7315 C   0  0  0  0  0  0  0  0  0  0  0  0
   11.4478   11.5953    9.8982 C   0  0  0  0  0  0  0  0  0  0  0  0
   11.3850   10.7383   11.0875 N   0  0  0  0  0  0  0  0  0  0  0  0
   10.1155    9.9940   11.0149 C   0  0  0  0  0  0  0  0  0  0  0  0
    9.7175    9.4707   12.3997 C   0  0  0  0  0  0  0  0  0  0  0  0
   10.7284    8.3915   12.8157 C   0  0  0  0  0  0  0  0  0  0  0  0
   10.3924    7.8715   14.1512 C   0  0  0  0  0  0  0  0  0  0  0  0
   11.4329    6.8911   14.5226 N   0  0  0  0  0  0  0  0  0  0  0  0
   10.8566    5.8484   15.4872 C   0  0  0  0  0  0  0  0  0  0  0  0
   11.9374    4.8195   15.8404 C   0  0  0  0  0  0  0  0  0  0  0  0
   12.9064    5.4173   16.7791 C   0  0  0  0  0  0  0  0  0  0  0  0
   13.6160    6.5337   16.1184 N   0  0  0  0  0  0  0  0  0  0  0  0
  1  2  1  0  0  0  0
  2  3  1  0  0  0  0
  3  4  1  0  0  0  0
  4  5  1  0  0  0  0
  5  6  1  0  0  0  0
  6  7  1  0  0  0  0
  7  8  1  0  0  0  0
  8  9  1  0  0  0  0
  9 10  1  0  0  0  0
 10 11  1  0  0  0  0
 11 12  1  0  0  0  0
 12 13  1  0  0  0  0
 13 14  1  0  0  0  0
M  END
>  <CHROM.1>
-177.32154345,-179.88628397,-165.42295148,-159.76327994,-67.80788277,179.31295957
-177.24537541,-152.38530046,178.75817747,74.58515591,-64.25918937,11.75975158
9.00850480,12.61620995,-1.49798104,0.11003600,2.34467201

>  <Name>
ligand

>  <RI>
0

>  <Rbt.Current_Directory>
/home/itssahil/PROJECTS/Mol_Feturizer/New_Systems/rnas/2O3Y

>  <Rbt.Executable>
rbdock ($Id: //depot/dev/client3/rdock/2013.1/src/exe/rbdock.cxx#4 $)

>  <Rbt.Library>
libRbt.so (2013.1, Build901 2013/11/27)

>  <Rbt.Parameter_File>
/export/apps/rDock/src/rDock_2013.1_src/data/scripts/dock_solv.prm

>  <Rbt.Receptor>
prm/pocket_docking_7.prm

>  <SCORE>
-11.3079

>  <SCORE.INTER>
-2.04783

>  <SCORE.INTER.CONST>
1

>  <SCORE.INTER.POLAR>
0

>  <SCORE.INTER.ROT>
11

>  <SCORE.INTER.SOLV>
9.01651

>  <SCORE.INTER.VDW>
-15.3041

>  <SCORE.INTER.norm>
-0.146274

>  <SCORE.INTRA>
-9.26002

>  <SCORE.INTRA.DIHEDRAL>
-22.0036

>  <SCORE.INTRA.DIHEDRAL.0>
24.1231

>  <SCORE.INTRA.POLAR>
0

>  <SCORE.INTRA.POLAR.0>
0

>  <SCORE.INTRA.REPUL>
0

>  <SCORE.INTRA.REPUL.0>
0

>  <SCORE.INTRA.SOLV>
2.6344

>  <SCORE.INTRA.SOLV.lig_0>
-48.2216

>  <SCORE.INTRA.VDW>
0.424594

>  <SCORE.INTRA.VDW.0>
-1.3967

>  <SCORE.INTRA.norm>
-0.66143

>  <SCORE.RESTR>
0

>  <SCORE.RESTR.CAVITY>
0

>  <SCORE.RESTR.norm>
0

>  <SCORE.SYSTEM>
0

>  <SCORE.SYSTEM.CONST>
0

>  <SCORE.SYSTEM.DIHEDRAL>
0

>  <SCORE.SYSTEM.SOLV>
0

>  <SCORE.SYSTEM.norm>
0

>  <SCORE.heavy>
14

>  <SCORE.norm>
-0.807704

>  <RMSD>
5.397

$$$$
ligand
 OpenBabel11021811463D
libRbt.so/2013.1/901 2013/11/27
 14 13  0  0  0  0  0  0  0  0999 V2000
   20.5524    9.5185    9.7393 N   0  0  0  0  0  0  0  0  0  0  0  0
   20.0795   10.8766   10.0397 C   0  0  0  0  0  0  0  0  0  0  0  0
   18.6840   10.8015   10.6504 C   0  0  0  0  0  0  0  0  0  0  0  0
   18.7958   10.2191   12.0499 C   0  0  0  0  0  0  0  0  0  0  0  0
   17.4564   10.1464   12.6445 N   0  0  0  0  0  0  0  0  0  0  0  0
   17.6341   10.1536   14.1071 C   0  0  0  0  0  0  0  0  0  0  0  0
   16.3525    9.6887   14.8081 C   0  0  0  0  0  0  0  0  0  0  0  0
   16.6003    9.7029   16.3240 C   0  0  0  0  0  0  0  0  0  0  0  0
   15.4134    9.2008   17.0353 C   0  0  0  0  0  0  0  0  0  0  0  0
   15.2510    7.7761   16.6812 N   0  0  0  0  0  0  0  0  0  0  0  0
   13.8987    7.5527   15.9948 C   0  0  0  0  0  0  0  0  0  0  0  0
   13.5428    6.0614   16.0295 C   0  0  0  0  0  0  0  0  0  0  0  0
   12.1985    5.8568   15.4565 C   0  0  0  0  0  0  0  0  0  0  0  0
   11.1872    6.5140   16.3120 N   0  0  0  0  0  0  0  0  0  0  0  0
  1  2  1  0  0  0  0
  2  3  1  0  0  0  0
  3  4  1  0  0  0  0
  4  5  1  0  0  0  0
  5  6  1  0  0  0  0
  6  7  1  0  0  0  0
  7  8  1  0  0  0  0
  8  9  1  0  0  0  0
  9 10  1  0  0  0  0
 10 11  1  0  0  0  0
 11 12  1  0  0  0  0
 12 13  1  0  0  0  0
 13 14  1  0  0  0  0
M  END
>  <CHROM.1>
70.68977726,179.89501878,-155.96651052,-164.04221651,179.43585132,-177.30586468
65.80783074,-119.49562357,-162.29688246,175.95719103,-65.03548985,16.26052105
8.86223676,14.13386215,0.45777015,-0.67604493,-1.90619434

>  <Name>
ligand

>  <RI>
0

>  <Rbt.Current_Directory>
/home/itssahil/PROJECTS/Mol_Feturizer/New_Systems/rnas/2O3Y

>  <Rbt.Executable>
rbdock ($Id: //depot/dev/client3/rdock/2013.1/src/exe/rbdock.cxx#4 $)

>  <Rbt.Library>
libRbt.so (2013.1, Build901 2013/11/27)

>  <Rbt.Parameter_File>
/export/apps/rDock/src/rDock_2013.1_src/data/scripts/dock_solv.prm

>  <Rbt.Receptor>
prm/pocket_docking_5.prm

>  <SCORE>
-8.22014

>  <SCORE.INTER>
1.18473

>  <SCORE.INTER.CONST>
1

>  <SCORE.INTER.POLAR>
0

>  <SCORE.INTER.ROT>
11

>  <SCORE.INTER.SOLV>
7.69442

>  <SCORE.INTER.VDW>
-12.7083

>  <SCORE.INTER.norm>
0.0846239

>  <SCORE.INTRA>
-9.40517

>  <SCORE.INTRA.DIHEDRAL>
-21.3339

>  <SCORE.INTRA.DIHEDRAL.0>
24.1231

>  <SCORE.INTRA.POLAR>
0

>  <SCORE.INTRA.POLAR.0>
0

>  <SCORE.INTRA.REPUL>
0

>  <SCORE.INTRA.REPUL.0>
0

>  <SCORE.INTRA.SOLV>
1.12681

>  <SCORE.INTRA.SOLV.lig_0>
-48.2216

>  <SCORE.INTRA.VDW>
0.698396

>  <SCORE.INTRA.VDW.0>
-1.3967

>  <SCORE.INTRA.norm>
-0.671798

>  <SCORE.RESTR>
0.000299586

>  <SCORE.RESTR.CAVITY>
0.000299586

>  <SCORE.RESTR.norm>
2.1399e-05

>  <SCORE.SYSTEM>
0

>  <SCORE.SYSTEM.CONST>
0

>  <SCORE.SYSTEM.DIHEDRAL>
0

>  <SCORE.SYSTEM.SOLV>
0

>  <SCORE.SYSTEM.norm>
0

>  <SCORE.heavy>
14

>  <SCORE.norm>
-0.587153

>  <RMSD>
5.417

$$$$
ligand
 OpenBabel11021811463D
libRbt.so/2013.1/901 2013/11/27
 14 13  0  0  0  0  0  0  0  0999 V2000
   20.0906    7.9074    7.3865 N   0  0  0  0  0  0  0  0  0  0  0  0
   21.3410    8.4369    7.9471 C   0  0  0  0  0  0  0  0  0  0  0  0
   21.2501    8.4402    9.4695 C   0  0  0  0  0  0  0  0  0  0  0  0
   20.1342    9.3833    9.8885 C   0  0  0  0  0  0  0  0  0  0  0  0
   20.1303    9.4975   11.3513 N   0  0  0  0  0  0  0  0  0  0  0  0
   18.7927    9.9758   11.7419 C   0  0  0  0  0  0  0  0  0  0  0  0
   18.6701   10.0470   13.2683 C   0  0  0  0  0  0  0  0  0  0  0  0
   17.2810   10.6037   13.6147 C   0  0  0  0  0  0  0  0  0  0  0  0
   17.1696   10.8181   15.0667 C   0  0  0  0  0  0  0  0  0  0  0  0
   15.7947   11.2807   15.3448 N   0  0  0  0  0  0  0  0  0  0  0  0
   14.9218   10.1037   15.7948 C   0  0  0  0  0  0  0  0  0  0  0  0
   15.0584    9.9098   17.3098 C   0  0  0  0  0  0  0  0  0  0  0  0
   14.4775   11.0688   18.0147 C   0  0  0  0  0  0  0  0  0  0  0  0
   13.0106   11.0808   17.8284 N   0  0  0  0  0  0  0  0  0  0  0  0
  1  2  1  0  0  0  0
  2  3  1  0  0  0  0
  3  4  1  0  0  0  0
  4  5  1  0  0  0  0
  5  6  1  0  0  0  0
  6  7  1  0  0  0  0
  7  8  1  0  0  0  0
  8  9  1  0  0  0  0
  9 10  1  0  0  0  0
 10 11  1  0  0  0  0
 11 12  1  0  0  0  0
 12 13  1  0  0  0  0
 13 14  1  0  0  0  0
M  END
>  <CHROM.1>
-63.26535409,-174.27175200,-159.31855252,176.68477043,177.73588801,-174.25925490
-176.93742014,97.49612782,86.59303113,66.59422842,68.31198139,17.72324475
9.89667912,13.14484629,0.92840223,-0.21989792,-1.98764885

>  <Name>
ligand

>  <RI>
0

>  <Rbt.Current_Directory>
/home/itssahil/PROJECTS/Mol_Feturizer/New_Systems/rnas/2O3Y

>  <Rbt.Executable>
rbdock ($Id: //depot/dev/client3/rdock/2013.1/src/exe/rbdock.cxx#4 $)

>  <Rbt.Library>
libRbt.so (2013.1, Build901 2013/11/27)

>  <Rbt.Parameter_File>
/export/apps/rDock/src/rDock_2013.1_src/data/scripts/dock_solv.prm

>  <Rbt.Receptor>
prm/pocket_docking_8.prm

>  <SCORE>
-10.5271

>  <SCORE.INTER>
-1.51617

>  <SCORE.INTER.CONST>
1

>  <SCORE.INTER.POLAR>
0

>  <SCORE.INTER.ROT>
11

>  <SCORE.INTER.SOLV>
6.56877

>  <SCORE.INTER.VDW>
-14.1337

>  <SCORE.INTER.norm>
-0.108298

>  <SCORE.INTRA>
-9.0109

>  <SCORE.INTRA.DIHEDRAL>
-21.6967

>  <SCORE.INTRA.DIHEDRAL.0>
24.1231

>  <SCORE.INTRA.POLAR>
0

>  <SCORE.INTRA.POLAR.0>
0

>  <SCORE.INTRA.REPUL>
0

>  <SCORE.INTRA.REPUL.0>
0

>  <SCORE.INTRA.SOLV>
1.5758

>  <SCORE.INTRA.SOLV.lig_0>
-48.2216

>  <SCORE.INTRA.VDW>
1.04957

>  <SCORE.INTRA.VDW.0>
-1.3967

>  <SCORE.INTRA.norm>
-0.643635

>  <SCORE.RESTR>
0

>  <SCORE.RESTR.CAVITY>
0

>  <SCORE.RESTR.norm>
0

>  <SCORE.SYSTEM>
0

>  <SCORE.SYSTEM.CONST>
0

>  <SCORE.SYSTEM.DIHEDRAL>
0

>  <SCORE.SYSTEM.SOLV>
0

>  <SCORE.SYSTEM.norm>
0

>  <SCORE.heavy>
14

>  <SCORE.norm>
-0.751933

>  <RMSD>
5.440

$$$$
ligand
 OpenBabel11021811463D
libRbt.so/2013.1/901 2013/11/27
 14 13  0  0  0  0  0  0  0  0999 V2000
   13.9925   13.6788    7.6269 N   0  0  0  0  0  0  0  0  0  0  0  0
   13.8371   12.7956    8.7906 C   0  0  0  0  0  0  0  0  0  0  0  0
   12.3695   12.4073    8.9371 C   0  0  0  0  0  0  0  0  0  0  0  0
   12.2183   11.5318   10.1703 C   0  0  0  0  0  0  0  0  0  0  0  0
   10.7988   11.2099   10.3555 N   0  0  0  0  0  0  0  0  0  0  0  0
   10.6160   10.8743   11.7784 C   0  0  0  0  0  0  0  0  0  0  0  0
   10.5968    9.3541   11.9756 C   0  0  0  0  0  0  0  0  0  0  0  0
   10.5849    9.0641   13.4840 C   0  0  0  0  0  0  0  0  0  0  0  0
   10.5447    7.6116   13.7195 C   0  0  0  0  0  0  0  0  0  0  0  0
   10.6915    7.3914   15.1726 N   0  0  0  0  0  0  0  0  0  0  0  0
   10.4014    5.9262   15.5173 C   0  0  0  0  0  0  0  0  0  0  0  0
   11.7157    5.1376   15.5652 C   0  0  0  0  0  0  0  0  0  0  0  0
   12.5598    5.6428   16.6651 C   0  0  0  0  0  0  0  0  0  0  0  0
   11.9019    5.3739   17.9617 N   0  0  0  0  0  0  0  0  0  0  0  0
  1  2  1  0  0  0  0
  2  3  1  0  0  0  0
  3  4  1  0  0  0  0
  4  5  1  0  0  0  0
  5  6  1  0  0  0  0
  6  7  1  0  0  0  0
  7  8  1  0  0  0  0
  8  9  1  0  0  0  0
  9 10  1  0  0  0  0
 10 11  1  0  0  0  0
 11 12  1  0  0  0  0
 12 13  1  0  0  0  0
 13 14  1  0  0  0  0
M  END
>  <CHROM.1>
-178.16214354,177.19151167,-156.94558815,-99.20555842,172.88199541,179.10247907
173.61553773,169.61479857,94.97285555,64.50996357,65.03592944,11.63055356
9.14270201,12.69423049,-1.43445238,-0.00785444,2.31668513

>  <Name>
ligand

>  <RI>
0

>  <Rbt.Current_Directory>
/home/itssahil/PROJECTS/Mol_Feturizer/New_Systems/rnas/2O3Y

>  <Rbt.Executable>
rbdock ($Id: //depot/dev/client3/rdock/2013.1/src/exe/rbdock.cxx#4 $)

>  <Rbt.Library>
libRbt.so (2013.1, Build901 2013/11/27)

>  <Rbt.Parameter_File>
/export/apps/rDock/src/rDock_2013.1_src/data/scripts/dock_solv.prm

>  <Rbt.Receptor>
prm/pocket_docking_7.prm

>  <SCORE>
-9.24456

>  <SCORE.INTER>
0.363775

>  <SCORE.INTER.CONST>
1

>  <SCORE.INTER.POLAR>
0

>  <SCORE.INTER.ROT>
11

>  <SCORE.INTER.SOLV>
9.88508

>  <SCORE.INTER.VDW>
-13.9858

>  <SCORE.INTER.norm>
0.0259839

>  <SCORE.INTRA>
-9.60834

>  <SCORE.INTRA.DIHEDRAL>
-21.4572

>  <SCORE.INTRA.DIHEDRAL.0>
24.1231

>  <SCORE.INTRA.POLAR>
0

>  <SCORE.INTRA.POLAR.0>
0

>  <SCORE.INTRA.REPUL>
0

>  <SCORE.INTRA.REPUL.0>
0

>  <SCORE.INTRA.SOLV>
0.82503

>  <SCORE.INTRA.SOLV.lig_0>
-48.2216

>  <SCORE.INTRA.VDW>
0.707752

>  <SCORE.INTRA.VDW.0>
-1.3967

>  <SCORE.INTRA.norm>
-0.68631

>  <SCORE.RESTR>
0

>  <SCORE.RESTR.CAVITY>
0

>  <SCORE.RESTR.norm>
0

>  <SCORE.SYSTEM>
0

>  <SCORE.SYSTEM.CONST>
0

>  <SCORE.SYSTEM.DIHEDRAL>
0

>  <SCORE.SYSTEM.SOLV>
0

>  <SCORE.SYSTEM.norm>
0

>  <SCORE.heavy>
14

>  <SCORE.norm>
-0.660326

>  <RMSD>
5.443

$$$$
ligand
 OpenBabel11021811463D
libRbt.so/2013.1/901 2013/11/27
 14 13  0  0  0  0  0  0  0  0999 V2000
   15.4229   12.8257   10.0854 N   0  0  0  0  0  0  0  0  0  0  0  0
   15.3365   12.4606   11.5058 C   0  0  0  0  0  0  0  0  0  0  0  0
   16.3017   13.3263   12.3091 C   0  0  0  0  0  0  0  0  0  0  0  0
   16.1745   12.9617   13.7791 C   0  0  0  0  0  0  0  0  0  0  0  0
   16.6566   11.5896   13.9735 N   0  0  0  0  0  0  0  0  0  0  0  0
   16.8743   11.4110   15.4197 C   0  0  0  0  0  0  0  0  0  0  0  0
   16.8270    9.9248   15.7925 C   0  0  0  0  0  0  0  0  0  0  0  0
   15.3897    9.4226   15.5890 C   0  0  0  0  0  0  0  0  0  0  0  0
   15.3213    7.9725   15.8328 C   0  0  0  0  0  0  0  0  0  0  0  0
   13.9094    7.5627   15.6904 N   0  0  0  0  0  0  0  0  0  0  0  0
   13.8136    6.0405   15.5372 C   0  0  0  0  0  0  0  0  0  0  0  0
   12.5710    5.5252   16.2735 C   0  0  0  0  0  0  0  0  0  0  0  0
   11.3549    6.0710   15.6405 C   0  0  0  0  0  0  0  0  0  0  0  0
   10.1627    5.6511   16.4080 N   0  0  0  0  0  0  0  0  0  0  0  0
  1  2  1  0  0  0  0
  2  3  1  0  0  0  0
  3  4  1  0  0  0  0
  4  5  1  0  0  0  0
  5  6  1  0  0  0  0
  6  7  1  0  0  0  0
  7  8  1  0  0  0  0
  8  9  1  0  0  0  0
  9 10  1  0  0  0  0
 10 11  1  0  0  0  0
 11 12  1  0  0  0  0
 12 13  1  0  0  0  0
 13 14  1  0  0  0  0
M  END
>  <CHROM.1>
178.55867279,66.50675250,164.40005593,157.30680188,-67.58736183,175.50117449
177.15874742,164.06910881,142.95067451,64.15114903,-176.03586582,14.72285149
9.48183956,14.55995907,0.97607356,-0.58021506,-0.84672364

>  <Name>
ligand

>  <RI>
0

>  <Rbt.Current_Directory>
/home/itssahil/PROJECTS/Mol_Feturizer/New_Systems/rnas/2O3Y

>  <Rbt.Executable>
rbdock ($Id: //depot/dev/client3/rdock/2013.1/src/exe/rbdock.cxx#4 $)

>  <Rbt.Library>
libRbt.so (2013.1, Build901 2013/11/27)

>  <Rbt.Parameter_File>
/export/apps/rDock/src/rDock_2013.1_src/data/scripts/dock_solv.prm

>  <Rbt.Receptor>
prm/pocket_docking_7.prm

>  <SCORE>
-9.63648

>  <SCORE.INTER>
0.762685

>  <SCORE.INTER.CONST>
1

>  <SCORE.INTER.POLAR>
0

>  <SCORE.INTER.ROT>
11

>  <SCORE.INTER.SOLV>
7.94005

>  <SCORE.INTER.VDW>
-13.0716

>  <SCORE.INTER.norm>
0.0544775

>  <SCORE.INTRA>
-10.3992

>  <SCORE.INTRA.DIHEDRAL>
-21.9238

>  <SCORE.INTRA.DIHEDRAL.0>
24.1231

>  <SCORE.INTRA.POLAR>
0

>  <SCORE.INTRA.POLAR.0>
0

>  <SCORE.INTRA.REPUL>
0

>  <SCORE.INTRA.REPUL.0>
0

>  <SCORE.INTRA.SOLV>
0.35948

>  <SCORE.INTRA.SOLV.lig_0>
-48.2216

>  <SCORE.INTRA.VDW>
0.383015

>  <SCORE.INTRA.VDW.0>
-1.3967

>  <SCORE.INTRA.norm>
-0.742798

>  <SCORE.RESTR>
0

>  <SCORE.RESTR.CAVITY>
0

>  <SCORE.RESTR.norm>
0

>  <SCORE.SYSTEM>
0

>  <SCORE.SYSTEM.CONST>
0

>  <SCORE.SYSTEM.DIHEDRAL>
0

>  <SCORE.SYSTEM.SOLV>
0

>  <SCORE.SYSTEM.norm>
0

>  <SCORE.heavy>
14

>  <SCORE.norm>
-0.68832

>  <RMSD>
5.445

$$$$
ligand
 OpenBabel11021811463D
libRbt.so/2013.1/901 2013/11/27
 14 13  0  0  0  0  0  0  0  0999 V2000
   10.4627   18.1212   11.0448 N   0  0  0  0  0  0  0  0  0  0  0  0
   11.3285   17.2431   10.2464 C   0  0  0  0  0  0  0  0  0  0  0  0
   12.4548   16.7097   11.1257 C   0  0  0  0  0  0  0  0  0  0  0  0
   13.4125   15.9097   10.2581 C   0  0  0  0  0  0  0  0  0  0  0  0
   12.7477   14.6744    9.8280 N   0  0  0  0  0  0  0  0  0  0  0  0
   13.2850   14.3373    8.4982 C   0  0  0  0  0  0  0  0  0  0  0  0
   12.5219   13.1536    7.8927 C   0  0  0  0  0  0  0  0  0  0  0  0
   12.8442   11.8993    8.7186 C   0  0  0  0  0  0  0  0  0  0  0  0
   11.8369   11.7175    9.7765 C   0  0  0  0  0  0  0  0  0  0  0  0
   12.1998   10.5023   10.5336 N   0  0  0  0  0  0  0  0  0  0  0  0
   10.9963   10.0036   11.3414 C   0  0  0  0  0  0  0  0  0  0  0  0
   11.3738    8.7194   12.0898 C   0  0  0  0  0  0  0  0  0  0  0  0
   10.1957    8.1972   12.8086 C   0  0  0  0  0  0  0  0  0  0  0  0
    9.8536    9.1016   13.9273 N   0  0  0  0  0  0  0  0  0  0  0  0
  1  2  1  0  0  0  0
  2  3  1  0  0  0  0
  3  4  1  0  0  0  0
  4  5  1  0  0  0  0
  5  6  1  0  0  0  0
  6  7  1  0  0  0  0
  7  8  1  0  0  0  0
  8  9  1  0  0  0  0
  9 10  1  0  0  0  0
 10 11  1  0  0  0  0
 11 12  1  0  0  0  0
 12 13  1  0  0  0  0
 13 14  1  0  0  0  0
M  END
>  <CHROM.1>
-174.79644944,-69.53224574,148.42142364,-173.01967050,-68.05110506,92.85115808
-179.95167401,-162.21130021,178.34727837,-176.90763606,-69.27676230,11.82259995
12.87776625,10.57751007,1.25209219,1.00477883,-0.00908469

>  <Name>
ligand

>  <RI>
0

>  <Rbt.Current_Directory>
/home/itssahil/PROJECTS/Mol_Feturizer/New_Systems/rnas/2O3Y

>  <Rbt.Executable>
rbdock ($Id: //depot/dev/client3/rdock/2013.1/src/exe/rbdock.cxx#4 $)

>  <Rbt.Library>
libRbt.so (2013.1, Build901 2013/11/27)

>  <Rbt.Parameter_File>
/export/apps/rDock/src/rDock_2013.1_src/data/scripts/dock_solv.prm

>  <Rbt.Receptor>
prm/pocket_docking_6.prm

>  <SCORE>
-9.89668

>  <SCORE.INTER>
-1.66649

>  <SCORE.INTER.CONST>
1

>  <SCORE.INTER.POLAR>
0

>  <SCORE.INTER.ROT>
11

>  <SCORE.INTER.SOLV>
8.23482

>  <SCORE.INTER.VDW>
-14.7893

>  <SCORE.INTER.norm>
-0.119035

>  <SCORE.INTRA>
-8.23018

>  <SCORE.INTRA.DIHEDRAL>
-18.6391

>  <SCORE.INTRA.DIHEDRAL.0>
24.1231

>  <SCORE.INTRA.POLAR>
0

>  <SCORE.INTRA.POLAR.0>
0

>  <SCORE.INTRA.REPUL>
0

>  <SCORE.INTRA.REPUL.0>
0

>  <SCORE.INTRA.SOLV>
1.1301

>  <SCORE.INTRA.SOLV.lig_0>
-48.2216

>  <SCORE.INTRA.VDW>
0.524329

>  <SCORE.INTRA.VDW.0>
-1.3967

>  <SCORE.INTRA.norm>
-0.58787

>  <SCORE.RESTR>
0

>  <SCORE.RESTR.CAVITY>
0

>  <SCORE.RESTR.norm>
0

>  <SCORE.SYSTEM>
0

>  <SCORE.SYSTEM.CONST>
0

>  <SCORE.SYSTEM.DIHEDRAL>
0

>  <SCORE.SYSTEM.SOLV>
0

>  <SCORE.SYSTEM.norm>
0

>  <SCORE.heavy>
14

>  <SCORE.norm>
-0.706905

>  <RMSD>
5.448

$$$$
ligand
 OpenBabel11021811463D
libRbt.so/2013.1/901 2013/11/27
 14 13  0  0  0  0  0  0  0  0999 V2000
    9.9412    9.0882   13.7276 N   0  0  0  0  0  0  0  0  0  0  0  0
   10.3705    8.1528   12.6792 C   0  0  0  0  0  0  0  0  0  0  0  0
   11.6381    8.6835   12.0176 C   0  0  0  0  0  0  0  0  0  0  0  0
   11.2831    9.9185   11.2059 C   0  0  0  0  0  0  0  0  0  0  0  0
   12.4574   10.3329   10.4298 N   0  0  0  0  0  0  0  0  0  0  0  0
   12.1137   11.6084    9.7775 C   0  0  0  0  0  0  0  0  0  0  0  0
   13.0740   11.8967    8.6178 C   0  0  0  0  0  0  0  0  0  0  0  0
   12.6462   13.2145    7.9544 C   0  0  0  0  0  0  0  0  0  0  0  0
   13.3091   14.3513    8.6139 C   0  0  0  0  0  0  0  0  0  0  0  0
   12.7454   14.4681    9.9741 N   0  0  0  0  0  0  0  0  0  0  0  0
   12.6933   15.9397   10.4002 C   0  0  0  0  0  0  0  0  0  0  0  0
   11.6731   16.1132   11.5319 C   0  0  0  0  0  0  0  0  0  0  0  0
   11.6014   17.5339   11.9244 C   0  0  0  0  0  0  0  0  0  0  0  0
   10.6102   17.7015   13.0088 N   0  0  0  0  0  0  0  0  0  0  0  0
  1  2  1  0  0  0  0
  2  3  1  0  0  0  0
  3  4  1  0  0  0  0
  4  5  1  0  0  0  0
  5  6  1  0  0  0  0
  6  7  1  0  0  0  0
  7  8  1  0  0  0  0
  8  9  1  0  0  0  0
  9 10  1  0  0  0  0
 10 11  1  0  0  0  0
 11 12  1  0  0  0  0
 12 13  1  0  0  0  0
 13 14  1  0  0  0  0
M  END
>  <CHROM.1>
-69.67534164,-172.76861018,-173.98671757,-162.06816407,178.51398565,88.75584028
-68.55539829,-146.53777429,159.22167502,-178.84236906,179.58231837,11.86852331
12.78589757,10.84698118,1.80991355,-1.06632996,-3.05375670

>  <Name>
ligand

>  <RI>
0

>  <Rbt.Current_Directory>
/home/itssahil/PROJECTS/Mol_Feturizer/New_Systems/rnas/2O3Y

>  <Rbt.Executable>
rbdock ($Id: //depot/dev/client3/rdock/2013.1/src/exe/rbdock.cxx#4 $)

>  <Rbt.Library>
libRbt.so (2013.1, Build901 2013/11/27)

>  <Rbt.Parameter_File>
/export/apps/rDock/src/rDock_2013.1_src/data/scripts/dock_solv.prm

>  <Rbt.Receptor>
prm/pocket_docking_5.prm

>  <SCORE>
-8.86832

>  <SCORE.INTER>
-0.509231

>  <SCORE.INTER.CONST>
1

>  <SCORE.INTER.POLAR>
0

>  <SCORE.INTER.ROT>
11

>  <SCORE.INTER.SOLV>
5.49927

>  <SCORE.INTER.VDW>
-13.1059

>  <SCORE.INTER.norm>
-0.0363737

>  <SCORE.INTRA>
-8.35908

>  <SCORE.INTRA.DIHEDRAL>
-19.1291

>  <SCORE.INTRA.DIHEDRAL.0>
24.1231

>  <SCORE.INTRA.POLAR>
0

>  <SCORE.INTRA.POLAR.0>
0

>  <SCORE.INTRA.REPUL>
0

>  <SCORE.INTRA.REPUL.0>
0

>  <SCORE.INTRA.SOLV>
0.90799

>  <SCORE.INTRA.SOLV.lig_0>
-48.2216

>  <SCORE.INTRA.VDW>
0.751458

>  <SCORE.INTRA.VDW.0>
-1.3967

>  <SCORE.INTRA.norm>
-0.597077

>  <SCORE.RESTR>
0

>  <SCORE.RESTR.CAVITY>
0

>  <SCORE.RESTR.norm>
0

>  <SCORE.SYSTEM>
0

>  <SCORE.SYSTEM.CONST>
0

>  <SCORE.SYSTEM.DIHEDRAL>
0

>  <SCORE.SYSTEM.SOLV>
0

>  <SCORE.SYSTEM.norm>
0

>  <SCORE.heavy>
14

>  <SCORE.norm>
-0.633451

>  <RMSD>
5.463

$$$$
ligand
 OpenBabel11021811463D
libRbt.so/2013.1/901 2013/11/27
 14 13  0  0  0  0  0  0  0  0999 V2000
   10.5032    5.1346   15.5979 N   0  0  0  0  0  0  0  0  0  0  0  0
   11.9707    5.1032   15.6590 C   0  0  0  0  0  0  0  0  0  0  0  0
   12.5151    6.5114   15.4426 C   0  0  0  0  0  0  0  0  0  0  0  0
   14.0239    6.4830   15.6230 C   0  0  0  0  0  0  0  0  0  0  0  0
   14.5499    7.8425   15.4555 N   0  0  0  0  0  0  0  0  0  0  0  0
   15.8321    7.8999   16.1789 C   0  0  0  0  0  0  0  0  0  0  0  0
   16.2563    9.3549   16.4095 C   0  0  0  0  0  0  0  0  0  0  0  0
   16.5187   10.0028   15.0417 C   0  0  0  0  0  0  0  0  0  0  0  0
   16.8767   11.4201   15.2137 C   0  0  0  0  0  0  0  0  0  0  0  0
   16.9999   12.0153   13.8675 N   0  0  0  0  0  0  0  0  0  0  0  0
   15.9235   13.0874   13.6629 C   0  0  0  0  0  0  0  0  0  0  0  0
   16.4633   14.1919   12.7462 C   0  0  0  0  0  0  0  0  0  0  0  0
   16.7317   13.6389   11.4047 C   0  0  0  0  0  0  0  0  0  0  0  0
   17.2604   14.7028   10.5242 N   0  0  0  0  0  0  0  0  0  0  0  0
  1  2  1  0  0  0  0
  2  3  1  0  0  0  0
  3  4  1  0  0  0  0
  4  5  1  0  0  0  0
  5  6  1  0  0  0  0
  6  7  1  0  0  0  0
  7  8  1  0  0  0  0
  8  9  1  0  0  0  0
  9 10  1  0  0  0  0
 10 11  1  0  0  0  0
 11 12  1  0  0  0  0
 12 13  1  0  0  0  0
 13 14  1  0  0  0  0
M  END
>  <CHROM.1>
175.35665994,-178.34159641,156.05114595,-163.55282039,-64.51902057,177.70670944
-175.12497255,115.33696494,147.84953640,64.47313982,-179.63557268,15.17336754
9.81342685,14.48791912,2.14720874,0.58255033,2.38441460

>  <Name>
ligand

>  <RI>
0

>  <Rbt.Current_Directory>
/home/itssahil/PROJECTS/Mol_Feturizer/New_Systems/rnas/2O3Y

>  <Rbt.Executable>
rbdock ($Id: //depot/dev/client3/rdock/2013.1/src/exe/rbdock.cxx#4 $)

>  <Rbt.Library>
libRbt.so (2013.1, Build901 2013/11/27)

>  <Rbt.Parameter_File>
/export/apps/rDock/src/rDock_2013.1_src/data/scripts/dock_solv.prm

>  <Rbt.Receptor>
prm/pocket_docking_7.prm

>  <SCORE>
-10.4936

>  <SCORE.INTER>
-0.175411

>  <SCORE.INTER.CONST>
1

>  <SCORE.INTER.POLAR>
0

>  <SCORE.INTER.ROT>
11

>  <SCORE.INTER.SOLV>
13.0433

>  <SCORE.INTER.VDW>
-15.398

>  <SCORE.INTER.norm>
-0.0125294

>  <SCORE.INTRA>
-10.3182

>  <SCORE.INTRA.DIHEDRAL>
-21.2956

>  <SCORE.INTRA.DIHEDRAL.0>
24.1231

>  <SCORE.INTRA.POLAR>
0

>  <SCORE.INTRA.POLAR.0>
0

>  <SCORE.INTRA.REPUL>
0

>  <SCORE.INTRA.REPUL.0>
0

>  <SCORE.INTRA.SOLV>
-0.110236

>  <SCORE.INTRA.SOLV.lig_0>
-48.2216

>  <SCORE.INTRA.VDW>
0.384675

>  <SCORE.INTRA.VDW.0>
-1.3967

>  <SCORE.INTRA.norm>
-0.737016

>  <SCORE.RESTR>
0

>  <SCORE.RESTR.CAVITY>
0

>  <SCORE.RESTR.norm>
0

>  <SCORE.SYSTEM>
0

>  <SCORE.SYSTEM.CONST>
0

>  <SCORE.SYSTEM.DIHEDRAL>
0

>  <SCORE.SYSTEM.SOLV>
0

>  <SCORE.SYSTEM.norm>
0

>  <SCORE.heavy>
14

>  <SCORE.norm>
-0.749546

>  <RMSD>
5.473

$$$$
ligand
 OpenBabel11021811463D
libRbt.so/2013.1/901 2013/11/27
 14 13  0  0  0  0  0  0  0  0999 V2000
   21.4452    8.0119    7.8796 N   0  0  0  0  0  0  0  0  0  0  0  0
   21.4098    8.4024    9.2954 C   0  0  0  0  0  0  0  0  0  0  0  0
   20.0579    9.0340    9.6110 C   0  0  0  0  0  0  0  0  0  0  0  0
   20.0615    9.4933   11.0598 C   0  0  0  0  0  0  0  0  0  0  0  0
   18.7363   10.0272   11.3942 N   0  0  0  0  0  0  0  0  0  0  0  0
   18.6314   10.0287   12.8638 C   0  0  0  0  0  0  0  0  0  0  0  0
   17.2959   10.6360   13.3083 C   0  0  0  0  0  0  0  0  0  0  0  0
   17.2122   10.5474   14.8395 C   0  0  0  0  0  0  0  0  0  0  0  0
   15.9413   11.1214   15.3107 C   0  0  0  0  0  0  0  0  0  0  0  0
   15.8662   10.9010   16.7693 N   0  0  0  0  0  0  0  0  0  0  0  0
   14.4127   11.0033   17.2453 C   0  0  0  0  0  0  0  0  0  0  0  0
   14.2858   10.3986   18.6488 C   0  0  0  0  0  0  0  0  0  0  0  0
   12.8725   10.4159   19.0727 C   0  0  0  0  0  0  0  0  0  0  0  0
   12.7295    9.6996   20.3584 N   0  0  0  0  0  0  0  0  0  0  0  0
  1  2  1  0  0  0  0
  2  3  1  0  0  0  0
  3  4  1  0  0  0  0
  4  5  1  0  0  0  0
  5  6  1  0  0  0  0
  6  7  1  0  0  0  0
  7  8  1  0  0  0  0
  8  9  1  0  0  0  0
  9 10  1  0  0  0  0
 10 11  1  0  0  0  0
 11 12  1  0  0  0  0
 12 13  1  0  0  0  0
 13 14  1  0  0  0  0
M  END
>  <CHROM.1>
-177.28743889,-176.56612249,161.16953850,177.33235979,177.21425229,179.99434818
175.10335353,-159.83989106,164.26780378,-176.31366888,173.79269461,17.21130978
9.98018982,14.11835635,0.02012053,-0.93638097,2.99388141

>  <Name>
ligand

>  <RI>
0

>  <Rbt.Current_Directory>
/home/itssahil/PROJECTS/Mol_Feturizer/New_Systems/rnas/2O3Y

>  <Rbt.Executable>
rbdock ($Id: //depot/dev/client3/rdock/2013.1/src/exe/rbdock.cxx#4 $)

>  <Rbt.Library>
libRbt.so (2013.1, Build901 2013/11/27)

>  <Rbt.Parameter_File>
/export/apps/rDock/src/rDock_2013.1_src/data/scripts/dock_solv.prm

>  <Rbt.Receptor>
prm/pocket_docking_8.prm

>  <SCORE>
-12.7736

>  <SCORE.INTER>
-0.846143

>  <SCORE.INTER.CONST>
1

>  <SCORE.INTER.POLAR>
0

>  <SCORE.INTER.ROT>
11

>  <SCORE.INTER.SOLV>
9.8477

>  <SCORE.INTER.VDW>
-14.78

>  <SCORE.INTER.norm>
-0.0604388

>  <SCORE.INTRA>
-11.9275

>  <SCORE.INTRA.DIHEDRAL>
-22.9643

>  <SCORE.INTRA.DIHEDRAL.0>
24.1231

>  <SCORE.INTRA.POLAR>
0

>  <SCORE.INTRA.POLAR.0>
0

>  <SCORE.INTRA.REPUL>
0

>  <SCORE.INTRA.REPUL.0>
0

>  <SCORE.INTRA.SOLV>
-1.01924

>  <SCORE.INTRA.SOLV.lig_0>
-48.2216

>  <SCORE.INTRA.VDW>
0.0642621

>  <SCORE.INTRA.VDW.0>
-1.3967

>  <SCORE.INTRA.norm>
-0.851964

>  <SCORE.RESTR>
0

>  <SCORE.RESTR.CAVITY>
0

>  <SCORE.RESTR.norm>
0

>  <SCORE.SYSTEM>
0

>  <SCORE.SYSTEM.CONST>
0

>  <SCORE.SYSTEM.DIHEDRAL>
0

>  <SCORE.SYSTEM.SOLV>
0

>  <SCORE.SYSTEM.norm>
0

>  <SCORE.heavy>
14

>  <SCORE.norm>
-0.912403

>  <RMSD>
5.526

$$$$
ligand
 OpenBabel11021811463D
libRbt.so/2013.1/901 2013/11/27
 14 13  0  0  0  0  0  0  0  0999 V2000
   11.1342    5.2528   15.8822 N   0  0  0  0  0  0  0  0  0  0  0  0
   12.5731    5.4926   16.0564 C   0  0  0  0  0  0  0  0  0  0  0  0
   12.8160    6.9858   16.2500 C   0  0  0  0  0  0  0  0  0  0  0  0
   14.2976    7.2088   16.5056 C   0  0  0  0  0  0  0  0  0  0  0  0
   14.5224    8.6287   16.7993 N   0  0  0  0  0  0  0  0  0  0  0  0
   15.9563    8.7839   17.1006 C   0  0  0  0  0  0  0  0  0  0  0  0
   16.6901    9.4220   15.9155 C   0  0  0  0  0  0  0  0  0  0  0  0
   16.1317   10.8380   15.7090 C   0  0  0  0  0  0  0  0  0  0  0  0
   16.7211   11.4433   14.5036 C   0  0  0  0  0  0  0  0  0  0  0  0
   16.0479   12.7390   14.2808 N   0  0  0  0  0  0  0  0  0  0  0  0
   16.4629   13.3244   12.9262 C   0  0  0  0  0  0  0  0  0  0  0  0
   16.1695   14.8294   12.9030 C   0  0  0  0  0  0  0  0  0  0  0  0
   16.5888   15.3986   11.6078 C   0  0  0  0  0  0  0  0  0  0  0  0
   15.6871   14.9197   10.5381 N   0  0  0  0  0  0  0  0  0  0  0  0
  1  2  1  0  0  0  0
  2  3  1  0  0  0  0
  3  4  1  0  0  0  0
  4  5  1  0  0  0  0
  5  6  1  0  0  0  0
  6  7  1  0  0  0  0
  7  8  1  0  0  0  0
  8  9  1  0  0  0  0
  9 10  1  0  0  0  0
 10 11  1  0  0  0  0
 11 12  1  0  0  0  0
 12 13  1  0  0  0  0
 13 14  1  0  0  0  0
M  END
>  <CHROM.1>
176.89464530,-175.50711483,177.42162686,104.14009683,63.65685199,-174.83098758
174.31144976,-171.47342743,-160.72252415,179.08255811,69.94708634,15.12880609
10.37620102,14.78431217,1.99597083,0.60368599,2.41186401

>  <Name>
ligand

>  <RI>
0

>  <Rbt.Current_Directory>
/home/itssahil/PROJECTS/Mol_Feturizer/New_Systems/rnas/2O3Y

>  <Rbt.Executable>
rbdock ($Id: //depot/dev/client3/rdock/2013.1/src/exe/rbdock.cxx#4 $)

>  <Rbt.Library>
libRbt.so (2013.1, Build901 2013/11/27)

>  <Rbt.Parameter_File>
/export/apps/rDock/src/rDock_2013.1_src/data/scripts/dock_solv.prm

>  <Rbt.Receptor>
prm/pocket_docking_7.prm

>  <SCORE>
-9.31214

>  <SCORE.INTER>
1.11581

>  <SCORE.INTER.CONST>
1

>  <SCORE.INTER.POLAR>
0

>  <SCORE.INTER.ROT>
11

>  <SCORE.INTER.SOLV>
9.88619

>  <SCORE.INTER.VDW>
-13.4849

>  <SCORE.INTER.norm>
0.0797004

>  <SCORE.INTRA>
-10.4279

>  <SCORE.INTRA.DIHEDRAL>
-22.0086

>  <SCORE.INTRA.DIHEDRAL.0>
24.1231

>  <SCORE.INTRA.POLAR>
0

>  <SCORE.INTRA.POLAR.0>
0

>  <SCORE.INTRA.REPUL>
0

>  <SCORE.INTRA.REPUL.0>
0

>  <SCORE.INTRA.SOLV>
0.198397

>  <SCORE.INTRA.SOLV.lig_0>
-48.2216

>  <SCORE.INTRA.VDW>
0.477167

>  <SCORE.INTRA.VDW.0>
-1.3967

>  <SCORE.INTRA.norm>
-0.744853

>  <SCORE.RESTR>
0

>  <SCORE.RESTR.CAVITY>
0

>  <SCORE.RESTR.norm>
0

>  <SCORE.SYSTEM>
0

>  <SCORE.SYSTEM.CONST>
0

>  <SCORE.SYSTEM.DIHEDRAL>
0

>  <SCORE.SYSTEM.SOLV>
0

>  <SCORE.SYSTEM.norm>
0

>  <SCORE.heavy>
14

>  <SCORE.norm>
-0.665153

>  <RMSD>
5.529

$$$$
ligand
 OpenBabel11021811463D
libRbt.so/2013.1/901 2013/11/27
 14 13  0  0  0  0  0  0  0  0999 V2000
   18.8259   18.0457   12.4327 N   0  0  0  0  0  0  0  0  0  0  0  0
   17.5692   17.3203   12.6623 C   0  0  0  0  0  0  0  0  0  0  0  0
   17.8339   15.8196   12.5993 C   0  0  0  0  0  0  0  0  0  0  0  0
   16.5233   15.0841   12.8260 C   0  0  0  0  0  0  0  0  0  0  0  0
   16.7949   13.6457   12.9273 N   0  0  0  0  0  0  0  0  0  0  0  0
   15.5517   13.0047   13.3901 C   0  0  0  0  0  0  0  0  0  0  0  0
   15.8319   11.5826   13.8891 C   0  0  0  0  0  0  0  0  0  0  0  0
   16.6788   11.6786   15.1671 C   0  0  0  0  0  0  0  0  0  0  0  0
   16.9374   10.3330   15.7047 C   0  0  0  0  0  0  0  0  0  0  0  0
   15.6396    9.7607   16.1171 N   0  0  0  0  0  0  0  0  0  0  0  0
   15.8609    8.5866   17.0776 C   0  0  0  0  0  0  0  0  0  0  0  0
   14.5405    7.8351   17.2862 C   0  0  0  0  0  0  0  0  0  0  0  0
   14.1558    7.1481   16.0381 C   0  0  0  0  0  0  0  0  0  0  0  0
   12.8653    6.4523   16.2302 N   0  0  0  0  0  0  0  0  0  0  0  0
  1  2  1  0  0  0  0
  2  3  1  0  0  0  0
  3  4  1  0  0  0  0
  4  5  1  0  0  0  0
  5  6  1  0  0  0  0
  6  7  1  0  0  0  0
  7  8  1  0  0  0  0
  8  9  1  0  0  0  0
  9 10  1  0  0  0  0
 10 11  1  0  0  0  0
 11 12  1  0  0  0  0
 12 13  1  0  0  0  0
 13 14  1  0  0  0  0
M  END
>  <CHROM.1>
-179.49209153,-173.28493298,169.77561472,-164.56288280,67.41652084,178.27979739
-64.88231884,-161.84036769,-169.21052542,68.52515921,-178.56639162,16.11497319
11.87831902,14.59634501,-1.16909697,0.61885319,2.47908567

>  <Name>
ligand

>  <RI>
0

>  <Rbt.Current_Directory>
/home/itssahil/PROJECTS/Mol_Feturizer/New_Systems/rnas/2O3Y

>  <Rbt.Executable>
rbdock ($Id: //depot/dev/client3/rdock/2013.1/src/exe/rbdock.cxx#4 $)

>  <Rbt.Library>
libRbt.so (2013.1, Build901 2013/11/27)

>  <Rbt.Parameter_File>
/export/apps/rDock/src/rDock_2013.1_src/data/scripts/dock_solv.prm

>  <Rbt.Receptor>
prm/pocket_docking_6.prm

>  <SCORE>
-10.3469

>  <SCORE.INTER>
0.470588

>  <SCORE.INTER.CONST>
1

>  <SCORE.INTER.POLAR>
0

>  <SCORE.INTER.ROT>
11

>  <SCORE.INTER.SOLV>
7.30924

>  <SCORE.INTER.VDW>
-13.056

>  <SCORE.INTER.norm>
0.0336134

>  <SCORE.INTRA>
-10.8174

>  <SCORE.INTRA.DIHEDRAL>
-22.7534

>  <SCORE.INTRA.DIHEDRAL.0>
24.1231

>  <SCORE.INTRA.POLAR>
0

>  <SCORE.INTRA.POLAR.0>
0

>  <SCORE.INTRA.REPUL>
0

>  <SCORE.INTRA.REPUL.0>
0

>  <SCORE.INTRA.SOLV>
0.294921

>  <SCORE.INTRA.SOLV.lig_0>
-48.2216

>  <SCORE.INTRA.VDW>
0.411776

>  <SCORE.INTRA.VDW.0>
-1.3967

>  <SCORE.INTRA.norm>
-0.772674

>  <SCORE.RESTR>
0

>  <SCORE.RESTR.CAVITY>
0

>  <SCORE.RESTR.norm>
0

>  <SCORE.SYSTEM>
0

>  <SCORE.SYSTEM.CONST>
0

>  <SCORE.SYSTEM.DIHEDRAL>
0

>  <SCORE.SYSTEM.SOLV>
0

>  <SCORE.SYSTEM.norm>
0

>  <SCORE.heavy>
14

>  <SCORE.norm>
-0.739061

>  <RMSD>
5.534

$$$$
ligand
 OpenBabel11021811463D
libRbt.so/2013.1/901 2013/11/27
 14 13  0  0  0  0  0  0  0  0999 V2000
    9.8398    9.9519   13.2667 N   0  0  0  0  0  0  0  0  0  0  0  0
   10.5651    9.5435   12.0562 C   0  0  0  0  0  0  0  0  0  0  0  0
   10.9066   10.7799   11.2311 C   0  0  0  0  0  0  0  0  0  0  0  0
   11.7647   10.3556   10.0506 C   0  0  0  0  0  0  0  0  0  0  0  0
   12.1953   11.5525    9.3193 N   0  0  0  0  0  0  0  0  0  0  0  0
   13.4052   11.1832    8.5640 C   0  0  0  0  0  0  0  0  0  0  0  0
   13.7373   12.2556    7.5202 C   0  0  0  0  0  0  0  0  0  0  0  0
   14.1959   13.5217    8.2593 C   0  0  0  0  0  0  0  0  0  0  0  0
   13.0284   14.2720    8.7497 C   0  0  0  0  0  0  0  0  0  0  0  0
   13.5321   15.4177    9.5341 N   0  0  0  0  0  0  0  0  0  0  0  0
   12.3605   16.2066   10.1299 C   0  0  0  0  0  0  0  0  0  0  0  0
   12.8973   17.3772   10.9625 C   0  0  0  0  0  0  0  0  0  0  0  0
   11.7707   18.1366   11.5384 C   0  0  0  0  0  0  0  0  0  0  0  0
   12.2894   19.2650   12.3409 N   0  0  0  0  0  0  0  0  0  0  0  0
  1  2  1  0  0  0  0
  2  3  1  0  0  0  0
  3  4  1  0  0  0  0
  4  5  1  0  0  0  0
  5  6  1  0  0  0  0
  6  7  1  0  0  0  0
  7  8  1  0  0  0  0
  8  9  1  0  0  0  0
  9 10  1  0  0  0  0
 10 11  1  0  0  0  0
 11 12  1  0  0  0  0
 12 13  1  0  0  0  0
 13 14  1  0  0  0  0
M  END
>  <CHROM.1>
174.88244074,-175.06002638,157.70929026,166.59870611,69.01066391,-80.32086230
175.84872449,-177.38783307,178.96120313,-179.91929169,-179.99955839,12.32074386
13.55829675,10.25128642,1.84662368,-0.95779376,-2.88134532

>  <Name>
ligand

>  <RI>
0

>  <Rbt.Current_Directory>
/home/itssahil/PROJECTS/Mol_Feturizer/New_Systems/rnas/2O3Y

>  <Rbt.Executable>
rbdock ($Id: //depot/dev/client3/rdock/2013.1/src/exe/rbdock.cxx#4 $)

>  <Rbt.Library>
libRbt.so (2013.1, Build901 2013/11/27)

>  <Rbt.Parameter_File>
/export/apps/rDock/src/rDock_2013.1_src/data/scripts/dock_solv.prm

>  <Rbt.Receptor>
prm/pocket_docking_8.prm

>  <SCORE>
-7.86898

>  <SCORE.INTER>
2.00101

>  <SCORE.INTER.CONST>
1

>  <SCORE.INTER.POLAR>
0

>  <SCORE.INTER.ROT>
11

>  <SCORE.INTER.SOLV>
8.44435

>  <SCORE.INTER.VDW>
-12.4141

>  <SCORE.INTER.norm>
0.142929

>  <SCORE.INTRA>
-9.87

>  <SCORE.INTRA.DIHEDRAL>
-21.479

>  <SCORE.INTRA.DIHEDRAL.0>
24.1231

>  <SCORE.INTRA.POLAR>
0

>  <SCORE.INTRA.POLAR.0>
0

>  <SCORE.INTRA.REPUL>
0

>  <SCORE.INTRA.REPUL.0>
0

>  <SCORE.INTRA.SOLV>
0.233439

>  <SCORE.INTRA.SOLV.lig_0>
-48.2216

>  <SCORE.INTRA.VDW>
0.752791

>  <SCORE.INTRA.VDW.0>
-1.3967

>  <SCORE.INTRA.norm>
-0.705

>  <SCORE.RESTR>
0

>  <SCORE.RESTR.CAVITY>
0

>  <SCORE.RESTR.norm>
0

>  <SCORE.SYSTEM>
0

>  <SCORE.SYSTEM.CONST>
0

>  <SCORE.SYSTEM.DIHEDRAL>
0

>  <SCORE.SYSTEM.SOLV>
0

>  <SCORE.SYSTEM.norm>
0

>  <SCORE.heavy>
14

>  <SCORE.norm>
-0.56207

>  <RMSD>
5.555

$$$$
ligand
 OpenBabel11021811463D
libRbt.so/2013.1/901 2013/11/27
 14 13  0  0  0  0  0  0  0  0999 V2000
   13.7840   13.2489    8.9676 N   0  0  0  0  0  0  0  0  0  0  0  0
   14.6058   13.6706   10.1100 C   0  0  0  0  0  0  0  0  0  0  0  0
   14.7920   12.4921   11.0601 C   0  0  0  0  0  0  0  0  0  0  0  0
   15.6174   12.9522   12.2505 C   0  0  0  0  0  0  0  0  0  0  0  0
   15.7782   11.8298   13.1818 N   0  0  0  0  0  0  0  0  0  0  0  0
   16.6513   12.2975   14.2725 C   0  0  0  0  0  0  0  0  0  0  0  0
   17.0648   11.1268   15.1716 C   0  0  0  0  0  0  0  0  0  0  0  0
   15.8007   10.5579   15.8335 C   0  0  0  0  0  0  0  0  0  0  0  0
   16.1449    9.3901   16.6608 C   0  0  0  0  0  0  0  0  0  0  0  0
   14.8966    8.8976   17.2780 N   0  0  0  0  0  0  0  0  0  0  0  0
   14.7516    9.4581   18.6974 C   0  0  0  0  0  0  0  0  0  0  0  0
   15.0250    8.3488   19.7204 C   0  0  0  0  0  0  0  0  0  0  0  0
   14.0073    7.2884   19.5891 C   0  0  0  0  0  0  0  0  0  0  0  0
   12.6779    7.8267   19.9488 N   0  0  0  0  0  0  0  0  0  0  0  0
  1  2  1  0  0  0  0
  2  3  1  0  0  0  0
  3  4  1  0  0  0  0
  4  5  1  0  0  0  0
  5  6  1  0  0  0  0
  6  7  1  0  0  0  0
  7  8  1  0  0  0  0
  8  9  1  0  0  0  0
  9 10  1  0  0  0  0
 10 11  1  0  0  0  0
 11 12  1  0  0  0  0
 12 13  1  0  0  0  0
 13 14  1  0  0  0  0
M  END
>  <CHROM.1>
-178.75755079,178.90213807,176.53562203,-170.61206504,-63.50748476,177.45377681
179.47350281,-96.68485358,-106.64910154,-63.64909677,-64.96902180,15.11444629
10.67047853,15.19600800,1.51000868,-0.29479654,-1.07116987

>  <Name>
ligand

>  <RI>
0

>  <Rbt.Current_Directory>
/home/itssahil/PROJECTS/Mol_Feturizer/New_Systems/rnas/2O3Y

>  <Rbt.Executable>
rbdock ($Id: //depot/dev/client3/rdock/2013.1/src/exe/rbdock.cxx#4 $)

>  <Rbt.Library>
libRbt.so (2013.1, Build901 2013/11/27)

>  <Rbt.Parameter_File>
/export/apps/rDock/src/rDock_2013.1_src/data/scripts/dock_solv.prm

>  <Rbt.Receptor>
prm/pocket_docking_7.prm

>  <SCORE>
-6.19111

>  <SCORE.INTER>
3.28354

>  <SCORE.INTER.CONST>
1

>  <SCORE.INTER.POLAR>
0

>  <SCORE.INTER.ROT>
11

>  <SCORE.INTER.SOLV>
3.56804

>  <SCORE.INTER.VDW>
-9.93366

>  <SCORE.INTER.norm>
0.234538

>  <SCORE.INTRA>
-9.47464

>  <SCORE.INTRA.DIHEDRAL>
-21.9491

>  <SCORE.INTRA.DIHEDRAL.0>
24.1231

>  <SCORE.INTRA.POLAR>
0

>  <SCORE.INTRA.POLAR.0>
0

>  <SCORE.INTRA.REPUL>
0

>  <SCORE.INTRA.REPUL.0>
0

>  <SCORE.INTRA.SOLV>
1.30927

>  <SCORE.INTRA.SOLV.lig_0>
-48.2216

>  <SCORE.INTRA.VDW>
0.845262

>  <SCORE.INTRA.VDW.0>
-1.3967

>  <SCORE.INTRA.norm>
-0.67676

>  <SCORE.RESTR>
0

>  <SCORE.RESTR.CAVITY>
0

>  <SCORE.RESTR.norm>
0

>  <SCORE.SYSTEM>
0

>  <SCORE.SYSTEM.CONST>
0

>  <SCORE.SYSTEM.DIHEDRAL>
0

>  <SCORE.SYSTEM.SOLV>
0

>  <SCORE.SYSTEM.norm>
0

>  <SCORE.heavy>
14

>  <SCORE.norm>
-0.442222

>  <RMSD>
5.592

$$$$
ligand
 OpenBabel11021811463D
libRbt.so/2013.1/901 2013/11/27
 14 13  0  0  0  0  0  0  0  0999 V2000
   10.3108    8.5944   19.8539 N   0  0  0  0  0  0  0  0  0  0  0  0
   11.6395    8.5528   19.2286 C   0  0  0  0  0  0  0  0  0  0  0  0
   12.6261    9.3377   20.0872 C   0  0  0  0  0  0  0  0  0  0  0  0
   13.9931    9.2900   19.4246 C   0  0  0  0  0  0  0  0  0  0  0  0
   13.9306   10.0132   18.1495 N   0  0  0  0  0  0  0  0  0  0  0  0
   15.1511    9.6691   17.3994 C   0  0  0  0  0  0  0  0  0  0  0  0
   15.5366   10.8061   16.4462 C   0  0  0  0  0  0  0  0  0  0  0  0
   16.8307   10.4085   15.7205 C   0  0  0  0  0  0  0  0  0  0  0  0
   17.2934   11.5159   14.8683 C   0  0  0  0  0  0  0  0  0  0  0  0
   16.2573   11.7520   13.8424 N   0  0  0  0  0  0  0  0  0  0  0  0
   16.3694   13.1800   13.2965 C   0  0  0  0  0  0  0  0  0  0  0  0
   15.0847   13.5468   12.5437 C   0  0  0  0  0  0  0  0  0  0  0  0
   13.9508   13.5932   13.4868 C   0  0  0  0  0  0  0  0  0  0  0  0
   12.7040   13.8967   12.7520 N   0  0  0  0  0  0  0  0  0  0  0  0
  1  2  1  0  0  0  0
  2  3  1  0  0  0  0
  3  4  1  0  0  0  0
  4  5  1  0  0  0  0
  5  6  1  0  0  0  0
  6  7  1  0  0  0  0
  7  8  1  0  0  0  0
  8  9  1  0  0  0  0
  9 10  1  0  0  0  0
 10 11  1  0  0  0  0
 11 12  1  0  0  0  0
 12 13  1  0  0  0  0
 13 14  1  0  0  0  0
M  END
>  <CHROM.1>
-179.76934573,65.80194956,-166.48828303,-152.27808921,178.56865466,-175.75339111
-62.89181393,157.36120165,-164.26788626,65.46933038,-177.87759453,14.40603322
11.01114734,16.22143854,1.97143661,-0.15640142,2.21360408

>  <Name>
ligand

>  <RI>
0

>  <Rbt.Current_Directory>
/home/itssahil/PROJECTS/Mol_Feturizer/New_Systems/rnas/2O3Y

>  <Rbt.Executable>
rbdock ($Id: //depot/dev/client3/rdock/2013.1/src/exe/rbdock.cxx#4 $)

>  <Rbt.Library>
libRbt.so (2013.1, Build901 2013/11/27)

>  <Rbt.Parameter_File>
/export/apps/rDock/src/rDock_2013.1_src/data/scripts/dock_solv.prm

>  <Rbt.Receptor>
prm/pocket_docking_7.prm

>  <SCORE>
-8.47992

>  <SCORE.INTER>
2.08638

>  <SCORE.INTER.CONST>
1

>  <SCORE.INTER.POLAR>
0

>  <SCORE.INTER.ROT>
11

>  <SCORE.INTER.SOLV>
4.14781

>  <SCORE.INTER.VDW>
-10.925

>  <SCORE.INTER.norm>
0.149027

>  <SCORE.INTRA>
-10.5663

>  <SCORE.INTRA.DIHEDRAL>
-22.5131

>  <SCORE.INTRA.DIHEDRAL.0>
24.1231

>  <SCORE.INTRA.POLAR>
0

>  <SCORE.INTRA.POLAR.0>
0

>  <SCORE.INTRA.REPUL>
0

>  <SCORE.INTRA.REPUL.0>
0

>  <SCORE.INTRA.SOLV>
0.402265

>  <SCORE.INTRA.SOLV.lig_0>
-48.2216

>  <SCORE.INTRA.VDW>
0.489131

>  <SCORE.INTRA.VDW.0>
-1.3967

>  <SCORE.INTRA.norm>
-0.754735

>  <SCORE.RESTR>
0

>  <SCORE.RESTR.CAVITY>
0

>  <SCORE.RESTR.norm>
0

>  <SCORE.SYSTEM>
0

>  <SCORE.SYSTEM.CONST>
0

>  <SCORE.SYSTEM.DIHEDRAL>
0

>  <SCORE.SYSTEM.SOLV>
0

>  <SCORE.SYSTEM.norm>
0

>  <SCORE.heavy>
14

>  <SCORE.norm>
-0.605708

>  <RMSD>
5.601

$$$$
ligand
 OpenBabel11021811463D
libRbt.so/2013.1/901 2013/11/27
 14 13  0  0  0  0  0  0  0  0999 V2000
   15.3855   15.5275   11.7156 N   0  0  0  0  0  0  0  0  0  0  0  0
   16.2124   14.3734   12.0931 C   0  0  0  0  0  0  0  0  0  0  0  0
   15.6184   13.7105   13.3317 C   0  0  0  0  0  0  0  0  0  0  0  0
   16.4679   12.5029   13.6922 C   0  0  0  0  0  0  0  0  0  0  0  0
   15.9772   11.9338   14.9525 N   0  0  0  0  0  0  0  0  0  0  0  0
   17.0826   11.1487   15.5291 C   0  0  0  0  0  0  0  0  0  0  0  0
   16.7552    9.6515   15.4955 C   0  0  0  0  0  0  0  0  0  0  0  0
   15.5607    9.3984   16.4274 C   0  0  0  0  0  0  0  0  0  0  0  0
   15.1913    7.9738   16.4008 C   0  0  0  0  0  0  0  0  0  0  0  0
   14.6320    7.6831   15.0650 N   0  0  0  0  0  0  0  0  0  0  0  0
   13.9558    6.3074   15.0629 C   0  0  0  0  0  0  0  0  0  0  0  0
   12.5111    6.4420   15.5590 C   0  0  0  0  0  0  0  0  0  0  0  0
   11.8977    5.1050   15.6753 C   0  0  0  0  0  0  0  0  0  0  0  0
   10.5102    5.2349   16.1698 N   0  0  0  0  0  0  0  0  0  0  0  0
  1  2  1  0  0  0  0
  2  3  1  0  0  0  0
  3  4  1  0  0  0  0
  4  5  1  0  0  0  0
  5  6  1  0  0  0  0
  6  7  1  0  0  0  0
  7  8  1  0  0  0  0
  8  9  1  0  0  0  0
  9 10  1  0  0  0  0
 10 11  1  0  0  0  0
 11 12  1  0  0  0  0
 12 13  1  0  0  0  0
 13 14  1  0  0  0  0
M  END
>  <CHROM.1>
178.84721330,174.79504793,-158.34467139,-111.53826590,-65.50995568,178.66528889
-68.68025606,-167.96688277,85.51303869,-174.85192045,179.30037068,14.84014593
9.78508714,14.79799034,1.11793214,-0.45582832,-0.54816796

>  <Name>
ligand

>  <RI>
0

>  <Rbt.Current_Directory>
/home/itssahil/PROJECTS/Mol_Feturizer/New_Systems/rnas/2O3Y

>  <Rbt.Executable>
rbdock ($Id: //depot/dev/client3/rdock/2013.1/src/exe/rbdock.cxx#4 $)

>  <Rbt.Library>
libRbt.so (2013.1, Build901 2013/11/27)

>  <Rbt.Parameter_File>
/export/apps/rDock/src/rDock_2013.1_src/data/scripts/dock_solv.prm

>  <Rbt.Receptor>
prm/pocket_docking_7.prm

>  <SCORE>
-11.3788

>  <SCORE.INTER>
-1.30174

>  <SCORE.INTER.CONST>
1

>  <SCORE.INTER.POLAR>
0

>  <SCORE.INTER.ROT>
11

>  <SCORE.INTER.SOLV>
11.1615

>  <SCORE.INTER.VDW>
-15.5217

>  <SCORE.INTER.norm>
-0.0929813

>  <SCORE.INTRA>
-10.077

>  <SCORE.INTRA.DIHEDRAL>
-21.4493

>  <SCORE.INTRA.DIHEDRAL.0>
24.1231

>  <SCORE.INTRA.POLAR>
0

>  <SCORE.INTRA.POLAR.0>
0

>  <SCORE.INTRA.REPUL>
0

>  <SCORE.INTRA.REPUL.0>
0

>  <SCORE.INTRA.SOLV>
-0.0955128

>  <SCORE.INTRA.SOLV.lig_0>
-48.2216

>  <SCORE.INTRA.VDW>
0.695364

>  <SCORE.INTRA.VDW.0>
-1.3967

>  <SCORE.INTRA.norm>
-0.719788

>  <SCORE.RESTR>
0

>  <SCORE.RESTR.CAVITY>
0

>  <SCORE.RESTR.norm>
0

>  <SCORE.SYSTEM>
0

>  <SCORE.SYSTEM.CONST>
0

>  <SCORE.SYSTEM.DIHEDRAL>
0

>  <SCORE.SYSTEM.SOLV>
0

>  <SCORE.SYSTEM.norm>
0

>  <SCORE.heavy>
14

>  <SCORE.norm>
-0.812769

>  <RMSD>
5.618

$$$$
ligand
 OpenBabel11021811463D
libRbt.so/2013.1/901 2013/11/27
 14 13  0  0  0  0  0  0  0  0999 V2000
   20.5913   11.1959    9.5979 N   0  0  0  0  0  0  0  0  0  0  0  0
   19.7216   11.1549   10.7812 C   0  0  0  0  0  0  0  0  0  0  0  0
   19.2949    9.7145   11.0444 C   0  0  0  0  0  0  0  0  0  0  0  0
   18.1802    9.7180   12.0776 C   0  0  0  0  0  0  0  0  0  0  0  0
   18.7213   10.1786   13.3613 N   0  0  0  0  0  0  0  0  0  0  0  0
   17.5702   10.5047   14.2212 C   0  0  0  0  0  0  0  0  0  0  0  0
   17.0462    9.2454   14.9208 C   0  0  0  0  0  0  0  0  0  0  0  0
   16.0211    9.6746   15.9812 C   0  0  0  0  0  0  0  0  0  0  0  0
   15.4335    8.4890   16.6260 C   0  0  0  0  0  0  0  0  0  0  0  0
   14.7067    7.7309   15.5873 N   0  0  0  0  0  0  0  0  0  0  0  0
   13.8888    6.6048   16.2297 C   0  0  0  0  0  0  0  0  0  0  0  0
   12.9752    5.9657   15.1768 C   0  0  0  0  0  0  0  0  0  0  0  0
   12.0630    5.0047   15.8263 C   0  0  0  0  0  0  0  0  0  0  0  0
   11.1063    5.7310   16.6887 N   0  0  0  0  0  0  0  0  0  0  0  0
  1  2  1  0  0  0  0
  2  3  1  0  0  0  0
  3  4  1  0  0  0  0
  4  5  1  0  0  0  0
  5  6  1  0  0  0  0
  6  7  1  0  0  0  0
  7  8  1  0  0  0  0
  8  9  1  0  0  0  0
  9 10  1  0  0  0  0
 10 11  1  0  0  0  0
 11 12  1  0  0  0  0
 12 13  1  0  0  0  0
 13 14  1  0  0  0  0
M  END
>  <CHROM.1>
-168.38829247,-66.80824472,165.41537127,84.40362611,170.16419780,176.75070242
-63.16078671,-171.13451653,171.32278388,-172.65534019,67.90211531,16.23715216
8.63660379,14.15159873,0.30982795,-0.72461546,-1.95550051

>  <Name>
ligand

>  <RI>
0

>  <Rbt.Current_Directory>
/home/itssahil/PROJECTS/Mol_Feturizer/New_Systems/rnas/2O3Y

>  <Rbt.Executable>
rbdock ($Id: //depot/dev/client3/rdock/2013.1/src/exe/rbdock.cxx#4 $)

>  <Rbt.Library>
libRbt.so (2013.1, Build901 2013/11/27)

>  <Rbt.Parameter_File>
/export/apps/rDock/src/rDock_2013.1_src/data/scripts/dock_solv.prm

>  <Rbt.Receptor>
prm/pocket_docking_8.prm

>  <SCORE>
-11.3457

>  <SCORE.INTER>
-2.06511

>  <SCORE.INTER.CONST>
1

>  <SCORE.INTER.POLAR>
0

>  <SCORE.INTER.ROT>
11

>  <SCORE.INTER.SOLV>
9.22571

>  <SCORE.INTER.VDW>
-15.3853

>  <SCORE.INTER.norm>
-0.147508

>  <SCORE.INTRA>
-9.28055

>  <SCORE.INTRA.DIHEDRAL>
-21.863

>  <SCORE.INTRA.DIHEDRAL.0>
24.1231

>  <SCORE.INTRA.POLAR>
0

>  <SCORE.INTRA.POLAR.0>
0

>  <SCORE.INTRA.REPUL>
0

>  <SCORE.INTRA.REPUL.0>
0

>  <SCORE.INTRA.SOLV>
0.761415

>  <SCORE.INTRA.SOLV.lig_0>
-48.2216

>  <SCORE.INTRA.VDW>
1.27023

>  <SCORE.INTRA.VDW.0>
-1.3967

>  <SCORE.INTRA.norm>
-0.662896

>  <SCORE.RESTR>
0

>  <SCORE.RESTR.CAVITY>
0

>  <SCORE.RESTR.norm>
0

>  <SCORE.SYSTEM>
0

>  <SCORE.SYSTEM.CONST>
0

>  <SCORE.SYSTEM.DIHEDRAL>
0

>  <SCORE.SYSTEM.SOLV>
0

>  <SCORE.SYSTEM.norm>
0

>  <SCORE.heavy>
14

>  <SCORE.norm>
-0.810404

>  <RMSD>
5.628

$$$$
ligand
 OpenBabel11021811463D
libRbt.so/2013.1/901 2013/11/27
 14 13  0  0  0  0  0  0  0  0999 V2000
   20.3776   11.5233    9.3139 N   0  0  0  0  0  0  0  0  0  0  0  0
   19.8569   11.5096   10.6875 C   0  0  0  0  0  0  0  0  0  0  0  0
   19.9817   10.1017   11.2606 C   0  0  0  0  0  0  0  0  0  0  0  0
   19.4604   10.1092   12.6882 C   0  0  0  0  0  0  0  0  0  0  0  0
   18.0085   10.3199   12.6647 N   0  0  0  0  0  0  0  0  0  0  0  0
   17.5692   10.4450   14.0654 C   0  0  0  0  0  0  0  0  0  0  0  0
   16.9290    9.1385   14.5483 C   0  0  0  0  0  0  0  0  0  0  0  0
   16.4067    9.3569   15.9763 C   0  0  0  0  0  0  0  0  0  0  0  0
   15.8115    8.1137   16.4929 C   0  0  0  0  0  0  0  0  0  0  0  0
   14.6693    7.7706   15.6215 N   0  0  0  0  0  0  0  0  0  0  0  0
   13.9045    6.5741   16.1989 C   0  0  0  0  0  0  0  0  0  0  0  0
   12.9649    5.9991   15.1321 C   0  0  0  0  0  0  0  0  0  0  0  0
   12.0722    4.9957   15.7433 C   0  0  0  0  0  0  0  0  0  0  0  0
   11.1737    5.6548   16.7153 N   0  0  0  0  0  0  0  0  0  0  0  0
  1  2  1  0  0  0  0
  2  3  1  0  0  0  0
  3  4  1  0  0  0  0
  4  5  1  0  0  0  0
  5  6  1  0  0  0  0
  6  7  1  0  0  0  0
  7  8  1  0  0  0  0
  8  9  1  0  0  0  0
  9 10  1  0  0  0  0
 10 11  1  0  0  0  0
 11 12  1  0  0  0  0
 12 13  1  0  0  0  0
 13 14  1  0  0  0  0
M  END
>  <CHROM.1>
179.08718022,68.82555856,-174.84206439,-101.80067344,-176.22545074,-178.62151081
-61.86404696,-173.46545265,-165.38020307,-170.80791563,65.62552463,16.37055758
8.68652276,14.07941503,0.42283745,-0.68472204,-1.75476309

>  <Name>
ligand

>  <RI>
0

>  <Rbt.Current_Directory>
/home/itssahil/PROJECTS/Mol_Feturizer/New_Systems/rnas/2O3Y

>  <Rbt.Executable>
rbdock ($Id: //depot/dev/client3/rdock/2013.1/src/exe/rbdock.cxx#4 $)

>  <Rbt.Library>
libRbt.so (2013.1, Build901 2013/11/27)

>  <Rbt.Parameter_File>
/export/apps/rDock/src/rDock_2013.1_src/data/scripts/dock_solv.prm

>  <Rbt.Receptor>
prm/pocket_docking_8.prm

>  <SCORE>
-12.7753

>  <SCORE.INTER>
-3.05599

>  <SCORE.INTER.CONST>
1

>  <SCORE.INTER.POLAR>
0

>  <SCORE.INTER.ROT>
11

>  <SCORE.INTER.SOLV>
8.23831

>  <SCORE.INTER.VDW>
-15.7168

>  <SCORE.INTER.norm>
-0.218285

>  <SCORE.INTRA>
-9.71934

>  <SCORE.INTRA.DIHEDRAL>
-22.1517

>  <SCORE.INTRA.DIHEDRAL.0>
24.1231

>  <SCORE.INTRA.POLAR>
0

>  <SCORE.INTRA.POLAR.0>
0

>  <SCORE.INTRA.REPUL>
0

>  <SCORE.INTRA.REPUL.0>
0

>  <SCORE.INTRA.SOLV>
0.840809

>  <SCORE.INTRA.SOLV.lig_0>
-48.2216

>  <SCORE.INTRA.VDW>
0.936129

>  <SCORE.INTRA.VDW.0>
-1.3967

>  <SCORE.INTRA.norm>
-0.694239

>  <SCORE.RESTR>
0

>  <SCORE.RESTR.CAVITY>
0

>  <SCORE.RESTR.norm>
0

>  <SCORE.SYSTEM>
0

>  <SCORE.SYSTEM.CONST>
0

>  <SCORE.SYSTEM.DIHEDRAL>
0

>  <SCORE.SYSTEM.SOLV>
0

>  <SCORE.SYSTEM.norm>
0

>  <SCORE.heavy>
14

>  <SCORE.norm>
-0.912523

>  <RMSD>
5.641

$$$$
ligand
 OpenBabel11021811463D
libRbt.so/2013.1/901 2013/11/27
 14 13  0  0  0  0  0  0  0  0999 V2000
   10.4709    5.0801   15.5840 N   0  0  0  0  0  0  0  0  0  0  0  0
   11.9330    5.0618   15.7249 C   0  0  0  0  0  0  0  0  0  0  0  0
   12.4818    6.4627   15.4750 C   0  0  0  0  0  0  0  0  0  0  0  0
   13.9769    6.4558   15.7484 C   0  0  0  0  0  0  0  0  0  0  0  0
   14.4987    7.8168   15.5805 N   0  0  0  0  0  0  0  0  0  0  0  0
   15.7323    7.9064   16.3811 C   0  0  0  0  0  0  0  0  0  0  0  0
   16.1410    9.3705   16.5795 C   0  0  0  0  0  0  0  0  0  0  0  0
   16.4730    9.9686   15.2041 C   0  0  0  0  0  0  0  0  0  0  0  0
   16.8653   11.3800   15.3476 C   0  0  0  0  0  0  0  0  0  0  0  0
   17.0350   11.9358   13.9896 N   0  0  0  0  0  0  0  0  0  0  0  0
   15.9983   13.0361   13.7354 C   0  0  0  0  0  0  0  0  0  0  0  0
   16.5017   13.9738   12.6314 C   0  0  0  0  0  0  0  0  0  0  0  0
   15.5846   15.1220   12.4967 C   0  0  0  0  0  0  0  0  0  0  0  0
   16.0165   15.9745   11.3683 N   0  0  0  0  0  0  0  0  0  0  0  0
  1  2  1  0  0  0  0
  2  3  1  0  0  0  0
  3  4  1  0  0  0  0
  4  5  1  0  0  0  0
  5  6  1  0  0  0  0
  6  7  1  0  0  0  0
  7  8  1  0  0  0  0
  8  9  1  0  0  0  0
  9 10  1  0  0  0  0
 10 11  1  0  0  0  0
 11 12  1  0  0  0  0
 12 13  1  0  0  0  0
 13 14  1  0  0  0  0
M  END
>  <CHROM.1>
174.88658374,-176.96590248,155.97838793,-164.61676205,-63.81788886,179.71591837
-174.23725339,115.67842641,156.99829202,-173.27298390,-175.96521543,14.97941209
9.96739931,14.70354993,2.01190133,0.44987574,2.59108793

>  <Name>
ligand

>  <RI>
0

>  <Rbt.Current_Directory>
/home/itssahil/PROJECTS/Mol_Feturizer/New_Systems/rnas/2O3Y

>  <Rbt.Executable>
rbdock ($Id: //depot/dev/client3/rdock/2013.1/src/exe/rbdock.cxx#4 $)

>  <Rbt.Library>
libRbt.so (2013.1, Build901 2013/11/27)

>  <Rbt.Parameter_File>
/export/apps/rDock/src/rDock_2013.1_src/data/scripts/dock_solv.prm

>  <Rbt.Receptor>
prm/pocket_docking_8.prm

>  <SCORE>
-11.1447

>  <SCORE.INTER>
-0.432161

>  <SCORE.INTER.CONST>
1

>  <SCORE.INTER.POLAR>
0

>  <SCORE.INTER.ROT>
11

>  <SCORE.INTER.SOLV>
13.648

>  <SCORE.INTER.VDW>
-15.7708

>  <SCORE.INTER.norm>
-0.0308686

>  <SCORE.INTRA>
-10.7125

>  <SCORE.INTRA.DIHEDRAL>
-21.4099

>  <SCORE.INTRA.DIHEDRAL.0>
24.1231

>  <SCORE.INTRA.POLAR>
0

>  <SCORE.INTRA.POLAR.0>
0

>  <SCORE.INTRA.REPUL>
0

>  <SCORE.INTRA.REPUL.0>
0

>  <SCORE.INTRA.SOLV>
-0.555336

>  <SCORE.INTRA.SOLV.lig_0>
-48.2216

>  <SCORE.INTRA.VDW>
0.270093

>  <SCORE.INTRA.VDW.0>
-1.3967

>  <SCORE.INTRA.norm>
-0.765181

>  <SCORE.RESTR>
0

>  <SCORE.RESTR.CAVITY>
0

>  <SCORE.RESTR.norm>
0

>  <SCORE.SYSTEM>
0

>  <SCORE.SYSTEM.CONST>
0

>  <SCORE.SYSTEM.DIHEDRAL>
0

>  <SCORE.SYSTEM.SOLV>
0

>  <SCORE.SYSTEM.norm>
0

>  <SCORE.heavy>
14

>  <SCORE.norm>
-0.79605

>  <RMSD>
5.642

$$$$
ligand
 OpenBabel11021811463D
libRbt.so/2013.1/901 2013/11/27
 14 13  0  0  0  0  0  0  0  0999 V2000
   10.7687    7.0497   16.3395 N   0  0  0  0  0  0  0  0  0  0  0  0
   11.5534    7.8681   17.2735 C   0  0  0  0  0  0  0  0  0  0  0  0
   10.6143    8.7762   18.0606 C   0  0  0  0  0  0  0  0  0  0  0  0
   11.4403    9.6144   19.0225 C   0  0  0  0  0  0  0  0  0  0  0  0
   12.2538   10.5617   18.2519 N   0  0  0  0  0  0  0  0  0  0  0  0
   13.4619   10.8386   19.0485 C   0  0  0  0  0  0  0  0  0  0  0  0
   14.5375   11.5045   18.1828 C   0  0  0  0  0  0  0  0  0  0  0  0
   14.9409   10.5208   17.0742 C   0  0  0  0  0  0  0  0  0  0  0  0
   15.9474   11.1358   16.1937 C   0  0  0  0  0  0  0  0  0  0  0  0
   16.3215   10.1332   15.1756 N   0  0  0  0  0  0  0  0  0  0  0  0
   17.4096   10.6959   14.2541 C   0  0  0  0  0  0  0  0  0  0  0  0
   17.8945    9.5988   13.2987 C   0  0  0  0  0  0  0  0  0  0  0  0
   18.9657   10.1295   12.4336 C   0  0  0  0  0  0  0  0  0  0  0  0
   18.3905   11.0726   11.4506 N   0  0  0  0  0  0  0  0  0  0  0  0
  1  2  1  0  0  0  0
  2  3  1  0  0  0  0
  3  4  1  0  0  0  0
  4  5  1  0  0  0  0
  5  6  1  0  0  0  0
  6  7  1  0  0  0  0
  7  8  1  0  0  0  0
  8  9  1  0  0  0  0
  9 10  1  0  0  0  0
 10 11  1  0  0  0  0
 11 12  1  0  0  0  0
 12 13  1  0  0  0  0
 13 14  1  0  0  0  0
M  END
>  <CHROM.1>
179.93616630,68.24169773,-151.72010042,164.64716944,-62.85706671,178.39501796
178.44465896,-177.91003836,174.02401863,-178.59640791,-71.66285813,14.60720891
9.96438641,16.14746960,2.73834239,0.56559701,0.92633217

>  <Name>
ligand

>  <RI>
0

>  <Rbt.Current_Directory>
/home/itssahil/PROJECTS/Mol_Feturizer/New_Systems/rnas/2O3Y

>  <Rbt.Executable>
rbdock ($Id: //depot/dev/client3/rdock/2013.1/src/exe/rbdock.cxx#4 $)

>  <Rbt.Library>
libRbt.so (2013.1, Build901 2013/11/27)

>  <Rbt.Parameter_File>
/export/apps/rDock/src/rDock_2013.1_src/data/scripts/dock_solv.prm

>  <Rbt.Receptor>
prm/pocket_docking_8.prm

>  <SCORE>
-8.88456

>  <SCORE.INTER>
1.76735

>  <SCORE.INTER.CONST>
1

>  <SCORE.INTER.POLAR>
0

>  <SCORE.INTER.ROT>
11

>  <SCORE.INTER.SOLV>
5.43203

>  <SCORE.INTER.VDW>
-11.5658

>  <SCORE.INTER.norm>
0.126239

>  <SCORE.INTRA>
-10.6519

>  <SCORE.INTRA.DIHEDRAL>
-22.5506

>  <SCORE.INTRA.DIHEDRAL.0>
24.1231

>  <SCORE.INTRA.POLAR>
0

>  <SCORE.INTRA.POLAR.0>
0

>  <SCORE.INTRA.REPUL>
0

>  <SCORE.INTRA.REPUL.0>
0

>  <SCORE.INTRA.SOLV>
0.606793

>  <SCORE.INTRA.SOLV.lig_0>
-48.2216

>  <SCORE.INTRA.VDW>
0.32

>  <SCORE.INTRA.VDW.0>
-1.3967

>  <SCORE.INTRA.norm>
-0.760851

>  <SCORE.RESTR>
0

>  <SCORE.RESTR.CAVITY>
0

>  <SCORE.RESTR.norm>
0

>  <SCORE.SYSTEM>
0

>  <SCORE.SYSTEM.CONST>
0

>  <SCORE.SYSTEM.DIHEDRAL>
0

>  <SCORE.SYSTEM.SOLV>
0

>  <SCORE.SYSTEM.norm>
0

>  <SCORE.heavy>
14

>  <SCORE.norm>
-0.634612

>  <RMSD>
5.651

$$$$
ligand
 OpenBabel11021811463D
libRbt.so/2013.1/901 2013/11/27
 14 13  0  0  0  0  0  0  0  0999 V2000
   12.1223    6.1414   19.0992 N   0  0  0  0  0  0  0  0  0  0  0  0
   11.6171    5.9847   17.7286 C   0  0  0  0  0  0  0  0  0  0  0  0
   12.7513    5.5156   16.8232 C   0  0  0  0  0  0  0  0  0  0  0  0
   12.2337    5.4351   15.3965 C   0  0  0  0  0  0  0  0  0  0  0  0
   12.0232    6.7952   14.8879 N   0  0  0  0  0  0  0  0  0  0  0  0
   10.5727    6.9610   14.6904 C   0  0  0  0  0  0  0  0  0  0  0  0
   10.2887    7.7078   13.3821 C   0  0  0  0  0  0  0  0  0  0  0  0
   10.7696    9.1580   13.5411 C   0  0  0  0  0  0  0  0  0  0  0  0
   10.3242    9.9671   12.3949 C   0  0  0  0  0  0  0  0  0  0  0  0
   11.0115    9.4533   11.1927 N   0  0  0  0  0  0  0  0  0  0  0  0
   10.9826   10.5046   10.0774 C   0  0  0  0  0  0  0  0  0  0  0  0
   12.2293   11.3925   10.1731 C   0  0  0  0  0  0  0  0  0  0  0  0
   12.2380   12.3605    9.0595 C   0  0  0  0  0  0  0  0  0  0  0  0
   13.4182   13.2438    9.1767 N   0  0  0  0  0  0  0  0  0  0  0  0
  1  2  1  0  0  0  0
  2  3  1  0  0  0  0
  3  4  1  0  0  0  0
  4  5  1  0  0  0  0
  5  6  1  0  0  0  0
  6  7  1  0  0  0  0
  7  8  1  0  0  0  0
  8  9  1  0  0  0  0
  9 10  1  0  0  0  0
 10 11  1  0  0  0  0
 11 12  1  0  0  0  0
 12 13  1  0  0  0  0
 13 14  1  0  0  0  0
M  END
>  <CHROM.1>
-176.79422092,71.10509053,-113.47583356,-138.56926311,-68.47303844,-170.93960753
-65.54276789,-160.79762991,90.64912729,177.12168099,178.23598697,11.61280348
8.61565210,13.40159193,-1.58587563,-0.47425509,-0.90270890

>  <Name>
ligand

>  <RI>
0

>  <Rbt.Current_Directory>
/home/itssahil/PROJECTS/Mol_Feturizer/New_Systems/rnas/2O3Y

>  <Rbt.Executable>
rbdock ($Id: //depot/dev/client3/rdock/2013.1/src/exe/rbdock.cxx#4 $)

>  <Rbt.Library>
libRbt.so (2013.1, Build901 2013/11/27)

>  <Rbt.Parameter_File>
/export/apps/rDock/src/rDock_2013.1_src/data/scripts/dock_solv.prm

>  <Rbt.Receptor>
prm/pocket_docking_8.prm

>  <SCORE>
-8.40315

>  <SCORE.INTER>
0.51913

>  <SCORE.INTER.CONST>
1

>  <SCORE.INTER.POLAR>
0

>  <SCORE.INTER.ROT>
11

>  <SCORE.INTER.SOLV>
6.19879

>  <SCORE.INTER.VDW>
-12.6535

>  <SCORE.INTER.norm>
0.0370807

>  <SCORE.INTRA>
-8.92228

>  <SCORE.INTRA.DIHEDRAL>
-19.8648

>  <SCORE.INTRA.DIHEDRAL.0>
24.1231

>  <SCORE.INTRA.POLAR>
0

>  <SCORE.INTRA.POLAR.0>
0

>  <SCORE.INTRA.REPUL>
0

>  <SCORE.INTRA.REPUL.0>
0

>  <SCORE.INTRA.SOLV>
0.30739

>  <SCORE.INTRA.SOLV.lig_0>
-48.2216

>  <SCORE.INTRA.VDW>
0.856434

>  <SCORE.INTRA.VDW.0>
-1.3967

>  <SCORE.INTRA.norm>
-0.637306

>  <SCORE.RESTR>
0

>  <SCORE.RESTR.CAVITY>
0

>  <SCORE.RESTR.norm>
0

>  <SCORE.SYSTEM>
0

>  <SCORE.SYSTEM.CONST>
0

>  <SCORE.SYSTEM.DIHEDRAL>
0

>  <SCORE.SYSTEM.SOLV>
0

>  <SCORE.SYSTEM.norm>
0

>  <SCORE.heavy>
14

>  <SCORE.norm>
-0.600225

>  <RMSD>
5.653

$$$$
ligand
 OpenBabel11021811463D
libRbt.so/2013.1/901 2013/11/27
 14 13  0  0  0  0  0  0  0  0999 V2000
   17.9101   14.4311    7.3547 N   0  0  0  0  0  0  0  0  0  0  0  0
   19.3051   14.8254    7.5923 C   0  0  0  0  0  0  0  0  0  0  0  0
   19.7579   14.2879    8.9460 C   0  0  0  0  0  0  0  0  0  0  0  0
   19.7888   12.7697    8.8813 C   0  0  0  0  0  0  0  0  0  0  0  0
   20.1686   12.2439   10.1974 N   0  0  0  0  0  0  0  0  0  0  0  0
   20.1759   10.7747   10.0880 C   0  0  0  0  0  0  0  0  0  0  0  0
   20.0106   10.1304   11.4691 C   0  0  0  0  0  0  0  0  0  0  0  0
   18.5951   10.4401   11.9789 C   0  0  0  0  0  0  0  0  0  0  0  0
   18.4300    9.9351   13.3516 C   0  0  0  0  0  0  0  0  0  0  0  0
   17.0942   10.3536   13.8230 N   0  0  0  0  0  0  0  0  0  0  0  0
   16.9757   10.1372   15.3359 C   0  0  0  0  0  0  0  0  0  0  0  0
   15.8842    9.0996   15.6246 C   0  0  0  0  0  0  0  0  0  0  0  0
   15.7334    8.9276   17.0824 C   0  0  0  0  0  0  0  0  0  0  0  0
   14.6074    8.0109   17.3619 N   0  0  0  0  0  0  0  0  0  0  0  0
  1  2  1  0  0  0  0
  2  3  1  0  0  0  0
  3  4  1  0  0  0  0
  4  5  1  0  0  0  0
  5  6  1  0  0  0  0
  6  7  1  0  0  0  0
  7  8  1  0  0  0  0
  8  9  1  0  0  0  0
  9 10  1  0  0  0  0
 10 11  1  0  0  0  0
 11 12  1  0  0  0  0
 12 13  1  0  0  0  0
 13 14  1  0  0  0  0
M  END
>  <CHROM.1>
66.13620395,-177.61851593,179.62143859,-157.66622083,67.47144701,-175.31307632
175.63772453,-167.43353194,-116.61593588,-177.87178007,175.40680207,18.17437344
11.16903503,12.07760805,1.14697427,0.47467286,-0.82745596

>  <Name>
ligand

>  <RI>
0

>  <Rbt.Current_Directory>
/home/itssahil/PROJECTS/Mol_Feturizer/New_Systems/rnas/2O3Y

>  <Rbt.Executable>
rbdock ($Id: //depot/dev/client3/rdock/2013.1/src/exe/rbdock.cxx#4 $)

>  <Rbt.Library>
libRbt.so (2013.1, Build901 2013/11/27)

>  <Rbt.Parameter_File>
/export/apps/rDock/src/rDock_2013.1_src/data/scripts/dock_solv.prm

>  <Rbt.Receptor>
prm/pocket_docking_5.prm

>  <SCORE>
-7.16748

>  <SCORE.INTER>
3.24594

>  <SCORE.INTER.CONST>
1

>  <SCORE.INTER.POLAR>
0

>  <SCORE.INTER.ROT>
11

>  <SCORE.INTER.SOLV>
6.40981

>  <SCORE.INTER.VDW>
-10.906

>  <SCORE.INTER.norm>
0.231853

>  <SCORE.INTRA>
-10.4134

>  <SCORE.INTRA.DIHEDRAL>
-21.8105

>  <SCORE.INTRA.DIHEDRAL.0>
24.1231

>  <SCORE.INTRA.POLAR>
0

>  <SCORE.INTRA.POLAR.0>
0

>  <SCORE.INTRA.REPUL>
0

>  <SCORE.INTRA.REPUL.0>
0

>  <SCORE.INTRA.SOLV>
0.313172

>  <SCORE.INTRA.SOLV.lig_0>
-48.2216

>  <SCORE.INTRA.VDW>
0.335226

>  <SCORE.INTRA.VDW.0>
-1.3967

>  <SCORE.INTRA.norm>
-0.743815

>  <SCORE.RESTR>
0

>  <SCORE.RESTR.CAVITY>
0

>  <SCORE.RESTR.norm>
0

>  <SCORE.SYSTEM>
0

>  <SCORE.SYSTEM.CONST>
0

>  <SCORE.SYSTEM.DIHEDRAL>
0

>  <SCORE.SYSTEM.SOLV>
0

>  <SCORE.SYSTEM.norm>
0

>  <SCORE.heavy>
14

>  <SCORE.norm>
-0.511963

>  <RMSD>
5.669

$$$$
ligand
 OpenBabel11021811463D
libRbt.so/2013.1/901 2013/11/27
 14 13  0  0  0  0  0  0  0  0999 V2000
   12.3135    6.5559   17.5809 N   0  0  0  0  0  0  0  0  0  0  0  0
   12.5776    5.3483   16.7871 C   0  0  0  0  0  0  0  0  0  0  0  0
   12.6751    5.7250   15.3124 C   0  0  0  0  0  0  0  0  0  0  0  0
   14.0116    6.4076   15.0717 C   0  0  0  0  0  0  0  0  0  0  0  0
   14.0053    7.7160   15.7359 N   0  0  0  0  0  0  0  0  0  0  0  0
   15.3588    8.2793   15.5894 C   0  0  0  0  0  0  0  0  0  0  0  0
   15.4543    9.6409   16.2872 C   0  0  0  0  0  0  0  0  0  0  0  0
   16.8789   10.1821   16.0943 C   0  0  0  0  0  0  0  0  0  0  0  0
   17.0313   10.7334   14.7380 C   0  0  0  0  0  0  0  0  0  0  0  0
   16.1935   11.9468   14.6532 N   0  0  0  0  0  0  0  0  0  0  0  0
   16.3127   12.5754   13.2602 C   0  0  0  0  0  0  0  0  0  0  0  0
   15.4329   13.8290   13.1829 C   0  0  0  0  0  0  0  0  0  0  0  0
   14.0118   13.4478   13.2953 C   0  0  0  0  0  0  0  0  0  0  0  0
   13.1580   14.6274   13.0381 N   0  0  0  0  0  0  0  0  0  0  0  0
  1  2  1  0  0  0  0
  2  3  1  0  0  0  0
  3  4  1  0  0  0  0
  4  5  1  0  0  0  0
  5  6  1  0  0  0  0
  6  7  1  0  0  0  0
  7  8  1  0  0  0  0
  8  9  1  0  0  0  0
  9 10  1  0  0  0  0
 10 11  1  0  0  0  0
 11 12  1  0  0  0  0
 12 13  1  0  0  0  0
 13 14  1  0  0  0  0
M  END
>  <CHROM.1>
74.98890406,-68.95087275,174.51414546,-178.65942867,-179.63281426,77.82317462
68.15507902,179.76827140,179.69357109,-65.78632917,-172.37783444,14.67281320
9.78660075,15.04468904,1.83216462,0.18599126,2.72245417

>  <Name>
ligand

>  <RI>
0

>  <Rbt.Current_Directory>
/home/itssahil/PROJECTS/Mol_Feturizer/New_Systems/rnas/2O3Y

>  <Rbt.Executable>
rbdock ($Id: //depot/dev/client3/rdock/2013.1/src/exe/rbdock.cxx#4 $)

>  <Rbt.Library>
libRbt.so (2013.1, Build901 2013/11/27)

>  <Rbt.Parameter_File>
/export/apps/rDock/src/rDock_2013.1_src/data/scripts/dock_solv.prm

>  <Rbt.Receptor>
prm/pocket_docking_6.prm

>  <SCORE>
-8.26093

>  <SCORE.INTER>
-0.306399

>  <SCORE.INTER.CONST>
1

>  <SCORE.INTER.POLAR>
0

>  <SCORE.INTER.ROT>
11

>  <SCORE.INTER.SOLV>
7.49497

>  <SCORE.INTER.VDW>
-13.6359

>  <SCORE.INTER.norm>
-0.0218856

>  <SCORE.INTRA>
-7.95453

>  <SCORE.INTRA.DIHEDRAL>
-21.1626

>  <SCORE.INTRA.DIHEDRAL.0>
24.1231

>  <SCORE.INTRA.POLAR>
0

>  <SCORE.INTRA.POLAR.0>
0

>  <SCORE.INTRA.REPUL>
0

>  <SCORE.INTRA.REPUL.0>
0

>  <SCORE.INTRA.SOLV>
3.20638

>  <SCORE.INTRA.SOLV.lig_0>
-48.2216

>  <SCORE.INTRA.VDW>
1.02358

>  <SCORE.INTRA.VDW.0>
-1.3967

>  <SCORE.INTRA.norm>
-0.568181

>  <SCORE.RESTR>
0

>  <SCORE.RESTR.CAVITY>
0

>  <SCORE.RESTR.norm>
0

>  <SCORE.SYSTEM>
0

>  <SCORE.SYSTEM.CONST>
0

>  <SCORE.SYSTEM.DIHEDRAL>
0

>  <SCORE.SYSTEM.SOLV>
0

>  <SCORE.SYSTEM.norm>
0

>  <SCORE.heavy>
14

>  <SCORE.norm>
-0.590067

>  <RMSD>
5.670

$$$$
ligand
 OpenBabel11021811463D
libRbt.so/2013.1/901 2013/11/27
 14 13  0  0  0  0  0  0  0  0999 V2000
   12.7639    6.3566   16.2415 N   0  0  0  0  0  0  0  0  0  0  0  0
   14.1381    6.8734   16.2937 C   0  0  0  0  0  0  0  0  0  0  0  0
   14.3620    7.8304   15.1274 C   0  0  0  0  0  0  0  0  0  0  0  0
   15.7922    8.3418   15.1850 C   0  0  0  0  0  0  0  0  0  0  0  0
   16.0145    9.2636   14.0653 N   0  0  0  0  0  0  0  0  0  0  0  0
   17.4403    9.6341   14.0898 C   0  0  0  0  0  0  0  0  0  0  0  0
   17.9743    9.8166   12.6645 C   0  0  0  0  0  0  0  0  0  0  0  0
   19.4829   10.0940   12.7470 C   0  0  0  0  0  0  0  0  0  0  0  0
   20.0487   10.2204   11.3941 C   0  0  0  0  0  0  0  0  0  0  0  0
   19.6115   11.5211   10.8477 N   0  0  0  0  0  0  0  0  0  0  0  0
   20.6890   12.0941    9.9201 C   0  0  0  0  0  0  0  0  0  0  0  0
   20.5369   13.6175    9.8319 C   0  0  0  0  0  0  0  0  0  0  0  0
   21.5491   14.1666    8.9092 C   0  0  0  0  0  0  0  0  0  0  0  0
   22.8998   13.9710    9.4783 N   0  0  0  0  0  0  0  0  0  0  0  0
  1  2  1  0  0  0  0
  2  3  1  0  0  0  0
  3  4  1  0  0  0  0
  4  5  1  0  0  0  0
  5  6  1  0  0  0  0
  6  7  1  0  0  0  0
  7  8  1  0  0  0  0
  8  9  1  0  0  0  0
  9 10  1  0  0  0  0
 10 11  1  0  0  0  0
 11 12  1  0  0  0  0
 12 13  1  0  0  0  0
 13 14  1  0  0  0  0
M  END
>  <CHROM.1>
-179.27238921,-179.99736580,-174.89201894,145.11588871,-175.70738108,177.64119811
73.43157418,147.46245565,-156.30983738,-178.39113307,-66.18775546,18.09318880
10.27150142,12.62823195,2.28812101,-0.15680406,2.47697076

>  <Name>
ligand

>  <RI>
0

>  <Rbt.Current_Directory>
/home/itssahil/PROJECTS/Mol_Feturizer/New_Systems/rnas/2O3Y

>  <Rbt.Executable>
rbdock ($Id: //depot/dev/client3/rdock/2013.1/src/exe/rbdock.cxx#4 $)

>  <Rbt.Library>
libRbt.so (2013.1, Build901 2013/11/27)

>  <Rbt.Parameter_File>
/export/apps/rDock/src/rDock_2013.1_src/data/scripts/dock_solv.prm

>  <Rbt.Receptor>
prm/pocket_docking_6.prm

>  <SCORE>
-8.31311

>  <SCORE.INTER>
1.87742

>  <SCORE.INTER.CONST>
1

>  <SCORE.INTER.POLAR>
0

>  <SCORE.INTER.ROT>
11

>  <SCORE.INTER.SOLV>
7.46091

>  <SCORE.INTER.VDW>
-12.1687

>  <SCORE.INTER.norm>
0.134102

>  <SCORE.INTRA>
-10.1905

>  <SCORE.INTRA.DIHEDRAL>
-21.3622

>  <SCORE.INTRA.DIHEDRAL.0>
24.1231

>  <SCORE.INTRA.POLAR>
0

>  <SCORE.INTRA.POLAR.0>
0

>  <SCORE.INTRA.REPUL>
0

>  <SCORE.INTRA.REPUL.0>
0

>  <SCORE.INTRA.SOLV>
0.204495

>  <SCORE.INTRA.SOLV.lig_0>
-48.2216

>  <SCORE.INTRA.VDW>
0.388311

>  <SCORE.INTRA.VDW.0>
-1.3967

>  <SCORE.INTRA.norm>
-0.727895

>  <SCORE.RESTR>
0

>  <SCORE.RESTR.CAVITY>
0

>  <SCORE.RESTR.norm>
0

>  <SCORE.SYSTEM>
0

>  <SCORE.SYSTEM.CONST>
0

>  <SCORE.SYSTEM.DIHEDRAL>
0

>  <SCORE.SYSTEM.SOLV>
0

>  <SCORE.SYSTEM.norm>
0

>  <SCORE.heavy>
14

>  <SCORE.norm>
-0.593793

>  <RMSD>
5.687

$$$$
ligand
 OpenBabel11021811463D
libRbt.so/2013.1/901 2013/11/27
 14 13  0  0  0  0  0  0  0  0999 V2000
   19.4012   10.3066    9.9575 N   0  0  0  0  0  0  0  0  0  0  0  0
   19.2253   10.5859   11.3890 C   0  0  0  0  0  0  0  0  0  0  0  0
   18.3282    9.5173   12.0052 C   0  0  0  0  0  0  0  0  0  0  0  0
   18.1933    9.7941   13.4936 C   0  0  0  0  0  0  0  0  0  0  0  0
   17.3151   10.9538   13.6854 N   0  0  0  0  0  0  0  0  0  0  0  0
   17.4941   11.4035   15.0769 C   0  0  0  0  0  0  0  0  0  0  0  0
   16.2637   11.0499   15.9202 C   0  0  0  0  0  0  0  0  0  0  0  0
   16.1876    9.5207   16.0437 C   0  0  0  0  0  0  0  0  0  0  0  0
   15.0016    9.1347   16.8254 C   0  0  0  0  0  0  0  0  0  0  0  0
   14.9269    7.6595   16.8230 N   0  0  0  0  0  0  0  0  0  0  0  0
   13.6331    7.1968   16.1434 C   0  0  0  0  0  0  0  0  0  0  0  0
   13.3786    5.7202   16.4698 C   0  0  0  0  0  0  0  0  0  0  0  0
   12.1424    5.2684   15.8027 C   0  0  0  0  0  0  0  0  0  0  0  0
   10.9730    5.9301   16.4202 N   0  0  0  0  0  0  0  0  0  0  0  0
  1  2  1  0  0  0  0
  2  3  1  0  0  0  0
  3  4  1  0  0  0  0
  4  5  1  0  0  0  0
  5  6  1  0  0  0  0
  6  7  1  0  0  0  0
  7  8  1  0  0  0  0
  8  9  1  0  0  0  0
  9 10  1  0  0  0  0
 10 11  1  0  0  0  0
 11 12  1  0  0  0  0
 12 13  1  0  0  0  0
 13 14  1  0  0  0  0
M  END
>  <CHROM.1>
178.16092570,73.59353731,-165.28016045,-107.36554451,67.21598855,-178.85593363
175.81562865,-117.96867211,-164.96853143,-179.29857854,-68.53014158,15.89038379
8.86016193,14.71849498,0.14108876,-0.78338496,-2.17212750

>  <Name>
ligand

>  <RI>
0

>  <Rbt.Current_Directory>
/home/itssahil/PROJECTS/Mol_Feturizer/New_Systems/rnas/2O3Y

>  <Rbt.Executable>
rbdock ($Id: //depot/dev/client3/rdock/2013.1/src/exe/rbdock.cxx#4 $)

>  <Rbt.Library>
libRbt.so (2013.1, Build901 2013/11/27)

>  <Rbt.Parameter_File>
/export/apps/rDock/src/rDock_2013.1_src/data/scripts/dock_solv.prm

>  <Rbt.Receptor>
prm/pocket_docking_7.prm

>  <SCORE>
-11.5531

>  <SCORE.INTER>
-2.35219

>  <SCORE.INTER.CONST>
1

>  <SCORE.INTER.POLAR>
0

>  <SCORE.INTER.ROT>
11

>  <SCORE.INTER.SOLV>
7.28631

>  <SCORE.INTER.VDW>
-14.9302

>  <SCORE.INTER.norm>
-0.168013

>  <SCORE.INTRA>
-9.20096

>  <SCORE.INTRA.DIHEDRAL>
-20.2855

>  <SCORE.INTRA.DIHEDRAL.0>
24.1231

>  <SCORE.INTRA.POLAR>
0

>  <SCORE.INTRA.POLAR.0>
0

>  <SCORE.INTRA.REPUL>
0

>  <SCORE.INTRA.REPUL.0>
0

>  <SCORE.INTRA.SOLV>
0.562716

>  <SCORE.INTRA.SOLV.lig_0>
-48.2216

>  <SCORE.INTRA.VDW>
0.660421

>  <SCORE.INTRA.VDW.0>
-1.3967

>  <SCORE.INTRA.norm>
-0.657211

>  <SCORE.RESTR>
0

>  <SCORE.RESTR.CAVITY>
0

>  <SCORE.RESTR.norm>
0

>  <SCORE.SYSTEM>
0

>  <SCORE.SYSTEM.CONST>
0

>  <SCORE.SYSTEM.DIHEDRAL>
0

>  <SCORE.SYSTEM.SOLV>
0

>  <SCORE.SYSTEM.norm>
0

>  <SCORE.heavy>
14

>  <SCORE.norm>
-0.825225

>  <RMSD>
5.732

$$$$
ligand
 OpenBabel11021811463D
libRbt.so/2013.1/901 2013/11/27
 14 13  0  0  0  0  0  0  0  0999 V2000
   10.0949   18.5146   14.3068 N   0  0  0  0  0  0  0  0  0  0  0  0
   10.7893   17.7784   15.3716 C   0  0  0  0  0  0  0  0  0  0  0  0
   10.5298   16.2848   15.2045 C   0  0  0  0  0  0  0  0  0  0  0  0
   11.2567   15.5376   16.3106 C   0  0  0  0  0  0  0  0  0  0  0  0
   11.0292   14.0978   16.1428 N   0  0  0  0  0  0  0  0  0  0  0  0
   11.5059   13.4409   17.3724 C   0  0  0  0  0  0  0  0  0  0  0  0
   12.4064   12.2480   17.0319 C   0  0  0  0  0  0  0  0  0  0  0  0
   12.8978   11.6244   18.3469 C   0  0  0  0  0  0  0  0  0  0  0  0
   13.8680   10.5534   18.0674 C   0  0  0  0  0  0  0  0  0  0  0  0
   15.1011   11.1898   17.5612 N   0  0  0  0  0  0  0  0  0  0  0  0
   15.2989   10.8544   16.0786 C   0  0  0  0  0  0  0  0  0  0  0  0
   16.7238   11.2268   15.6512 C   0  0  0  0  0  0  0  0  0  0  0  0
   16.8555   11.0939   14.1875 C   0  0  0  0  0  0  0  0  0  0  0  0
   16.6681    9.6800   13.7970 N   0  0  0  0  0  0  0  0  0  0  0  0
  1  2  1  0  0  0  0
  2  3  1  0  0  0  0
  3  4  1  0  0  0  0
  4  5  1  0  0  0  0
  5  6  1  0  0  0  0
  6  7  1  0  0  0  0
  7  8  1  0  0  0  0
  8  9  1  0  0  0  0
  9 10  1  0  0  0  0
 10 11  1  0  0  0  0
 11 12  1  0  0  0  0
 12 13  1  0  0  0  0
 13 14  1  0  0  0  0
M  END
>  <CHROM.1>
179.87400884,-179.08541367,-168.51222258,-131.66506460,178.71370401,-174.66760618
70.08387457,-111.22043474,-166.57868526,-171.65310564,-63.89305735,13.21610405
13.15167697,16.10242189,-2.54999134,-0.67831424,2.33251666

>  <Name>
ligand

>  <RI>
0

>  <Rbt.Current_Directory>
/home/itssahil/PROJECTS/Mol_Feturizer/New_Systems/rnas/2O3Y

>  <Rbt.Executable>
rbdock ($Id: //depot/dev/client3/rdock/2013.1/src/exe/rbdock.cxx#4 $)

>  <Rbt.Library>
libRbt.so (2013.1, Build901 2013/11/27)

>  <Rbt.Parameter_File>
/export/apps/rDock/src/rDock_2013.1_src/data/scripts/dock_solv.prm

>  <Rbt.Receptor>
prm/pocket_docking_5.prm

>  <SCORE>
-8.60974

>  <SCORE.INTER>
1.05537

>  <SCORE.INTER.CONST>
1

>  <SCORE.INTER.POLAR>
0

>  <SCORE.INTER.ROT>
11

>  <SCORE.INTER.SOLV>
6.60645

>  <SCORE.INTER.VDW>
-12.4319

>  <SCORE.INTER.norm>
0.0753835

>  <SCORE.INTRA>
-9.67172

>  <SCORE.INTRA.DIHEDRAL>
-20.826

>  <SCORE.INTRA.DIHEDRAL.0>
24.1231

>  <SCORE.INTRA.POLAR>
0

>  <SCORE.INTRA.POLAR.0>
0

>  <SCORE.INTRA.REPUL>
0

>  <SCORE.INTRA.REPUL.0>
0

>  <SCORE.INTRA.SOLV>
0.25432

>  <SCORE.INTRA.SOLV.lig_0>
-48.2216

>  <SCORE.INTRA.VDW>
0.614132

>  <SCORE.INTRA.VDW.0>
-1.3967

>  <SCORE.INTRA.norm>
-0.690837

>  <SCORE.RESTR>
0.00661195

>  <SCORE.RESTR.CAVITY>
0.00661195

>  <SCORE.RESTR.norm>
0.000472282

>  <SCORE.SYSTEM>
0

>  <SCORE.SYSTEM.CONST>
0

>  <SCORE.SYSTEM.DIHEDRAL>
0

>  <SCORE.SYSTEM.SOLV>
0

>  <SCORE.SYSTEM.norm>
0

>  <SCORE.heavy>
14

>  <SCORE.norm>
-0.614981

>  <RMSD>
5.752

$$$$
ligand
 OpenBabel11021811463D
libRbt.so/2013.1/901 2013/11/27
 14 13  0  0  0  0  0  0  0  0999 V2000
   15.5926   14.2526   12.1517 N   0  0  0  0  0  0  0  0  0  0  0  0
   16.4382   13.4834   13.0744 C   0  0  0  0  0  0  0  0  0  0  0  0
   15.5781   12.4683   13.8200 C   0  0  0  0  0  0  0  0  0  0  0  0
   16.4775   11.6337   14.7170 C   0  0  0  0  0  0  0  0  0  0  0  0
   15.6734   10.5862   15.3567 N   0  0  0  0  0  0  0  0  0  0  0  0
   16.6091    9.7055   16.0774 C   0  0  0  0  0  0  0  0  0  0  0  0
   15.9398    8.3682   16.4142 C   0  0  0  0  0  0  0  0  0  0  0  0
   14.8010    8.6365   17.4095 C   0  0  0  0  0  0  0  0  0  0  0  0
   14.1331    7.3743   17.7663 C   0  0  0  0  0  0  0  0  0  0  0  0
   13.4438    6.8776   16.5581 N   0  0  0  0  0  0  0  0  0  0  0  0
   12.9530    5.4427   16.7816 C   0  0  0  0  0  0  0  0  0  0  0  0
   12.0865    5.0032   15.5951 C   0  0  0  0  0  0  0  0  0  0  0  0
   10.8160    5.7536   15.6013 C   0  0  0  0  0  0  0  0  0  0  0  0
   11.0753    7.1744   15.2838 N   0  0  0  0  0  0  0  0  0  0  0  0
  1  2  1  0  0  0  0
  2  3  1  0  0  0  0
  3  4  1  0  0  0  0
  4  5  1  0  0  0  0
  5  6  1  0  0  0  0
  6  7  1  0  0  0  0
  7  8  1  0  0  0  0
  8  9  1  0  0  0  0
  9 10  1  0  0  0  0
 10 11  1  0  0  0  0
 11 12  1  0  0  0  0
 12 13  1  0  0  0  0
 13 14  1  0  0  0  0
M  END
>  <CHROM.1>
177.14264467,-175.56950200,173.06326594,-162.77031904,-65.50360989,-179.72034280
-67.22809377,169.27166675,172.77812758,-69.30175358,68.69908270,14.40143254
9.05402201,15.47220255,1.00485444,-0.54376226,-0.69339195

>  <Name>
ligand

>  <RI>
0

>  <Rbt.Current_Directory>
/home/itssahil/PROJECTS/Mol_Feturizer/New_Systems/rnas/2O3Y

>  <Rbt.Executable>
rbdock ($Id: //depot/dev/client3/rdock/2013.1/src/exe/rbdock.cxx#4 $)

>  <Rbt.Library>
libRbt.so (2013.1, Build901 2013/11/27)

>  <Rbt.Parameter_File>
/export/apps/rDock/src/rDock_2013.1_src/data/scripts/dock_solv.prm

>  <Rbt.Receptor>
prm/pocket_docking_6.prm

>  <SCORE>
-10.7267

>  <SCORE.INTER>
-1.56045

>  <SCORE.INTER.CONST>
1

>  <SCORE.INTER.POLAR>
0

>  <SCORE.INTER.ROT>
11

>  <SCORE.INTER.SOLV>
7.1973

>  <SCORE.INTER.VDW>
-14.3727

>  <SCORE.INTER.norm>
-0.111461

>  <SCORE.INTRA>
-9.16625

>  <SCORE.INTRA.DIHEDRAL>
-22.7048

>  <SCORE.INTRA.DIHEDRAL.0>
24.1231

>  <SCORE.INTRA.POLAR>
0

>  <SCORE.INTRA.POLAR.0>
0

>  <SCORE.INTRA.REPUL>
0.000380141

>  <SCORE.INTRA.REPUL.0>
0

>  <SCORE.INTRA.SOLV>
3.23082

>  <SCORE.INTRA.SOLV.lig_0>
-48.2216

>  <SCORE.INTRA.VDW>
0.568851

>  <SCORE.INTRA.VDW.0>
-1.3967

>  <SCORE.INTRA.norm>
-0.654732

>  <SCORE.RESTR>
0

>  <SCORE.RESTR.CAVITY>
0

>  <SCORE.RESTR.norm>
0

>  <SCORE.SYSTEM>
0

>  <SCORE.SYSTEM.CONST>
0

>  <SCORE.SYSTEM.DIHEDRAL>
0

>  <SCORE.SYSTEM.SOLV>
0

>  <SCORE.SYSTEM.norm>
0

>  <SCORE.heavy>
14

>  <SCORE.norm>
-0.766192

>  <RMSD>
5.776

$$$$
ligand
 OpenBabel11021811463D
libRbt.so/2013.1/901 2013/11/27
 14 13  0  0  0  0  0  0  0  0999 V2000
   21.4353   13.0527    4.5317 N   0  0  0  0  0  0  0  0  0  0  0  0
   20.0552   13.4420    4.2122 C   0  0  0  0  0  0  0  0  0  0  0  0
   19.3585   13.9190    5.4823 C   0  0  0  0  0  0  0  0  0  0  0  0
   17.8886   14.1515    5.1733 C   0  0  0  0  0  0  0  0  0  0  0  0
   17.2021   14.5638    6.4028 N   0  0  0  0  0  0  0  0  0  0  0  0
   15.8646   13.9465    6.3764 C   0  0  0  0  0  0  0  0  0  0  0  0
   15.2840   13.8576    7.7923 C   0  0  0  0  0  0  0  0  0  0  0  0
   13.9308   13.1348    7.7136 C   0  0  0  0  0  0  0  0  0  0  0  0
   13.3130   13.0712    9.0481 C   0  0  0  0  0  0  0  0  0  0  0  0
   12.0052   12.4003    8.9023 N   0  0  0  0  0  0  0  0  0  0  0  0
   11.8374   11.3281    9.9850 C   0  0  0  0  0  0  0  0  0  0  0  0
   10.3461   11.0473   10.2061 C   0  0  0  0  0  0  0  0  0  0  0  0
   10.1820   10.0326   11.2649 C   0  0  0  0  0  0  0  0  0  0  0  0
   10.6031   10.5971   12.5651 N   0  0  0  0  0  0  0  0  0  0  0  0
  1  2  1  0  0  0  0
  2  3  1  0  0  0  0
  3  4  1  0  0  0  0
  4  5  1  0  0  0  0
  5  6  1  0  0  0  0
  6  7  1  0  0  0  0
  7  8  1  0  0  0  0
  8  9  1  0  0  0  0
  9 10  1  0  0  0  0
 10 11  1  0  0  0  0
 11 12  1  0  0  0  0
 12 13  1  0  0  0  0
 13 14  1  0  0  0  0
M  END
>  <CHROM.1>
-172.98224223,177.96329795,-143.02512492,158.35633286,-176.74532991,-177.91759597
178.53748638,133.18471196,157.04627160,-179.00557485,67.87800939,14.95026386
12.75321234,7.83247337,-0.52744613,-0.38597982,2.58350431

>  <Name>
ligand

>  <RI>
0

>  <Rbt.Current_Directory>
/home/itssahil/PROJECTS/Mol_Feturizer/New_Systems/rnas/2O3Y

>  <Rbt.Executable>
rbdock ($Id: //depot/dev/client3/rdock/2013.1/src/exe/rbdock.cxx#4 $)

>  <Rbt.Library>
libRbt.so (2013.1, Build901 2013/11/27)

>  <Rbt.Parameter_File>
/export/apps/rDock/src/rDock_2013.1_src/data/scripts/dock_solv.prm

>  <Rbt.Receptor>
prm/pocket_docking_8.prm

>  <SCORE>
-9.58373

>  <SCORE.INTER>
0.773546

>  <SCORE.INTER.CONST>
1

>  <SCORE.INTER.POLAR>
0

>  <SCORE.INTER.ROT>
11

>  <SCORE.INTER.SOLV>
6.1025

>  <SCORE.INTER.VDW>
-12.4518

>  <SCORE.INTER.norm>
0.0552533

>  <SCORE.INTRA>
-10.3609

>  <SCORE.INTRA.DIHEDRAL>
-21.0154

>  <SCORE.INTRA.DIHEDRAL.0>
24.1231

>  <SCORE.INTRA.POLAR>
0

>  <SCORE.INTRA.POLAR.0>
0

>  <SCORE.INTRA.REPUL>
0

>  <SCORE.INTRA.REPUL.0>
0

>  <SCORE.INTRA.SOLV>
-0.221978

>  <SCORE.INTRA.SOLV.lig_0>
-48.2216

>  <SCORE.INTRA.VDW>
0.257842

>  <SCORE.INTRA.VDW.0>
-1.3967

>  <SCORE.INTRA.norm>
-0.740061

>  <SCORE.RESTR>
0.00357923

>  <SCORE.RESTR.CAVITY>
0.00357923

>  <SCORE.RESTR.norm>
0.000255659

>  <SCORE.SYSTEM>
0

>  <SCORE.SYSTEM.CONST>
0

>  <SCORE.SYSTEM.DIHEDRAL>
0

>  <SCORE.SYSTEM.SOLV>
0

>  <SCORE.SYSTEM.norm>
0

>  <SCORE.heavy>
14

>  <SCORE.norm>
-0.684552

>  <RMSD>
5.789

$$$$
ligand
 OpenBabel11021811463D
libRbt.so/2013.1/901 2013/11/27
 14 13  0  0  0  0  0  0  0  0999 V2000
   10.4253   18.6304   10.4356 N   0  0  0  0  0  0  0  0  0  0  0  0
   11.1752   17.3899   10.1973 C   0  0  0  0  0  0  0  0  0  0  0  0
   11.7548   16.8891   11.5162 C   0  0  0  0  0  0  0  0  0  0  0  0
   12.5653   15.6322   11.2458 C   0  0  0  0  0  0  0  0  0  0  0  0
   13.1298   15.1475   12.5104 N   0  0  0  0  0  0  0  0  0  0  0  0
   14.1428   14.1337   12.1688 C   0  0  0  0  0  0  0  0  0  0  0  0
   14.8520   13.6331   13.4323 C   0  0  0  0  0  0  0  0  0  0  0  0
   15.9215   12.6135   13.0126 C   0  0  0  0  0  0  0  0  0  0  0  0
   16.6055   12.0794   14.2016 C   0  0  0  0  0  0  0  0  0  0  0  0
   15.6255   11.2693   14.9533 N   0  0  0  0  0  0  0  0  0  0  0  0
   16.3147   10.5565   16.1224 C   0  0  0  0  0  0  0  0  0  0  0  0
   15.2585    9.9143   17.0298 C   0  0  0  0  0  0  0  0  0  0  0  0
   14.4788   10.9670   17.7091 C   0  0  0  0  0  0  0  0  0  0  0  0
   13.4603   10.3465   18.5833 N   0  0  0  0  0  0  0  0  0  0  0  0
  1  2  1  0  0  0  0
  2  3  1  0  0  0  0
  3  4  1  0  0  0  0
  4  5  1  0  0  0  0
  5  6  1  0  0  0  0
  6  7  1  0  0  0  0
  7  8  1  0  0  0  0
  8  9  1  0  0  0  0
  9 10  1  0  0  0  0
 10 11  1  0  0  0  0
 11 12  1  0  0  0  0
 12 13  1  0  0  0  0
 13 14  1  0  0  0  0
M  END
>  <CHROM.1>
-178.13587692,179.80775408,-167.22301926,176.40257539,-178.33389494,-178.53730952
67.64115142,173.75391452,170.50061378,-68.02179591,179.97508618,13.97962662
13.51431391,13.79403604,2.02479371,0.49901826,-0.96631918

>  <Name>
ligand

>  <RI>
0

>  <Rbt.Current_Directory>
/home/itssahil/PROJECTS/Mol_Feturizer/New_Systems/rnas/2O3Y

>  <Rbt.Executable>
rbdock ($Id: //depot/dev/client3/rdock/2013.1/src/exe/rbdock.cxx#4 $)

>  <Rbt.Library>
libRbt.so (2013.1, Build901 2013/11/27)

>  <Rbt.Parameter_File>
/export/apps/rDock/src/rDock_2013.1_src/data/scripts/dock_solv.prm

>  <Rbt.Receptor>
prm/pocket_docking_8.prm

>  <SCORE>
-8.90503

>  <SCORE.INTER>
2.57693

>  <SCORE.INTER.CONST>
1

>  <SCORE.INTER.POLAR>
0

>  <SCORE.INTER.ROT>
11

>  <SCORE.INTER.SOLV>
7.30233

>  <SCORE.INTER.VDW>
-11.6495

>  <SCORE.INTER.norm>
0.184066

>  <SCORE.INTRA>
-11.482

>  <SCORE.INTRA.DIHEDRAL>
-23.388

>  <SCORE.INTRA.DIHEDRAL.0>
24.1231

>  <SCORE.INTRA.POLAR>
0

>  <SCORE.INTRA.POLAR.0>
0

>  <SCORE.INTRA.REPUL>
0

>  <SCORE.INTRA.REPUL.0>
0

>  <SCORE.INTRA.SOLV>
-0.163558

>  <SCORE.INTRA.SOLV.lig_0>
-48.2216

>  <SCORE.INTRA.VDW>
0.293846

>  <SCORE.INTRA.VDW.0>
-1.3967

>  <SCORE.INTRA.norm>
-0.82014

>  <SCORE.RESTR>
0

>  <SCORE.RESTR.CAVITY>
0

>  <SCORE.RESTR.norm>
0

>  <SCORE.SYSTEM>
0

>  <SCORE.SYSTEM.CONST>
0

>  <SCORE.SYSTEM.DIHEDRAL>
0

>  <SCORE.SYSTEM.SOLV>
0

>  <SCORE.SYSTEM.norm>
0

>  <SCORE.heavy>
14

>  <SCORE.norm>
-0.636074

>  <RMSD>
5.805

$$$$
ligand
 OpenBabel11021811463D
libRbt.so/2013.1/901 2013/11/27
 14 13  0  0  0  0  0  0  0  0999 V2000
   21.0411    9.1190    7.3220 N   0  0  0  0  0  0  0  0  0  0  0  0
   21.1079    7.9585    8.2204 C   0  0  0  0  0  0  0  0  0  0  0  0
   21.1497    8.4415    9.6665 C   0  0  0  0  0  0  0  0  0  0  0  0
   19.8306    9.1236    9.9902 C   0  0  0  0  0  0  0  0  0  0  0  0
   19.8781    9.6237   11.3689 N   0  0  0  0  0  0  0  0  0  0  0  0
   18.4923    9.6385   11.8690 C   0  0  0  0  0  0  0  0  0  0  0  0
   18.4633    9.9628   13.3670 C   0  0  0  0  0  0  0  0  0  0  0  0
   17.0088    9.8702   13.8519 C   0  0  0  0  0  0  0  0  0  0  0  0
   16.9496   10.0519   15.3114 C   0  0  0  0  0  0  0  0  0  0  0  0
   15.5363    9.9203   15.7201 N   0  0  0  0  0  0  0  0  0  0  0  0
   15.2049    8.4524   16.0124 C   0  0  0  0  0  0  0  0  0  0  0  0
   14.3471    7.8813   14.8768 C   0  0  0  0  0  0  0  0  0  0  0  0
   13.9358    6.5034   15.2079 C   0  0  0  0  0  0  0  0  0  0  0  0
   12.9487    6.5292   16.3086 N   0  0  0  0  0  0  0  0  0  0  0  0
  1  2  1  0  0  0  0
  2  3  1  0  0  0  0
  3  4  1  0  0  0  0
  4  5  1  0  0  0  0
  5  6  1  0  0  0  0
  6  7  1  0  0  0  0
  7  8  1  0  0  0  0
  8  9  1  0  0  0  0
  9 10  1  0  0  0  0
 10 11  1  0  0  0  0
 11 12  1  0  0  0  0
 12 13  1  0  0  0  0
 13 14  1  0  0  0  0
M  END
>  <CHROM.1>
65.57103890,-178.45075626,-151.94807272,172.14980069,-176.18809973,174.77306743
-178.65161675,88.43157022,-106.26373012,-175.44220770,70.35632132,17.56395248
8.79116525,12.79240135,0.46268796,-0.70804647,-2.35336977

>  <Name>
ligand

>  <RI>
0

>  <Rbt.Current_Directory>
/home/itssahil/PROJECTS/Mol_Feturizer/New_Systems/rnas/2O3Y

>  <Rbt.Executable>
rbdock ($Id: //depot/dev/client3/rdock/2013.1/src/exe/rbdock.cxx#4 $)

>  <Rbt.Library>
libRbt.so (2013.1, Build901 2013/11/27)

>  <Rbt.Parameter_File>
/export/apps/rDock/src/rDock_2013.1_src/data/scripts/dock_solv.prm

>  <Rbt.Receptor>
prm/pocket_docking_7.prm

>  <SCORE>
-10.3029

>  <SCORE.INTER>
-0.864474

>  <SCORE.INTER.CONST>
1

>  <SCORE.INTER.POLAR>
0

>  <SCORE.INTER.ROT>
11

>  <SCORE.INTER.SOLV>
6.15954

>  <SCORE.INTER.VDW>
-13.5628

>  <SCORE.INTER.norm>
-0.0617482

>  <SCORE.INTRA>
-9.43841

>  <SCORE.INTRA.DIHEDRAL>
-21.1567

>  <SCORE.INTRA.DIHEDRAL.0>
24.1231

>  <SCORE.INTRA.POLAR>
0

>  <SCORE.INTRA.POLAR.0>
0

>  <SCORE.INTRA.REPUL>
0

>  <SCORE.INTRA.REPUL.0>
0

>  <SCORE.INTRA.SOLV>
0.647398

>  <SCORE.INTRA.SOLV.lig_0>
-48.2216

>  <SCORE.INTRA.VDW>
0.816233

>  <SCORE.INTRA.VDW.0>
-1.3967

>  <SCORE.INTRA.norm>
-0.674172

>  <SCORE.RESTR>
0

>  <SCORE.RESTR.CAVITY>
0

>  <SCORE.RESTR.norm>
0

>  <SCORE.SYSTEM>
0

>  <SCORE.SYSTEM.CONST>
0

>  <SCORE.SYSTEM.DIHEDRAL>
0

>  <SCORE.SYSTEM.SOLV>
0

>  <SCORE.SYSTEM.norm>
0

>  <SCORE.heavy>
14

>  <SCORE.norm>
-0.73592

>  <RMSD>
5.812

$$$$
ligand
 OpenBabel11021811463D
libRbt.so/2013.1/901 2013/11/27
 14 13  0  0  0  0  0  0  0  0999 V2000
   10.9482    5.8428   15.3790 N   0  0  0  0  0  0  0  0  0  0  0  0
   12.0222    4.9199   15.7700 C   0  0  0  0  0  0  0  0  0  0  0  0
   13.0504    5.6694   16.6110 C   0  0  0  0  0  0  0  0  0  0  0  0
   13.8089    6.6303   15.7103 C   0  0  0  0  0  0  0  0  0  0  0  0
   14.7023    7.4521   16.5345 N   0  0  0  0  0  0  0  0  0  0  0  0
   15.7188    8.0202   15.6320 C   0  0  0  0  0  0  0  0  0  0  0  0
   16.0095    9.4801   15.9985 C   0  0  0  0  0  0  0  0  0  0  0  0
   17.0833   10.0133   15.0381 C   0  0  0  0  0  0  0  0  0  0  0  0
   17.3791   11.4228   15.3422 C   0  0  0  0  0  0  0  0  0  0  0  0
   16.2115   12.2240   14.9220 N   0  0  0  0  0  0  0  0  0  0  0  0
   16.4110   12.7395   13.4923 C   0  0  0  0  0  0  0  0  0  0  0  0
   15.3635   13.8154   13.1810 C   0  0  0  0  0  0  0  0  0  0  0  0
   14.0150   13.2164   13.1950 C   0  0  0  0  0  0  0  0  0  0  0  0
   13.0152   14.2315   12.7994 N   0  0  0  0  0  0  0  0  0  0  0  0
  1  2  1  0  0  0  0
  2  3  1  0  0  0  0
  3  4  1  0  0  0  0
  4  5  1  0  0  0  0
  5  6  1  0  0  0  0
  6  7  1  0  0  0  0
  7  8  1  0  0  0  0
  8  9  1  0  0  0  0
  9 10  1  0  0  0  0
 10 11  1  0  0  0  0
 11 12  1  0  0  0  0
 12 13  1  0  0  0  0
 13 14  1  0  0  0  0
M  END
>  <CHROM.1>
-70.65987025,174.23895865,161.20670243,139.46156000,179.38202198,179.14668789
-71.09216009,-93.29227576,-167.27551391,-64.77461362,-175.94174222,14.69603691
9.69116502,14.97182717,1.91107507,0.29014732,2.73027951

>  <Name>
ligand

>  <RI>
0

>  <Rbt.Current_Directory>
/home/itssahil/PROJECTS/Mol_Feturizer/New_Systems/rnas/2O3Y

>  <Rbt.Executable>
rbdock ($Id: //depot/dev/client3/rdock/2013.1/src/exe/rbdock.cxx#4 $)

>  <Rbt.Library>
libRbt.so (2013.1, Build901 2013/11/27)

>  <Rbt.Parameter_File>
/export/apps/rDock/src/rDock_2013.1_src/data/scripts/dock_solv.prm

>  <Rbt.Receptor>
prm/pocket_docking_8.prm

>  <SCORE>
-10.6658

>  <SCORE.INTER>
-1.21447

>  <SCORE.INTER.CONST>
1

>  <SCORE.INTER.POLAR>
0

>  <SCORE.INTER.ROT>
11

>  <SCORE.INTER.SOLV>
12.5577

>  <SCORE.INTER.VDW>
-15.9289

>  <SCORE.INTER.norm>
-0.0867482

>  <SCORE.INTRA>
-9.45135

>  <SCORE.INTRA.DIHEDRAL>
-20.9611

>  <SCORE.INTRA.DIHEDRAL.0>
24.1231

>  <SCORE.INTRA.POLAR>
0

>  <SCORE.INTRA.POLAR.0>
0

>  <SCORE.INTRA.REPUL>
0

>  <SCORE.INTRA.REPUL.0>
0

>  <SCORE.INTRA.SOLV>
0.658268

>  <SCORE.INTRA.SOLV.lig_0>
-48.2216

>  <SCORE.INTRA.VDW>
0.700093

>  <SCORE.INTRA.VDW.0>
-1.3967

>  <SCORE.INTRA.norm>
-0.675096

>  <SCORE.RESTR>
0

>  <SCORE.RESTR.CAVITY>
0

>  <SCORE.RESTR.norm>
0

>  <SCORE.SYSTEM>
0

>  <SCORE.SYSTEM.CONST>
0

>  <SCORE.SYSTEM.DIHEDRAL>
0

>  <SCORE.SYSTEM.SOLV>
0

>  <SCORE.SYSTEM.norm>
0

>  <SCORE.heavy>
14

>  <SCORE.norm>
-0.761844

>  <RMSD>
5.830

$$$$
ligand
 OpenBabel11021811463D
libRbt.so/2013.1/901 2013/11/27
 14 13  0  0  0  0  0  0  0  0999 V2000
   13.6777    7.8175   19.8979 N   0  0  0  0  0  0  0  0  0  0  0  0
   14.9658    7.9442   19.2029 C   0  0  0  0  0  0  0  0  0  0  0  0
   14.7522    8.6531   17.8694 C   0  0  0  0  0  0  0  0  0  0  0  0
   16.0717    8.6802   17.1157 C   0  0  0  0  0  0  0  0  0  0  0  0
   15.8964    9.4431   15.8746 N   0  0  0  0  0  0  0  0  0  0  0  0
   16.8672   10.5508   15.9098 C   0  0  0  0  0  0  0  0  0  0  0  0
   17.1734   11.0445   14.4912 C   0  0  0  0  0  0  0  0  0  0  0  0
   17.8169    9.8904   13.7079 C   0  0  0  0  0  0  0  0  0  0  0  0
   18.2300   10.3535   12.3731 C   0  0  0  0  0  0  0  0  0  0  0  0
   18.9208    9.2312   11.7060 N   0  0  0  0  0  0  0  0  0  0  0  0
   19.9353    9.7648   10.6883 C   0  0  0  0  0  0  0  0  0  0  0  0
   20.2696    8.6684    9.6696 C   0  0  0  0  0  0  0  0  0  0  0  0
   21.2510    9.1784    8.6929 C   0  0  0  0  0  0  0  0  0  0  0  0
   21.5041    8.1519    7.6590 N   0  0  0  0  0  0  0  0  0  0  0  0
  1  2  1  0  0  0  0
  2  3  1  0  0  0  0
  3  4  1  0  0  0  0
  4  5  1  0  0  0  0
  5  6  1  0  0  0  0
  6  7  1  0  0  0  0
  7  8  1  0  0  0  0
  8  9  1  0  0  0  0
  9 10  1  0  0  0  0
 10 11  1  0  0  0  0
 11 12  1  0  0  0  0
 12 13  1  0  0  0  0
 13 14  1  0  0  0  0
M  END
>  <CHROM.1>
-175.65069224,-176.05017219,121.95591366,156.91242838,-62.43579017,-175.32325201
176.21985515,-152.42268484,-159.72883082,-179.73276647,-176.22602860,17.66663338
9.24109448,13.91851020,-3.05253069,1.00784390,-0.05692491

>  <Name>
ligand

>  <RI>
0

>  <Rbt.Current_Directory>
/home/itssahil/PROJECTS/Mol_Feturizer/New_Systems/rnas/2O3Y

>  <Rbt.Executable>
rbdock ($Id: //depot/dev/client3/rdock/2013.1/src/exe/rbdock.cxx#4 $)

>  <Rbt.Library>
libRbt.so (2013.1, Build901 2013/11/27)

>  <Rbt.Parameter_File>
/export/apps/rDock/src/rDock_2013.1_src/data/scripts/dock_solv.prm

>  <Rbt.Receptor>
prm/pocket_docking_8.prm

>  <SCORE>
-11.8042

>  <SCORE.INTER>
-1.09788

>  <SCORE.INTER.CONST>
1

>  <SCORE.INTER.POLAR>
0

>  <SCORE.INTER.ROT>
11

>  <SCORE.INTER.SOLV>
7.71033

>  <SCORE.INTER.VDW>
-14.2354

>  <SCORE.INTER.norm>
-0.07842

>  <SCORE.INTRA>
-10.7063

>  <SCORE.INTRA.DIHEDRAL>
-21.3556

>  <SCORE.INTRA.DIHEDRAL.0>
24.1231

>  <SCORE.INTRA.POLAR>
0

>  <SCORE.INTRA.POLAR.0>
0

>  <SCORE.INTRA.REPUL>
0

>  <SCORE.INTRA.REPUL.0>
0

>  <SCORE.INTRA.SOLV>
-0.555626

>  <SCORE.INTRA.SOLV.lig_0>
-48.2216

>  <SCORE.INTRA.VDW>
0.249245

>  <SCORE.INTRA.VDW.0>
-1.3967

>  <SCORE.INTRA.norm>
-0.764739

>  <SCORE.RESTR>
0

>  <SCORE.RESTR.CAVITY>
0

>  <SCORE.RESTR.norm>
0

>  <SCORE.SYSTEM>
0

>  <SCORE.SYSTEM.CONST>
0

>  <SCORE.SYSTEM.DIHEDRAL>
0

>  <SCORE.SYSTEM.SOLV>
0

>  <SCORE.SYSTEM.norm>
0

>  <SCORE.heavy>
14

>  <SCORE.norm>
-0.843159

>  <RMSD>
6.015

$$$$
ligand
 OpenBabel11021811463D
libRbt.so/2013.1/901 2013/11/27
 14 13  0  0  0  0  0  0  0  0999 V2000
   10.4678    9.9180   13.1726 N   0  0  0  0  0  0  0  0  0  0  0  0
   10.1696    9.5487   11.7823 C   0  0  0  0  0  0  0  0  0  0  0  0
   10.3983   10.7563   10.8792 C   0  0  0  0  0  0  0  0  0  0  0  0
   11.8817   11.0872   10.8752 C   0  0  0  0  0  0  0  0  0  0  0  0
   12.0818   12.3722   10.1956 N   0  0  0  0  0  0  0  0  0  0  0  0
   12.5410   12.0690    8.8288 C   0  0  0  0  0  0  0  0  0  0  0  0
   12.5942   13.3460    7.9824 C   0  0  0  0  0  0  0  0  0  0  0  0
   13.8181   14.1641    8.4211 C   0  0  0  0  0  0  0  0  0  0  0  0
   13.5665   14.7882    9.7302 C   0  0  0  0  0  0  0  0  0  0  0  0
   12.5195   15.8129    9.5418 N   0  0  0  0  0  0  0  0  0  0  0  0
   12.1373   16.4326   10.8908 C   0  0  0  0  0  0  0  0  0  0  0  0
   11.6315   17.8642   10.6760 C   0  0  0  0  0  0  0  0  0  0  0  0
   10.3376   17.8343    9.9672 C   0  0  0  0  0  0  0  0  0  0  0  0
    9.8336   19.2134    9.7923 N   0  0  0  0  0  0  0  0  0  0  0  0
  1  2  1  0  0  0  0
  2  3  1  0  0  0  0
  3  4  1  0  0  0  0
  4  5  1  0  0  0  0
  5  6  1  0  0  0  0
  6  7  1  0  0  0  0
  7  8  1  0  0  0  0
  8  9  1  0  0  0  0
  9 10  1  0  0  0  0
 10 11  1  0  0  0  0
 11 12  1  0  0  0  0
 12 13  1  0  0  0  0
 13 14  1  0  0  0  0
M  END
>  <CHROM.1>
66.50759527,-170.64169808,-100.63429144,172.30868402,74.57283036,-73.61263130
-67.99356771,175.90985415,152.39168016,68.43616318,178.51104248,11.71295955
13.94322056,10.19519324,1.62599491,-0.75951948,2.98824791

>  <Name>
ligand

>  <RI>
0

>  <Rbt.Current_Directory>
/home/itssahil/PROJECTS/Mol_Feturizer/New_Systems/rnas/2O3Y

>  <Rbt.Executable>
rbdock ($Id: //depot/dev/client3/rdock/2013.1/src/exe/rbdock.cxx#4 $)

>  <Rbt.Library>
libRbt.so (2013.1, Build901 2013/11/27)

>  <Rbt.Parameter_File>
/export/apps/rDock/src/rDock_2013.1_src/data/scripts/dock_solv.prm

>  <Rbt.Receptor>
prm/pocket_docking_8.prm

>  <SCORE>
-7.7397

>  <SCORE.INTER>
-0.51976

>  <SCORE.INTER.CONST>
1

>  <SCORE.INTER.POLAR>
0

>  <SCORE.INTER.ROT>
11

>  <SCORE.INTER.SOLV>
9.63395

>  <SCORE.INTER.VDW>
-14.4912

>  <SCORE.INTER.norm>
-0.0371257

>  <SCORE.INTRA>
-7.21994

>  <SCORE.INTRA.DIHEDRAL>
-20.1141

>  <SCORE.INTRA.DIHEDRAL.0>
24.1231

>  <SCORE.INTRA.POLAR>
0

>  <SCORE.INTRA.POLAR.0>
0

>  <SCORE.INTRA.REPUL>
0

>  <SCORE.INTRA.REPUL.0>
0

>  <SCORE.INTRA.SOLV>
2.50059

>  <SCORE.INTRA.SOLV.lig_0>
-48.2216

>  <SCORE.INTRA.VDW>
1.58683

>  <SCORE.INTRA.VDW.0>
-1.3967

>  <SCORE.INTRA.norm>
-0.51571

>  <SCORE.RESTR>
0

>  <SCORE.RESTR.CAVITY>
0

>  <SCORE.RESTR.norm>
0

>  <SCORE.SYSTEM>
0

>  <SCORE.SYSTEM.CONST>
0

>  <SCORE.SYSTEM.DIHEDRAL>
0

>  <SCORE.SYSTEM.SOLV>
0

>  <SCORE.SYSTEM.norm>
0

>  <SCORE.heavy>
14

>  <SCORE.norm>
-0.552836

>  <RMSD>
6.057

$$$$
ligand
 OpenBabel11021811463D
libRbt.so/2013.1/901 2013/11/27
 14 13  0  0  0  0  0  0  0  0999 V2000
   22.3961   12.4750    5.8124 N   0  0  0  0  0  0  0  0  0  0  0  0
   21.7809   11.3389    6.5117 C   0  0  0  0  0  0  0  0  0  0  0  0
   22.8417   10.6223    7.3409 C   0  0  0  0  0  0  0  0  0  0  0  0
   22.2080    9.4059    7.9958 C   0  0  0  0  0  0  0  0  0  0  0  0
   21.1473    9.8527    8.9059 N   0  0  0  0  0  0  0  0  0  0  0  0
   20.7198    8.6741    9.6798 C   0  0  0  0  0  0  0  0  0  0  0  0
   19.5767    9.0409   10.6332 C   0  0  0  0  0  0  0  0  0  0  0  0
   20.1084   10.0582   11.6539 C   0  0  0  0  0  0  0  0  0  0  0  0
   19.2697   10.0468   12.8635 C   0  0  0  0  0  0  0  0  0  0  0  0
   17.9862   10.6932   12.5221 N   0  0  0  0  0  0  0  0  0  0  0  0
   17.1451   10.8993   13.7869 C   0  0  0  0  0  0  0  0  0  0  0  0
   16.3127   12.1799   13.6499 C   0  0  0  0  0  0  0  0  0  0  0  0
   15.3341   12.0232   12.5566 C   0  0  0  0  0  0  0  0  0  0  0  0
   14.5567   13.2715   12.4015 N   0  0  0  0  0  0  0  0  0  0  0  0
  1  2  1  0  0  0  0
  2  3  1  0  0  0  0
  3  4  1  0  0  0  0
  4  5  1  0  0  0  0
  5  6  1  0  0  0  0
  6  7  1  0  0  0  0
  7  8  1  0  0  0  0
  8  9  1  0  0  0  0
  9 10  1  0  0  0  0
 10 11  1  0  0  0  0
 11 12  1  0  0  0  0
 12 13  1  0  0  0  0
 13 14  1  0  0  0  0
M  END
>  <CHROM.1>
-176.88614648,-62.56744746,-170.70259063,-178.28497869,-63.86748407,-157.91687333
-72.56703239,-171.73290462,147.05245657,64.95392099,-178.49217846,19.38467713
10.75551160,10.45122702,0.45999034,0.66203597,-0.87386471

>  <Name>
ligand

>  <RI>
0

>  <Rbt.Current_Directory>
/home/itssahil/PROJECTS/Mol_Feturizer/New_Systems/rnas/2O3Y

>  <Rbt.Executable>
rbdock ($Id: //depot/dev/client3/rdock/2013.1/src/exe/rbdock.cxx#4 $)

>  <Rbt.Library>
libRbt.so (2013.1, Build901 2013/11/27)

>  <Rbt.Parameter_File>
/export/apps/rDock/src/rDock_2013.1_src/data/scripts/dock_solv.prm

>  <Rbt.Receptor>
prm/pocket_docking_8.prm

>  <SCORE>
-6.90845

>  <SCORE.INTER>
2.40254

>  <SCORE.INTER.CONST>
1

>  <SCORE.INTER.POLAR>
0

>  <SCORE.INTER.ROT>
11

>  <SCORE.INTER.SOLV>
3.84184

>  <SCORE.INTER.VDW>
-10.6123

>  <SCORE.INTER.norm>
0.17161

>  <SCORE.INTRA>
-9.31099

>  <SCORE.INTRA.DIHEDRAL>
-20.6808

>  <SCORE.INTRA.DIHEDRAL.0>
24.1231

>  <SCORE.INTRA.POLAR>
0

>  <SCORE.INTRA.POLAR.0>
0

>  <SCORE.INTRA.REPUL>
0

>  <SCORE.INTRA.REPUL.0>
0

>  <SCORE.INTRA.SOLV>
0.721239

>  <SCORE.INTRA.SOLV.lig_0>
-48.2216

>  <SCORE.INTRA.VDW>
0.66878

>  <SCORE.INTRA.VDW.0>
-1.3967

>  <SCORE.INTRA.norm>
-0.66507

>  <SCORE.RESTR>
0

>  <SCORE.RESTR.CAVITY>
0

>  <SCORE.RESTR.norm>
0

>  <SCORE.SYSTEM>
0

>  <SCORE.SYSTEM.CONST>
0

>  <SCORE.SYSTEM.DIHEDRAL>
0

>  <SCORE.SYSTEM.SOLV>
0

>  <SCORE.SYSTEM.norm>
0

>  <SCORE.heavy>
14

>  <SCORE.norm>
-0.49346

>  <RMSD>
6.215

$$$$
ligand
 OpenBabel11021811463D
libRbt.so/2013.1/901 2013/11/27
 14 13  0  0  0  0  0  0  0  0999 V2000
   18.9983    6.9379    5.5579 N   0  0  0  0  0  0  0  0  0  0  0  0
   20.1080    6.0842    6.0027 C   0  0  0  0  0  0  0  0  0  0  0  0
   20.5510    6.5177    7.3963 C   0  0  0  0  0  0  0  0  0  0  0  0
   21.1519    7.9107    7.3048 C   0  0  0  0  0  0  0  0  0  0  0  0
   21.4570    8.3884    8.6582 N   0  0  0  0  0  0  0  0  0  0  0  0
   20.2766    9.1348    9.1273 C   0  0  0  0  0  0  0  0  0  0  0  0
   20.2965    9.2707   10.6541 C   0  0  0  0  0  0  0  0  0  0  0  0
   18.9952    9.9586   11.0935 C   0  0  0  0  0  0  0  0  0  0  0  0
   18.9293   10.0251   12.5625 C   0  0  0  0  0  0  0  0  0  0  0  0
   17.5982   10.5525   12.9256 N   0  0  0  0  0  0  0  0  0  0  0  0
   17.4615   10.6387   14.4499 C   0  0  0  0  0  0  0  0  0  0  0  0
   15.9955   10.8902   14.8229 C   0  0  0  0  0  0  0  0  0  0  0  0
   15.8247   10.7658   16.2833 C   0  0  0  0  0  0  0  0  0  0  0  0
   14.3879   10.8412   16.6248 N   0  0  0  0  0  0  0  0  0  0  0  0
  1  2  1  0  0  0  0
  2  3  1  0  0  0  0
  3  4  1  0  0  0  0
  4  5  1  0  0  0  0
  5  6  1  0  0  0  0
  6  7  1  0  0  0  0
  7  8  1  0  0  0  0
  8  9  1  0  0  0  0
  9 10  1  0  0  0  0
 10 11  1  0  0  0  0
 11 12  1  0  0  0  0
 12 13  1  0  0  0  0
 13 14  1  0  0  0  0
M  END
>  <CHROM.1>
-66.37893459,174.39674122,-92.12157902,161.19796409,-175.70587963,176.05664027
-173.69987776,179.65134985,-167.75847089,171.28710396,-173.00800226,18.71678353
9.13687537,10.96171183,1.10454826,-0.27564619,-2.10728221

>  <Name>
ligand

>  <RI>
0

>  <Rbt.Current_Directory>
/home/itssahil/PROJECTS/Mol_Feturizer/New_Systems/rnas/2O3Y

>  <Rbt.Executable>
rbdock ($Id: //depot/dev/client3/rdock/2013.1/src/exe/rbdock.cxx#4 $)

>  <Rbt.Library>
libRbt.so (2013.1, Build901 2013/11/27)

>  <Rbt.Parameter_File>
/export/apps/rDock/src/rDock_2013.1_src/data/scripts/dock_solv.prm

>  <Rbt.Receptor>
prm/pocket_docking_8.prm

>  <SCORE>
-9.70899

>  <SCORE.INTER>
0.656463

>  <SCORE.INTER.CONST>
1

>  <SCORE.INTER.POLAR>
0

>  <SCORE.INTER.ROT>
11

>  <SCORE.INTER.SOLV>
4.60334

>  <SCORE.INTER.VDW>
-12.0301

>  <SCORE.INTER.norm>
0.0468902

>  <SCORE.INTRA>
-10.3655

>  <SCORE.INTRA.DIHEDRAL>
-22.0505

>  <SCORE.INTRA.DIHEDRAL.0>
24.1231

>  <SCORE.INTRA.POLAR>
0

>  <SCORE.INTRA.POLAR.0>
0

>  <SCORE.INTRA.REPUL>
0

>  <SCORE.INTRA.REPUL.0>
0

>  <SCORE.INTRA.SOLV>
0.133864

>  <SCORE.INTRA.SOLV.lig_0>
-48.2216

>  <SCORE.INTRA.VDW>
0.592862

>  <SCORE.INTRA.VDW.0>
-1.3967

>  <SCORE.INTRA.norm>
-0.740389

>  <SCORE.RESTR>
0

>  <SCORE.RESTR.CAVITY>
0

>  <SCORE.RESTR.norm>
0

>  <SCORE.SYSTEM>
0

>  <SCORE.SYSTEM.CONST>
0

>  <SCORE.SYSTEM.DIHEDRAL>
0

>  <SCORE.SYSTEM.SOLV>
0

>  <SCORE.SYSTEM.norm>
0

>  <SCORE.heavy>
14

>  <SCORE.norm>
-0.693499

>  <RMSD>
6.624

$$$$
ligand
 OpenBabel11021811463D
libRbt.so/2013.1/901 2013/11/27
 14 13  0  0  0  0  0  0  0  0999 V2000
    4.0588    7.0044    6.5227 N   0  0  0  0  0  0  0  0  0  0  0  0
    3.8859    5.6230    6.9916 C   0  0  0  0  0  0  0  0  0  0  0  0
    5.2444    4.9310    7.0349 C   0  0  0  0  0  0  0  0  0  0  0  0
    5.8196    4.8992    5.6284 C   0  0  0  0  0  0  0  0  0  0  0  0
    6.2854    6.2444    5.2731 N   0  0  0  0  0  0  0  0  0  0  0  0
    6.2686    6.3311    3.8024 C   0  0  0  0  0  0  0  0  0  0  0  0
    5.8254    7.7270    3.3497 C   0  0  0  0  0  0  0  0  0  0  0  0
    5.6679    7.7106    1.8218 C   0  0  0  0  0  0  0  0  0  0  0  0
    5.2116    9.0267    1.3462 C   0  0  0  0  0  0  0  0  0  0  0  0
    6.2441   10.0166    1.7148 N   0  0  0  0  0  0  0  0  0  0  0  0
    5.5879   11.2707    2.3035 C   0  0  0  0  0  0  0  0  0  0  0  0
    6.6719   12.2670    2.7322 C   0  0  0  0  0  0  0  0  0  0  0  0
    7.3788   12.7769    1.5415 C   0  0  0  0  0  0  0  0  0  0  0  0
    6.4886   13.6821    0.7835 N   0  0  0  0  0  0  0  0  0  0  0  0
  1  2  1  0  0  0  0
  2  3  1  0  0  0  0
  3  4  1  0  0  0  0
  4  5  1  0  0  0  0
  5  6  1  0  0  0  0
  6  7  1  0  0  0  0
  7  8  1  0  0  0  0
  8  9  1  0  0  0  0
  9 10  1  0  0  0  0
 10 11  1  0  0  0  0
 11 12  1  0  0  0  0
 12 13  1  0  0  0  0
 13 14  1  0  0  0  0
M  END
>  <CHROM.1>
-61.52243412,74.18483104,-155.53585649,142.67015724,-173.47389693,178.67461174
61.23889392,-135.29552424,177.80673784,67.04094437,71.25757547,5.75992474
8.53618880,3.63190327,2.25379975,-1.29715169,-3.08976911

>  <Name>
ligand

>  <RI>
0

>  <Rbt.Current_Directory>
/home/itssahil/PROJECTS/Mol_Feturizer/New_Systems/rnas/2O3Y

>  <Rbt.Executable>
rbdock ($Id: //depot/dev/client3/rdock/2013.1/src/exe/rbdock.cxx#4 $)

>  <Rbt.Library>
libRbt.so (2013.1, Build901 2013/11/27)

>  <Rbt.Parameter_File>
/export/apps/rDock/src/rDock_2013.1_src/data/scripts/dock_solv.prm

>  <Rbt.Receptor>
prm/blind_docking_20.prm

>  <SCORE>
-3.05469

>  <SCORE.INTER>
3.55357

>  <SCORE.INTER.CONST>
1

>  <SCORE.INTER.POLAR>
0

>  <SCORE.INTER.ROT>
11

>  <SCORE.INTER.SOLV>
10.8222

>  <SCORE.INTER.VDW>
-12.1717

>  <SCORE.INTER.norm>
0.253827

>  <SCORE.INTRA>
-6.63693

>  <SCORE.INTRA.DIHEDRAL>
-20.2887

>  <SCORE.INTRA.DIHEDRAL.0>
24.1231

>  <SCORE.INTRA.POLAR>
0

>  <SCORE.INTRA.POLAR.0>
0

>  <SCORE.INTRA.REPUL>
0

>  <SCORE.INTRA.REPUL.0>
0

>  <SCORE.INTRA.SOLV>
5.33394

>  <SCORE.INTRA.SOLV.lig_0>
-48.2216

>  <SCORE.INTRA.VDW>
0.840473

>  <SCORE.INTRA.VDW.0>
-1.3967

>  <SCORE.INTRA.norm>
-0.474066

>  <SCORE.RESTR>
0.0286651

>  <SCORE.RESTR.CAVITY>
0.0286651

>  <SCORE.RESTR.norm>
0.00204751

>  <SCORE.SYSTEM>
0

>  <SCORE.SYSTEM.CONST>
0

>  <SCORE.SYSTEM.DIHEDRAL>
0

>  <SCORE.SYSTEM.SOLV>
0

>  <SCORE.SYSTEM.norm>
0

>  <SCORE.heavy>
14

>  <SCORE.norm>
-0.218192

>  <RMSD>
12.598

$$$$
ligand
 OpenBabel11021811463D
libRbt.so/2013.1/901 2013/11/27
 14 13  0  0  0  0  0  0  0  0999 V2000
    6.4401   14.4566   -0.0613 N   0  0  0  0  0  0  0  0  0  0  0  0
    7.4962   13.4360   -0.0272 C   0  0  0  0  0  0  0  0  0  0  0  0
    7.6278   12.8930    1.3919 C   0  0  0  0  0  0  0  0  0  0  0  0
    6.4200   12.0209    1.6934 C   0  0  0  0  0  0  0  0  0  0  0  0
    6.5480   11.4822    3.0521 N   0  0  0  0  0  0  0  0  0  0  0  0
    5.2253   10.9566    3.4329 C   0  0  0  0  0  0  0  0  0  0  0  0
    5.0312    9.5378    2.8858 C   0  0  0  0  0  0  0  0  0  0  0  0
    5.9645    8.5922    3.6569 C   0  0  0  0  0  0  0  0  0  0  0  0
    5.8307    7.2194    3.1430 C   0  0  0  0  0  0  0  0  0  0  0  0
    6.6332    6.3371    4.0144 N   0  0  0  0  0  0  0  0  0  0  0  0
    5.7971    5.1323    4.4607 C   0  0  0  0  0  0  0  0  0  0  0  0
    5.9219    4.9518    5.9784 C   0  0  0  0  0  0  0  0  0  0  0  0
    5.3569    6.1276    6.6680 C   0  0  0  0  0  0  0  0  0  0  0  0
    3.8977    6.1874    6.4362 N   0  0  0  0  0  0  0  0  0  0  0  0
  1  2  1  0  0  0  0
  2  3  1  0  0  0  0
  3  4  1  0  0  0  0
  4  5  1  0  0  0  0
  5  6  1  0  0  0  0
  6  7  1  0  0  0  0
  7  8  1  0  0  0  0
  8  9  1  0  0  0  0
  9 10  1  0  0  0  0
 10 11  1  0  0  0  0
 11 12  1  0  0  0  0
 12 13  1  0  0  0  0
 13 14  1  0  0  0  0
M  END
>  <CHROM.1>
72.14378297,179.33922794,165.18572152,83.30654395,69.83553500,-178.81833751
-173.87131362,130.13813054,-131.20867511,63.54418258,66.46974803,6.01367660
9.23775575,3.33751540,1.32529431,0.85224118,-0.36965394

>  <Name>
ligand

>  <RI>
0

>  <Rbt.Current_Directory>
/home/itssahil/PROJECTS/Mol_Feturizer/New_Systems/rnas/2O3Y

>  <Rbt.Executable>
rbdock ($Id: //depot/dev/client3/rdock/2013.1/src/exe/rbdock.cxx#4 $)

>  <Rbt.Library>
libRbt.so (2013.1, Build901 2013/11/27)

>  <Rbt.Parameter_File>
/export/apps/rDock/src/rDock_2013.1_src/data/scripts/dock_solv.prm

>  <Rbt.Receptor>
prm/blind_docking_20.prm

>  <SCORE>
-6.4211

>  <SCORE.INTER>
1.31126

>  <SCORE.INTER.CONST>
1

>  <SCORE.INTER.POLAR>
0

>  <SCORE.INTER.ROT>
11

>  <SCORE.INTER.SOLV>
10.274

>  <SCORE.INTER.VDW>
-13.4838

>  <SCORE.INTER.norm>
0.0936617

>  <SCORE.INTRA>
-7.76953

>  <SCORE.INTRA.DIHEDRAL>
-20.0904

>  <SCORE.INTRA.DIHEDRAL.0>
24.1231

>  <SCORE.INTRA.POLAR>
0

>  <SCORE.INTRA.POLAR.0>
0

>  <SCORE.INTRA.REPUL>
0

>  <SCORE.INTRA.REPUL.0>
0

>  <SCORE.INTRA.SOLV>
2.87275

>  <SCORE.INTRA.SOLV.lig_0>
-48.2216

>  <SCORE.INTRA.VDW>
0.839315

>  <SCORE.INTRA.VDW.0>
-1.3967

>  <SCORE.INTRA.norm>
-0.554967

>  <SCORE.RESTR>
0.0371673

>  <SCORE.RESTR.CAVITY>
0.0371673

>  <SCORE.RESTR.norm>
0.00265481

>  <SCORE.SYSTEM>
0

>  <SCORE.SYSTEM.CONST>
0

>  <SCORE.SYSTEM.DIHEDRAL>
0

>  <SCORE.SYSTEM.SOLV>
0

>  <SCORE.SYSTEM.norm>
0

>  <SCORE.heavy>
14

>  <SCORE.norm>
-0.45865

>  <RMSD>
12.686

$$$$
ligand
 OpenBabel11021811463D
libRbt.so/2013.1/901 2013/11/27
 14 13  0  0  0  0  0  0  0  0999 V2000
    6.0345    5.2395    4.0074 N   0  0  0  0  0  0  0  0  0  0  0  0
    5.3774    4.4642    5.0681 C   0  0  0  0  0  0  0  0  0  0  0  0
    5.7435    5.0551    6.4257 C   0  0  0  0  0  0  0  0  0  0  0  0
    5.0049    6.3722    6.5985 C   0  0  0  0  0  0  0  0  0  0  0  0
    5.5460    7.3506    5.6483 N   0  0  0  0  0  0  0  0  0  0  0  0
    4.3948    8.0011    4.9984 C   0  0  0  0  0  0  0  0  0  0  0  0
    4.8542    9.2048    4.1677 C   0  0  0  0  0  0  0  0  0  0  0  0
    5.7998    8.6985    3.0681 C   0  0  0  0  0  0  0  0  0  0  0  0
    5.8213    9.6475    1.9430 C   0  0  0  0  0  0  0  0  0  0  0  0
    6.5003   10.8743    2.4076 N   0  0  0  0  0  0  0  0  0  0  0  0
    6.6066   11.8862    1.2610 C   0  0  0  0  0  0  0  0  0  0  0  0
    7.4756   13.0716    1.6982 C   0  0  0  0  0  0  0  0  0  0  0  0
    7.7421   13.9474    0.5409 C   0  0  0  0  0  0  0  0  0  0  0  0
    6.4716   14.5213    0.0478 N   0  0  0  0  0  0  0  0  0  0  0  0
  1  2  1  0  0  0  0
  2  3  1  0  0  0  0
  3  4  1  0  0  0  0
  4  5  1  0  0  0  0
  5  6  1  0  0  0  0
  6  7  1  0  0  0  0
  7  8  1  0  0  0  0
  8  9  1  0  0  0  0
  9 10  1  0  0  0  0
 10 11  1  0  0  0  0
 11 12  1  0  0  0  0
 12 13  1  0  0  0  0
 13 14  1  0  0  0  0
M  END
>  <CHROM.1>
72.82979846,-68.13034937,133.03311184,170.22752150,61.72907207,156.38163140
69.08671439,177.71373317,-172.39723696,171.79983851,63.49107160,5.95510438
9.16660862,3.42022455,-1.99080330,1.11728355,-0.17430587

>  <Name>
ligand

>  <RI>
0

>  <Rbt.Current_Directory>
/home/itssahil/PROJECTS/Mol_Feturizer/New_Systems/rnas/2O3Y

>  <Rbt.Executable>
rbdock ($Id: //depot/dev/client3/rdock/2013.1/src/exe/rbdock.cxx#4 $)

>  <Rbt.Library>
libRbt.so (2013.1, Build901 2013/11/27)

>  <Rbt.Parameter_File>
/export/apps/rDock/src/rDock_2013.1_src/data/scripts/dock_solv.prm

>  <Rbt.Receptor>
prm/blind_docking_20.prm

>  <SCORE>
-2.44547

>  <SCORE.INTER>
3.86461

>  <SCORE.INTER.CONST>
1

>  <SCORE.INTER.POLAR>
0

>  <SCORE.INTER.ROT>
11

>  <SCORE.INTER.SOLV>
11.1817

>  <SCORE.INTER.VDW>
-12.0842

>  <SCORE.INTER.norm>
0.276044

>  <SCORE.INTRA>
-6.32031

>  <SCORE.INTRA.DIHEDRAL>
-19.4126

>  <SCORE.INTRA.DIHEDRAL.0>
24.1231

>  <SCORE.INTRA.POLAR>
0

>  <SCORE.INTRA.POLAR.0>
0

>  <SCORE.INTRA.REPUL>
0

>  <SCORE.INTRA.REPUL.0>
0

>  <SCORE.INTRA.SOLV>
5.30336

>  <SCORE.INTRA.SOLV.lig_0>
-48.2216

>  <SCORE.INTRA.VDW>
0.734323

>  <SCORE.INTRA.VDW.0>
-1.3967

>  <SCORE.INTRA.norm>
-0.45145

>  <SCORE.RESTR>
0.0102287

>  <SCORE.RESTR.CAVITY>
0.0102287

>  <SCORE.RESTR.norm>
0.000730619

>  <SCORE.SYSTEM>
0

>  <SCORE.SYSTEM.CONST>
0

>  <SCORE.SYSTEM.DIHEDRAL>
0

>  <SCORE.SYSTEM.SOLV>
0

>  <SCORE.SYSTEM.norm>
0

>  <SCORE.heavy>
14

>  <SCORE.norm>
-0.174676

>  <RMSD>
12.696

$$$$
ligand
 OpenBabel11021811463D
libRbt.so/2013.1/901 2013/11/27
 14 13  0  0  0  0  0  0  0  0999 V2000
    7.3953   12.9223   -0.4972 N   0  0  0  0  0  0  0  0  0  0  0  0
    7.3643   14.2139    0.2019 C   0  0  0  0  0  0  0  0  0  0  0  0
    7.9635   14.0485    1.5947 C   0  0  0  0  0  0  0  0  0  0  0  0
    7.0438   13.1618    2.4181 C   0  0  0  0  0  0  0  0  0  0  0  0
    7.0361   11.8139    1.8383 N   0  0  0  0  0  0  0  0  0  0  0  0
    6.1906   10.9767    2.7072 C   0  0  0  0  0  0  0  0  0  0  0  0
    5.5736    9.8226    1.9088 C   0  0  0  0  0  0  0  0  0  0  0  0
    5.0267    8.7873    2.9031 C   0  0  0  0  0  0  0  0  0  0  0  0
    6.1352    8.0254    3.5009 C   0  0  0  0  0  0  0  0  0  0  0  0
    5.5444    6.9498    4.3230 N   0  0  0  0  0  0  0  0  0  0  0  0
    6.4928    5.7469    4.3807 C   0  0  0  0  0  0  0  0  0  0  0  0
    5.8033    4.5803    5.0985 C   0  0  0  0  0  0  0  0  0  0  0  0
    5.4965    4.9633    6.4902 C   0  0  0  0  0  0  0  0  0  0  0  0
    4.2507    5.7590    6.5246 N   0  0  0  0  0  0  0  0  0  0  0  0
  1  2  1  0  0  0  0
  2  3  1  0  0  0  0
  3  4  1  0  0  0  0
  4  5  1  0  0  0  0
  5  6  1  0  0  0  0
  6  7  1  0  0  0  0
  7  8  1  0  0  0  0
  8  9  1  0  0  0  0
  9 10  1  0  0  0  0
 10 11  1  0  0  0  0
 11 12  1  0  0  0  0
 12 13  1  0  0  0  0
 13 14  1  0  0  0  0
M  END
>  <CHROM.1>
-67.06671045,65.79238874,177.10952190,152.86641548,165.03473721,-74.87193227
-173.60601437,151.08287781,-173.52906850,-62.42686756,81.34989696,6.23698587
9.41227255,3.09949545,-0.41510097,-1.34521806,-2.51714166

>  <Name>
ligand

>  <RI>
0

>  <Rbt.Current_Directory>
/home/itssahil/PROJECTS/Mol_Feturizer/New_Systems/rnas/2O3Y

>  <Rbt.Executable>
rbdock ($Id: //depot/dev/client3/rdock/2013.1/src/exe/rbdock.cxx#4 $)

>  <Rbt.Library>
libRbt.so (2013.1, Build901 2013/11/27)

>  <Rbt.Parameter_File>
/export/apps/rDock/src/rDock_2013.1_src/data/scripts/dock_solv.prm

>  <Rbt.Receptor>
prm/blind_docking_20.prm

>  <SCORE>
-2.611

>  <SCORE.INTER>
2.63864

>  <SCORE.INTER.CONST>
1

>  <SCORE.INTER.POLAR>
0

>  <SCORE.INTER.ROT>
11

>  <SCORE.INTER.SOLV>
13.611

>  <SCORE.INTER.VDW>
-13.7112

>  <SCORE.INTER.norm>
0.188474

>  <SCORE.INTRA>
-5.36356

>  <SCORE.INTRA.DIHEDRAL>
-19.2787

>  <SCORE.INTRA.DIHEDRAL.0>
24.1231

>  <SCORE.INTRA.POLAR>
0

>  <SCORE.INTRA.POLAR.0>
0

>  <SCORE.INTRA.REPUL>
0

>  <SCORE.INTRA.REPUL.0>
0

>  <SCORE.INTRA.SOLV>
5.73531

>  <SCORE.INTRA.SOLV.lig_0>
-48.2216

>  <SCORE.INTRA.VDW>
1.40815

>  <SCORE.INTRA.VDW.0>
-1.3967

>  <SCORE.INTRA.norm>
-0.383112

>  <SCORE.RESTR>
0.113925

>  <SCORE.RESTR.CAVITY>
0.113925

>  <SCORE.RESTR.norm>
0.0081375

>  <SCORE.SYSTEM>
0

>  <SCORE.SYSTEM.CONST>
0

>  <SCORE.SYSTEM.DIHEDRAL>
0

>  <SCORE.SYSTEM.SOLV>
0

>  <SCORE.SYSTEM.norm>
0

>  <SCORE.heavy>
14

>  <SCORE.norm>
-0.1865

>  <RMSD>
12.740

$$$$
ligand
 OpenBabel11021811463D
libRbt.so/2013.1/901 2013/11/27
 14 13  0  0  0  0  0  0  0  0999 V2000
    5.4681    4.9002    6.7103 N   0  0  0  0  0  0  0  0  0  0  0  0
    4.9803    5.1239    5.3427 C   0  0  0  0  0  0  0  0  0  0  0  0
    5.9652    6.0170    4.5954 C   0  0  0  0  0  0  0  0  0  0  0  0
    5.4232    6.2779    3.1995 C   0  0  0  0  0  0  0  0  0  0  0  0
    6.3022    7.2348    2.5178 N   0  0  0  0  0  0  0  0  0  0  0  0
    5.6433    8.5506    2.5893 C   0  0  0  0  0  0  0  0  0  0  0  0
    5.9007    9.2092    3.9495 C   0  0  0  0  0  0  0  0  0  0  0  0
    4.9823   10.4342    4.0731 C   0  0  0  0  0  0  0  0  0  0  0  0
    5.6491   11.6243    3.5203 C   0  0  0  0  0  0  0  0  0  0  0  0
    5.6066   11.5154    2.0478 N   0  0  0  0  0  0  0  0  0  0  0  0
    7.0296   11.4883    1.4784 C   0  0  0  0  0  0  0  0  0  0  0  0
    7.3667   12.8536    0.8670 C   0  0  0  0  0  0  0  0  0  0  0  0
    7.5024   13.8593    1.9383 C   0  0  0  0  0  0  0  0  0  0  0  0
    7.7519   15.1899    1.3435 N   0  0  0  0  0  0  0  0  0  0  0  0
  1  2  1  0  0  0  0
  2  3  1  0  0  0  0
  3  4  1  0  0  0  0
  4  5  1  0  0  0  0
  5  6  1  0  0  0  0
  6  7  1  0  0  0  0
  7  8  1  0  0  0  0
  8  9  1  0  0  0  0
  9 10  1  0  0  0  0
 10 11  1  0  0  0  0
 11 12  1  0  0  0  0
 12 13  1  0  0  0  0
 13 14  1  0  0  0  0
M  END
>  <CHROM.1>
-178.07842488,174.84966131,-101.04493674,81.38504148,-169.24239214,-88.86742603
75.40790293,-119.57420787,-103.70937705,69.53970825,-176.83233872,6.11218405
9.59128245,3.15521881,2.20144749,-1.23448409,-2.94278210

>  <Name>
ligand

>  <RI>
0

>  <Rbt.Current_Directory>
/home/itssahil/PROJECTS/Mol_Feturizer/New_Systems/rnas/2O3Y

>  <Rbt.Executable>
rbdock ($Id: //depot/dev/client3/rdock/2013.1/src/exe/rbdock.cxx#4 $)

>  <Rbt.Library>
libRbt.so (2013.1, Build901 2013/11/27)

>  <Rbt.Parameter_File>
/export/apps/rDock/src/rDock_2013.1_src/data/scripts/dock_solv.prm

>  <Rbt.Receptor>
prm/blind_docking_20.prm

>  <SCORE>
-1.94331

>  <SCORE.INTER>
3.5108

>  <SCORE.INTER.CONST>
1

>  <SCORE.INTER.POLAR>
0

>  <SCORE.INTER.ROT>
11

>  <SCORE.INTER.SOLV>
11.3426

>  <SCORE.INTER.VDW>
-12.3737

>  <SCORE.INTER.norm>
0.250772

>  <SCORE.INTRA>
-6.18013

>  <SCORE.INTRA.DIHEDRAL>
-16.0179

>  <SCORE.INTRA.DIHEDRAL.0>
24.1231

>  <SCORE.INTRA.POLAR>
0

>  <SCORE.INTRA.POLAR.0>
0

>  <SCORE.INTRA.REPUL>
0

>  <SCORE.INTRA.REPUL.0>
0

>  <SCORE.INTRA.SOLV>
0.475854

>  <SCORE.INTRA.SOLV.lig_0>
-48.2216

>  <SCORE.INTRA.VDW>
1.59088

>  <SCORE.INTRA.VDW.0>
-1.3967

>  <SCORE.INTRA.norm>
-0.441438

>  <SCORE.RESTR>
0.726022

>  <SCORE.RESTR.CAVITY>
0.726022

>  <SCORE.RESTR.norm>
0.0518587

>  <SCORE.SYSTEM>
0

>  <SCORE.SYSTEM.CONST>
0

>  <SCORE.SYSTEM.DIHEDRAL>
0

>  <SCORE.SYSTEM.SOLV>
0

>  <SCORE.SYSTEM.norm>
0

>  <SCORE.heavy>
14

>  <SCORE.norm>
-0.138808

>  <RMSD>
12.760

$$$$
ligand
 OpenBabel11021811463D
libRbt.so/2013.1/901 2013/11/27
 14 13  0  0  0  0  0  0  0  0999 V2000
    3.9303    6.0443    6.6134 N   0  0  0  0  0  0  0  0  0  0  0  0
    5.3979    6.1027    6.5835 C   0  0  0  0  0  0  0  0  0  0  0  0
    5.9301    4.9768    5.7030 C   0  0  0  0  0  0  0  0  0  0  0  0
    5.5737    5.2798    4.2569 C   0  0  0  0  0  0  0  0  0  0  0  0
    6.3505    6.4407    3.8075 N   0  0  0  0  0  0  0  0  0  0  0  0
    5.6134    7.0420    2.6824 C   0  0  0  0  0  0  0  0  0  0  0  0
    6.0420    8.4991    2.4746 C   0  0  0  0  0  0  0  0  0  0  0  0
    5.6728    9.2944    3.7358 C   0  0  0  0  0  0  0  0  0  0  0  0
    6.1376   10.6855    3.6108 C   0  0  0  0  0  0  0  0  0  0  0  0
    5.4011   11.3025    2.4889 N   0  0  0  0  0  0  0  0  0  0  0  0
    6.0637   12.6243    2.0848 C   0  0  0  0  0  0  0  0  0  0  0  0
    7.0636   12.3741    0.9493 C   0  0  0  0  0  0  0  0  0  0  0  0
    7.6419   13.6563    0.5033 C   0  0  0  0  0  0  0  0  0  0  0  0
    6.5678   14.5382   -0.0018 N   0  0  0  0  0  0  0  0  0  0  0  0
  1  2  1  0  0  0  0
  2  3  1  0  0  0  0
  3  4  1  0  0  0  0
  4  5  1  0  0  0  0
  5  6  1  0  0  0  0
  6  7  1  0  0  0  0
  7  8  1  0  0  0  0
  8  9  1  0  0  0  0
  9 10  1  0  0  0  0
 10 11  1  0  0  0  0
 11 12  1  0  0  0  0
 12 13  1  0  0  0  0
 13 14  1  0  0  0  0
M  END
>  <CHROM.1>
69.50792865,68.61588522,-156.63990758,159.53815982,-62.84045052,176.73514734
64.08743419,-166.38699246,93.44569071,176.57753875,-60.85435888,5.95633079
9.20417887,3.24946948,1.93334325,-1.11412729,2.93581863

>  <Name>
ligand

>  <RI>
0

>  <Rbt.Current_Directory>
/home/itssahil/PROJECTS/Mol_Feturizer/New_Systems/rnas/2O3Y

>  <Rbt.Executable>
rbdock ($Id: //depot/dev/client3/rdock/2013.1/src/exe/rbdock.cxx#4 $)

>  <Rbt.Library>
libRbt.so (2013.1, Build901 2013/11/27)

>  <Rbt.Parameter_File>
/export/apps/rDock/src/rDock_2013.1_src/data/scripts/dock_solv.prm

>  <Rbt.Receptor>
prm/blind_docking_20.prm

>  <SCORE>
-6.79633

>  <SCORE.INTER>
1.70753

>  <SCORE.INTER.CONST>
1

>  <SCORE.INTER.POLAR>
0

>  <SCORE.INTER.ROT>
11

>  <SCORE.INTER.SOLV>
8.72122

>  <SCORE.INTER.VDW>
-12.7021

>  <SCORE.INTER.norm>
0.121966

>  <SCORE.INTRA>
-8.51676

>  <SCORE.INTRA.DIHEDRAL>
-21.765

>  <SCORE.INTRA.DIHEDRAL.0>
24.1231

>  <SCORE.INTRA.POLAR>
0

>  <SCORE.INTRA.POLAR.0>
0

>  <SCORE.INTRA.REPUL>
0

>  <SCORE.INTRA.REPUL.0>
0

>  <SCORE.INTRA.SOLV>
2.77335

>  <SCORE.INTRA.SOLV.lig_0>
-48.2216

>  <SCORE.INTRA.VDW>
0.979079

>  <SCORE.INTRA.VDW.0>
-1.3967

>  <SCORE.INTRA.norm>
-0.60834

>  <SCORE.RESTR>
0.0128957

>  <SCORE.RESTR.CAVITY>
0.0128957

>  <SCORE.RESTR.norm>
0.000921123

>  <SCORE.SYSTEM>
0

>  <SCORE.SYSTEM.CONST>
0

>  <SCORE.SYSTEM.DIHEDRAL>
0

>  <SCORE.SYSTEM.SOLV>
0

>  <SCORE.SYSTEM.norm>
0

>  <SCORE.heavy>
14

>  <SCORE.norm>
-0.485452

>  <RMSD>
12.790

$$$$
ligand
 OpenBabel11021811463D
libRbt.so/2013.1/901 2013/11/27
 14 13  0  0  0  0  0  0  0  0999 V2000
    3.9116    6.4560    6.9991 N   0  0  0  0  0  0  0  0  0  0  0  0
    4.7674    5.2680    6.8791 C   0  0  0  0  0  0  0  0  0  0  0  0
    5.9026    5.5603    5.9033 C   0  0  0  0  0  0  0  0  0  0  0  0
    5.3068    5.8413    4.5336 C   0  0  0  0  0  0  0  0  0  0  0  0
    6.3882    6.1919    3.6059 N   0  0  0  0  0  0  0  0  0  0  0  0
    5.9102    7.3270    2.7973 C   0  0  0  0  0  0  0  0  0  0  0  0
    6.0770    8.6435    3.5647 C   0  0  0  0  0  0  0  0  0  0  0  0
    5.7847    9.8033    2.6008 C   0  0  0  0  0  0  0  0  0  0  0  0
    6.0749   11.0898    3.2546 C   0  0  0  0  0  0  0  0  0  0  0  0
    6.0819   12.1308    2.2068 N   0  0  0  0  0  0  0  0  0  0  0  0
    7.4571   12.1930    1.5325 C   0  0  0  0  0  0  0  0  0  0  0  0
    7.6754   13.5879    0.9339 C   0  0  0  0  0  0  0  0  0  0  0  0
    6.8458   13.7460   -0.2761 C   0  0  0  0  0  0  0  0  0  0  0  0
    5.4228   13.8657    0.1079 N   0  0  0  0  0  0  0  0  0  0  0  0
  1  2  1  0  0  0  0
  2  3  1  0  0  0  0
  3  4  1  0  0  0  0
  4  5  1  0  0  0  0
  5  6  1  0  0  0  0
  6  7  1  0  0  0  0
  7  8  1  0  0  0  0
  8  9  1  0  0  0  0
  9 10  1  0  0  0  0
 10 11  1  0  0  0  0
 11 12  1  0  0  0  0
 12 13  1  0  0  0  0
 13 14  1  0  0  0  0
M  END
>  <CHROM.1>
-62.67985909,177.08102276,-137.73292640,81.40699413,170.82110998,-173.86499140
167.08092065,-84.41549916,-155.23261616,-73.42448084,71.68881486,5.97209435
9.40736252,3.18878719,1.87095445,-0.97548623,2.80420869

>  <Name>
ligand

>  <RI>
0

>  <Rbt.Current_Directory>
/home/itssahil/PROJECTS/Mol_Feturizer/New_Systems/rnas/2O3Y

>  <Rbt.Executable>
rbdock ($Id: //depot/dev/client3/rdock/2013.1/src/exe/rbdock.cxx#4 $)

>  <Rbt.Library>
libRbt.so (2013.1, Build901 2013/11/27)

>  <Rbt.Parameter_File>
/export/apps/rDock/src/rDock_2013.1_src/data/scripts/dock_solv.prm

>  <Rbt.Receptor>
prm/blind_docking_20.prm

>  <SCORE>
-5.28403

>  <SCORE.INTER>
1.61039

>  <SCORE.INTER.CONST>
1

>  <SCORE.INTER.POLAR>
0

>  <SCORE.INTER.ROT>
11

>  <SCORE.INTER.SOLV>
10.2165

>  <SCORE.INTER.VDW>
-13.2652

>  <SCORE.INTER.norm>
0.115028

>  <SCORE.INTRA>
-6.89442

>  <SCORE.INTRA.DIHEDRAL>
-19.6685

>  <SCORE.INTRA.DIHEDRAL.0>
24.1231

>  <SCORE.INTRA.POLAR>
0

>  <SCORE.INTRA.POLAR.0>
0

>  <SCORE.INTRA.REPUL>
0

>  <SCORE.INTRA.REPUL.0>
0

>  <SCORE.INTRA.SOLV>
2.91197

>  <SCORE.INTRA.SOLV.lig_0>
-48.2216

>  <SCORE.INTRA.VDW>
1.48385

>  <SCORE.INTRA.VDW.0>
-1.3967

>  <SCORE.INTRA.norm>
-0.492458

>  <SCORE.RESTR>
0

>  <SCORE.RESTR.CAVITY>
0

>  <SCORE.RESTR.norm>
0

>  <SCORE.SYSTEM>
0

>  <SCORE.SYSTEM.CONST>
0

>  <SCORE.SYSTEM.DIHEDRAL>
0

>  <SCORE.SYSTEM.SOLV>
0

>  <SCORE.SYSTEM.norm>
0

>  <SCORE.heavy>
14

>  <SCORE.norm>
-0.377431

>  <RMSD>
12.817

$$$$
ligand
 OpenBabel11021811463D
libRbt.so/2013.1/901 2013/11/27
 14 13  0  0  0  0  0  0  0  0999 V2000
    5.9445    5.4085    6.8370 N   0  0  0  0  0  0  0  0  0  0  0  0
    4.7743    6.1665    6.3743 C   0  0  0  0  0  0  0  0  0  0  0  0
    3.9320    5.2849    5.4581 C   0  0  0  0  0  0  0  0  0  0  0  0
    4.6948    5.0598    4.1629 C   0  0  0  0  0  0  0  0  0  0  0  0
    4.6774    6.2992    3.3776 N   0  0  0  0  0  0  0  0  0  0  0  0
    6.0772    6.7344    3.2296 C   0  0  0  0  0  0  0  0  0  0  0  0
    6.2847    8.1103    3.8727 C   0  0  0  0  0  0  0  0  0  0  0  0
    5.7422    9.1783    2.9112 C   0  0  0  0  0  0  0  0  0  0  0  0
    5.8493   10.5123    3.5242 C   0  0  0  0  0  0  0  0  0  0  0  0
    5.4692   11.5057    2.4994 N   0  0  0  0  0  0  0  0  0  0  0  0
    6.6846   11.8690    1.6388 C   0  0  0  0  0  0  0  0  0  0  0  0
    6.3149   13.0054    0.6777 C   0  0  0  0  0  0  0  0  0  0  0  0
    7.5233   13.4742   -0.0276 C   0  0  0  0  0  0  0  0  0  0  0  0
    8.4780   14.0459    0.9462 N   0  0  0  0  0  0  0  0  0  0  0  0
  1  2  1  0  0  0  0
  2  3  1  0  0  0  0
  3  4  1  0  0  0  0
  4  5  1  0  0  0  0
  5  6  1  0  0  0  0
  6  7  1  0  0  0  0
  7  8  1  0  0  0  0
  8  9  1  0  0  0  0
  9 10  1  0  0  0  0
 10 11  1  0  0  0  0
 11 12  1  0  0  0  0
 12 13  1  0  0  0  0
 13 14  1  0  0  0  0
M  END
>  <CHROM.1>
-69.45088087,-72.84221302,117.94299304,-118.65457721,-78.47430502,176.68066138
173.26578198,-85.80942105,-174.09563260,172.75839887,-63.49840668,5.88892732
9.04664206,3.24864772,-2.16334893,-1.10997513,-1.06910430

>  <Name>
ligand

>  <RI>
0

>  <Rbt.Current_Directory>
/home/itssahil/PROJECTS/Mol_Feturizer/New_Systems/rnas/2O3Y

>  <Rbt.Executable>
rbdock ($Id: //depot/dev/client3/rdock/2013.1/src/exe/rbdock.cxx#4 $)

>  <Rbt.Library>
libRbt.so (2013.1, Build901 2013/11/27)

>  <Rbt.Parameter_File>
/export/apps/rDock/src/rDock_2013.1_src/data/scripts/dock_solv.prm

>  <Rbt.Receptor>
prm/blind_docking_20.prm

>  <SCORE>
-2.0554

>  <SCORE.INTER>
4.94154

>  <SCORE.INTER.CONST>
1

>  <SCORE.INTER.POLAR>
0

>  <SCORE.INTER.ROT>
11

>  <SCORE.INTER.SOLV>
12.4165

>  <SCORE.INTER.VDW>
-11.7778

>  <SCORE.INTER.norm>
0.352967

>  <SCORE.INTRA>
-6.99693

>  <SCORE.INTRA.DIHEDRAL>
-18.6466

>  <SCORE.INTRA.DIHEDRAL.0>
24.1231

>  <SCORE.INTRA.POLAR>
0

>  <SCORE.INTRA.POLAR.0>
0

>  <SCORE.INTRA.REPUL>
0

>  <SCORE.INTRA.REPUL.0>
0

>  <SCORE.INTRA.SOLV>
2.9735

>  <SCORE.INTRA.SOLV.lig_0>
-48.2216

>  <SCORE.INTRA.VDW>
0.839601

>  <SCORE.INTRA.VDW.0>
-1.3967

>  <SCORE.INTRA.norm>
-0.499781

>  <SCORE.RESTR>
0

>  <SCORE.RESTR.CAVITY>
0

>  <SCORE.RESTR.norm>
0

>  <SCORE.SYSTEM>
0

>  <SCORE.SYSTEM.CONST>
0

>  <SCORE.SYSTEM.DIHEDRAL>
0

>  <SCORE.SYSTEM.SOLV>
0

>  <SCORE.SYSTEM.norm>
0

>  <SCORE.heavy>
14

>  <SCORE.norm>
-0.146814

>  <RMSD>
12.817

$$$$
ligand
 OpenBabel11021811463D
libRbt.so/2013.1/901 2013/11/27
 14 13  0  0  0  0  0  0  0  0999 V2000
    6.0019   14.0941   -0.3021 N   0  0  0  0  0  0  0  0  0  0  0  0
    7.2859   13.3889   -0.1912 C   0  0  0  0  0  0  0  0  0  0  0  0
    8.0569   13.9299    1.0084 C   0  0  0  0  0  0  0  0  0  0  0  0
    7.2581   13.6441    2.2695 C   0  0  0  0  0  0  0  0  0  0  0  0
    7.0871   12.1934    2.4072 N   0  0  0  0  0  0  0  0  0  0  0  0
    6.4402   11.9582    3.7099 C   0  0  0  0  0  0  0  0  0  0  0  0
    5.2748   10.9732    3.5631 C   0  0  0  0  0  0  0  0  0  0  0  0
    5.8419    9.6205    3.1066 C   0  0  0  0  0  0  0  0  0  0  0  0
    4.7440    8.6876    2.8048 C   0  0  0  0  0  0  0  0  0  0  0  0
    3.9699    8.4932    4.0477 N   0  0  0  0  0  0  0  0  0  0  0  0
    4.1932    7.0783    4.5937 C   0  0  0  0  0  0  0  0  0  0  0  0
    5.1947    7.1253    5.7540 C   0  0  0  0  0  0  0  0  0  0  0  0
    5.4059    5.7648    6.2851 C   0  0  0  0  0  0  0  0  0  0  0  0
    6.0381    4.9188    5.2501 N   0  0  0  0  0  0  0  0  0  0  0  0
  1  2  1  0  0  0  0
  2  3  1  0  0  0  0
  3  4  1  0  0  0  0
  4  5  1  0  0  0  0
  5  6  1  0  0  0  0
  6  7  1  0  0  0  0
  7  8  1  0  0  0  0
  8  9  1  0  0  0  0
  9 10  1  0  0  0  0
 10 11  1  0  0  0  0
 11 12  1  0  0  0  0
 12 13  1  0  0  0  0
 13 14  1  0  0  0  0
M  END
>  <CHROM.1>
62.52486778,60.59143927,173.95844504,133.14456607,63.65076242,-173.57574156
-61.20184463,-109.53586898,101.37970862,179.72996380,64.50228043,5.91381671
10.13367386,3.16491258,1.28429478,-0.62220377,-0.71103551

>  <Name>
ligand

>  <RI>
0

>  <Rbt.Current_Directory>
/home/itssahil/PROJECTS/Mol_Feturizer/New_Systems/rnas/2O3Y

>  <Rbt.Executable>
rbdock ($Id: //depot/dev/client3/rdock/2013.1/src/exe/rbdock.cxx#4 $)

>  <Rbt.Library>
libRbt.so (2013.1, Build901 2013/11/27)

>  <Rbt.Parameter_File>
/export/apps/rDock/src/rDock_2013.1_src/data/scripts/dock_solv.prm

>  <Rbt.Receptor>
prm/blind_docking_20.prm

>  <SCORE>
-4.09159

>  <SCORE.INTER>
3.45593

>  <SCORE.INTER.CONST>
1

>  <SCORE.INTER.POLAR>
0

>  <SCORE.INTER.ROT>
11

>  <SCORE.INTER.SOLV>
8.96459

>  <SCORE.INTER.VDW>
-11.6176

>  <SCORE.INTER.norm>
0.246852

>  <SCORE.INTRA>
-7.54752

>  <SCORE.INTRA.DIHEDRAL>
-20.6518

>  <SCORE.INTRA.DIHEDRAL.0>
24.1231

>  <SCORE.INTRA.POLAR>
0

>  <SCORE.INTRA.POLAR.0>
0

>  <SCORE.INTRA.REPUL>
0

>  <SCORE.INTRA.REPUL.0>
0

>  <SCORE.INTRA.SOLV>
2.89793

>  <SCORE.INTRA.SOLV.lig_0>
-48.2216

>  <SCORE.INTRA.VDW>
1.32941

>  <SCORE.INTRA.VDW.0>
-1.3967

>  <SCORE.INTRA.norm>
-0.539109

>  <SCORE.RESTR>
0

>  <SCORE.RESTR.CAVITY>
0

>  <SCORE.RESTR.norm>
0

>  <SCORE.SYSTEM>
0

>  <SCORE.SYSTEM.CONST>
0

>  <SCORE.SYSTEM.DIHEDRAL>
0

>  <SCORE.SYSTEM.SOLV>
0

>  <SCORE.SYSTEM.norm>
0

>  <SCORE.heavy>
14

>  <SCORE.norm>
-0.292257

>  <RMSD>
12.831

$$$$
ligand
 OpenBabel11021811463D
libRbt.so/2013.1/901 2013/11/27
 14 13  0  0  0  0  0  0  0  0999 V2000
    3.7610    4.8894    6.4687 N   0  0  0  0  0  0  0  0  0  0  0  0
    5.1903    5.0623    6.7612 C   0  0  0  0  0  0  0  0  0  0  0  0
    5.5311    6.5489    6.7525 C   0  0  0  0  0  0  0  0  0  0  0  0
    5.2547    7.1035    5.3646 C   0  0  0  0  0  0  0  0  0  0  0  0
    6.1026    6.4029    4.3935 N   0  0  0  0  0  0  0  0  0  0  0  0
    6.4036    7.3608    3.3153 C   0  0  0  0  0  0  0  0  0  0  0  0
    5.2528    7.4131    2.3039 C   0  0  0  0  0  0  0  0  0  0  0  0
    5.3565    8.7324    1.5240 C   0  0  0  0  0  0  0  0  0  0  0  0
    5.0057    9.8648    2.3965 C   0  0  0  0  0  0  0  0  0  0  0  0
    5.4033   11.1047    1.6992 N   0  0  0  0  0  0  0  0  0  0  0  0
    6.6764   11.6806    2.3295 C   0  0  0  0  0  0  0  0  0  0  0  0
    7.0258   13.0149    1.6592 C   0  0  0  0  0  0  0  0  0  0  0  0
    7.1985   12.8129    0.2077 C   0  0  0  0  0  0  0  0  0  0  0  0
    7.4325   14.1154   -0.4520 N   0  0  0  0  0  0  0  0  0  0  0  0
  1  2  1  0  0  0  0
  2  3  1  0  0  0  0
  3  4  1  0  0  0  0
  4  5  1  0  0  0  0
  5  6  1  0  0  0  0
  6  7  1  0  0  0  0
  7  8  1  0  0  0  0
  8  9  1  0  0  0  0
  9 10  1  0  0  0  0
 10 11  1  0  0  0  0
 11 12  1  0  0  0  0
 12 13  1  0  0  0  0
 13 14  1  0  0  0  0
M  END
>  <CHROM.1>
-61.84429462,-60.83790520,-148.76810190,-82.54731635,159.66088544,-70.77212229
167.80873420,-104.94110857,-176.24635815,-57.81399750,175.68125098,5.82825582
9.00755117,3.19462267,2.15545658,1.19427009,1.94880599

>  <Name>
ligand

>  <RI>
0

>  <Rbt.Current_Directory>
/home/itssahil/PROJECTS/Mol_Feturizer/New_Systems/rnas/2O3Y

>  <Rbt.Executable>
rbdock ($Id: //depot/dev/client3/rdock/2013.1/src/exe/rbdock.cxx#4 $)

>  <Rbt.Library>
libRbt.so (2013.1, Build901 2013/11/27)

>  <Rbt.Parameter_File>
/export/apps/rDock/src/rDock_2013.1_src/data/scripts/dock_solv.prm

>  <Rbt.Receptor>
prm/blind_docking_20.prm

>  <SCORE>
-3.01021

>  <SCORE.INTER>
3.23342

>  <SCORE.INTER.CONST>
1

>  <SCORE.INTER.POLAR>
0

>  <SCORE.INTER.ROT>
11

>  <SCORE.INTER.SOLV>
10.7207

>  <SCORE.INTER.VDW>
-12.3513

>  <SCORE.INTER.norm>
0.230958

>  <SCORE.INTRA>
-6.47764

>  <SCORE.INTRA.DIHEDRAL>
-19.5342

>  <SCORE.INTRA.DIHEDRAL.0>
24.1231

>  <SCORE.INTRA.POLAR>
0

>  <SCORE.INTRA.POLAR.0>
0

>  <SCORE.INTRA.REPUL>
0

>  <SCORE.INTRA.REPUL.0>
0

>  <SCORE.INTRA.SOLV>
1.98165

>  <SCORE.INTRA.SOLV.lig_0>
-48.2216

>  <SCORE.INTRA.VDW>
2.29865

>  <SCORE.INTRA.VDW.0>
-1.3967

>  <SCORE.INTRA.norm>
-0.462689

>  <SCORE.RESTR>
0.234012

>  <SCORE.RESTR.CAVITY>
0.234012

>  <SCORE.RESTR.norm>
0.0167152

>  <SCORE.SYSTEM>
0

>  <SCORE.SYSTEM.CONST>
0

>  <SCORE.SYSTEM.DIHEDRAL>
0

>  <SCORE.SYSTEM.SOLV>
0

>  <SCORE.SYSTEM.norm>
0

>  <SCORE.heavy>
14

>  <SCORE.norm>
-0.215015

>  <RMSD>
12.846

$$$$
ligand
 OpenBabel11021811463D
libRbt.so/2013.1/901 2013/11/27
 14 13  0  0  0  0  0  0  0  0999 V2000
    4.6703    5.1754    7.0770 N   0  0  0  0  0  0  0  0  0  0  0  0
    5.1666    6.1020    6.0508 C   0  0  0  0  0  0  0  0  0  0  0  0
    6.0257    5.3348    5.0511 C   0  0  0  0  0  0  0  0  0  0  0  0
    6.4663    6.2899    3.9539 C   0  0  0  0  0  0  0  0  0  0  0  0
    5.2814    6.7626    3.2290 N   0  0  0  0  0  0  0  0  0  0  0  0
    5.7499    7.7361    2.2273 C   0  0  0  0  0  0  0  0  0  0  0  0
    5.6811    9.1614    2.7876 C   0  0  0  0  0  0  0  0  0  0  0  0
    5.7955   10.1463    1.6143 C   0  0  0  0  0  0  0  0  0  0  0  0
    5.5968   11.5250    2.0901 C   0  0  0  0  0  0  0  0  0  0  0  0
    6.8788   11.9899    2.6575 N   0  0  0  0  0  0  0  0  0  0  0  0
    6.9541   13.5203    2.6097 C   0  0  0  0  0  0  0  0  0  0  0  0
    8.0595   13.9522    1.6385 C   0  0  0  0  0  0  0  0  0  0  0  0
    7.6788   13.5926    0.2589 C   0  0  0  0  0  0  0  0  0  0  0  0
    6.4566   14.3293   -0.1285 N   0  0  0  0  0  0  0  0  0  0  0  0
  1  2  1  0  0  0  0
  2  3  1  0  0  0  0
  3  4  1  0  0  0  0
  4  5  1  0  0  0  0
  5  6  1  0  0  0  0
  6  7  1  0  0  0  0
  7  8  1  0  0  0  0
  8  9  1  0  0  0  0
  9 10  1  0  0  0  0
 10 11  1  0  0  0  0
 11 12  1  0  0  0  0
 12 13  1  0  0  0  0
 13 14  1  0  0  0  0
M  END
>  <CHROM.1>
176.83299357,-63.68345980,177.05019745,-93.36188676,-164.44641117,174.25744529
81.60786342,155.49456554,-113.67808716,67.42598904,62.93861657,6.17596210
9.68703332,2.93682239,-2.50426817,-1.33700180,-1.41162512

>  <Name>
ligand

>  <RI>
0

>  <Rbt.Current_Directory>
/home/itssahil/PROJECTS/Mol_Feturizer/New_Systems/rnas/2O3Y

>  <Rbt.Executable>
rbdock ($Id: //depot/dev/client3/rdock/2013.1/src/exe/rbdock.cxx#4 $)

>  <Rbt.Library>
libRbt.so (2013.1, Build901 2013/11/27)

>  <Rbt.Parameter_File>
/export/apps/rDock/src/rDock_2013.1_src/data/scripts/dock_solv.prm

>  <Rbt.Receptor>
prm/blind_docking_20.prm

>  <SCORE>
-5.77623

>  <SCORE.INTER>
1.58198

>  <SCORE.INTER.CONST>
1

>  <SCORE.INTER.POLAR>
0

>  <SCORE.INTER.ROT>
11

>  <SCORE.INTER.SOLV>
9.88247

>  <SCORE.INTER.VDW>
-13.1728

>  <SCORE.INTER.norm>
0.112998

>  <SCORE.INTRA>
-7.38693

>  <SCORE.INTRA.DIHEDRAL>
-18.8971

>  <SCORE.INTRA.DIHEDRAL.0>
24.1231

>  <SCORE.INTRA.POLAR>
0

>  <SCORE.INTRA.POLAR.0>
0

>  <SCORE.INTRA.REPUL>
0

>  <SCORE.INTRA.REPUL.0>
0

>  <SCORE.INTRA.SOLV>
2.54441

>  <SCORE.INTRA.SOLV.lig_0>
-48.2216

>  <SCORE.INTRA.VDW>
0.789429

>  <SCORE.INTRA.VDW.0>
-1.3967

>  <SCORE.INTRA.norm>
-0.527638

>  <SCORE.RESTR>
0.0287237

>  <SCORE.RESTR.CAVITY>
0.0287237

>  <SCORE.RESTR.norm>
0.00205169

>  <SCORE.SYSTEM>
0

>  <SCORE.SYSTEM.CONST>
0

>  <SCORE.SYSTEM.DIHEDRAL>
0

>  <SCORE.SYSTEM.SOLV>
0

>  <SCORE.SYSTEM.norm>
0

>  <SCORE.heavy>
14

>  <SCORE.norm>
-0.412588

>  <RMSD>
12.870

$$$$
ligand
 OpenBabel11021811463D
libRbt.so/2013.1/901 2013/11/27
 14 13  0  0  0  0  0  0  0  0999 V2000
    5.5861   14.0403   -0.3126 N   0  0  0  0  0  0  0  0  0  0  0  0
    6.8363   13.2689   -0.3145 C   0  0  0  0  0  0  0  0  0  0  0  0
    7.8288   13.9140    0.6473 C   0  0  0  0  0  0  0  0  0  0  0  0
    7.2613   13.8391    2.0552 C   0  0  0  0  0  0  0  0  0  0  0  0
    7.0885   12.4298    2.4254 N   0  0  0  0  0  0  0  0  0  0  0  0
    6.3084   12.4058    3.6750 C   0  0  0  0  0  0  0  0  0  0  0  0
    5.2973   11.2537    3.6573 C   0  0  0  0  0  0  0  0  0  0  0  0
    6.0759    9.9298    3.6308 C   0  0  0  0  0  0  0  0  0  0  0  0
    5.1429    8.7929    3.6932 C   0  0  0  0  0  0  0  0  0  0  0  0
    5.9447    7.5542    3.6272 N   0  0  0  0  0  0  0  0  0  0  0  0
    5.0244    6.3351    3.4979 C   0  0  0  0  0  0  0  0  0  0  0  0
    5.1933    5.4290    4.7235 C   0  0  0  0  0  0  0  0  0  0  0  0
    4.6920    6.1204    5.9269 C   0  0  0  0  0  0  0  0  0  0  0  0
    4.8005    5.2238    7.0977 N   0  0  0  0  0  0  0  0  0  0  0  0
  1  2  1  0  0  0  0
  2  3  1  0  0  0  0
  3  4  1  0  0  0  0
  4  5  1  0  0  0  0
  5  6  1  0  0  0  0
  6  7  1  0  0  0  0
  7  8  1  0  0  0  0
  8  9  1  0  0  0  0
  9 10  1  0  0  0  0
 10 11  1  0  0  0  0
 11 12  1  0  0  0  0
 12 13  1  0  0  0  0
 13 14  1  0  0  0  0
M  END
>  <CHROM.1>
63.48822126,61.46795841,-169.49192976,140.80990236,64.74956814,176.68006809
178.48129999,-172.42288606,-117.16597465,66.67667760,177.52916257,5.93435960
10.03842515,3.14499304,0.55579222,-1.32944311,-1.52539512

>  <Name>
ligand

>  <RI>
0

>  <Rbt.Current_Directory>
/home/itssahil/PROJECTS/Mol_Feturizer/New_Systems/rnas/2O3Y

>  <Rbt.Executable>
rbdock ($Id: //depot/dev/client3/rdock/2013.1/src/exe/rbdock.cxx#4 $)

>  <Rbt.Library>
libRbt.so (2013.1, Build901 2013/11/27)

>  <Rbt.Parameter_File>
/export/apps/rDock/src/rDock_2013.1_src/data/scripts/dock_solv.prm

>  <Rbt.Receptor>
prm/blind_docking_20.prm

>  <SCORE>
-4.89212

>  <SCORE.INTER>
4.17127

>  <SCORE.INTER.CONST>
1

>  <SCORE.INTER.POLAR>
0

>  <SCORE.INTER.ROT>
11

>  <SCORE.INTER.SOLV>
9.97314

>  <SCORE.INTER.VDW>
-11.4769

>  <SCORE.INTER.norm>
0.297948

>  <SCORE.INTRA>
-9.06338

>  <SCORE.INTRA.DIHEDRAL>
-21.533

>  <SCORE.INTRA.DIHEDRAL.0>
24.1231

>  <SCORE.INTRA.POLAR>
0

>  <SCORE.INTRA.POLAR.0>
0

>  <SCORE.INTRA.REPUL>
0

>  <SCORE.INTRA.REPUL.0>
0

>  <SCORE.INTRA.SOLV>
2.03141

>  <SCORE.INTRA.SOLV.lig_0>
-48.2216

>  <SCORE.INTRA.VDW>
0.68743

>  <SCORE.INTRA.VDW.0>
-1.3967

>  <SCORE.INTRA.norm>
-0.647385

>  <SCORE.RESTR>
0

>  <SCORE.RESTR.CAVITY>
0

>  <SCORE.RESTR.norm>
0

>  <SCORE.SYSTEM>
0

>  <SCORE.SYSTEM.CONST>
0

>  <SCORE.SYSTEM.DIHEDRAL>
0

>  <SCORE.SYSTEM.SOLV>
0

>  <SCORE.SYSTEM.norm>
0

>  <SCORE.heavy>
14

>  <SCORE.norm>
-0.349437

>  <RMSD>
12.911

$$$$
ligand
 OpenBabel11021811463D
libRbt.so/2013.1/901 2013/11/27
 14 13  0  0  0  0  0  0  0  0999 V2000
    4.6052    4.9800    7.1154 N   0  0  0  0  0  0  0  0  0  0  0  0
    5.5820    5.3919    6.0984 C   0  0  0  0  0  0  0  0  0  0  0  0
    4.8446    5.9734    4.8966 C   0  0  0  0  0  0  0  0  0  0  0  0
    5.8653    6.3545    3.8369 C   0  0  0  0  0  0  0  0  0  0  0  0
    5.1731    7.0119    2.7226 N   0  0  0  0  0  0  0  0  0  0  0  0
    6.1712    7.8423    2.0262 C   0  0  0  0  0  0  0  0  0  0  0  0
    5.7573    9.3181    2.0524 C   0  0  0  0  0  0  0  0  0  0  0  0
    5.8171    9.8095    3.5066 C   0  0  0  0  0  0  0  0  0  0  0  0
    5.6200   11.2673    3.5565 C   0  0  0  0  0  0  0  0  0  0  0  0
    6.8847   11.9028    3.1341 N   0  0  0  0  0  0  0  0  0  0  0  0
    6.8547   12.1909    1.6288 C   0  0  0  0  0  0  0  0  0  0  0  0
    7.6616   13.4603    1.3304 C   0  0  0  0  0  0  0  0  0  0  0  0
    7.6009   13.7613   -0.1129 C   0  0  0  0  0  0  0  0  0  0  0  0
    6.2118   14.0960   -0.4937 N   0  0  0  0  0  0  0  0  0  0  0  0
  1  2  1  0  0  0  0
  2  3  1  0  0  0  0
  3  4  1  0  0  0  0
  4  5  1  0  0  0  0
  5  6  1  0  0  0  0
  6  7  1  0  0  0  0
  7  8  1  0  0  0  0
  8  9  1  0  0  0  0
  9 10  1  0  0  0  0
 10 11  1  0  0  0  0
 11 12  1  0  0  0  0
 12 13  1  0  0  0  0
 13 14  1  0  0  0  0
M  END
>  <CHROM.1>
-178.26364043,-175.55730085,156.72983442,-119.65657607,66.73400474,171.72690279
-76.86640303,93.28922178,147.59898076,-178.34444557,65.29428668,6.04652951
9.52574560,2.94980174,-2.85675101,-1.35946874,-1.82327698

>  <Name>
ligand

>  <RI>
0

>  <Rbt.Current_Directory>
/home/itssahil/PROJECTS/Mol_Feturizer/New_Systems/rnas/2O3Y

>  <Rbt.Executable>
rbdock ($Id: //depot/dev/client3/rdock/2013.1/src/exe/rbdock.cxx#4 $)

>  <Rbt.Library>
libRbt.so (2013.1, Build901 2013/11/27)

>  <Rbt.Parameter_File>
/export/apps/rDock/src/rDock_2013.1_src/data/scripts/dock_solv.prm

>  <Rbt.Receptor>
prm/blind_docking_20.prm

>  <SCORE>
-6.99266

>  <SCORE.INTER>
1.29193

>  <SCORE.INTER.CONST>
1

>  <SCORE.INTER.POLAR>
0

>  <SCORE.INTER.ROT>
11

>  <SCORE.INTER.SOLV>
11.1635

>  <SCORE.INTER.VDW>
-13.7932

>  <SCORE.INTER.norm>
0.0922808

>  <SCORE.INTRA>
-8.31816

>  <SCORE.INTRA.DIHEDRAL>
-19.4902

>  <SCORE.INTRA.DIHEDRAL.0>
24.1231

>  <SCORE.INTRA.POLAR>
0

>  <SCORE.INTRA.POLAR.0>
0

>  <SCORE.INTRA.REPUL>
0

>  <SCORE.INTRA.REPUL.0>
0

>  <SCORE.INTRA.SOLV>
0.684846

>  <SCORE.INTRA.SOLV.lig_0>
-48.2216

>  <SCORE.INTRA.VDW>
1.08453

>  <SCORE.INTRA.VDW.0>
-1.3967

>  <SCORE.INTRA.norm>
-0.594154

>  <SCORE.RESTR>
0.0335691

>  <SCORE.RESTR.CAVITY>
0.0335691

>  <SCORE.RESTR.norm>
0.00239779

>  <SCORE.SYSTEM>
0

>  <SCORE.SYSTEM.CONST>
0

>  <SCORE.SYSTEM.DIHEDRAL>
0

>  <SCORE.SYSTEM.SOLV>
0

>  <SCORE.SYSTEM.norm>
0

>  <SCORE.heavy>
14

>  <SCORE.norm>
-0.499476

>  <RMSD>
12.966

$$$$
ligand
 OpenBabel11021811463D
libRbt.so/2013.1/901 2013/11/27
 14 13  0  0  0  0  0  0  0  0999 V2000
    5.7314   13.7348    0.0170 N   0  0  0  0  0  0  0  0  0  0  0  0
    7.1289   13.3456    0.2485 C   0  0  0  0  0  0  0  0  0  0  0  0
    7.1760   12.2239    1.2808 C   0  0  0  0  0  0  0  0  0  0  0  0
    6.6387   12.7536    2.6002 C   0  0  0  0  0  0  0  0  0  0  0  0
    6.8355   11.7356    3.6385 N   0  0  0  0  0  0  0  0  0  0  0  0
    5.5399   11.0609    3.8306 C   0  0  0  0  0  0  0  0  0  0  0  0
    5.7125    9.5385    3.7811 C   0  0  0  0  0  0  0  0  0  0  0  0
    5.7268    9.1028    2.3082 C   0  0  0  0  0  0  0  0  0  0  0  0
    6.2827    7.7452    2.1877 C   0  0  0  0  0  0  0  0  0  0  0  0
    5.4520    6.8482    3.0166 N   0  0  0  0  0  0  0  0  0  0  0  0
    6.3137    6.1688    4.0870 C   0  0  0  0  0  0  0  0  0  0  0  0
    5.9440    4.6835    4.1806 C   0  0  0  0  0  0  0  0  0  0  0  0
    4.5356    4.5462    4.5989 C   0  0  0  0  0  0  0  0  0  0  0  0
    4.3809    5.0214    5.9906 N   0  0  0  0  0  0  0  0  0  0  0  0
  1  2  1  0  0  0  0
  2  3  1  0  0  0  0
  3  4  1  0  0  0  0
  4  5  1  0  0  0  0
  5  6  1  0  0  0  0
  6  7  1  0  0  0  0
  7  8  1  0  0  0  0
  8  9  1  0  0  0  0
  9 10  1  0  0  0  0
 10 11  1  0  0  0  0
 11 12  1  0  0  0  0
 12 13  1  0  0  0  0
 13 14  1  0  0  0  0
M  END
>  <CHROM.1>
-63.57733997,-173.00620618,-100.80617647,130.25847338,-82.65569962,163.13214562
57.96808015,-120.91691253,-136.58061246,-62.38262554,-67.28973304,5.95718743
9.17915378,2.98323920,-0.76769706,-1.34449318,-2.74904849

>  <Name>
ligand

>  <RI>
0

>  <Rbt.Current_Directory>
/home/itssahil/PROJECTS/Mol_Feturizer/New_Systems/rnas/2O3Y

>  <Rbt.Executable>
rbdock ($Id: //depot/dev/client3/rdock/2013.1/src/exe/rbdock.cxx#4 $)

>  <Rbt.Library>
libRbt.so (2013.1, Build901 2013/11/27)

>  <Rbt.Parameter_File>
/export/apps/rDock/src/rDock_2013.1_src/data/scripts/dock_solv.prm

>  <Rbt.Receptor>
prm/blind_docking_20.prm

>  <SCORE>
-4.90864

>  <SCORE.INTER>
1.05635

>  <SCORE.INTER.CONST>
1

>  <SCORE.INTER.POLAR>
0

>  <SCORE.INTER.ROT>
11

>  <SCORE.INTER.SOLV>
9.30466

>  <SCORE.INTER.VDW>
-13.3307

>  <SCORE.INTER.norm>
0.0754533

>  <SCORE.INTRA>
-5.96499

>  <SCORE.INTRA.DIHEDRAL>
-16.5895

>  <SCORE.INTRA.DIHEDRAL.0>
24.1231

>  <SCORE.INTRA.POLAR>
0

>  <SCORE.INTRA.POLAR.0>
0

>  <SCORE.INTRA.REPUL>
0

>  <SCORE.INTRA.REPUL.0>
0

>  <SCORE.INTRA.SOLV>
2.54442

>  <SCORE.INTRA.SOLV.lig_0>
-48.2216

>  <SCORE.INTRA.VDW>
1.05754

>  <SCORE.INTRA.VDW.0>
-1.3967

>  <SCORE.INTRA.norm>
-0.42607

>  <SCORE.RESTR>
0

>  <SCORE.RESTR.CAVITY>
0

>  <SCORE.RESTR.norm>
0

>  <SCORE.SYSTEM>
0

>  <SCORE.SYSTEM.CONST>
0

>  <SCORE.SYSTEM.DIHEDRAL>
0

>  <SCORE.SYSTEM.SOLV>
0

>  <SCORE.SYSTEM.norm>
0

>  <SCORE.heavy>
14

>  <SCORE.norm>
-0.350617

>  <RMSD>
13.107

$$$$
ligand
 OpenBabel11021811463D
libRbt.so/2013.1/901 2013/11/27
 14 13  0  0  0  0  0  0  0  0999 V2000
    6.4949   14.4736   -0.0948 N   0  0  0  0  0  0  0  0  0  0  0  0
    7.0619   13.1434    0.1649 C   0  0  0  0  0  0  0  0  0  0  0  0
    7.8578   13.1792    1.4654 C   0  0  0  0  0  0  0  0  0  0  0  0
    6.9196   13.5563    2.6001 C   0  0  0  0  0  0  0  0  0  0  0  0
    5.8716   12.5355    2.7117 N   0  0  0  0  0  0  0  0  0  0  0  0
    6.3734   11.5030    3.6351 C   0  0  0  0  0  0  0  0  0  0  0  0
    5.6931   10.1570    3.3599 C   0  0  0  0  0  0  0  0  0  0  0  0
    5.8403    9.8399    1.8641 C   0  0  0  0  0  0  0  0  0  0  0  0
    5.2706    8.5150    1.5695 C   0  0  0  0  0  0  0  0  0  0  0  0
    6.1797    7.5014    2.1421 N   0  0  0  0  0  0  0  0  0  0  0  0
    5.5531    6.8757    3.3933 C   0  0  0  0  0  0  0  0  0  0  0  0
    6.5977    6.0206    4.1208 C   0  0  0  0  0  0  0  0  0  0  0  0
    6.0029    5.4365    5.3383 C   0  0  0  0  0  0  0  0  0  0  0  0
    4.9533    4.4649    4.9628 N   0  0  0  0  0  0  0  0  0  0  0  0
  1  2  1  0  0  0  0
  2  3  1  0  0  0  0
  3  4  1  0  0  0  0
  4  5  1  0  0  0  0
  5  6  1  0  0  0  0
  6  7  1  0  0  0  0
  7  8  1  0  0  0  0
  8  9  1  0  0  0  0
  9 10  1  0  0  0  0
 10 11  1  0  0  0  0
 11 12  1  0  0  0  0
 12 13  1  0  0  0  0
 13 14  1  0  0  0  0
M  END
>  <CHROM.1>
60.73928484,61.43771879,89.29898987,-154.99994743,52.32381133,176.61554817
-71.74178714,106.76909357,-169.73389076,179.01854874,66.65145033,6.19084130
9.80015987,2.65960311,0.69551906,-1.39436138,-1.24238931

>  <Name>
ligand

>  <RI>
0

>  <Rbt.Current_Directory>
/home/itssahil/PROJECTS/Mol_Feturizer/New_Systems/rnas/2O3Y

>  <Rbt.Executable>
rbdock ($Id: //depot/dev/client3/rdock/2013.1/src/exe/rbdock.cxx#4 $)

>  <Rbt.Library>
libRbt.so (2013.1, Build901 2013/11/27)

>  <Rbt.Parameter_File>
/export/apps/rDock/src/rDock_2013.1_src/data/scripts/dock_solv.prm

>  <Rbt.Receptor>
prm/blind_docking_20.prm

>  <SCORE>
-6.33752

>  <SCORE.INTER>
1.06298

>  <SCORE.INTER.CONST>
1

>  <SCORE.INTER.POLAR>
0

>  <SCORE.INTER.ROT>
11

>  <SCORE.INTER.SOLV>
9.17786

>  <SCORE.INTER.VDW>
-13.284

>  <SCORE.INTER.norm>
0.0759269

>  <SCORE.INTRA>
-7.41506

>  <SCORE.INTRA.DIHEDRAL>
-21.0016

>  <SCORE.INTRA.DIHEDRAL.0>
24.1231

>  <SCORE.INTRA.POLAR>
0

>  <SCORE.INTRA.POLAR.0>
0

>  <SCORE.INTRA.REPUL>
0

>  <SCORE.INTRA.REPUL.0>
0

>  <SCORE.INTRA.SOLV>
2.774

>  <SCORE.INTRA.SOLV.lig_0>
-48.2216

>  <SCORE.INTRA.VDW>
1.69876

>  <SCORE.INTRA.VDW.0>
-1.3967

>  <SCORE.INTRA.norm>
-0.529647

>  <SCORE.RESTR>
0.014563

>  <SCORE.RESTR.CAVITY>
0.014563

>  <SCORE.RESTR.norm>
0.00104021

>  <SCORE.SYSTEM>
0

>  <SCORE.SYSTEM.CONST>
0

>  <SCORE.SYSTEM.DIHEDRAL>
0

>  <SCORE.SYSTEM.SOLV>
0

>  <SCORE.SYSTEM.norm>
0

>  <SCORE.heavy>
14

>  <SCORE.norm>
-0.45268

>  <RMSD>
13.131

$$$$
ligand
 OpenBabel11021811463D
libRbt.so/2013.1/901 2013/11/27
 14 13  0  0  0  0  0  0  0  0999 V2000
    5.3150   14.1279   -1.2343 N   0  0  0  0  0  0  0  0  0  0  0  0
    5.5056   14.0888    0.2219 C   0  0  0  0  0  0  0  0  0  0  0  0
    6.1812   12.7769    0.6074 C   0  0  0  0  0  0  0  0  0  0  0  0
    6.2034   12.6678    2.1232 C   0  0  0  0  0  0  0  0  0  0  0  0
    6.7946   11.3789    2.5000 N   0  0  0  0  0  0  0  0  0  0  0  0
    6.0158   10.8652    3.6403 C   0  0  0  0  0  0  0  0  0  0  0  0
    5.2210    9.6194    3.2327 C   0  0  0  0  0  0  0  0  0  0  0  0
    6.2055    8.5819    2.6724 C   0  0  0  0  0  0  0  0  0  0  0  0
    5.5026    7.3207    2.3859 C   0  0  0  0  0  0  0  0  0  0  0  0
    5.1092    6.7258    3.6793 N   0  0  0  0  0  0  0  0  0  0  0  0
    6.2772    5.9294    4.2720 C   0  0  0  0  0  0  0  0  0  0  0  0
    5.8026    5.1642    5.5133 C   0  0  0  0  0  0  0  0  0  0  0  0
    5.3684    6.1190    6.5512 C   0  0  0  0  0  0  0  0  0  0  0  0
    3.9831    6.5572    6.2766 N   0  0  0  0  0  0  0  0  0  0  0  0
  1  2  1  0  0  0  0
  2  3  1  0  0  0  0
  3  4  1  0  0  0  0
  4  5  1  0  0  0  0
  5  6  1  0  0  0  0
  6  7  1  0  0  0  0
  7  8  1  0  0  0  0
  8  9  1  0  0  0  0
  9 10  1  0  0  0  0
 10 11  1  0  0  0  0
 11 12  1  0  0  0  0
 12 13  1  0  0  0  0
 13 14  1  0  0  0  0
M  END
>  <CHROM.1>
-172.52353251,177.33845966,-140.13727460,111.90973700,56.08832799,174.68012468
-68.93541117,-83.70845350,-172.42222667,-63.03820558,82.09387426,5.67766800
9.42297201,3.03164935,-1.02893474,-1.46151130,3.09668566

>  <Name>
ligand

>  <RI>
0

>  <Rbt.Current_Directory>
/home/itssahil/PROJECTS/Mol_Feturizer/New_Systems/rnas/2O3Y

>  <Rbt.Executable>
rbdock ($Id: //depot/dev/client3/rdock/2013.1/src/exe/rbdock.cxx#4 $)

>  <Rbt.Library>
libRbt.so (2013.1, Build901 2013/11/27)

>  <Rbt.Parameter_File>
/export/apps/rDock/src/rDock_2013.1_src/data/scripts/dock_solv.prm

>  <Rbt.Receptor>
prm/blind_docking_20.prm

>  <SCORE>
-2.95386

>  <SCORE.INTER>
4.17627

>  <SCORE.INTER.CONST>
1

>  <SCORE.INTER.POLAR>
0

>  <SCORE.INTER.ROT>
11

>  <SCORE.INTER.SOLV>
9.79642

>  <SCORE.INTER.VDW>
-11.4146

>  <SCORE.INTER.norm>
0.298305

>  <SCORE.INTRA>
-7.13588

>  <SCORE.INTRA.DIHEDRAL>
-19.2349

>  <SCORE.INTRA.DIHEDRAL.0>
24.1231

>  <SCORE.INTRA.POLAR>
0

>  <SCORE.INTRA.POLAR.0>
0

>  <SCORE.INTRA.REPUL>
0

>  <SCORE.INTRA.REPUL.0>
0

>  <SCORE.INTRA.SOLV>
2.88338

>  <SCORE.INTRA.SOLV.lig_0>
-48.2216

>  <SCORE.INTRA.VDW>
1.03989

>  <SCORE.INTRA.VDW.0>
-1.3967

>  <SCORE.INTRA.norm>
-0.509706

>  <SCORE.RESTR>
0.00574537

>  <SCORE.RESTR.CAVITY>
0.00574537

>  <SCORE.RESTR.norm>
0.000410384

>  <SCORE.SYSTEM>
0

>  <SCORE.SYSTEM.CONST>
0

>  <SCORE.SYSTEM.DIHEDRAL>
0

>  <SCORE.SYSTEM.SOLV>
0

>  <SCORE.SYSTEM.norm>
0

>  <SCORE.heavy>
14

>  <SCORE.norm>
-0.21099

>  <RMSD>
13.140

$$$$
ligand
 OpenBabel11021811463D
libRbt.so/2013.1/901 2013/11/27
 14 13  0  0  0  0  0  0  0  0999 V2000
    6.5163   14.4633    0.0757 N   0  0  0  0  0  0  0  0  0  0  0  0
    7.7456   14.0833    0.7845 C   0  0  0  0  0  0  0  0  0  0  0  0
    7.5773   12.6866    1.3738 C   0  0  0  0  0  0  0  0  0  0  0  0
    6.5143   12.7409    2.4587 C   0  0  0  0  0  0  0  0  0  0  0  0
    6.4261   11.4272    3.1061 N   0  0  0  0  0  0  0  0  0  0  0  0
    5.5903   10.5765    2.2410 C   0  0  0  0  0  0  0  0  0  0  0  0
    5.7093    9.1052    2.6548 C   0  0  0  0  0  0  0  0  0  0  0  0
    4.9498    8.2528    1.6271 C   0  0  0  0  0  0  0  0  0  0  0  0
    4.9716    6.8370    2.0292 C   0  0  0  0  0  0  0  0  0  0  0  0
    3.9654    6.6611    3.0962 N   0  0  0  0  0  0  0  0  0  0  0  0
    4.6547    6.5607    4.4616 C   0  0  0  0  0  0  0  0  0  0  0  0
    5.1226    5.1197    4.6985 C   0  0  0  0  0  0  0  0  0  0  0  0
    5.7004    4.9996    6.0510 C   0  0  0  0  0  0  0  0  0  0  0  0
    4.6357    5.1648    7.0638 N   0  0  0  0  0  0  0  0  0  0  0  0
  1  2  1  0  0  0  0
  2  3  1  0  0  0  0
  3  4  1  0  0  0  0
  4  5  1  0  0  0  0
  5  6  1  0  0  0  0
  6  7  1  0  0  0  0
  7  8  1  0  0  0  0
  8  9  1  0  0  0  0
  9 10  1  0  0  0  0
 10 11  1  0  0  0  0
 11 12  1  0  0  0  0
 12 13  1  0  0  0  0
 13 14  1  0  0  0  0
M  END
>  <CHROM.1>
-66.52562047,-175.33881134,-81.22835892,166.63530626,-173.65794458,-176.70441812
78.13605954,-103.50032419,-83.48183956,-176.00870244,67.96250173,5.72008640
9.19123250,2.98000475,1.04627349,-1.08878911,-0.94005426

>  <Name>
ligand

>  <RI>
0

>  <Rbt.Current_Directory>
/home/itssahil/PROJECTS/Mol_Feturizer/New_Systems/rnas/2O3Y

>  <Rbt.Executable>
rbdock ($Id: //depot/dev/client3/rdock/2013.1/src/exe/rbdock.cxx#4 $)

>  <Rbt.Library>
libRbt.so (2013.1, Build901 2013/11/27)

>  <Rbt.Parameter_File>
/export/apps/rDock/src/rDock_2013.1_src/data/scripts/dock_solv.prm

>  <Rbt.Receptor>
prm/blind_docking_20.prm

>  <SCORE>
-3.29862

>  <SCORE.INTER>
4.4776

>  <SCORE.INTER.CONST>
1

>  <SCORE.INTER.POLAR>
0

>  <SCORE.INTER.ROT>
11

>  <SCORE.INTER.SOLV>
7.36679

>  <SCORE.INTER.VDW>
-10.4039

>  <SCORE.INTER.norm>
0.319829

>  <SCORE.INTRA>
-7.77622

>  <SCORE.INTRA.DIHEDRAL>
-20.3715

>  <SCORE.INTRA.DIHEDRAL.0>
24.1231

>  <SCORE.INTRA.POLAR>
0

>  <SCORE.INTRA.POLAR.0>
0

>  <SCORE.INTRA.REPUL>
0

>  <SCORE.INTRA.REPUL.0>
0

>  <SCORE.INTRA.SOLV>
1.16469

>  <SCORE.INTRA.SOLV.lig_0>
-48.2216

>  <SCORE.INTRA.VDW>
1.8272

>  <SCORE.INTRA.VDW.0>
-1.3967

>  <SCORE.INTRA.norm>
-0.555445

>  <SCORE.RESTR>
0

>  <SCORE.RESTR.CAVITY>
0

>  <SCORE.RESTR.norm>
0

>  <SCORE.SYSTEM>
0

>  <SCORE.SYSTEM.CONST>
0

>  <SCORE.SYSTEM.DIHEDRAL>
0

>  <SCORE.SYSTEM.SOLV>
0

>  <SCORE.SYSTEM.norm>
0

>  <SCORE.heavy>
14

>  <SCORE.norm>
-0.235616

>  <RMSD>
13.152

$$$$
ligand
 OpenBabel11021811463D
libRbt.so/2013.1/901 2013/11/27
 14 13  0  0  0  0  0  0  0  0999 V2000
    5.3774   14.0817   -1.5033 N   0  0  0  0  0  0  0  0  0  0  0  0
    5.8237   13.8297   -0.1266 C   0  0  0  0  0  0  0  0  0  0  0  0
    7.3482   13.8415   -0.0801 C   0  0  0  0  0  0  0  0  0  0  0  0
    7.7930   13.6313    1.3580 C   0  0  0  0  0  0  0  0  0  0  0  0
    7.4807   12.2544    1.7574 N   0  0  0  0  0  0  0  0  0  0  0  0
    6.4958   12.3364    2.8501 C   0  0  0  0  0  0  0  0  0  0  0  0
    6.1989   10.9421    3.4139 C   0  0  0  0  0  0  0  0  0  0  0  0
    5.6980   10.0544    2.2646 C   0  0  0  0  0  0  0  0  0  0  0  0
    5.3206    8.7274    2.7779 C   0  0  0  0  0  0  0  0  0  0  0  0
    6.5452    8.0860    3.2981 N   0  0  0  0  0  0  0  0  0  0  0  0
    6.2581    6.6290    3.6784 C   0  0  0  0  0  0  0  0  0  0  0  0
    5.5055    6.5832    5.0137 C   0  0  0  0  0  0  0  0  0  0  0  0
    5.2562    5.1802    5.3971 C   0  0  0  0  0  0  0  0  0  0  0  0
    4.4776    5.1382    6.6535 N   0  0  0  0  0  0  0  0  0  0  0  0
  1  2  1  0  0  0  0
  2  3  1  0  0  0  0
  3  4  1  0  0  0  0
  4  5  1  0  0  0  0
  5  6  1  0  0  0  0
  6  7  1  0  0  0  0
  7  8  1  0  0  0  0
  8  9  1  0  0  0  0
  9 10  1  0  0  0  0
 10 11  1  0  0  0  0
 11 12  1  0  0  0  0
 12 13  1  0  0  0  0
 13 14  1  0  0  0  0
M  END
>  <CHROM.1>
177.91535133,69.35734902,-116.49722637,-175.17126198,-57.36667470,-176.49350798
-64.41942752,-172.52540329,-76.70077116,-178.67745482,-177.47884817,6.11283561
10.09404123,2.62523256,1.36650051,-0.81453093,-0.72344525

>  <Name>
ligand

>  <RI>
0

>  <Rbt.Current_Directory>
/home/itssahil/PROJECTS/Mol_Feturizer/New_Systems/rnas/2O3Y

>  <Rbt.Executable>
rbdock ($Id: //depot/dev/client3/rdock/2013.1/src/exe/rbdock.cxx#4 $)

>  <Rbt.Library>
libRbt.so (2013.1, Build901 2013/11/27)

>  <Rbt.Parameter_File>
/export/apps/rDock/src/rDock_2013.1_src/data/scripts/dock_solv.prm

>  <Rbt.Receptor>
prm/blind_docking_20.prm

>  <SCORE>
-6.69839

>  <SCORE.INTER>
2.92225

>  <SCORE.INTER.CONST>
1

>  <SCORE.INTER.POLAR>
0

>  <SCORE.INTER.ROT>
11

>  <SCORE.INTER.SOLV>
13.0029

>  <SCORE.INTER.VDW>
-13.3195

>  <SCORE.INTER.norm>
0.208732

>  <SCORE.INTRA>
-9.62064

>  <SCORE.INTRA.DIHEDRAL>
-22.1306

>  <SCORE.INTRA.DIHEDRAL.0>
24.1231

>  <SCORE.INTRA.POLAR>
0

>  <SCORE.INTRA.POLAR.0>
0

>  <SCORE.INTRA.REPUL>
0

>  <SCORE.INTRA.REPUL.0>
0

>  <SCORE.INTRA.SOLV>
0.389075

>  <SCORE.INTRA.SOLV.lig_0>
-48.2216

>  <SCORE.INTRA.VDW>
1.25014

>  <SCORE.INTRA.VDW.0>
-1.3967

>  <SCORE.INTRA.norm>
-0.687189

>  <SCORE.RESTR>
0

>  <SCORE.RESTR.CAVITY>
0

>  <SCORE.RESTR.norm>
0

>  <SCORE.SYSTEM>
0

>  <SCORE.SYSTEM.CONST>
0

>  <SCORE.SYSTEM.DIHEDRAL>
0

>  <SCORE.SYSTEM.SOLV>
0

>  <SCORE.SYSTEM.norm>
0

>  <SCORE.heavy>
14

>  <SCORE.norm>
-0.478457

>  <RMSD>
13.190

$$$$
ligand
 OpenBabel11021811463D
libRbt.so/2013.1/901 2013/11/27
 14 13  0  0  0  0  0  0  0  0999 V2000
    5.4866   14.0137    0.1317 N   0  0  0  0  0  0  0  0  0  0  0  0
    6.8983   13.8488   -0.2396 C   0  0  0  0  0  0  0  0  0  0  0  0
    7.7301   13.6356    1.0210 C   0  0  0  0  0  0  0  0  0  0  0  0
    7.4760   12.2298    1.5398 C   0  0  0  0  0  0  0  0  0  0  0  0
    6.1881   12.2062    2.2423 N   0  0  0  0  0  0  0  0  0  0  0  0
    5.3905   11.1224    1.6423 C   0  0  0  0  0  0  0  0  0  0  0  0
    5.8433    9.7596    2.1786 C   0  0  0  0  0  0  0  0  0  0  0  0
    4.9953    8.6706    1.5043 C   0  0  0  0  0  0  0  0  0  0  0  0
    5.5128    7.3377    1.8539 C   0  0  0  0  0  0  0  0  0  0  0  0
    5.2977    7.1416    3.3020 N   0  0  0  0  0  0  0  0  0  0  0  0
    6.5044    6.4298    3.9241 C   0  0  0  0  0  0  0  0  0  0  0  0
    6.0227    5.4136    4.9667 C   0  0  0  0  0  0  0  0  0  0  0  0
    5.3891    6.1211    6.0961 C   0  0  0  0  0  0  0  0  0  0  0  0
    4.0631    6.6296    5.6843 N   0  0  0  0  0  0  0  0  0  0  0  0
  1  2  1  0  0  0  0
  2  3  1  0  0  0  0
  3  4  1  0  0  0  0
  4  5  1  0  0  0  0
  5  6  1  0  0  0  0
  6  7  1  0  0  0  0
  7  8  1  0  0  0  0
  8  9  1  0  0  0  0
  9 10  1  0  0  0  0
 10 11  1  0  0  0  0
 11 12  1  0  0  0  0
 12 13  1  0  0  0  0
 13 14  1  0  0  0  0
M  END
>  <CHROM.1>
73.82111565,-78.09473924,126.41881313,78.39312285,-179.11839753,172.55109014
66.31826651,-140.40026985,-140.71790107,-65.79252264,73.66951285,5.91440082
9.61128385,2.56043592,1.22402439,-1.10884314,-0.83447877

>  <Name>
ligand

>  <RI>
0

>  <Rbt.Current_Directory>
/home/itssahil/PROJECTS/Mol_Feturizer/New_Systems/rnas/2O3Y

>  <Rbt.Executable>
rbdock ($Id: //depot/dev/client3/rdock/2013.1/src/exe/rbdock.cxx#4 $)

>  <Rbt.Library>
libRbt.so (2013.1, Build901 2013/11/27)

>  <Rbt.Parameter_File>
/export/apps/rDock/src/rDock_2013.1_src/data/scripts/dock_solv.prm

>  <Rbt.Receptor>
prm/blind_docking_20.prm

>  <SCORE>
-3.8844

>  <SCORE.INTER>
0.85754

>  <SCORE.INTER.CONST>
1

>  <SCORE.INTER.POLAR>
0

>  <SCORE.INTER.ROT>
11

>  <SCORE.INTER.SOLV>
6.8537

>  <SCORE.INTER.VDW>
-12.6462

>  <SCORE.INTER.norm>
0.0612529

>  <SCORE.INTRA>
-4.74194

>  <SCORE.INTRA.DIHEDRAL>
-17.9038

>  <SCORE.INTRA.DIHEDRAL.0>
24.1231

>  <SCORE.INTRA.POLAR>
0

>  <SCORE.INTRA.POLAR.0>
0

>  <SCORE.INTRA.REPUL>
0

>  <SCORE.INTRA.REPUL.0>
0

>  <SCORE.INTRA.SOLV>
5.97257

>  <SCORE.INTRA.SOLV.lig_0>
-48.2216

>  <SCORE.INTRA.VDW>
1.22368

>  <SCORE.INTRA.VDW.0>
-1.3967

>  <SCORE.INTRA.norm>
-0.33871

>  <SCORE.RESTR>
0

>  <SCORE.RESTR.CAVITY>
0

>  <SCORE.RESTR.norm>
0

>  <SCORE.SYSTEM>
0

>  <SCORE.SYSTEM.CONST>
0

>  <SCORE.SYSTEM.DIHEDRAL>
0

>  <SCORE.SYSTEM.SOLV>
0

>  <SCORE.SYSTEM.norm>
0

>  <SCORE.heavy>
14

>  <SCORE.norm>
-0.277457

>  <RMSD>
13.204

$$$$
ligand
 OpenBabel11021811463D
libRbt.so/2013.1/901 2013/11/27
 14 13  0  0  0  0  0  0  0  0999 V2000
    6.0484    5.4317    6.7002 N   0  0  0  0  0  0  0  0  0  0  0  0
    4.6002    5.6445    6.5762 C   0  0  0  0  0  0  0  0  0  0  0  0
    4.3428    7.0072    5.9413 C   0  0  0  0  0  0  0  0  0  0  0  0
    4.8835    6.9925    4.5209 C   0  0  0  0  0  0  0  0  0  0  0  0
    4.5177    8.2494    3.8583 N   0  0  0  0  0  0  0  0  0  0  0  0
    5.6701    9.1576    3.9923 C   0  0  0  0  0  0  0  0  0  0  0  0
    5.4124   10.4697    3.2426 C   0  0  0  0  0  0  0  0  0  0  0  0
    6.6062   11.4055    3.4850 C   0  0  0  0  0  0  0  0  0  0  0  0
    6.4676   12.6236    2.6704 C   0  0  0  0  0  0  0  0  0  0  0  0
    6.4898   12.2156    1.2510 N   0  0  0  0  0  0  0  0  0  0  0  0
    7.3789   13.1664    0.4414 C   0  0  0  0  0  0  0  0  0  0  0  0
    6.5288   14.3094   -0.1265 C   0  0  0  0  0  0  0  0  0  0  0  0
    5.5726   13.7752   -1.1153 C   0  0  0  0  0  0  0  0  0  0  0  0
    4.4635   13.0911   -0.4164 N   0  0  0  0  0  0  0  0  0  0  0  0
  1  2  1  0  0  0  0
  2  3  1  0  0  0  0
  3  4  1  0  0  0  0
  4  5  1  0  0  0  0
  5  6  1  0  0  0  0
  6  7  1  0  0  0  0
  7  8  1  0  0  0  0
  8  9  1  0  0  0  0
  9 10  1  0  0  0  0
 10 11  1  0  0  0  0
 11 12  1  0  0  0  0
 12 13  1  0  0  0  0
 13 14  1  0  0  0  0
M  END
>  <CHROM.1>
64.89745289,174.23220734,95.85817343,176.15533360,176.71963132,174.11566941
-62.60426040,-136.28870943,-91.66307555,-66.03996070,75.77945253,5.64171773
10.25303510,2.93012811,-1.71641809,-0.57302894,-0.76409649

>  <Name>
ligand

>  <RI>
0

>  <Rbt.Current_Directory>
/home/itssahil/PROJECTS/Mol_Feturizer/New_Systems/rnas/2O3Y

>  <Rbt.Executable>
rbdock ($Id: //depot/dev/client3/rdock/2013.1/src/exe/rbdock.cxx#4 $)

>  <Rbt.Library>
libRbt.so (2013.1, Build901 2013/11/27)

>  <Rbt.Parameter_File>
/export/apps/rDock/src/rDock_2013.1_src/data/scripts/dock_solv.prm

>  <Rbt.Receptor>
prm/blind_docking_20.prm

>  <SCORE>
-2.59552

>  <SCORE.INTER>
4.46621

>  <SCORE.INTER.CONST>
1

>  <SCORE.INTER.POLAR>
0

>  <SCORE.INTER.ROT>
11

>  <SCORE.INTER.SOLV>
10.2395

>  <SCORE.INTER.VDW>
-11.369

>  <SCORE.INTER.norm>
0.319015

>  <SCORE.INTRA>
-7.06173

>  <SCORE.INTRA.DIHEDRAL>
-20.231

>  <SCORE.INTRA.DIHEDRAL.0>
24.1231

>  <SCORE.INTRA.POLAR>
0

>  <SCORE.INTRA.POLAR.0>
0

>  <SCORE.INTRA.REPUL>
0

>  <SCORE.INTRA.REPUL.0>
0

>  <SCORE.INTRA.SOLV>
3.75734

>  <SCORE.INTRA.SOLV.lig_0>
-48.2216

>  <SCORE.INTRA.VDW>
1.17508

>  <SCORE.INTRA.VDW.0>
-1.3967

>  <SCORE.INTRA.norm>
-0.504409

>  <SCORE.RESTR>
0

>  <SCORE.RESTR.CAVITY>
0

>  <SCORE.RESTR.norm>
0

>  <SCORE.SYSTEM>
0

>  <SCORE.SYSTEM.CONST>
0

>  <SCORE.SYSTEM.DIHEDRAL>
0

>  <SCORE.SYSTEM.SOLV>
0

>  <SCORE.SYSTEM.norm>
0

>  <SCORE.heavy>
14

>  <SCORE.norm>
-0.185394

>  <RMSD>
13.217

$$$$
ligand
 OpenBabel11021811463D
libRbt.so/2013.1/901 2013/11/27
 14 13  0  0  0  0  0  0  0  0999 V2000
    5.2275   12.8156   -0.0114 N   0  0  0  0  0  0  0  0  0  0  0  0
    5.7516   14.1024   -0.4884 C   0  0  0  0  0  0  0  0  0  0  0  0
    7.2603   13.9920   -0.6829 C   0  0  0  0  0  0  0  0  0  0  0  0
    7.9340   14.0766    0.6769 C   0  0  0  0  0  0  0  0  0  0  0  0
    7.4899   12.9461    1.5003 N   0  0  0  0  0  0  0  0  0  0  0  0
    6.7819   13.5119    2.6618 C   0  0  0  0  0  0  0  0  0  0  0  0
    5.6946   12.5488    3.1519 C   0  0  0  0  0  0  0  0  0  0  0  0
    6.3661   11.2250    3.5470 C   0  0  0  0  0  0  0  0  0  0  0  0
    5.3443   10.2183    3.8776 C   0  0  0  0  0  0  0  0  0  0  0  0
    6.0335    8.9232    4.0493 N   0  0  0  0  0  0  0  0  0  0  0  0
    5.1068    7.9192    4.7443 C   0  0  0  0  0  0  0  0  0  0  0  0
    5.6406    6.4965    4.5384 C   0  0  0  0  0  0  0  0  0  0  0  0
    4.6993    5.5219    5.1228 C   0  0  0  0  0  0  0  0  0  0  0  0
    5.2413    4.1543    4.9726 N   0  0  0  0  0  0  0  0  0  0  0  0
  1  2  1  0  0  0  0
  2  3  1  0  0  0  0
  3  4  1  0  0  0  0
  4  5  1  0  0  0  0
  5  6  1  0  0  0  0
  6  7  1  0  0  0  0
  7  8  1  0  0  0  0
  8  9  1  0  0  0  0
  9 10  1  0  0  0  0
 10 11  1  0  0  0  0
 11 12  1  0  0  0  0
 12 13  1  0  0  0  0
 13 14  1  0  0  0  0
M  END
>  <CHROM.1>
-77.75686925,62.09695233,-117.58557588,150.00273048,59.69659320,-173.53309305
171.64128933,165.22907363,162.77846611,-175.94625961,-177.71219812,6.04085563
10.60407409,2.69004574,0.95931886,-1.27067744,-1.10371450

>  <Name>
ligand

>  <RI>
0

>  <Rbt.Current_Directory>
/home/itssahil/PROJECTS/Mol_Feturizer/New_Systems/rnas/2O3Y

>  <Rbt.Executable>
rbdock ($Id: //depot/dev/client3/rdock/2013.1/src/exe/rbdock.cxx#4 $)

>  <Rbt.Library>
libRbt.so (2013.1, Build901 2013/11/27)

>  <Rbt.Parameter_File>
/export/apps/rDock/src/rDock_2013.1_src/data/scripts/dock_solv.prm

>  <Rbt.Receptor>
prm/blind_docking_20.prm

>  <SCORE>
-2.18891

>  <SCORE.INTER>
4.83984

>  <SCORE.INTER.CONST>
1

>  <SCORE.INTER.POLAR>
0

>  <SCORE.INTER.ROT>
11

>  <SCORE.INTER.SOLV>
9.41931

>  <SCORE.INTER.VDW>
-10.8465

>  <SCORE.INTER.norm>
0.345703

>  <SCORE.INTRA>
-7.34291

>  <SCORE.INTRA.DIHEDRAL>
-20.2875

>  <SCORE.INTRA.DIHEDRAL.0>
24.1231

>  <SCORE.INTRA.POLAR>
0

>  <SCORE.INTRA.POLAR.0>
0

>  <SCORE.INTRA.REPUL>
0

>  <SCORE.INTRA.REPUL.0>
0

>  <SCORE.INTRA.SOLV>
4.5554

>  <SCORE.INTRA.SOLV.lig_0>
-48.2216

>  <SCORE.INTRA.VDW>
0.523118

>  <SCORE.INTRA.VDW.0>
-1.3967

>  <SCORE.INTRA.norm>
-0.524494

>  <SCORE.RESTR>
0.314164

>  <SCORE.RESTR.CAVITY>
0.314164

>  <SCORE.RESTR.norm>
0.0224403

>  <SCORE.SYSTEM>
0

>  <SCORE.SYSTEM.CONST>
0

>  <SCORE.SYSTEM.DIHEDRAL>
0

>  <SCORE.SYSTEM.SOLV>
0

>  <SCORE.SYSTEM.norm>
0

>  <SCORE.heavy>
14

>  <SCORE.norm>
-0.156351

>  <RMSD>
13.225

$$$$
ligand
 OpenBabel11021811463D
libRbt.so/2013.1/901 2013/11/27
 14 13  0  0  0  0  0  0  0  0999 V2000
    3.9081    5.5667    4.9895 N   0  0  0  0  0  0  0  0  0  0  0  0
    4.9853    4.7138    4.4695 C   0  0  0  0  0  0  0  0  0  0  0  0
    6.3113    5.4614    4.5645 C   0  0  0  0  0  0  0  0  0  0  0  0
    6.3009    6.6007    3.5586 C   0  0  0  0  0  0  0  0  0  0  0  0
    5.4450    7.6784    4.0675 N   0  0  0  0  0  0  0  0  0  0  0  0
    6.1736    8.9417    3.8580 C   0  0  0  0  0  0  0  0  0  0  0  0
    5.2106   10.1335    3.9053 C   0  0  0  0  0  0  0  0  0  0  0  0
    6.0260   11.4199    3.7055 C   0  0  0  0  0  0  0  0  0  0  0  0
    6.2647   11.6499    2.2714 C   0  0  0  0  0  0  0  0  0  0  0  0
    6.4281   13.1047    2.0744 N   0  0  0  0  0  0  0  0  0  0  0  0
    7.6804   13.3874    1.2368 C   0  0  0  0  0  0  0  0  0  0  0  0
    7.3827   13.1184   -0.2433 C   0  0  0  0  0  0  0  0  0  0  0  0
    6.3492   14.0567   -0.7219 C   0  0  0  0  0  0  0  0  0  0  0  0
    5.0078   13.5363   -0.3808 N   0  0  0  0  0  0  0  0  0  0  0  0
  1  2  1  0  0  0  0
  2  3  1  0  0  0  0
  3  4  1  0  0  0  0
  4  5  1  0  0  0  0
  5  6  1  0  0  0  0
  6  7  1  0  0  0  0
  7  8  1  0  0  0  0
  8  9  1  0  0  0  0
  9 10  1  0  0  0  0
 10 11  1  0  0  0  0
 11 12  1  0  0  0  0
 12 13  1  0  0  0  0
 13 14  1  0  0  0  0
M  END
>  <CHROM.1>
-69.57468762,75.14436057,134.91496675,160.78513158,179.05063359,82.38181585
152.91521771,131.21215342,78.15249779,63.81434665,-83.62468687,5.96271687
9.95495915,2.66820028,-3.07171548,1.42882114,1.00788032

>  <Name>
ligand

>  <RI>
0

>  <Rbt.Current_Directory>
/home/itssahil/PROJECTS/Mol_Feturizer/New_Systems/rnas/2O3Y

>  <Rbt.Executable>
rbdock ($Id: //depot/dev/client3/rdock/2013.1/src/exe/rbdock.cxx#4 $)

>  <Rbt.Library>
libRbt.so (2013.1, Build901 2013/11/27)

>  <Rbt.Parameter_File>
/export/apps/rDock/src/rDock_2013.1_src/data/scripts/dock_solv.prm

>  <Rbt.Receptor>
prm/blind_docking_20.prm

>  <SCORE>
-1.1003

>  <SCORE.INTER>
2.06273

>  <SCORE.INTER.CONST>
1

>  <SCORE.INTER.POLAR>
0

>  <SCORE.INTER.ROT>
11

>  <SCORE.INTER.SOLV>
7.04811

>  <SCORE.INTER.VDW>
-11.9076

>  <SCORE.INTER.norm>
0.147338

>  <SCORE.INTRA>
-3.18161

>  <SCORE.INTRA.DIHEDRAL>
-14.1786

>  <SCORE.INTRA.DIHEDRAL.0>
24.1231

>  <SCORE.INTRA.POLAR>
0

>  <SCORE.INTRA.POLAR.0>
0

>  <SCORE.INTRA.REPUL>
0

>  <SCORE.INTRA.REPUL.0>
0

>  <SCORE.INTRA.SOLV>
5.43705

>  <SCORE.INTRA.SOLV.lig_0>
-48.2216

>  <SCORE.INTRA.VDW>
1.18919

>  <SCORE.INTRA.VDW.0>
-1.3967

>  <SCORE.INTRA.norm>
-0.227258

>  <SCORE.RESTR>
0.0185783

>  <SCORE.RESTR.CAVITY>
0.0185783

>  <SCORE.RESTR.norm>
0.00132702

>  <SCORE.SYSTEM>
0

>  <SCORE.SYSTEM.CONST>
0

>  <SCORE.SYSTEM.DIHEDRAL>
0

>  <SCORE.SYSTEM.SOLV>
0

>  <SCORE.SYSTEM.norm>
0

>  <SCORE.heavy>
14

>  <SCORE.norm>
-0.0785929

>  <RMSD>
13.255

$$$$
ligand
 OpenBabel11021811463D
libRbt.so/2013.1/901 2013/11/27
 14 13  0  0  0  0  0  0  0  0999 V2000
    5.9966   14.1220   -1.1457 N   0  0  0  0  0  0  0  0  0  0  0  0
    6.9644   13.3424   -0.3623 C   0  0  0  0  0  0  0  0  0  0  0  0
    6.3795   13.0499    1.0156 C   0  0  0  0  0  0  0  0  0  0  0  0
    7.2807   12.0527    1.7253 C   0  0  0  0  0  0  0  0  0  0  0  0
    6.6339   11.6288    2.9722 N   0  0  0  0  0  0  0  0  0  0  0  0
    5.5189   10.7412    2.5983 C   0  0  0  0  0  0  0  0  0  0  0  0
    5.9989    9.2894    2.4894 C   0  0  0  0  0  0  0  0  0  0  0  0
    4.9313    8.4845    1.7332 C   0  0  0  0  0  0  0  0  0  0  0  0
    5.2882    7.0565    1.7218 C   0  0  0  0  0  0  0  0  0  0  0  0
    5.0031    6.5150    3.0661 N   0  0  0  0  0  0  0  0  0  0  0  0
    6.3127    6.2431    3.8152 C   0  0  0  0  0  0  0  0  0  0  0  0
    6.0361    5.3482    5.0294 C   0  0  0  0  0  0  0  0  0  0  0  0
    5.1627    6.0587    5.9832 C   0  0  0  0  0  0  0  0  0  0  0  0
    4.7927    5.1513    7.0906 N   0  0  0  0  0  0  0  0  0  0  0  0
  1  2  1  0  0  0  0
  2  3  1  0  0  0  0
  3  4  1  0  0  0  0
  4  5  1  0  0  0  0
  5  6  1  0  0  0  0
  6  7  1  0  0  0  0
  7  8  1  0  0  0  0
  8  9  1  0  0  0  0
  9 10  1  0  0  0  0
 10 11  1  0  0  0  0
 11 12  1  0  0  0  0
 12 13  1  0  0  0  0
 13 14  1  0  0  0  0
M  END
>  <CHROM.1>
170.53310422,-172.44484948,72.84054688,88.24609454,-164.42692609,-174.39744261
75.40389837,-107.64840125,-164.88066733,-63.99359266,174.68433573,5.87866779
9.22019750,2.69504209,1.07394394,-1.29491201,-1.06105362

>  <Name>
ligand

>  <RI>
0

>  <Rbt.Current_Directory>
/home/itssahil/PROJECTS/Mol_Feturizer/New_Systems/rnas/2O3Y

>  <Rbt.Executable>
rbdock ($Id: //depot/dev/client3/rdock/2013.1/src/exe/rbdock.cxx#4 $)

>  <Rbt.Library>
libRbt.so (2013.1, Build901 2013/11/27)

>  <Rbt.Parameter_File>
/export/apps/rDock/src/rDock_2013.1_src/data/scripts/dock_solv.prm

>  <Rbt.Receptor>
prm/blind_docking_20.prm

>  <SCORE>
-4.3011

>  <SCORE.INTER>
3.42967

>  <SCORE.INTER.CONST>
1

>  <SCORE.INTER.POLAR>
0

>  <SCORE.INTER.ROT>
11

>  <SCORE.INTER.SOLV>
12.2814

>  <SCORE.INTER.VDW>
-12.7407

>  <SCORE.INTER.norm>
0.244976

>  <SCORE.INTRA>
-7.75273

>  <SCORE.INTRA.DIHEDRAL>
-19.63

>  <SCORE.INTRA.DIHEDRAL.0>
24.1231

>  <SCORE.INTRA.POLAR>
0

>  <SCORE.INTRA.POLAR.0>
0

>  <SCORE.INTRA.REPUL>
0

>  <SCORE.INTRA.REPUL.0>
0

>  <SCORE.INTRA.SOLV>
-0.0832275

>  <SCORE.INTRA.SOLV.lig_0>
-48.2216

>  <SCORE.INTRA.VDW>
2.10389

>  <SCORE.INTRA.VDW.0>
-1.3967

>  <SCORE.INTRA.norm>
-0.553767

>  <SCORE.RESTR>
0.0219676

>  <SCORE.RESTR.CAVITY>
0.0219676

>  <SCORE.RESTR.norm>
0.00156912

>  <SCORE.SYSTEM>
0

>  <SCORE.SYSTEM.CONST>
0

>  <SCORE.SYSTEM.DIHEDRAL>
0

>  <SCORE.SYSTEM.SOLV>
0

>  <SCORE.SYSTEM.norm>
0

>  <SCORE.heavy>
14

>  <SCORE.norm>
-0.307221

>  <RMSD>
13.262

$$$$
ligand
 OpenBabel11021811463D
libRbt.so/2013.1/901 2013/11/27
 14 13  0  0  0  0  0  0  0  0999 V2000
    4.6640    4.9255    6.0377 N   0  0  0  0  0  0  0  0  0  0  0  0
    5.7349    4.6003    5.0861 C   0  0  0  0  0  0  0  0  0  0  0  0
    5.5700    5.4507    3.8307 C   0  0  0  0  0  0  0  0  0  0  0  0
    5.8137    6.9064    4.1935 C   0  0  0  0  0  0  0  0  0  0  0  0
    5.7449    7.7196    2.9741 N   0  0  0  0  0  0  0  0  0  0  0  0
    4.6006    8.6343    3.1310 C   0  0  0  0  0  0  0  0  0  0  0  0
    5.0021    9.8637    3.9542 C   0  0  0  0  0  0  0  0  0  0  0  0
    6.1202   10.6022    3.2031 C   0  0  0  0  0  0  0  0  0  0  0  0
    5.5592   11.3420    2.0609 C   0  0  0  0  0  0  0  0  0  0  0  0
    6.6668   11.6242    1.1253 N   0  0  0  0  0  0  0  0  0  0  0  0
    7.5066   12.7991    1.6391 C   0  0  0  0  0  0  0  0  0  0  0  0
    6.9726   14.1109    1.0512 C   0  0  0  0  0  0  0  0  0  0  0  0
    7.0266   14.0547   -0.4224 C   0  0  0  0  0  0  0  0  0  0  0  0
    5.8380   13.3415   -0.9374 N   0  0  0  0  0  0  0  0  0  0  0  0
  1  2  1  0  0  0  0
  2  3  1  0  0  0  0
  3  4  1  0  0  0  0
  4  5  1  0  0  0  0
  5  6  1  0  0  0  0
  6  7  1  0  0  0  0
  7  8  1  0  0  0  0
  8  9  1  0  0  0  0
  9 10  1  0  0  0  0
 10 11  1  0  0  0  0
 11 12  1  0  0  0  0
 12 13  1  0  0  0  0
 13 14  1  0  0  0  0
M  END
>  <CHROM.1>
66.54981050,176.26711625,116.29210169,82.51066821,61.12857683,75.63870419
-160.43550053,-77.89027057,-91.88932234,-58.93626492,82.68877796,5.91580767
9.71262503,2.63778645,2.92271294,-1.41211959,-2.30411522

>  <Name>
ligand

>  <RI>
0

>  <Rbt.Current_Directory>
/home/itssahil/PROJECTS/Mol_Feturizer/New_Systems/rnas/2O3Y

>  <Rbt.Executable>
rbdock ($Id: //depot/dev/client3/rdock/2013.1/src/exe/rbdock.cxx#4 $)

>  <Rbt.Library>
libRbt.so (2013.1, Build901 2013/11/27)

>  <Rbt.Parameter_File>
/export/apps/rDock/src/rDock_2013.1_src/data/scripts/dock_solv.prm

>  <Rbt.Receptor>
prm/blind_docking_20.prm

>  <SCORE>
1.88404

>  <SCORE.INTER>
5.69626

>  <SCORE.INTER.CONST>
1

>  <SCORE.INTER.POLAR>
0

>  <SCORE.INTER.ROT>
11

>  <SCORE.INTER.SOLV>
10.7744

>  <SCORE.INTER.VDW>
-10.7273

>  <SCORE.INTER.norm>
0.406876

>  <SCORE.INTRA>
-3.82309

>  <SCORE.INTRA.DIHEDRAL>
-17.4128

>  <SCORE.INTRA.DIHEDRAL.0>
24.1231

>  <SCORE.INTRA.POLAR>
0

>  <SCORE.INTRA.POLAR.0>
0

>  <SCORE.INTRA.REPUL>
0

>  <SCORE.INTRA.REPUL.0>
0

>  <SCORE.INTRA.SOLV>
3.99942

>  <SCORE.INTRA.SOLV.lig_0>
-48.2216

>  <SCORE.INTRA.VDW>
2.88359

>  <SCORE.INTRA.VDW.0>
-1.3967

>  <SCORE.INTRA.norm>
-0.273078

>  <SCORE.RESTR>
0.0108745

>  <SCORE.RESTR.CAVITY>
0.0108745

>  <SCORE.RESTR.norm>
0.000776752

>  <SCORE.SYSTEM>
0

>  <SCORE.SYSTEM.CONST>
0

>  <SCORE.SYSTEM.DIHEDRAL>
0

>  <SCORE.SYSTEM.SOLV>
0

>  <SCORE.SYSTEM.norm>
0

>  <SCORE.heavy>
14

>  <SCORE.norm>
0.134574

>  <RMSD>
13.288

$$$$
ligand
 OpenBabel11021811463D
libRbt.so/2013.1/901 2013/11/27
 14 13  0  0  0  0  0  0  0  0999 V2000
    5.3373   14.0561   -1.5169 N   0  0  0  0  0  0  0  0  0  0  0  0
    5.8998   13.8628   -0.1736 C   0  0  0  0  0  0  0  0  0  0  0  0
    7.4221   13.8346   -0.2633 C   0  0  0  0  0  0  0  0  0  0  0  0
    7.9916   13.7747    1.1446 C   0  0  0  0  0  0  0  0  0  0  0  0
    7.7044   12.4557    1.7195 N   0  0  0  0  0  0  0  0  0  0  0  0
    6.6989   12.6572    2.7775 C   0  0  0  0  0  0  0  0  0  0  0  0
    6.2895   11.3150    3.3947 C   0  0  0  0  0  0  0  0  0  0  0  0
    5.7521   10.4131    2.2735 C   0  0  0  0  0  0  0  0  0  0  0  0
    4.8975    9.3568    2.8399 C   0  0  0  0  0  0  0  0  0  0  0  0
    5.7289    8.5581    3.7632 N   0  0  0  0  0  0  0  0  0  0  0  0
    4.8423    7.8456    4.7909 C   0  0  0  0  0  0  0  0  0  0  0  0
    5.5156    6.5423    5.2376 C   0  0  0  0  0  0  0  0  0  0  0  0
    5.6695    5.6393    4.0807 C   0  0  0  0  0  0  0  0  0  0  0  0
    6.3462    4.3954    4.5065 N   0  0  0  0  0  0  0  0  0  0  0  0
  1  2  1  0  0  0  0
  2  3  1  0  0  0  0
  3  4  1  0  0  0  0
  4  5  1  0  0  0  0
  5  6  1  0  0  0  0
  6  7  1  0  0  0  0
  7  8  1  0  0  0  0
  8  9  1  0  0  0  0
  9 10  1  0  0  0  0
 10 11  1  0  0  0  0
 11 12  1  0  0  0  0
 12 13  1  0  0  0  0
 13 14  1  0  0  0  0
M  END
>  <CHROM.1>
174.38707533,70.03449105,-109.98413219,177.44385274,-57.62746685,-158.63877362
-60.60634225,156.90384275,150.95706705,-62.08028665,178.73652706,6.14965571
10.33638286,2.46977905,1.38383837,-0.84641945,-0.66453799

>  <Name>
ligand

>  <RI>
0

>  <Rbt.Current_Directory>
/home/itssahil/PROJECTS/Mol_Feturizer/New_Systems/rnas/2O3Y

>  <Rbt.Executable>
rbdock ($Id: //depot/dev/client3/rdock/2013.1/src/exe/rbdock.cxx#4 $)

>  <Rbt.Library>
libRbt.so (2013.1, Build901 2013/11/27)

>  <Rbt.Parameter_File>
/export/apps/rDock/src/rDock_2013.1_src/data/scripts/dock_solv.prm

>  <Rbt.Receptor>
prm/blind_docking_20.prm

>  <SCORE>
-4.14799

>  <SCORE.INTER>
4.31289

>  <SCORE.INTER.CONST>
1

>  <SCORE.INTER.POLAR>
0

>  <SCORE.INTER.ROT>
11

>  <SCORE.INTER.SOLV>
14.3734

>  <SCORE.INTER.VDW>
-12.8492

>  <SCORE.INTER.norm>
0.308063

>  <SCORE.INTRA>
-8.46944

>  <SCORE.INTRA.DIHEDRAL>
-19.7824

>  <SCORE.INTRA.DIHEDRAL.0>
24.1231

>  <SCORE.INTRA.POLAR>
0

>  <SCORE.INTRA.POLAR.0>
0

>  <SCORE.INTRA.REPUL>
0

>  <SCORE.INTRA.REPUL.0>
0

>  <SCORE.INTRA.SOLV>
0.800709

>  <SCORE.INTRA.SOLV.lig_0>
-48.2216

>  <SCORE.INTRA.VDW>
1.02139

>  <SCORE.INTRA.VDW.0>
-1.3967

>  <SCORE.INTRA.norm>
-0.60496

>  <SCORE.RESTR>
0.00856568

>  <SCORE.RESTR.CAVITY>
0.00856568

>  <SCORE.RESTR.norm>
0.000611834

>  <SCORE.SYSTEM>
0

>  <SCORE.SYSTEM.CONST>
0

>  <SCORE.SYSTEM.DIHEDRAL>
0

>  <SCORE.SYSTEM.SOLV>
0

>  <SCORE.SYSTEM.norm>
0

>  <SCORE.heavy>
14

>  <SCORE.norm>
-0.296285

>  <RMSD>
13.294

$$$$
ligand
 OpenBabel11021811463D
libRbt.so/2013.1/901 2013/11/27
 14 13  0  0  0  0  0  0  0  0999 V2000
    5.0812   14.3446   -1.4693 N   0  0  0  0  0  0  0  0  0  0  0  0
    5.3751   13.8503   -0.1175 C   0  0  0  0  0  0  0  0  0  0  0  0
    6.7790   13.2548   -0.0919 C   0  0  0  0  0  0  0  0  0  0  0  0
    7.0269   12.6513    1.2808 C   0  0  0  0  0  0  0  0  0  0  0  0
    6.1320   11.5034    1.4658 N   0  0  0  0  0  0  0  0  0  0  0  0
    6.2807   11.0629    2.8638 C   0  0  0  0  0  0  0  0  0  0  0  0
    5.5826    9.7156    3.0816 C   0  0  0  0  0  0  0  0  0  0  0  0
    6.2244    8.6831    2.1427 C   0  0  0  0  0  0  0  0  0  0  0  0
    5.7068    7.3377    2.4407 C   0  0  0  0  0  0  0  0  0  0  0  0
    6.3069    6.9021    3.7182 N   0  0  0  0  0  0  0  0  0  0  0  0
    5.7143    5.5555    4.1487 C   0  0  0  0  0  0  0  0  0  0  0  0
    4.4290    5.7906    4.9515 C   0  0  0  0  0  0  0  0  0  0  0  0
    4.7628    6.3647    6.2692 C   0  0  0  0  0  0  0  0  0  0  0  0
    5.4433    5.3465    7.0980 N   0  0  0  0  0  0  0  0  0  0  0  0
  1  2  1  0  0  0  0
  2  3  1  0  0  0  0
  3  4  1  0  0  0  0
  4  5  1  0  0  0  0
  5  6  1  0  0  0  0
  6  7  1  0  0  0  0
  7  8  1  0  0  0  0
  8  9  1  0  0  0  0
  9 10  1  0  0  0  0
 10 11  1  0  0  0  0
 11 12  1  0  0  0  0
 12 13  1  0  0  0  0
 13 14  1  0  0  0  0
M  END
>  <CHROM.1>
-175.63075466,66.45040370,-172.77431278,-169.58940057,59.79813627,172.65609272
-72.82728787,175.09581995,-86.82391463,-70.77147030,-69.42452069,5.77465387
9.45447463,2.69873486,-0.21335898,-1.49474732,-2.40741646

>  <Name>
ligand

>  <RI>
0

>  <Rbt.Current_Directory>
/home/itssahil/PROJECTS/Mol_Feturizer/New_Systems/rnas/2O3Y

>  <Rbt.Executable>
rbdock ($Id: //depot/dev/client3/rdock/2013.1/src/exe/rbdock.cxx#4 $)

>  <Rbt.Library>
libRbt.so (2013.1, Build901 2013/11/27)

>  <Rbt.Parameter_File>
/export/apps/rDock/src/rDock_2013.1_src/data/scripts/dock_solv.prm

>  <Rbt.Receptor>
prm/blind_docking_20.prm

>  <SCORE>
-4.41744

>  <SCORE.INTER>
4.55506

>  <SCORE.INTER.CONST>
1

>  <SCORE.INTER.POLAR>
0

>  <SCORE.INTER.ROT>
11

>  <SCORE.INTER.SOLV>
13.6638

>  <SCORE.INTER.VDW>
-12.4512

>  <SCORE.INTER.norm>
0.325362

>  <SCORE.INTRA>
-8.9725

>  <SCORE.INTRA.DIHEDRAL>
-21.6657

>  <SCORE.INTRA.DIHEDRAL.0>
24.1231

>  <SCORE.INTRA.POLAR>
0

>  <SCORE.INTRA.POLAR.0>
0

>  <SCORE.INTRA.REPUL>
0

>  <SCORE.INTRA.REPUL.0>
0

>  <SCORE.INTRA.SOLV>
1.97622

>  <SCORE.INTRA.SOLV.lig_0>
-48.2216

>  <SCORE.INTRA.VDW>
0.872259

>  <SCORE.INTRA.VDW.0>
-1.3967

>  <SCORE.INTRA.norm>
-0.640893

>  <SCORE.RESTR>
0

>  <SCORE.RESTR.CAVITY>
0

>  <SCORE.RESTR.norm>
0

>  <SCORE.SYSTEM>
0

>  <SCORE.SYSTEM.CONST>
0

>  <SCORE.SYSTEM.DIHEDRAL>
0

>  <SCORE.SYSTEM.SOLV>
0

>  <SCORE.SYSTEM.norm>
0

>  <SCORE.heavy>
14

>  <SCORE.norm>
-0.315532

>  <RMSD>
13.340

$$$$
ligand
 OpenBabel11021811463D
libRbt.so/2013.1/901 2013/11/27
 14 13  0  0  0  0  0  0  0  0999 V2000
    4.9755   14.5671   -1.5188 N   0  0  0  0  0  0  0  0  0  0  0  0
    5.7881   13.4472   -1.0252 C   0  0  0  0  0  0  0  0  0  0  0  0
    6.1833   13.7107    0.4242 C   0  0  0  0  0  0  0  0  0  0  0  0
    6.9131   12.4897    0.9595 C   0  0  0  0  0  0  0  0  0  0  0  0
    7.1179   12.6514    2.4034 N   0  0  0  0  0  0  0  0  0  0  0  0
    5.9263   12.0994    3.0714 C   0  0  0  0  0  0  0  0  0  0  0  0
    6.0881   10.5929    3.3040 C   0  0  0  0  0  0  0  0  0  0  0  0
    5.7521    9.8643    1.9941 C   0  0  0  0  0  0  0  0  0  0  0  0
    6.0794    8.4341    2.1125 C   0  0  0  0  0  0  0  0  0  0  0  0
    5.1286    7.8372    3.0724 N   0  0  0  0  0  0  0  0  0  0  0  0
    5.8826    7.0017    4.1133 C   0  0  0  0  0  0  0  0  0  0  0  0
    4.8853    6.3911    5.1053 C   0  0  0  0  0  0  0  0  0  0  0  0
    5.6153    5.6645    6.1619 C   0  0  0  0  0  0  0  0  0  0  0  0
    4.6544    4.9526    7.0316 N   0  0  0  0  0  0  0  0  0  0  0  0
  1  2  1  0  0  0  0
  2  3  1  0  0  0  0
  3  4  1  0  0  0  0
  4  5  1  0  0  0  0
  5  6  1  0  0  0  0
  6  7  1  0  0  0  0
  7  8  1  0  0  0  0
  8  9  1  0  0  0  0
  9 10  1  0  0  0  0
 10 11  1  0  0  0  0
 11 12  1  0  0  0  0
 12 13  1  0  0  0  0
 13 14  1  0  0  0  0
M  END
>  <CHROM.1>
174.87526529,-171.58140087,88.57136301,86.99432680,-80.78703288,171.88809925
68.68774823,-131.19727767,179.84895028,-176.08510065,-173.80025892,5.78513357
9.97884336,2.65778830,1.37023477,-1.14960997,-0.81831019

>  <Name>
ligand

>  <RI>
0

>  <Rbt.Current_Directory>
/home/itssahil/PROJECTS/Mol_Feturizer/New_Systems/rnas/2O3Y

>  <Rbt.Executable>
rbdock ($Id: //depot/dev/client3/rdock/2013.1/src/exe/rbdock.cxx#4 $)

>  <Rbt.Library>
libRbt.so (2013.1, Build901 2013/11/27)

>  <Rbt.Parameter_File>
/export/apps/rDock/src/rDock_2013.1_src/data/scripts/dock_solv.prm

>  <Rbt.Receptor>
prm/blind_docking_20.prm

>  <SCORE>
-4.57945

>  <SCORE.INTER>
3.4777

>  <SCORE.INTER.CONST>
1

>  <SCORE.INTER.POLAR>
0

>  <SCORE.INTER.ROT>
11

>  <SCORE.INTER.SOLV>
9.65267

>  <SCORE.INTER.VDW>
-11.8324

>  <SCORE.INTER.norm>
0.248407

>  <SCORE.INTRA>
-8.06329

>  <SCORE.INTRA.DIHEDRAL>
-19.3654

>  <SCORE.INTRA.DIHEDRAL.0>
24.1231

>  <SCORE.INTRA.POLAR>
0

>  <SCORE.INTRA.POLAR.0>
0

>  <SCORE.INTRA.REPUL>
0

>  <SCORE.INTRA.REPUL.0>
0

>  <SCORE.INTRA.SOLV>
-0.186884

>  <SCORE.INTRA.SOLV.lig_0>
-48.2216

>  <SCORE.INTRA.VDW>
1.71288

>  <SCORE.INTRA.VDW.0>
-1.3967

>  <SCORE.INTRA.norm>
-0.575949

>  <SCORE.RESTR>
0.00614103

>  <SCORE.RESTR.CAVITY>
0.00614103

>  <SCORE.RESTR.norm>
0.000438645

>  <SCORE.SYSTEM>
0

>  <SCORE.SYSTEM.CONST>
0

>  <SCORE.SYSTEM.DIHEDRAL>
0

>  <SCORE.SYSTEM.SOLV>
0

>  <SCORE.SYSTEM.norm>
0

>  <SCORE.heavy>
14

>  <SCORE.norm>
-0.327103

>  <RMSD>
13.367

$$$$
ligand
 OpenBabel11021811463D
libRbt.so/2013.1/901 2013/11/27
 14 13  0  0  0  0  0  0  0  0999 V2000
    5.0609   14.5132   -1.4686 N   0  0  0  0  0  0  0  0  0  0  0  0
    5.7280   13.4622   -0.6886 C   0  0  0  0  0  0  0  0  0  0  0  0
    6.6844   14.1052    0.3104 C   0  0  0  0  0  0  0  0  0  0  0  0
    7.3406   13.0076    1.1319 C   0  0  0  0  0  0  0  0  0  0  0  0
    6.3249   12.3763    1.9820 N   0  0  0  0  0  0  0  0  0  0  0  0
    6.3670   10.9306    1.7011 C   0  0  0  0  0  0  0  0  0  0  0  0
    5.3216   10.1876    2.5408 C   0  0  0  0  0  0  0  0  0  0  0  0
    5.1137    8.7942    1.9287 C   0  0  0  0  0  0  0  0  0  0  0  0
    6.2377    7.9128    2.2843 C   0  0  0  0  0  0  0  0  0  0  0  0
    6.1412    7.6288    3.7306 N   0  0  0  0  0  0  0  0  0  0  0  0
    6.5212    6.1701    4.0095 C   0  0  0  0  0  0  0  0  0  0  0  0
    5.3961    5.4852    4.7947 C   0  0  0  0  0  0  0  0  0  0  0  0
    5.2048    6.1678    6.0889 C   0  0  0  0  0  0  0  0  0  0  0  0
    4.0474    5.5790    6.7962 N   0  0  0  0  0  0  0  0  0  0  0  0
  1  2  1  0  0  0  0
  2  3  1  0  0  0  0
  3  4  1  0  0  0  0
  4  5  1  0  0  0  0
  5  6  1  0  0  0  0
  6  7  1  0  0  0  0
  7  8  1  0  0  0  0
  8  9  1  0  0  0  0
  9 10  1  0  0  0  0
 10 11  1  0  0  0  0
 11 12  1  0  0  0  0
 12 13  1  0  0  0  0
 13 14  1  0  0  0  0
M  END
>  <CHROM.1>
178.63115353,-67.68594979,125.32737180,-179.42763869,163.41687514,76.64267752
69.69595312,141.35602221,-125.96755152,-61.25602490,175.32566477,5.82085861
9.73706649,2.51002540,-1.25953751,-1.27818526,2.83275073

>  <Name>
ligand

>  <RI>
0

>  <Rbt.Current_Directory>
/home/itssahil/PROJECTS/Mol_Feturizer/New_Systems/rnas/2O3Y

>  <Rbt.Executable>
rbdock ($Id: //depot/dev/client3/rdock/2013.1/src/exe/rbdock.cxx#4 $)

>  <Rbt.Library>
libRbt.so (2013.1, Build901 2013/11/27)

>  <Rbt.Parameter_File>
/export/apps/rDock/src/rDock_2013.1_src/data/scripts/dock_solv.prm

>  <Rbt.Receptor>
prm/blind_docking_20.prm

>  <SCORE>
-4.94259

>  <SCORE.INTER>
2.73835

>  <SCORE.INTER.CONST>
1

>  <SCORE.INTER.POLAR>
0

>  <SCORE.INTER.ROT>
11

>  <SCORE.INTER.SOLV>
9.92666

>  <SCORE.INTER.VDW>
-12.4167

>  <SCORE.INTER.norm>
0.195596

>  <SCORE.INTRA>
-7.68124

>  <SCORE.INTRA.DIHEDRAL>
-18.182

>  <SCORE.INTRA.DIHEDRAL.0>
24.1231

>  <SCORE.INTRA.POLAR>
0

>  <SCORE.INTRA.POLAR.0>
0

>  <SCORE.INTRA.REPUL>
0

>  <SCORE.INTRA.REPUL.0>
0

>  <SCORE.INTRA.SOLV>
0.652525

>  <SCORE.INTRA.SOLV.lig_0>
-48.2216

>  <SCORE.INTRA.VDW>
1.08349

>  <SCORE.INTRA.VDW.0>
-1.3967

>  <SCORE.INTRA.norm>
-0.54866

>  <SCORE.RESTR>
0.000311267

>  <SCORE.RESTR.CAVITY>
0.000311267

>  <SCORE.RESTR.norm>
2.22333e-05

>  <SCORE.SYSTEM>
0

>  <SCORE.SYSTEM.CONST>
0

>  <SCORE.SYSTEM.DIHEDRAL>
0

>  <SCORE.SYSTEM.SOLV>
0

>  <SCORE.SYSTEM.norm>
0

>  <SCORE.heavy>
14

>  <SCORE.norm>
-0.353042

>  <RMSD>
13.405

$$$$
ligand
 OpenBabel11021811463D
libRbt.so/2013.1/901 2013/11/27
 14 13  0  0  0  0  0  0  0  0999 V2000
    4.6212   14.0697   -0.5123 N   0  0  0  0  0  0  0  0  0  0  0  0
    5.9306   13.5181   -0.8853 C   0  0  0  0  0  0  0  0  0  0  0  0
    6.9849   14.0093    0.1014 C   0  0  0  0  0  0  0  0  0  0  0  0
    6.6859   13.4163    1.4685 C   0  0  0  0  0  0  0  0  0  0  0  0
    6.7538   11.9533    1.3790 N   0  0  0  0  0  0  0  0  0  0  0  0
    6.6363   11.4324    2.7521 C   0  0  0  0  0  0  0  0  0  0  0  0
    5.2709   10.7678    2.9615 C   0  0  0  0  0  0  0  0  0  0  0  0
    5.1041    9.6662    1.9041 C   0  0  0  0  0  0  0  0  0  0  0  0
    6.0222    8.5508    2.1864 C   0  0  0  0  0  0  0  0  0  0  0  0
    5.5345    7.8689    3.4025 N   0  0  0  0  0  0  0  0  0  0  0  0
    6.4360    6.6749    3.7367 C   0  0  0  0  0  0  0  0  0  0  0  0
    5.6303    5.6188    4.5029 C   0  0  0  0  0  0  0  0  0  0  0  0
    5.2597    6.1424    5.8317 C   0  0  0  0  0  0  0  0  0  0  0  0
    4.5100    5.1118    6.5817 N   0  0  0  0  0  0  0  0  0  0  0  0
  1  2  1  0  0  0  0
  2  3  1  0  0  0  0
  3  4  1  0  0  0  0
  4  5  1  0  0  0  0
  5  6  1  0  0  0  0
  6  7  1  0  0  0  0
  7  8  1  0  0  0  0
  8  9  1  0  0  0  0
  9 10  1  0  0  0  0
 10 11  1  0  0  0  0
 11 12  1  0  0  0  0
 12 13  1  0  0  0  0
 13 14  1  0  0  0  0
M  END
>  <CHROM.1>
66.02577435,61.12113921,172.64925453,108.22433307,56.57656842,69.75057573
70.18288882,178.90207700,-152.88328247,-67.35693683,-178.69009421,5.81306356
9.91440641,2.52925692,1.42336943,-0.95781464,-0.69887057

>  <Name>
ligand

>  <RI>
0

>  <Rbt.Current_Directory>
/home/itssahil/PROJECTS/Mol_Feturizer/New_Systems/rnas/2O3Y

>  <Rbt.Executable>
rbdock ($Id: //depot/dev/client3/rdock/2013.1/src/exe/rbdock.cxx#4 $)

>  <Rbt.Library>
libRbt.so (2013.1, Build901 2013/11/27)

>  <Rbt.Parameter_File>
/export/apps/rDock/src/rDock_2013.1_src/data/scripts/dock_solv.prm

>  <Rbt.Receptor>
prm/blind_docking_20.prm

>  <SCORE>
-4.39521

>  <SCORE.INTER>
3.00724

>  <SCORE.INTER.CONST>
1

>  <SCORE.INTER.POLAR>
0

>  <SCORE.INTER.ROT>
11

>  <SCORE.INTER.SOLV>
7.91785

>  <SCORE.INTER.VDW>
-11.5678

>  <SCORE.INTER.norm>
0.214803

>  <SCORE.INTRA>
-7.40245

>  <SCORE.INTRA.DIHEDRAL>
-21.3117

>  <SCORE.INTRA.DIHEDRAL.0>
24.1231

>  <SCORE.INTRA.POLAR>
0

>  <SCORE.INTRA.POLAR.0>
0

>  <SCORE.INTRA.REPUL>
0

>  <SCORE.INTRA.REPUL.0>
0

>  <SCORE.INTRA.SOLV>
2.62937

>  <SCORE.INTRA.SOLV.lig_0>
-48.2216

>  <SCORE.INTRA.VDW>
1.93871

>  <SCORE.INTRA.VDW.0>
-1.3967

>  <SCORE.INTRA.norm>
-0.528747

>  <SCORE.RESTR>
0

>  <SCORE.RESTR.CAVITY>
0

>  <SCORE.RESTR.norm>
0

>  <SCORE.SYSTEM>
0

>  <SCORE.SYSTEM.CONST>
0

>  <SCORE.SYSTEM.DIHEDRAL>
0

>  <SCORE.SYSTEM.SOLV>
0

>  <SCORE.SYSTEM.norm>
0

>  <SCORE.heavy>
14

>  <SCORE.norm>
-0.313944

>  <RMSD>
13.414

$$$$
ligand
 OpenBabel11021811463D
libRbt.so/2013.1/901 2013/11/27
 14 13  0  0  0  0  0  0  0  0999 V2000
    5.2024   14.0453   -1.7043 N   0  0  0  0  0  0  0  0  0  0  0  0
    5.8125   14.0939   -0.3688 C   0  0  0  0  0  0  0  0  0  0  0  0
    7.3280   13.9870   -0.5021 C   0  0  0  0  0  0  0  0  0  0  0  0
    7.9442   14.0465    0.8861 C   0  0  0  0  0  0  0  0  0  0  0  0
    7.5648   12.8391    1.6284 N   0  0  0  0  0  0  0  0  0  0  0  0
    6.5807   13.2504    2.6448 C   0  0  0  0  0  0  0  0  0  0  0  0
    5.5809   12.1203    2.9155 C   0  0  0  0  0  0  0  0  0  0  0  0
    6.3602   10.9007    3.4300 C   0  0  0  0  0  0  0  0  0  0  0  0
    5.4817    9.7204    3.4732 C   0  0  0  0  0  0  0  0  0  0  0  0
    6.3099    8.5623    3.8664 N   0  0  0  0  0  0  0  0  0  0  0  0
    5.4975    7.2676    3.7502 C   0  0  0  0  0  0  0  0  0  0  0  0
    6.3947    6.0654    4.0683 C   0  0  0  0  0  0  0  0  0  0  0  0
    5.5840    4.8328    4.0977 C   0  0  0  0  0  0  0  0  0  0  0  0
    4.6008    4.9096    5.1995 N   0  0  0  0  0  0  0  0  0  0  0  0
  1  2  1  0  0  0  0
  2  3  1  0  0  0  0
  3  4  1  0  0  0  0
  4  5  1  0  0  0  0
  5  6  1  0  0  0  0
  6  7  1  0  0  0  0
  7  8  1  0  0  0  0
  8  9  1  0  0  0  0
  9 10  1  0  0  0  0
 10 11  1  0  0  0  0
 11 12  1  0  0  0  0
 12 13  1  0  0  0  0
 13 14  1  0  0  0  0
M  END
>  <CHROM.1>
179.69227373,67.17377234,-107.71803465,148.32609280,60.34442455,-169.84791999
175.41878844,-172.50795642,176.16126536,174.02701364,-63.97349358,6.16025753
10.47454026,2.38468870,1.32204503,-1.05860052,-0.70607255

>  <Name>
ligand

>  <RI>
0

>  <Rbt.Current_Directory>
/home/itssahil/PROJECTS/Mol_Feturizer/New_Systems/rnas/2O3Y

>  <Rbt.Executable>
rbdock ($Id: //depot/dev/client3/rdock/2013.1/src/exe/rbdock.cxx#4 $)

>  <Rbt.Library>
libRbt.so (2013.1, Build901 2013/11/27)

>  <Rbt.Parameter_File>
/export/apps/rDock/src/rDock_2013.1_src/data/scripts/dock_solv.prm

>  <Rbt.Receptor>
prm/blind_docking_20.prm

>  <SCORE>
-5.59337

>  <SCORE.INTER>
3.69088

>  <SCORE.INTER.CONST>
1

>  <SCORE.INTER.POLAR>
0

>  <SCORE.INTER.ROT>
11

>  <SCORE.INTER.SOLV>
11.6389

>  <SCORE.INTER.VDW>
-12.3524

>  <SCORE.INTER.norm>
0.263635

>  <SCORE.INTRA>
-9.32902

>  <SCORE.INTRA.DIHEDRAL>
-21.4449

>  <SCORE.INTRA.DIHEDRAL.0>
24.1231

>  <SCORE.INTRA.POLAR>
0

>  <SCORE.INTRA.POLAR.0>
0

>  <SCORE.INTRA.REPUL>
0

>  <SCORE.INTRA.REPUL.0>
0

>  <SCORE.INTRA.SOLV>
0.915574

>  <SCORE.INTRA.SOLV.lig_0>
-48.2216

>  <SCORE.INTRA.VDW>
0.935644

>  <SCORE.INTRA.VDW.0>
-1.3967

>  <SCORE.INTRA.norm>
-0.666359

>  <SCORE.RESTR>
0.0447658

>  <SCORE.RESTR.CAVITY>
0.0447658

>  <SCORE.RESTR.norm>
0.00319756

>  <SCORE.SYSTEM>
0

>  <SCORE.SYSTEM.CONST>
0

>  <SCORE.SYSTEM.DIHEDRAL>
0

>  <SCORE.SYSTEM.SOLV>
0

>  <SCORE.SYSTEM.norm>
0

>  <SCORE.heavy>
14

>  <SCORE.norm>
-0.399526

>  <RMSD>
13.414

$$$$
ligand
 OpenBabel11021811463D
libRbt.so/2013.1/901 2013/11/27
 14 13  0  0  0  0  0  0  0  0999 V2000
    4.4049   14.1070   -1.4035 N   0  0  0  0  0  0  0  0  0  0  0  0
    5.5951   13.3893   -0.9278 C   0  0  0  0  0  0  0  0  0  0  0  0
    6.4166   14.3117   -0.0330 C   0  0  0  0  0  0  0  0  0  0  0  0
    7.6303   13.5476    0.4701 C   0  0  0  0  0  0  0  0  0  0  0  0
    7.1759   12.3884    1.2465 N   0  0  0  0  0  0  0  0  0  0  0  0
    6.9236   12.8617    2.6187 C   0  0  0  0  0  0  0  0  0  0  0  0
    6.6072   11.6827    3.5459 C   0  0  0  0  0  0  0  0  0  0  0  0
    5.2968   11.0358    3.0727 C   0  0  0  0  0  0  0  0  0  0  0  0
    4.9735    9.8731    3.9156 C   0  0  0  0  0  0  0  0  0  0  0  0
    5.9727    8.8236    3.6297 N   0  0  0  0  0  0  0  0  0  0  0  0
    5.4188    7.4472    4.0151 C   0  0  0  0  0  0  0  0  0  0  0  0
    6.5229    6.3913    3.8828 C   0  0  0  0  0  0  0  0  0  0  0  0
    5.9756    5.0567    4.1936 C   0  0  0  0  0  0  0  0  0  0  0  0
    5.5729    5.0023    5.6153 N   0  0  0  0  0  0  0  0  0  0  0  0
  1  2  1  0  0  0  0
  2  3  1  0  0  0  0
  3  4  1  0  0  0  0
  4  5  1  0  0  0  0
  5  6  1  0  0  0  0
  6  7  1  0  0  0  0
  7  8  1  0  0  0  0
  8  9  1  0  0  0  0
  9 10  1  0  0  0  0
 10 11  1  0  0  0  0
 11 12  1  0  0  0  0
 12 13  1  0  0  0  0
 13 14  1  0  0  0  0
M  END
>  <CHROM.1>
179.01784206,-60.71236459,-84.61748757,-173.12312591,-64.23212744,178.46596202
-68.92739383,-157.78770409,-172.83373288,-177.41717446,-65.50883053,6.03488390
10.42287803,2.41733109,1.50758540,-0.96075677,-0.59290391

>  <Name>
ligand

>  <RI>
0

>  <Rbt.Current_Directory>
/home/itssahil/PROJECTS/Mol_Feturizer/New_Systems/rnas/2O3Y

>  <Rbt.Executable>
rbdock ($Id: //depot/dev/client3/rdock/2013.1/src/exe/rbdock.cxx#4 $)

>  <Rbt.Library>
libRbt.so (2013.1, Build901 2013/11/27)

>  <Rbt.Parameter_File>
/export/apps/rDock/src/rDock_2013.1_src/data/scripts/dock_solv.prm

>  <Rbt.Receptor>
prm/blind_docking_20.prm

>  <SCORE>
-6.2065

>  <SCORE.INTER>
3.03066

>  <SCORE.INTER.CONST>
1

>  <SCORE.INTER.POLAR>
0

>  <SCORE.INTER.ROT>
11

>  <SCORE.INTER.SOLV>
10.758

>  <SCORE.INTER.VDW>
-12.4989

>  <SCORE.INTER.norm>
0.216476

>  <SCORE.INTRA>
-9.24418

>  <SCORE.INTRA.DIHEDRAL>
-22.7295

>  <SCORE.INTRA.DIHEDRAL.0>
24.1231

>  <SCORE.INTRA.POLAR>
0

>  <SCORE.INTRA.POLAR.0>
0

>  <SCORE.INTRA.REPUL>
0.00284006

>  <SCORE.INTRA.REPUL.0>
0

>  <SCORE.INTRA.SOLV>
1.25528

>  <SCORE.INTRA.SOLV.lig_0>
-48.2216

>  <SCORE.INTRA.VDW>
1.47871

>  <SCORE.INTRA.VDW.0>
-1.3967

>  <SCORE.INTRA.norm>
-0.660299

>  <SCORE.RESTR>
0.00702583

>  <SCORE.RESTR.CAVITY>
0.00702583

>  <SCORE.RESTR.norm>
0.000501845

>  <SCORE.SYSTEM>
0

>  <SCORE.SYSTEM.CONST>
0

>  <SCORE.SYSTEM.DIHEDRAL>
0

>  <SCORE.SYSTEM.SOLV>
0

>  <SCORE.SYSTEM.norm>
0

>  <SCORE.heavy>
14

>  <SCORE.norm>
-0.443321

>  <RMSD>
13.449

$$$$
ligand
 OpenBabel11021811463D
libRbt.so/2013.1/901 2013/11/27
 14 13  0  0  0  0  0  0  0  0999 V2000
    5.2112    4.8584    5.3410 N   0  0  0  0  0  0  0  0  0  0  0  0
    6.2271    5.0745    4.3020 C   0  0  0  0  0  0  0  0  0  0  0  0
    6.3367    6.5666    4.0059 C   0  0  0  0  0  0  0  0  0  0  0  0
    5.0309    7.0372    3.3865 C   0  0  0  0  0  0  0  0  0  0  0  0
    5.0464    8.5016    3.2960 N   0  0  0  0  0  0  0  0  0  0  0  0
    5.6996    8.8469    2.0214 C   0  0  0  0  0  0  0  0  0  0  0  0
    5.6442   10.3597    1.7798 C   0  0  0  0  0  0  0  0  0  0  0  0
    6.2674   11.0646    2.9940 C   0  0  0  0  0  0  0  0  0  0  0  0
    6.6319   12.4472    2.6443 C   0  0  0  0  0  0  0  0  0  0  0  0
    7.6690   12.3828    1.5945 N   0  0  0  0  0  0  0  0  0  0  0  0
    7.9560   13.7860    1.0481 C   0  0  0  0  0  0  0  0  0  0  0  0
    7.3273   13.9366   -0.3424 C   0  0  0  0  0  0  0  0  0  0  0  0
    5.8573   13.8673   -0.2345 C   0  0  0  0  0  0  0  0  0  0  0  0
    5.2519   14.0181   -1.5752 N   0  0  0  0  0  0  0  0  0  0  0  0
  1  2  1  0  0  0  0
  2  3  1  0  0  0  0
  3  4  1  0  0  0  0
  4  5  1  0  0  0  0
  5  6  1  0  0  0  0
  6  7  1  0  0  0  0
  7  8  1  0  0  0  0
  8  9  1  0  0  0  0
  9 10  1  0  0  0  0
 10 11  1  0  0  0  0
 11 12  1  0  0  0  0
 12 13  1  0  0  0  0
 13 14  1  0  0  0  0
M  END
>  <CHROM.1>
-65.80585721,171.08013255,86.78980234,174.74308509,55.24513429,161.90847400
-63.41580765,172.27195142,-105.50573862,65.39125061,179.77687296,6.15419980
10.19635336,2.16152382,-1.72498477,-0.70323926,-0.59533361

>  <Name>
ligand

>  <RI>
0

>  <Rbt.Current_Directory>
/home/itssahil/PROJECTS/Mol_Feturizer/New_Systems/rnas/2O3Y

>  <Rbt.Executable>
rbdock ($Id: //depot/dev/client3/rdock/2013.1/src/exe/rbdock.cxx#4 $)

>  <Rbt.Library>
libRbt.so (2013.1, Build901 2013/11/27)

>  <Rbt.Parameter_File>
/export/apps/rDock/src/rDock_2013.1_src/data/scripts/dock_solv.prm

>  <Rbt.Receptor>
prm/blind_docking_20.prm

>  <SCORE>
-5.6779

>  <SCORE.INTER>
2.38167

>  <SCORE.INTER.CONST>
1

>  <SCORE.INTER.POLAR>
0

>  <SCORE.INTER.ROT>
11

>  <SCORE.INTER.SOLV>
10.9351

>  <SCORE.INTER.VDW>
-12.9906

>  <SCORE.INTER.norm>
0.170119

>  <SCORE.INTRA>
-8.05957

>  <SCORE.INTRA.DIHEDRAL>
-20.5832

>  <SCORE.INTRA.DIHEDRAL.0>
24.1231

>  <SCORE.INTRA.POLAR>
0

>  <SCORE.INTRA.POLAR.0>
0

>  <SCORE.INTRA.REPUL>
0

>  <SCORE.INTRA.REPUL.0>
0

>  <SCORE.INTRA.SOLV>
1.39946

>  <SCORE.INTRA.SOLV.lig_0>
-48.2216

>  <SCORE.INTRA.VDW>
1.53228

>  <SCORE.INTRA.VDW.0>
-1.3967

>  <SCORE.INTRA.norm>
-0.575683

>  <SCORE.RESTR>
0

>  <SCORE.RESTR.CAVITY>
0

>  <SCORE.RESTR.norm>
0

>  <SCORE.SYSTEM>
0

>  <SCORE.SYSTEM.CONST>
0

>  <SCORE.SYSTEM.DIHEDRAL>
0

>  <SCORE.SYSTEM.SOLV>
0

>  <SCORE.SYSTEM.norm>
0

>  <SCORE.heavy>
14

>  <SCORE.norm>
-0.405564

>  <RMSD>
13.523

$$$$
ligand
 OpenBabel11021811463D
libRbt.so/2013.1/901 2013/11/27
 14 13  0  0  0  0  0  0  0  0999 V2000
    4.5946   13.9783   -1.3468 N   0  0  0  0  0  0  0  0  0  0  0  0
    5.4477   14.0092   -0.1513 C   0  0  0  0  0  0  0  0  0  0  0  0
    6.9064   13.8511   -0.5678 C   0  0  0  0  0  0  0  0  0  0  0  0
    7.7795   13.9414    0.6729 C   0  0  0  0  0  0  0  0  0  0  0  0
    7.5847   12.7330    1.4821 N   0  0  0  0  0  0  0  0  0  0  0  0
    6.7137   13.1065    2.6102 C   0  0  0  0  0  0  0  0  0  0  0  0
    6.5825   11.9420    3.5985 C   0  0  0  0  0  0  0  0  0  0  0  0
    5.9882   10.7395    2.8499 C   0  0  0  0  0  0  0  0  0  0  0  0
    5.8380    9.5972    3.7661 C   0  0  0  0  0  0  0  0  0  0  0  0
    5.5239    8.4081    2.9481 N   0  0  0  0  0  0  0  0  0  0  0  0
    5.9935    7.1358    3.6627 C   0  0  0  0  0  0  0  0  0  0  0  0
    5.1078    5.9546    3.2482 C   0  0  0  0  0  0  0  0  0  0  0  0
    5.5319    4.7377    3.9670 C   0  0  0  0  0  0  0  0  0  0  0  0
    5.2350    4.8819    5.4084 N   0  0  0  0  0  0  0  0  0  0  0  0
  1  2  1  0  0  0  0
  2  3  1  0  0  0  0
  3  4  1  0  0  0  0
  4  5  1  0  0  0  0
  5  6  1  0  0  0  0
  6  7  1  0  0  0  0
  7  8  1  0  0  0  0
  8  9  1  0  0  0  0
  9 10  1  0  0  0  0
 10 11  1  0  0  0  0
 11 12  1  0  0  0  0
 12 13  1  0  0  0  0
 13 14  1  0  0  0  0
M  END
>  <CHROM.1>
177.73761107,70.68234203,-103.13794058,-173.63933597,-59.35424037,-179.70760330
-168.93305954,153.21630601,151.47630665,-178.24953674,67.69987150,6.05923124
10.35844574,2.29637453,1.38158778,-0.96703804,-0.61421815

>  <Name>
ligand

>  <RI>
0

>  <Rbt.Current_Directory>
/home/itssahil/PROJECTS/Mol_Feturizer/New_Systems/rnas/2O3Y

>  <Rbt.Executable>
rbdock ($Id: //depot/dev/client3/rdock/2013.1/src/exe/rbdock.cxx#4 $)

>  <Rbt.Library>
libRbt.so (2013.1, Build901 2013/11/27)

>  <Rbt.Parameter_File>
/export/apps/rDock/src/rDock_2013.1_src/data/scripts/dock_solv.prm

>  <Rbt.Receptor>
prm/blind_docking_20.prm

>  <SCORE>
-5.71724

>  <SCORE.INTER>
3.34145

>  <SCORE.INTER.CONST>
1

>  <SCORE.INTER.POLAR>
0

>  <SCORE.INTER.ROT>
11

>  <SCORE.INTER.SOLV>
9.34348

>  <SCORE.INTER.VDW>
-11.8202

>  <SCORE.INTER.norm>
0.238675

>  <SCORE.INTRA>
-9.06889

>  <SCORE.INTRA.DIHEDRAL>
-20.9308

>  <SCORE.INTRA.DIHEDRAL.0>
24.1231

>  <SCORE.INTRA.POLAR>
0

>  <SCORE.INTRA.POLAR.0>
0

>  <SCORE.INTRA.REPUL>
0

>  <SCORE.INTRA.REPUL.0>
0

>  <SCORE.INTRA.SOLV>
0.790406

>  <SCORE.INTRA.SOLV.lig_0>
-48.2216

>  <SCORE.INTRA.VDW>
1.00131

>  <SCORE.INTRA.VDW.0>
-1.3967

>  <SCORE.INTRA.norm>
-0.647778

>  <SCORE.RESTR>
0.0101954

>  <SCORE.RESTR.CAVITY>
0.0101954

>  <SCORE.RESTR.norm>
0.000728241

>  <SCORE.SYSTEM>
0

>  <SCORE.SYSTEM.CONST>
0

>  <SCORE.SYSTEM.DIHEDRAL>
0

>  <SCORE.SYSTEM.SOLV>
0

>  <SCORE.SYSTEM.norm>
0

>  <SCORE.heavy>
14

>  <SCORE.norm>
-0.408375

>  <RMSD>
13.556

$$$$
ligand
 OpenBabel11021811463D
libRbt.so/2013.1/901 2013/11/27
 14 13  0  0  0  0  0  0  0  0999 V2000
    6.4064    5.0708    4.9054 N   0  0  0  0  0  0  0  0  0  0  0  0
    5.4222    6.1571    5.0028 C   0  0  0  0  0  0  0  0  0  0  0  0
    5.0375    6.6168    3.6004 C   0  0  0  0  0  0  0  0  0  0  0  0
    6.1774    7.4443    3.0295 C   0  0  0  0  0  0  0  0  0  0  0  0
    6.2471    8.7209    3.7495 N   0  0  0  0  0  0  0  0  0  0  0  0
    5.2467    9.6140    3.1394 C   0  0  0  0  0  0  0  0  0  0  0  0
    5.3141   11.0096    3.7701 C   0  0  0  0  0  0  0  0  0  0  0  0
    6.5733   11.7153    3.2449 C   0  0  0  0  0  0  0  0  0  0  0  0
    6.4335   11.9954    1.8066 C   0  0  0  0  0  0  0  0  0  0  0  0
    7.3442   13.1113    1.4792 N   0  0  0  0  0  0  0  0  0  0  0  0
    7.5018   13.2366   -0.0404 C   0  0  0  0  0  0  0  0  0  0  0  0
    6.3621   14.0910   -0.6085 C   0  0  0  0  0  0  0  0  0  0  0  0
    5.1151   13.3027   -0.6369 C   0  0  0  0  0  0  0  0  0  0  0  0
    4.0331   14.1042   -1.2481 N   0  0  0  0  0  0  0  0  0  0  0  0
  1  2  1  0  0  0  0
  2  3  1  0  0  0  0
  3  4  1  0  0  0  0
  4  5  1  0  0  0  0
  5  6  1  0  0  0  0
  6  7  1  0  0  0  0
  7  8  1  0  0  0  0
  8  9  1  0  0  0  0
  9 10  1  0  0  0  0
 10 11  1  0  0  0  0
 11 12  1  0  0  0  0
 12 13  1  0  0  0  0
 13 14  1  0  0  0  0
M  END
>  <CHROM.1>
-75.03998572,-70.09296178,-82.46582826,-176.19208515,73.87663325,67.53668577
157.07540933,166.55643358,85.38069869,-75.29786307,-177.14369021,5.94386861
10.44223501,2.22816081,-1.59180727,-0.66187215,-0.57930581

>  <Name>
ligand

>  <RI>
0

>  <Rbt.Current_Directory>
/home/itssahil/PROJECTS/Mol_Feturizer/New_Systems/rnas/2O3Y

>  <Rbt.Executable>
rbdock ($Id: //depot/dev/client3/rdock/2013.1/src/exe/rbdock.cxx#4 $)

>  <Rbt.Library>
libRbt.so (2013.1, Build901 2013/11/27)

>  <Rbt.Parameter_File>
/export/apps/rDock/src/rDock_2013.1_src/data/scripts/dock_solv.prm

>  <Rbt.Receptor>
prm/blind_docking_20.prm

>  <SCORE>
-2.37766

>  <SCORE.INTER>
2.9925

>  <SCORE.INTER.CONST>
1

>  <SCORE.INTER.POLAR>
0

>  <SCORE.INTER.ROT>
11

>  <SCORE.INTER.SOLV>
11.3168

>  <SCORE.INTER.VDW>
-12.7106

>  <SCORE.INTER.norm>
0.21375

>  <SCORE.INTRA>
-5.37484

>  <SCORE.INTRA.DIHEDRAL>
-18.3911

>  <SCORE.INTRA.DIHEDRAL.0>
24.1231

>  <SCORE.INTRA.POLAR>
0

>  <SCORE.INTRA.POLAR.0>
0

>  <SCORE.INTRA.REPUL>
0

>  <SCORE.INTRA.REPUL.0>
0

>  <SCORE.INTRA.SOLV>
1.71818

>  <SCORE.INTRA.SOLV.lig_0>
-48.2216

>  <SCORE.INTRA.VDW>
2.96163

>  <SCORE.INTRA.VDW.0>
-1.3967

>  <SCORE.INTRA.norm>
-0.383917

>  <SCORE.RESTR>
0.00467286

>  <SCORE.RESTR.CAVITY>
0.00467286

>  <SCORE.RESTR.norm>
0.000333776

>  <SCORE.SYSTEM>
0

>  <SCORE.SYSTEM.CONST>
0

>  <SCORE.SYSTEM.DIHEDRAL>
0

>  <SCORE.SYSTEM.SOLV>
0

>  <SCORE.SYSTEM.norm>
0

>  <SCORE.heavy>
14

>  <SCORE.norm>
-0.169833

>  <RMSD>
13.579

$$$$
ligand
 OpenBabel11021811463D
libRbt.so/2013.1/901 2013/11/27
 14 13  0  0  0  0  0  0  0  0999 V2000
    4.4487    4.6661    4.2114 N   0  0  0  0  0  0  0  0  0  0  0  0
    5.9149    4.7012    4.1267 C   0  0  0  0  0  0  0  0  0  0  0  0
    6.4018    6.1221    4.3915 C   0  0  0  0  0  0  0  0  0  0  0  0
    5.9135    7.0214    3.2677 C   0  0  0  0  0  0  0  0  0  0  0  0
    6.3367    8.3994    3.5414 N   0  0  0  0  0  0  0  0  0  0  0  0
    5.7280    9.2504    2.5042 C   0  0  0  0  0  0  0  0  0  0  0  0
    5.3032   10.5997    3.0949 C   0  0  0  0  0  0  0  0  0  0  0  0
    6.5711   11.3998    3.4293 C   0  0  0  0  0  0  0  0  0  0  0  0
    7.1380   11.9850    2.2034 C   0  0  0  0  0  0  0  0  0  0  0  0
    6.3922   13.2272    1.9162 N   0  0  0  0  0  0  0  0  0  0  0  0
    7.0755   14.0047    0.7855 C   0  0  0  0  0  0  0  0  0  0  0  0
    6.8120   13.3057   -0.5537 C   0  0  0  0  0  0  0  0  0  0  0  0
    5.3647   13.3097   -0.8414 C   0  0  0  0  0  0  0  0  0  0  0  0
    4.9930   14.5762   -1.5080 N   0  0  0  0  0  0  0  0  0  0  0  0
  1  2  1  0  0  0  0
  2  3  1  0  0  0  0
  3  4  1  0  0  0  0
  4  5  1  0  0  0  0
  5  6  1  0  0  0  0
  6  7  1  0  0  0  0
  7  8  1  0  0  0  0
  8  9  1  0  0  0  0
  9 10  1  0  0  0  0
 10 11  1  0  0  0  0
 11 12  1  0  0  0  0
 12 13  1  0  0  0  0
 13 14  1  0  0  0  0
M  END
>  <CHROM.1>
-65.55890240,177.94569821,-174.38417994,143.09348131,70.02376308,77.99260099
81.98966438,170.86369645,74.05791744,62.77344266,85.65041983,6.02828658,10.18345371
2.18355342,1.66659503,0.98229849,2.58871907

>  <Name>
ligand

>  <RI>
0

>  <Rbt.Current_Directory>
/home/itssahil/PROJECTS/Mol_Feturizer/New_Systems/rnas/2O3Y

>  <Rbt.Executable>
rbdock ($Id: //depot/dev/client3/rdock/2013.1/src/exe/rbdock.cxx#4 $)

>  <Rbt.Library>
libRbt.so (2013.1, Build901 2013/11/27)

>  <Rbt.Parameter_File>
/export/apps/rDock/src/rDock_2013.1_src/data/scripts/dock_solv.prm

>  <Rbt.Receptor>
prm/blind_docking_20.prm

>  <SCORE>
-2.88192

>  <SCORE.INTER>
3.18311

>  <SCORE.INTER.CONST>
1

>  <SCORE.INTER.POLAR>
0

>  <SCORE.INTER.ROT>
11

>  <SCORE.INTER.SOLV>
9.15834

>  <SCORE.INTER.VDW>
-11.864

>  <SCORE.INTER.norm>
0.227365

>  <SCORE.INTRA>
-6.06503

>  <SCORE.INTRA.DIHEDRAL>
-17.4965

>  <SCORE.INTRA.DIHEDRAL.0>
24.1231

>  <SCORE.INTRA.POLAR>
0

>  <SCORE.INTRA.POLAR.0>
0

>  <SCORE.INTRA.REPUL>
0

>  <SCORE.INTRA.REPUL.0>
0

>  <SCORE.INTRA.SOLV>
2.2507

>  <SCORE.INTRA.SOLV.lig_0>
-48.2216

>  <SCORE.INTRA.VDW>
1.55787

>  <SCORE.INTRA.VDW.0>
-1.3967

>  <SCORE.INTRA.norm>
-0.433217

>  <SCORE.RESTR>
0

>  <SCORE.RESTR.CAVITY>
0

>  <SCORE.RESTR.norm>
0

>  <SCORE.SYSTEM>
0

>  <SCORE.SYSTEM.CONST>
0

>  <SCORE.SYSTEM.DIHEDRAL>
0

>  <SCORE.SYSTEM.SOLV>
0

>  <SCORE.SYSTEM.norm>
0

>  <SCORE.heavy>
14

>  <SCORE.norm>
-0.205851

>  <RMSD>
13.644

$$$$
ligand
 OpenBabel11021811463D
libRbt.so/2013.1/901 2013/11/27
 14 13  0  0  0  0  0  0  0  0999 V2000
    4.0018    7.0997    5.8033 N   0  0  0  0  0  0  0  0  0  0  0  0
    4.0933    5.6608    5.5217 C   0  0  0  0  0  0  0  0  0  0  0  0
    4.0157    5.4354    4.0152 C   0  0  0  0  0  0  0  0  0  0  0  0
    5.2837    5.9775    3.3760 C   0  0  0  0  0  0  0  0  0  0  0  0
    5.2654    7.4429    3.4485 N   0  0  0  0  0  0  0  0  0  0  0  0
    6.2151    7.9355    2.4355 C   0  0  0  0  0  0  0  0  0  0  0  0
    5.7325    9.2659    1.8461 C   0  0  0  0  0  0  0  0  0  0  0  0
    5.9674   10.3685    2.8895 C   0  0  0  0  0  0  0  0  0  0  0  0
    5.8780   11.6933    2.2543 C   0  0  0  0  0  0  0  0  0  0  0  0
    6.9418   11.7703    1.2324 N   0  0  0  0  0  0  0  0  0  0  0  0
    7.4202   13.2182    1.0754 C   0  0  0  0  0  0  0  0  0  0  0  0
    6.9425   13.7761   -0.2708 C   0  0  0  0  0  0  0  0  0  0  0  0
    5.4695   13.8636   -0.2792 C   0  0  0  0  0  0  0  0  0  0  0  0
    5.0187   14.5533   -1.5071 N   0  0  0  0  0  0  0  0  0  0  0  0
  1  2  1  0  0  0  0
  2  3  1  0  0  0  0
  3  4  1  0  0  0  0
  4  5  1  0  0  0  0
  5  6  1  0  0  0  0
  6  7  1  0  0  0  0
  7  8  1  0  0  0  0
  8  9  1  0  0  0  0
  9 10  1  0  0  0  0
 10 11  1  0  0  0  0
 11 12  1  0  0  0  0
 12 13  1  0  0  0  0
 13 14  1  0  0  0  0
M  END
>  <CHROM.1>
68.84062900,-70.44775777,-160.23933602,146.76724519,74.42126188,164.26652399
-61.57995161,-149.52943319,-108.87321738,65.43652983,173.10521216,5.58909596
9.86134906,2.27435664,-1.79470939,-0.56461220,-0.67270954

>  <Name>
ligand

>  <RI>
0

>  <Rbt.Current_Directory>
/home/itssahil/PROJECTS/Mol_Feturizer/New_Systems/rnas/2O3Y

>  <Rbt.Executable>
rbdock ($Id: //depot/dev/client3/rdock/2013.1/src/exe/rbdock.cxx#4 $)

>  <Rbt.Library>
libRbt.so (2013.1, Build901 2013/11/27)

>  <Rbt.Parameter_File>
/export/apps/rDock/src/rDock_2013.1_src/data/scripts/dock_solv.prm

>  <Rbt.Receptor>
prm/blind_docking_20.prm

>  <SCORE>
-1.69975

>  <SCORE.INTER>
5.03776

>  <SCORE.INTER.CONST>
1

>  <SCORE.INTER.POLAR>
0

>  <SCORE.INTER.ROT>
11

>  <SCORE.INTER.SOLV>
9.20843

>  <SCORE.INTER.VDW>
-10.6443

>  <SCORE.INTER.norm>
0.35984

>  <SCORE.INTRA>
-6.73751

>  <SCORE.INTRA.DIHEDRAL>
-18.69

>  <SCORE.INTRA.DIHEDRAL.0>
24.1231

>  <SCORE.INTRA.POLAR>
0

>  <SCORE.INTRA.POLAR.0>
0

>  <SCORE.INTRA.REPUL>
0

>  <SCORE.INTRA.REPUL.0>
0

>  <SCORE.INTRA.SOLV>
3.36909

>  <SCORE.INTRA.SOLV.lig_0>
-48.2216

>  <SCORE.INTRA.VDW>
0.922947

>  <SCORE.INTRA.VDW.0>
-1.3967

>  <SCORE.INTRA.norm>
-0.481251

>  <SCORE.RESTR>
0

>  <SCORE.RESTR.CAVITY>
0

>  <SCORE.RESTR.norm>
0

>  <SCORE.SYSTEM>
0

>  <SCORE.SYSTEM.CONST>
0

>  <SCORE.SYSTEM.DIHEDRAL>
0

>  <SCORE.SYSTEM.SOLV>
0

>  <SCORE.SYSTEM.norm>
0

>  <SCORE.heavy>
14

>  <SCORE.norm>
-0.121411

>  <RMSD>
13.652

$$$$
ligand
 OpenBabel11021811463D
libRbt.so/2013.1/901 2013/11/27
 14 13  0  0  0  0  0  0  0  0999 V2000
    3.8958   13.8224   -1.3301 N   0  0  0  0  0  0  0  0  0  0  0  0
    5.1078   13.2531   -0.7259 C   0  0  0  0  0  0  0  0  0  0  0  0
    6.2803   14.2006   -0.9577 C   0  0  0  0  0  0  0  0  0  0  0  0
    7.5229   13.6029   -0.3185 C   0  0  0  0  0  0  0  0  0  0  0  0
    7.3083   13.4917    1.1287 N   0  0  0  0  0  0  0  0  0  0  0  0
    7.3041   12.0547    1.4538 C   0  0  0  0  0  0  0  0  0  0  0  0
    6.2414   11.7451    2.5144 C   0  0  0  0  0  0  0  0  0  0  0  0
    6.0484   10.2223    2.5728 C   0  0  0  0  0  0  0  0  0  0  0  0
    5.1891    9.8647    3.7132 C   0  0  0  0  0  0  0  0  0  0  0  0
    5.1085    8.3907    3.7656 N   0  0  0  0  0  0  0  0  0  0  0  0
    4.5777    7.9385    5.1308 C   0  0  0  0  0  0  0  0  0  0  0  0
    5.3135    6.6687    5.5754 C   0  0  0  0  0  0  0  0  0  0  0  0
    5.1442    5.6130    4.5585 C   0  0  0  0  0  0  0  0  0  0  0  0
    5.8659    4.3937    4.9816 N   0  0  0  0  0  0  0  0  0  0  0  0
  1  2  1  0  0  0  0
  2  3  1  0  0  0  0
  3  4  1  0  0  0  0
  4  5  1  0  0  0  0
  5  6  1  0  0  0  0
  6  7  1  0  0  0  0
  7  8  1  0  0  0  0
  8  9  1  0  0  0  0
  9 10  1  0  0  0  0
 10 11  1  0  0  0  0
 11 12  1  0  0  0  0
 12 13  1  0  0  0  0
 13 14  1  0  0  0  0
M  END
>  <CHROM.1>
179.58794267,-62.50587192,114.78250499,-141.06345985,166.78375313,171.51491146
-176.59879515,163.87260529,-141.77713070,-57.48591373,179.40533370,5.77923205
10.37599222,2.29024633,1.47538332,-0.36832559,-0.65668577

>  <Name>
ligand

>  <RI>
0

>  <Rbt.Current_Directory>
/home/itssahil/PROJECTS/Mol_Feturizer/New_Systems/rnas/2O3Y

>  <Rbt.Executable>
rbdock ($Id: //depot/dev/client3/rdock/2013.1/src/exe/rbdock.cxx#4 $)

>  <Rbt.Library>
libRbt.so (2013.1, Build901 2013/11/27)

>  <Rbt.Parameter_File>
/export/apps/rDock/src/rDock_2013.1_src/data/scripts/dock_solv.prm

>  <Rbt.Receptor>
prm/blind_docking_20.prm

>  <SCORE>
-5.24191

>  <SCORE.INTER>
4.06455

>  <SCORE.INTER.CONST>
1

>  <SCORE.INTER.POLAR>
0

>  <SCORE.INTER.ROT>
11

>  <SCORE.INTER.SOLV>
7.89313

>  <SCORE.INTER.VDW>
-10.8547

>  <SCORE.INTER.norm>
0.290325

>  <SCORE.INTRA>
-9.41753

>  <SCORE.INTRA.DIHEDRAL>
-19.9976

>  <SCORE.INTRA.DIHEDRAL.0>
24.1231

>  <SCORE.INTRA.POLAR>
0

>  <SCORE.INTRA.POLAR.0>
0

>  <SCORE.INTRA.REPUL>
0

>  <SCORE.INTRA.REPUL.0>
0

>  <SCORE.INTRA.SOLV>
0.0689622

>  <SCORE.INTRA.SOLV.lig_0>
-48.2216

>  <SCORE.INTRA.VDW>
0.546811

>  <SCORE.INTRA.VDW.0>
-1.3967

>  <SCORE.INTRA.norm>
-0.672681

>  <SCORE.RESTR>
0.111066

>  <SCORE.RESTR.CAVITY>
0.111066

>  <SCORE.RESTR.norm>
0.00793329

>  <SCORE.SYSTEM>
0

>  <SCORE.SYSTEM.CONST>
0

>  <SCORE.SYSTEM.DIHEDRAL>
0

>  <SCORE.SYSTEM.SOLV>
0

>  <SCORE.SYSTEM.norm>
0

>  <SCORE.heavy>
14

>  <SCORE.norm>
-0.374422

>  <RMSD>
13.666

$$$$
ligand
 OpenBabel11021811463D
libRbt.so/2013.1/901 2013/11/27
 14 13  0  0  0  0  0  0  0  0999 V2000
    3.9389   13.9141   -1.9609 N   0  0  0  0  0  0  0  0  0  0  0  0
    4.6457   13.6571   -0.6990 C   0  0  0  0  0  0  0  0  0  0  0  0
    6.1204   14.0085   -0.8658 C   0  0  0  0  0  0  0  0  0  0  0  0
    6.8320   13.7618    0.4543 C   0  0  0  0  0  0  0  0  0  0  0  0
    6.9184   12.3156    0.6866 N   0  0  0  0  0  0  0  0  0  0  0  0
    6.9914   12.1177    2.1447 C   0  0  0  0  0  0  0  0  0  0  0  0
    5.8534   11.2087    2.6230 C   0  0  0  0  0  0  0  0  0  0  0  0
    6.0585    9.8160    2.0082 C   0  0  0  0  0  0  0  0  0  0  0  0
    4.9706    8.9151    2.4223 C   0  0  0  0  0  0  0  0  0  0  0  0
    5.0082    8.8185    3.8957 N   0  0  0  0  0  0  0  0  0  0  0  0
    5.3342    7.3830    4.3233 C   0  0  0  0  0  0  0  0  0  0  0  0
    5.0999    7.2281    5.8309 C   0  0  0  0  0  0  0  0  0  0  0  0
    5.4090    5.8454    6.2435 C   0  0  0  0  0  0  0  0  0  0  0  0
    4.4412    4.9134    5.6260 N   0  0  0  0  0  0  0  0  0  0  0  0
  1  2  1  0  0  0  0
  2  3  1  0  0  0  0
  3  4  1  0  0  0  0
  4  5  1  0  0  0  0
  5  6  1  0  0  0  0
  6  7  1  0  0  0  0
  7  8  1  0  0  0  0
  8  9  1  0  0  0  0
  9 10  1  0  0  0  0
 10 11  1  0  0  0  0
 11 12  1  0  0  0  0
 12 13  1  0  0  0  0
 13 14  1  0  0  0  0
M  END
>  <CHROM.1>
178.96356440,71.00528462,-153.54107705,122.98738518,64.83636981,-178.93816469
-60.54256246,-115.86472641,-168.88358675,179.81398737,-65.99677851,5.54460510
10.27889793,2.33817059,1.49507222,-0.55202067,-0.72553478

>  <Name>
ligand

>  <RI>
0

>  <Rbt.Current_Directory>
/home/itssahil/PROJECTS/Mol_Feturizer/New_Systems/rnas/2O3Y

>  <Rbt.Executable>
rbdock ($Id: //depot/dev/client3/rdock/2013.1/src/exe/rbdock.cxx#4 $)

>  <Rbt.Library>
libRbt.so (2013.1, Build901 2013/11/27)

>  <Rbt.Parameter_File>
/export/apps/rDock/src/rDock_2013.1_src/data/scripts/dock_solv.prm

>  <Rbt.Receptor>
prm/blind_docking_20.prm

>  <SCORE>
-4.28076

>  <SCORE.INTER>
4.5575

>  <SCORE.INTER.CONST>
1

>  <SCORE.INTER.POLAR>
0

>  <SCORE.INTER.ROT>
11

>  <SCORE.INTER.SOLV>
7.75648

>  <SCORE.INTER.VDW>
-10.4805

>  <SCORE.INTER.norm>
0.325535

>  <SCORE.INTRA>
-8.83825

>  <SCORE.INTRA.DIHEDRAL>
-20.4776

>  <SCORE.INTRA.DIHEDRAL.0>
24.1231

>  <SCORE.INTRA.POLAR>
0

>  <SCORE.INTRA.POLAR.0>
0

>  <SCORE.INTRA.REPUL>
0

>  <SCORE.INTRA.REPUL.0>
0

>  <SCORE.INTRA.SOLV>
1.17805

>  <SCORE.INTRA.SOLV.lig_0>
-48.2216

>  <SCORE.INTRA.VDW>
0.811507

>  <SCORE.INTRA.VDW.0>
-1.3967

>  <SCORE.INTRA.norm>
-0.631304

>  <SCORE.RESTR>
0

>  <SCORE.RESTR.CAVITY>
0

>  <SCORE.RESTR.norm>
0

>  <SCORE.SYSTEM>
0

>  <SCORE.SYSTEM.CONST>
0

>  <SCORE.SYSTEM.DIHEDRAL>
0

>  <SCORE.SYSTEM.SOLV>
0

>  <SCORE.SYSTEM.norm>
0

>  <SCORE.heavy>
14

>  <SCORE.norm>
-0.305768

>  <RMSD>
13.725

$$$$
ligand
 OpenBabel11021811463D
libRbt.so/2013.1/901 2013/11/27
 14 13  0  0  0  0  0  0  0  0999 V2000
    4.6176   14.0264   -2.0662 N   0  0  0  0  0  0  0  0  0  0  0  0
    5.3030   13.4262   -0.9138 C   0  0  0  0  0  0  0  0  0  0  0  0
    6.6787   14.0656   -0.7556 C   0  0  0  0  0  0  0  0  0  0  0  0
    7.3585   13.4627    0.4628 C   0  0  0  0  0  0  0  0  0  0  0  0
    6.5806   13.8019    1.6597 N   0  0  0  0  0  0  0  0  0  0  0  0
    6.8943   12.7855    2.6790 C   0  0  0  0  0  0  0  0  0  0  0  0
    6.0239   11.5389    2.4830 C   0  0  0  0  0  0  0  0  0  0  0  0
    6.1560   10.6574    3.7340 C   0  0  0  0  0  0  0  0  0  0  0  0
    5.3702    9.4238    3.5688 C   0  0  0  0  0  0  0  0  0  0  0  0
    6.0972    8.5558    2.6202 N   0  0  0  0  0  0  0  0  0  0  0  0
    5.6621    7.0968    2.7985 C   0  0  0  0  0  0  0  0  0  0  0  0
    6.4316    6.4681    3.9665 C   0  0  0  0  0  0  0  0  0  0  0  0
    5.9748    5.0805    4.1746 C   0  0  0  0  0  0  0  0  0  0  0  0
    4.5727    5.0830    4.6444 N   0  0  0  0  0  0  0  0  0  0  0  0
  1  2  1  0  0  0  0
  2  3  1  0  0  0  0
  3  4  1  0  0  0  0
  4  5  1  0  0  0  0
  5  6  1  0  0  0  0
  6  7  1  0  0  0  0
  7  8  1  0  0  0  0
  8  9  1  0  0  0  0
  9 10  1  0  0  0  0
 10 11  1  0  0  0  0
 11 12  1  0  0  0  0
 12 13  1  0  0  0  0
 13 14  1  0  0  0  0
M  END
>  <CHROM.1>
178.41794654,-63.42698057,156.36355072,-83.97435369,-167.37447586,-178.07041266
73.96818604,158.41052352,-82.37537584,177.72068982,-66.87012031,5.98028353
10.39092416,2.07557877,1.46000339,-1.07523651,-0.60485523

>  <Name>
ligand

>  <RI>
0

>  <Rbt.Current_Directory>
/home/itssahil/PROJECTS/Mol_Feturizer/New_Systems/rnas/2O3Y

>  <Rbt.Executable>
rbdock ($Id: //depot/dev/client3/rdock/2013.1/src/exe/rbdock.cxx#4 $)

>  <Rbt.Library>
libRbt.so (2013.1, Build901 2013/11/27)

>  <Rbt.Parameter_File>
/export/apps/rDock/src/rDock_2013.1_src/data/scripts/dock_solv.prm

>  <Rbt.Receptor>
prm/blind_docking_20.prm

>  <SCORE>
-5.93814

>  <SCORE.INTER>
2.79423

>  <SCORE.INTER.CONST>
1

>  <SCORE.INTER.POLAR>
0

>  <SCORE.INTER.ROT>
11

>  <SCORE.INTER.SOLV>
9.52201

>  <SCORE.INTER.VDW>
-12.2445

>  <SCORE.INTER.norm>
0.199588

>  <SCORE.INTRA>
-8.73459

>  <SCORE.INTRA.DIHEDRAL>
-21.0416

>  <SCORE.INTRA.DIHEDRAL.0>
24.1231

>  <SCORE.INTRA.POLAR>
0

>  <SCORE.INTRA.POLAR.0>
0

>  <SCORE.INTRA.REPUL>
0

>  <SCORE.INTRA.REPUL.0>
0

>  <SCORE.INTRA.SOLV>
0.899503

>  <SCORE.INTRA.SOLV.lig_0>
-48.2216

>  <SCORE.INTRA.VDW>
1.33644

>  <SCORE.INTRA.VDW.0>
-1.3967

>  <SCORE.INTRA.norm>
-0.623899

>  <SCORE.RESTR>
0.00222626

>  <SCORE.RESTR.CAVITY>
0.00222626

>  <SCORE.RESTR.norm>
0.000159018

>  <SCORE.SYSTEM>
0

>  <SCORE.SYSTEM.CONST>
0

>  <SCORE.SYSTEM.DIHEDRAL>
0

>  <SCORE.SYSTEM.SOLV>
0

>  <SCORE.SYSTEM.norm>
0

>  <SCORE.heavy>
14

>  <SCORE.norm>
-0.424153

>  <RMSD>
13.741

$$$$
ligand
 OpenBabel11021811463D
libRbt.so/2013.1/901 2013/11/27
 14 13  0  0  0  0  0  0  0  0999 V2000
    4.6954    4.9476    5.9411 N   0  0  0  0  0  0  0  0  0  0  0  0
    5.6122    5.9221    5.3345 C   0  0  0  0  0  0  0  0  0  0  0  0
    4.8025    7.0170    4.6477 C   0  0  0  0  0  0  0  0  0  0  0  0
    5.7630    7.9781    3.9666 C   0  0  0  0  0  0  0  0  0  0  0  0
    4.9917    9.0500    3.3271 N   0  0  0  0  0  0  0  0  0  0  0  0
    5.9040    9.7427    2.4006 C   0  0  0  0  0  0  0  0  0  0  0  0
    6.2194   11.1540    2.9091 C   0  0  0  0  0  0  0  0  0  0  0  0
    7.0641   11.8717    1.8456 C   0  0  0  0  0  0  0  0  0  0  0  0
    7.2021   13.2970    2.1865 C   0  0  0  0  0  0  0  0  0  0  0  0
    7.6848   13.9992    0.9800 N   0  0  0  0  0  0  0  0  0  0  0  0
    6.4986   14.4420    0.1159 C   0  0  0  0  0  0  0  0  0  0  0  0
    6.1327   13.3252   -0.8692 C   0  0  0  0  0  0  0  0  0  0  0  0
    4.6802   13.0708   -0.8167 C   0  0  0  0  0  0  0  0  0  0  0  0
    3.9660   14.0968   -1.6064 N   0  0  0  0  0  0  0  0  0  0  0  0
  1  2  1  0  0  0  0
  2  3  1  0  0  0  0
  3  4  1  0  0  0  0
  4  5  1  0  0  0  0
  5  6  1  0  0  0  0
  6  7  1  0  0  0  0
  7  8  1  0  0  0  0
  8  9  1  0  0  0  0
  9 10  1  0  0  0  0
 10 11  1  0  0  0  0
 11 12  1  0  0  0  0
 12 13  1  0  0  0  0
 13 14  1  0  0  0  0
M  END
>  <CHROM.1>
-177.20068726,-178.83362559,-165.45851306,-110.74758601,-174.83263798,170.62539429
-164.70887728,88.23853190,-88.99706865,130.72453037,79.55306355,5.80138997
10.70824208,2.16874383,1.67729606,0.60982853,2.46561985

>  <Name>
ligand

>  <RI>
0

>  <Rbt.Current_Directory>
/home/itssahil/PROJECTS/Mol_Feturizer/New_Systems/rnas/2O3Y

>  <Rbt.Executable>
rbdock ($Id: //depot/dev/client3/rdock/2013.1/src/exe/rbdock.cxx#4 $)

>  <Rbt.Library>
libRbt.so (2013.1, Build901 2013/11/27)

>  <Rbt.Parameter_File>
/export/apps/rDock/src/rDock_2013.1_src/data/scripts/dock_solv.prm

>  <Rbt.Receptor>
prm/blind_docking_20.prm

>  <SCORE>
-2.09876

>  <SCORE.INTER>
4.31991

>  <SCORE.INTER.CONST>
1

>  <SCORE.INTER.POLAR>
0

>  <SCORE.INTER.ROT>
11

>  <SCORE.INTER.SOLV>
6.12394

>  <SCORE.INTER.VDW>
-10.0947

>  <SCORE.INTER.norm>
0.308565

>  <SCORE.INTRA>
-6.44902

>  <SCORE.INTRA.DIHEDRAL>
-13.9578

>  <SCORE.INTRA.DIHEDRAL.0>
24.1231

>  <SCORE.INTRA.POLAR>
0

>  <SCORE.INTRA.POLAR.0>
0

>  <SCORE.INTRA.REPUL>
0

>  <SCORE.INTRA.REPUL.0>
0

>  <SCORE.INTRA.SOLV>
-0.330776

>  <SCORE.INTRA.SOLV.lig_0>
-48.2216

>  <SCORE.INTRA.VDW>
0.695281

>  <SCORE.INTRA.VDW.0>
-1.3967

>  <SCORE.INTRA.norm>
-0.460644

>  <SCORE.RESTR>
0.0303452

>  <SCORE.RESTR.CAVITY>
0.0303452

>  <SCORE.RESTR.norm>
0.00216752

>  <SCORE.SYSTEM>
0

>  <SCORE.SYSTEM.CONST>
0

>  <SCORE.SYSTEM.DIHEDRAL>
0

>  <SCORE.SYSTEM.SOLV>
0

>  <SCORE.SYSTEM.norm>
0

>  <SCORE.heavy>
14

>  <SCORE.norm>
-0.149912

>  <RMSD>
13.741

$$$$
ligand
 OpenBabel11021811463D
libRbt.so/2013.1/901 2013/11/27
 14 13  0  0  0  0  0  0  0  0999 V2000
    3.9917   14.0893   -1.0524 N   0  0  0  0  0  0  0  0  0  0  0  0
    5.1918   13.2661   -1.2525 C   0  0  0  0  0  0  0  0  0  0  0  0
    6.3830   13.9377   -0.5770 C   0  0  0  0  0  0  0  0  0  0  0  0
    6.1250   13.9950    0.9198 C   0  0  0  0  0  0  0  0  0  0  0  0
    5.9125   12.6320    1.4197 N   0  0  0  0  0  0  0  0  0  0  0  0
    6.4089   12.6001    2.8065 C   0  0  0  0  0  0  0  0  0  0  0  0
    5.8002   11.4183    3.5699 C   0  0  0  0  0  0  0  0  0  0  0  0
    6.0484   10.1396    2.7557 C   0  0  0  0  0  0  0  0  0  0  0  0
    5.5431    8.9673    3.4886 C   0  0  0  0  0  0  0  0  0  0  0  0
    5.8232    7.7727    2.6661 N   0  0  0  0  0  0  0  0  0  0  0  0
    5.2923    6.5148    3.3630 C   0  0  0  0  0  0  0  0  0  0  0  0
    6.4023    5.8916    4.2182 C   0  0  0  0  0  0  0  0  0  0  0  0
    5.9166    4.6392    4.8290 C   0  0  0  0  0  0  0  0  0  0  0  0
    4.8170    4.9385    5.7713 N   0  0  0  0  0  0  0  0  0  0  0  0
  1  2  1  0  0  0  0
  2  3  1  0  0  0  0
  3  4  1  0  0  0  0
  4  5  1  0  0  0  0
  5  6  1  0  0  0  0
  6  7  1  0  0  0  0
  7  8  1  0  0  0  0
  8  9  1  0  0  0  0
  9 10  1  0  0  0  0
 10 11  1  0  0  0  0
 11 12  1  0  0  0  0
 12 13  1  0  0  0  0
 13 14  1  0  0  0  0
M  END
>  <CHROM.1>
63.42412605,57.95575742,148.84787370,159.86822697,52.85553654,176.94175738
-179.36251013,-178.79920132,-92.55401711,-176.82005447,-64.69613651,5.68993250
10.05737458,2.35190868,1.59335983,-1.18379657,-0.49659074

>  <Name>
ligand

>  <RI>
0

>  <Rbt.Current_Directory>
/home/itssahil/PROJECTS/Mol_Feturizer/New_Systems/rnas/2O3Y

>  <Rbt.Executable>
rbdock ($Id: //depot/dev/client3/rdock/2013.1/src/exe/rbdock.cxx#4 $)

>  <Rbt.Library>
libRbt.so (2013.1, Build901 2013/11/27)

>  <Rbt.Parameter_File>
/export/apps/rDock/src/rDock_2013.1_src/data/scripts/dock_solv.prm

>  <Rbt.Receptor>
prm/blind_docking_20.prm

>  <SCORE>
-4.83075

>  <SCORE.INTER>
3.59113

>  <SCORE.INTER.CONST>
1

>  <SCORE.INTER.POLAR>
0

>  <SCORE.INTER.ROT>
11

>  <SCORE.INTER.SOLV>
6.23489

>  <SCORE.INTER.VDW>
-10.6175

>  <SCORE.INTER.norm>
0.256509

>  <SCORE.INTRA>
-8.42188

>  <SCORE.INTRA.DIHEDRAL>
-22.0894

>  <SCORE.INTRA.DIHEDRAL.0>
24.1231

>  <SCORE.INTRA.POLAR>
0

>  <SCORE.INTRA.POLAR.0>
0

>  <SCORE.INTRA.REPUL>
0

>  <SCORE.INTRA.REPUL.0>
0

>  <SCORE.INTRA.SOLV>
2.35374

>  <SCORE.INTRA.SOLV.lig_0>
-48.2216

>  <SCORE.INTRA.VDW>
1.44594

>  <SCORE.INTRA.VDW.0>
-1.3967

>  <SCORE.INTRA.norm>
-0.601563

>  <SCORE.RESTR>
0

>  <SCORE.RESTR.CAVITY>
0

>  <SCORE.RESTR.norm>
0

>  <SCORE.SYSTEM>
0

>  <SCORE.SYSTEM.CONST>
0

>  <SCORE.SYSTEM.DIHEDRAL>
0

>  <SCORE.SYSTEM.SOLV>
0

>  <SCORE.SYSTEM.norm>
0

>  <SCORE.heavy>
14

>  <SCORE.norm>
-0.345054

>  <RMSD>
13.781

$$$$
ligand
 OpenBabel11021811463D
libRbt.so/2013.1/901 2013/11/27
 14 13  0  0  0  0  0  0  0  0999 V2000
    4.0083   14.1044   -1.7230 N   0  0  0  0  0  0  0  0  0  0  0  0
    4.8011   13.1565   -0.9285 C   0  0  0  0  0  0  0  0  0  0  0  0
    5.9697   13.8934   -0.2823 C   0  0  0  0  0  0  0  0  0  0  0  0
    6.7753   12.9015    0.5407 C   0  0  0  0  0  0  0  0  0  0  0  0
    5.9510   12.4289    1.6587 N   0  0  0  0  0  0  0  0  0  0  0  0
    6.5295   11.1511    2.1097 C   0  0  0  0  0  0  0  0  0  0  0  0
    5.5259   10.0081    1.9196 C   0  0  0  0  0  0  0  0  0  0  0  0
    6.2236    8.6889    2.2833 C   0  0  0  0  0  0  0  0  0  0  0  0
    5.3233    7.5530    2.0268 C   0  0  0  0  0  0  0  0  0  0  0  0
    4.2973    7.5485    3.0894 N   0  0  0  0  0  0  0  0  0  0  0  0
    4.6607    6.5245    4.1707 C   0  0  0  0  0  0  0  0  0  0  0  0
    4.8621    7.2402    5.5119 C   0  0  0  0  0  0  0  0  0  0  0  0
    5.2686    6.2641    6.5412 C   0  0  0  0  0  0  0  0  0  0  0  0
    4.1806    5.2864    6.7576 N   0  0  0  0  0  0  0  0  0  0  0  0
  1  2  1  0  0  0  0
  2  3  1  0  0  0  0
  3  4  1  0  0  0  0
  4  5  1  0  0  0  0
  5  6  1  0  0  0  0
  6  7  1  0  0  0  0
  7  8  1  0  0  0  0
  8  9  1  0  0  0  0
  9 10  1  0  0  0  0
 10 11  1  0  0  0  0
 11 12  1  0  0  0  0
 12 13  1  0  0  0  0
 13 14  1  0  0  0  0
M  END
>  <CHROM.1>
179.72298371,-65.79354426,159.08825613,-117.31161317,174.89596357,-176.13974133
-74.03235974,-99.22590207,118.41031558,-177.57908952,-63.82607565,5.31292748
9.76779712,2.40539932,1.46700717,-0.78976241,-0.76299079

>  <Name>
ligand

>  <RI>
0

>  <Rbt.Current_Directory>
/home/itssahil/PROJECTS/Mol_Feturizer/New_Systems/rnas/2O3Y

>  <Rbt.Executable>
rbdock ($Id: //depot/dev/client3/rdock/2013.1/src/exe/rbdock.cxx#4 $)

>  <Rbt.Library>
libRbt.so (2013.1, Build901 2013/11/27)

>  <Rbt.Parameter_File>
/export/apps/rDock/src/rDock_2013.1_src/data/scripts/dock_solv.prm

>  <Rbt.Receptor>
prm/blind_docking_20.prm

>  <SCORE>
-4.68522

>  <SCORE.INTER>
4.03118

>  <SCORE.INTER.CONST>
1

>  <SCORE.INTER.POLAR>
0

>  <SCORE.INTER.ROT>
11

>  <SCORE.INTER.SOLV>
6.21345

>  <SCORE.INTER.VDW>
-10.317

>  <SCORE.INTER.norm>
0.287942

>  <SCORE.INTRA>
-8.72085

>  <SCORE.INTRA.DIHEDRAL>
-19.4513

>  <SCORE.INTRA.DIHEDRAL.0>
24.1231

>  <SCORE.INTRA.POLAR>
0

>  <SCORE.INTRA.POLAR.0>
0

>  <SCORE.INTRA.REPUL>
0

>  <SCORE.INTRA.REPUL.0>
0

>  <SCORE.INTRA.SOLV>
0.729258

>  <SCORE.INTRA.SOLV.lig_0>
-48.2216

>  <SCORE.INTRA.VDW>
0.640175

>  <SCORE.INTRA.VDW.0>
-1.3967

>  <SCORE.INTRA.norm>
-0.622918

>  <SCORE.RESTR>
0.00444795

>  <SCORE.RESTR.CAVITY>
0.00444795

>  <SCORE.RESTR.norm>
0.00031771

>  <SCORE.SYSTEM>
0

>  <SCORE.SYSTEM.CONST>
0

>  <SCORE.SYSTEM.DIHEDRAL>
0

>  <SCORE.SYSTEM.SOLV>
0

>  <SCORE.SYSTEM.norm>
0

>  <SCORE.heavy>
14

>  <SCORE.norm>
-0.334659

>  <RMSD>
13.783

$$$$
ligand
 OpenBabel11021811463D
libRbt.so/2013.1/901 2013/11/27
 14 13  0  0  0  0  0  0  0  0999 V2000
    3.4787   12.9987   -1.5374 N   0  0  0  0  0  0  0  0  0  0  0  0
    4.3067   13.8375   -0.6606 C   0  0  0  0  0  0  0  0  0  0  0  0
    5.7793   13.5284   -0.9099 C   0  0  0  0  0  0  0  0  0  0  0  0
    6.6215   14.3955    0.0114 C   0  0  0  0  0  0  0  0  0  0  0  0
    6.3767   13.9927    1.4010 N   0  0  0  0  0  0  0  0  0  0  0  0
    7.5282   13.1753    1.8211 C   0  0  0  0  0  0  0  0  0  0  0  0
    7.3222   11.7092    1.4236 C   0  0  0  0  0  0  0  0  0  0  0  0
    6.0067   11.2209    2.0486 C   0  0  0  0  0  0  0  0  0  0  0  0
    6.1924   10.9704    3.4871 C   0  0  0  0  0  0  0  0  0  0  0  0
    4.9310   10.4048    4.0076 N   0  0  0  0  0  0  0  0  0  0  0  0
    4.8674    8.9006    3.7190 C   0  0  0  0  0  0  0  0  0  0  0  0
    5.0692    8.1166    5.0214 C   0  0  0  0  0  0  0  0  0  0  0  0
    4.9320    6.6710    4.7589 C   0  0  0  0  0  0  0  0  0  0  0  0
    6.0679    6.2044    3.9352 N   0  0  0  0  0  0  0  0  0  0  0  0
  1  2  1  0  0  0  0
  2  3  1  0  0  0  0
  3  4  1  0  0  0  0
  4  5  1  0  0  0  0
  5  6  1  0  0  0  0
  6  7  1  0  0  0  0
  7  8  1  0  0  0  0
  8  9  1  0  0  0  0
  9 10  1  0  0  0  0
 10 11  1  0  0  0  0
 11 12  1  0  0  0  0
 12 13  1  0  0  0  0
 13 14  1  0  0  0  0
M  END
>  <CHROM.1>
-179.56387866,66.00446108,102.41862102,-85.94589663,-56.76180319,-76.01870039
-175.61032428,81.88277847,107.55892227,176.80206251,68.53598832,5.67731551
11.15195185,2.03768074,1.52654569,-0.60933173,-0.67518874

>  <Name>
ligand

>  <RI>
0

>  <Rbt.Current_Directory>
/home/itssahil/PROJECTS/Mol_Feturizer/New_Systems/rnas/2O3Y

>  <Rbt.Executable>
rbdock ($Id: //depot/dev/client3/rdock/2013.1/src/exe/rbdock.cxx#4 $)

>  <Rbt.Library>
libRbt.so (2013.1, Build901 2013/11/27)

>  <Rbt.Parameter_File>
/export/apps/rDock/src/rDock_2013.1_src/data/scripts/dock_solv.prm

>  <Rbt.Receptor>
prm/blind_docking_20.prm

>  <SCORE>
-1.29073

>  <SCORE.INTER>
5.5652

>  <SCORE.INTER.CONST>
1

>  <SCORE.INTER.POLAR>
0

>  <SCORE.INTER.ROT>
11

>  <SCORE.INTER.SOLV>
9.23828

>  <SCORE.INTER.VDW>
-10.3026

>  <SCORE.INTER.norm>
0.397514

>  <SCORE.INTRA>
-6.85888

>  <SCORE.INTRA.DIHEDRAL>
-19.684

>  <SCORE.INTRA.DIHEDRAL.0>
24.1231

>  <SCORE.INTRA.POLAR>
0

>  <SCORE.INTRA.POLAR.0>
0

>  <SCORE.INTRA.REPUL>
0

>  <SCORE.INTRA.REPUL.0>
0

>  <SCORE.INTRA.SOLV>
1.01107

>  <SCORE.INTRA.SOLV.lig_0>
-48.2216

>  <SCORE.INTRA.VDW>
2.47759

>  <SCORE.INTRA.VDW.0>
-1.3967

>  <SCORE.INTRA.norm>
-0.48992

>  <SCORE.RESTR>
0.00294569

>  <SCORE.RESTR.CAVITY>
0.00294569

>  <SCORE.RESTR.norm>
0.000210407

>  <SCORE.SYSTEM>
0

>  <SCORE.SYSTEM.CONST>
0

>  <SCORE.SYSTEM.DIHEDRAL>
0

>  <SCORE.SYSTEM.SOLV>
0

>  <SCORE.SYSTEM.norm>
0

>  <SCORE.heavy>
14

>  <SCORE.norm>
-0.092195

>  <RMSD>
13.801

$$$$
ligand
 OpenBabel11021811463D
libRbt.so/2013.1/901 2013/11/27
 14 13  0  0  0  0  0  0  0  0999 V2000
    3.4576   13.0471   -1.4931 N   0  0  0  0  0  0  0  0  0  0  0  0
    4.8736   13.4318   -1.5639 C   0  0  0  0  0  0  0  0  0  0  0  0
    5.3871   13.7281   -0.1586 C   0  0  0  0  0  0  0  0  0  0  0  0
    6.9050   13.7945   -0.1989 C   0  0  0  0  0  0  0  0  0  0  0  0
    7.4246   13.6584    1.1665 N   0  0  0  0  0  0  0  0  0  0  0  0
    7.4111   12.2212    1.4907 C   0  0  0  0  0  0  0  0  0  0  0  0
    6.3327   11.9146    2.5362 C   0  0  0  0  0  0  0  0  0  0  0  0
    6.0875   10.3982    2.5448 C   0  0  0  0  0  0  0  0  0  0  0  0
    5.2109   10.0340    3.6698 C   0  0  0  0  0  0  0  0  0  0  0  0
    5.1015    8.5611    3.6910 N   0  0  0  0  0  0  0  0  0  0  0  0
    4.6245    8.0861    5.0682 C   0  0  0  0  0  0  0  0  0  0  0  0
    4.4785    6.5596    5.0653 C   0  0  0  0  0  0  0  0  0  0  0  0
    5.8034    5.9329    4.8940 C   0  0  0  0  0  0  0  0  0  0  0  0
    5.6635    4.4609    4.9085 N   0  0  0  0  0  0  0  0  0  0  0  0
  1  2  1  0  0  0  0
  2  3  1  0  0  0  0
  3  4  1  0  0  0  0
  4  5  1  0  0  0  0
  5  6  1  0  0  0  0
  6  7  1  0  0  0  0
  7  8  1  0  0  0  0
  8  9  1  0  0  0  0
  9 10  1  0  0  0  0
 10 11  1  0  0  0  0
 11 12  1  0  0  0  0
 12 13  1  0  0  0  0
 13 14  1  0  0  0  0
M  END
>  <CHROM.1>
166.52728325,-162.52017182,80.29665381,-109.66830229,164.20638602,171.48197774
-175.49216640,160.69142677,178.47021115,65.64488757,179.28937108,5.62591127
10.41651969,2.25869247,1.50050311,-0.56078492,-0.66672925

>  <Name>
ligand

>  <RI>
0

>  <Rbt.Current_Directory>
/home/itssahil/PROJECTS/Mol_Feturizer/New_Systems/rnas/2O3Y

>  <Rbt.Executable>
rbdock ($Id: //depot/dev/client3/rdock/2013.1/src/exe/rbdock.cxx#4 $)

>  <Rbt.Library>
libRbt.so (2013.1, Build901 2013/11/27)

>  <Rbt.Parameter_File>
/export/apps/rDock/src/rDock_2013.1_src/data/scripts/dock_solv.prm

>  <Rbt.Receptor>
prm/blind_docking_20.prm

>  <SCORE>
-4.23409

>  <SCORE.INTER>
4.71988

>  <SCORE.INTER.CONST>
1

>  <SCORE.INTER.POLAR>
0

>  <SCORE.INTER.ROT>
11

>  <SCORE.INTER.SOLV>
7.57027

>  <SCORE.INTER.VDW>
-10.3102

>  <SCORE.INTER.norm>
0.337134

>  <SCORE.INTRA>
-8.95397

>  <SCORE.INTRA.DIHEDRAL>
-19.2925

>  <SCORE.INTRA.DIHEDRAL.0>
24.1231

>  <SCORE.INTRA.POLAR>
0

>  <SCORE.INTRA.POLAR.0>
0

>  <SCORE.INTRA.REPUL>
0

>  <SCORE.INTRA.REPUL.0>
0

>  <SCORE.INTRA.SOLV>
-0.56653

>  <SCORE.INTRA.SOLV.lig_0>
-48.2216

>  <SCORE.INTRA.VDW>
0.975565

>  <SCORE.INTRA.VDW.0>
-1.3967

>  <SCORE.INTRA.norm>
-0.639569

>  <SCORE.RESTR>
0

>  <SCORE.RESTR.CAVITY>
0

>  <SCORE.RESTR.norm>
0

>  <SCORE.SYSTEM>
0

>  <SCORE.SYSTEM.CONST>
0

>  <SCORE.SYSTEM.DIHEDRAL>
0

>  <SCORE.SYSTEM.SOLV>
0

>  <SCORE.SYSTEM.norm>
0

>  <SCORE.heavy>
14

>  <SCORE.norm>
-0.302435

>  <RMSD>
13.804

$$$$
ligand
 OpenBabel11021811463D
libRbt.so/2013.1/901 2013/11/27
 14 13  0  0  0  0  0  0  0  0999 V2000
   12.9954   -2.1205   12.2878 N   0  0  0  0  0  0  0  0  0  0  0  0
   12.7628   -0.6989   11.9994 C   0  0  0  0  0  0  0  0  0  0  0  0
   11.6949   -0.5714   10.9179 C   0  0  0  0  0  0  0  0  0  0  0  0
   12.2940   -1.0020    9.5891 C   0  0  0  0  0  0  0  0  0  0  0  0
   12.5062   -2.4537    9.6096 N   0  0  0  0  0  0  0  0  0  0  0  0
   13.6331   -2.7366    8.7036 C   0  0  0  0  0  0  0  0  0  0  0  0
   14.8850   -3.1164    9.5026 C   0  0  0  0  0  0  0  0  0  0  0  0
   15.3482   -1.8805   10.2885 C   0  0  0  0  0  0  0  0  0  0  0  0
   16.6728   -2.1256   10.8819 C   0  0  0  0  0  0  0  0  0  0  0  0
   16.9953   -0.9710   11.7447 N   0  0  0  0  0  0  0  0  0  0  0  0
   18.0702   -1.3585   12.7666 C   0  0  0  0  0  0  0  0  0  0  0  0
   17.4535   -2.2506   13.8507 C   0  0  0  0  0  0  0  0  0  0  0  0
   18.4887   -2.6311   14.8310 C   0  0  0  0  0  0  0  0  0  0  0  0
   19.0320   -1.4175   15.4779 N   0  0  0  0  0  0  0  0  0  0  0  0
  1  2  1  0  0  0  0
  2  3  1  0  0  0  0
  3  4  1  0  0  0  0
  4  5  1  0  0  0  0
  5  6  1  0  0  0  0
  6  7  1  0  0  0  0
  7  8  1  0  0  0  0
  8  9  1  0  0  0  0
  9 10  1  0  0  0  0
 10 11  1  0  0  0  0
 11 12  1  0  0  0  0
 12 13  1  0  0  0  0
 13 14  1  0  0  0  0
M  END
>  <CHROM.1>
-72.36466234,70.57293003,-151.99673240,107.40726745,-66.89983029,-170.11377243
-173.71930245,159.41329774,-73.86737559,179.67224259,61.00491818,15.20220929
-1.80961906,11.60338772,2.54641080,0.24797936,-1.88858834

>  <Name>
ligand

>  <RI>
0

>  <Rbt.Current_Directory>
/home/itssahil/PROJECTS/Mol_Feturizer/New_Systems/rnas/2O3Y

>  <Rbt.Executable>
rbdock ($Id: //depot/dev/client3/rdock/2013.1/src/exe/rbdock.cxx#4 $)

>  <Rbt.Library>
libRbt.so (2013.1, Build901 2013/11/27)

>  <Rbt.Parameter_File>
/export/apps/rDock/src/rDock_2013.1_src/data/scripts/dock_solv.prm

>  <Rbt.Receptor>
prm/blind_docking_80.prm

>  <SCORE>
-1.85589

>  <SCORE.INTER>
4.11201

>  <SCORE.INTER.CONST>
1

>  <SCORE.INTER.POLAR>
0

>  <SCORE.INTER.ROT>
11

>  <SCORE.INTER.SOLV>
14.294

>  <SCORE.INTER.VDW>
-12.9567

>  <SCORE.INTER.norm>
0.293715

>  <SCORE.INTRA>
-6.0587

>  <SCORE.INTRA.DIHEDRAL>
-20.3421

>  <SCORE.INTRA.DIHEDRAL.0>
24.1231

>  <SCORE.INTRA.POLAR>
0

>  <SCORE.INTRA.POLAR.0>
0

>  <SCORE.INTRA.REPUL>
0

>  <SCORE.INTRA.REPUL.0>
0

>  <SCORE.INTRA.SOLV>
6.22916

>  <SCORE.INTRA.SOLV.lig_0>
-48.2216

>  <SCORE.INTRA.VDW>
0.997787

>  <SCORE.INTRA.VDW.0>
-1.3967

>  <SCORE.INTRA.norm>
-0.432764

>  <SCORE.RESTR>
0.0908

>  <SCORE.RESTR.CAVITY>
0.0908

>  <SCORE.RESTR.norm>
0.00648571

>  <SCORE.SYSTEM>
0

>  <SCORE.SYSTEM.CONST>
0

>  <SCORE.SYSTEM.DIHEDRAL>
0

>  <SCORE.SYSTEM.SOLV>
0

>  <SCORE.SYSTEM.norm>
0

>  <SCORE.heavy>
14

>  <SCORE.norm>
-0.132564

>  <RMSD>
13.822

$$$$
ligand
 OpenBabel11021811463D
libRbt.so/2013.1/901 2013/11/27
 14 13  0  0  0  0  0  0  0  0999 V2000
   17.8489   -2.3285   14.7035 N   0  0  0  0  0  0  0  0  0  0  0  0
   19.1123   -2.5991   14.0045 C   0  0  0  0  0  0  0  0  0  0  0  0
   19.4271   -1.4403   13.0641 C   0  0  0  0  0  0  0  0  0  0  0  0
   18.5573   -1.5695   11.8243 C   0  0  0  0  0  0  0  0  0  0  0  0
   17.1689   -1.2569   12.1811 N   0  0  0  0  0  0  0  0  0  0  0  0
   16.4146   -2.5212   12.1226 C   0  0  0  0  0  0  0  0  0  0  0  0
   14.9709   -2.3099   12.5929 C   0  0  0  0  0  0  0  0  0  0  0  0
   14.2651   -1.3915   11.5840 C   0  0  0  0  0  0  0  0  0  0  0  0
   12.9001   -1.0888   12.0442 C   0  0  0  0  0  0  0  0  0  0  0  0
   12.2575   -0.2497   11.0123 N   0  0  0  0  0  0  0  0  0  0  0  0
   11.3948   -1.1165   10.0881 C   0  0  0  0  0  0  0  0  0  0  0  0
   11.8621   -0.9470    8.6374 C   0  0  0  0  0  0  0  0  0  0  0  0
   13.1720   -1.6017    8.4563 C   0  0  0  0  0  0  0  0  0  0  0  0
   13.0047   -3.0703    8.4987 N   0  0  0  0  0  0  0  0  0  0  0  0
  1  2  1  0  0  0  0
  2  3  1  0  0  0  0
  3  4  1  0  0  0  0
  4  5  1  0  0  0  0
  5  6  1  0  0  0  0
  6  7  1  0  0  0  0
  7  8  1  0  0  0  0
  8  9  1  0  0  0  0
  9 10  1  0  0  0  0
 10 11  1  0  0  0  0
 11 12  1  0  0  0  0
 12 13  1  0  0  0  0
 13 14  1  0  0  0  0
M  END
>  <CHROM.1>
-77.44530234,71.28390903,-109.59746548,175.40892799,65.96665408,-176.24620612
-177.83545884,97.25722247,-122.51316289,71.02263465,71.24074960,15.16834709
-1.67790565,11.48668256,0.52188736,-0.20297711,1.40389480

>  <Name>
ligand

>  <RI>
0

>  <Rbt.Current_Directory>
/home/itssahil/PROJECTS/Mol_Feturizer/New_Systems/rnas/2O3Y

>  <Rbt.Executable>
rbdock ($Id: //depot/dev/client3/rdock/2013.1/src/exe/rbdock.cxx#4 $)

>  <Rbt.Library>
libRbt.so (2013.1, Build901 2013/11/27)

>  <Rbt.Parameter_File>
/export/apps/rDock/src/rDock_2013.1_src/data/scripts/dock_solv.prm

>  <Rbt.Receptor>
prm/blind_docking_80.prm

>  <SCORE>
-0.870542

>  <SCORE.INTER>
4.24654

>  <SCORE.INTER.CONST>
1

>  <SCORE.INTER.POLAR>
0

>  <SCORE.INTER.ROT>
11

>  <SCORE.INTER.SOLV>
13.1344

>  <SCORE.INTER.VDW>
-12.4804

>  <SCORE.INTER.norm>
0.303324

>  <SCORE.INTRA>
-5.13465

>  <SCORE.INTRA.DIHEDRAL>
-18.3122

>  <SCORE.INTRA.DIHEDRAL.0>
24.1231

>  <SCORE.INTRA.POLAR>
0

>  <SCORE.INTRA.POLAR.0>
0

>  <SCORE.INTRA.REPUL>
0

>  <SCORE.INTRA.REPUL.0>
0

>  <SCORE.INTRA.SOLV>
6.69247

>  <SCORE.INTRA.SOLV.lig_0>
-48.2216

>  <SCORE.INTRA.VDW>
0.675222

>  <SCORE.INTRA.VDW.0>
-1.3967

>  <SCORE.INTRA.norm>
-0.366761

>  <SCORE.RESTR>
0.0175761

>  <SCORE.RESTR.CAVITY>
0.0175761

>  <SCORE.RESTR.norm>
0.00125544

>  <SCORE.SYSTEM>
0

>  <SCORE.SYSTEM.CONST>
0

>  <SCORE.SYSTEM.DIHEDRAL>
0

>  <SCORE.SYSTEM.SOLV>
0

>  <SCORE.SYSTEM.norm>
0

>  <SCORE.heavy>
14

>  <SCORE.norm>
-0.0621816

>  <RMSD>
13.865

$$$$
ligand
 OpenBabel11021811463D
libRbt.so/2013.1/901 2013/11/27
 14 13  0  0  0  0  0  0  0  0999 V2000
    4.0203   12.5400   -2.3438 N   0  0  0  0  0  0  0  0  0  0  0  0
    3.9199   12.7225   -0.8896 C   0  0  0  0  0  0  0  0  0  0  0  0
    4.6295   14.0130   -0.4927 C   0  0  0  0  0  0  0  0  0  0  0  0
    6.1305   13.7868   -0.5701 C   0  0  0  0  0  0  0  0  0  0  0  0
    6.4983   12.7071    0.3529 N   0  0  0  0  0  0  0  0  0  0  0  0
    6.5112   13.2852    1.7080 C   0  0  0  0  0  0  0  0  0  0  0  0
    6.8177   12.2053    2.7519 C   0  0  0  0  0  0  0  0  0  0  0  0
    5.7783   11.0839    2.6044 C   0  0  0  0  0  0  0  0  0  0  0  0
    6.0171   10.0372    3.6115 C   0  0  0  0  0  0  0  0  0  0  0  0
    5.0936    8.9213    3.3222 N   0  0  0  0  0  0  0  0  0  0  0  0
    5.5250    7.6658    4.0887 C   0  0  0  0  0  0  0  0  0  0  0  0
    4.7702    7.5905    5.4215 C   0  0  0  0  0  0  0  0  0  0  0  0
    5.2322    6.4186    6.1900 C   0  0  0  0  0  0  0  0  0  0  0  0
    4.7939    5.1772    5.5166 N   0  0  0  0  0  0  0  0  0  0  0  0
  1  2  1  0  0  0  0
  2  3  1  0  0  0  0
  3  4  1  0  0  0  0
  4  5  1  0  0  0  0
  5  6  1  0  0  0  0
  6  7  1  0  0  0  0
  7  8  1  0  0  0  0
  8  9  1  0  0  0  0
  9 10  1  0  0  0  0
 10 11  1  0  0  0  0
 11 12  1  0  0  0  0
 12 13  1  0  0  0  0
 13 14  1  0  0  0  0
M  END
>  <CHROM.1>
-74.27034200,-60.11435856,-77.77725096,177.10344879,-56.47144658,-178.69504005
-173.55952563,165.41784139,93.80260737,-177.24648600,-68.67485874,5.40996822
10.58276153,2.23389765,1.55560114,-0.81668290,-0.74375123

>  <Name>
ligand

>  <RI>
0

>  <Rbt.Current_Directory>
/home/itssahil/PROJECTS/Mol_Feturizer/New_Systems/rnas/2O3Y

>  <Rbt.Executable>
rbdock ($Id: //depot/dev/client3/rdock/2013.1/src/exe/rbdock.cxx#4 $)

>  <Rbt.Library>
libRbt.so (2013.1, Build901 2013/11/27)

>  <Rbt.Parameter_File>
/export/apps/rDock/src/rDock_2013.1_src/data/scripts/dock_solv.prm

>  <Rbt.Receptor>
prm/blind_docking_20.prm

>  <SCORE>
-2.09366

>  <SCORE.INTER>
5.79611

>  <SCORE.INTER.CONST>
1

>  <SCORE.INTER.POLAR>
0

>  <SCORE.INTER.ROT>
11

>  <SCORE.INTER.SOLV>
8.63663

>  <SCORE.INTER.VDW>
-9.94814

>  <SCORE.INTER.norm>
0.414008

>  <SCORE.INTRA>
-7.88977

>  <SCORE.INTRA.DIHEDRAL>
-21.7359

>  <SCORE.INTRA.DIHEDRAL.0>
24.1231

>  <SCORE.INTRA.POLAR>
0

>  <SCORE.INTRA.POLAR.0>
0

>  <SCORE.INTRA.REPUL>
0

>  <SCORE.INTRA.REPUL.0>
0

>  <SCORE.INTRA.SOLV>
1.95091

>  <SCORE.INTRA.SOLV.lig_0>
-48.2216

>  <SCORE.INTRA.VDW>
2.00275

>  <SCORE.INTRA.VDW.0>
-1.3967

>  <SCORE.INTRA.norm>
-0.563555

>  <SCORE.RESTR>
0

>  <SCORE.RESTR.CAVITY>
0

>  <SCORE.RESTR.norm>
0

>  <SCORE.SYSTEM>
0

>  <SCORE.SYSTEM.CONST>
0

>  <SCORE.SYSTEM.DIHEDRAL>
0

>  <SCORE.SYSTEM.SOLV>
0

>  <SCORE.SYSTEM.norm>
0

>  <SCORE.heavy>
14

>  <SCORE.norm>
-0.149547

>  <RMSD>
13.902

$$$$
ligand
 OpenBabel11021811463D
libRbt.so/2013.1/901 2013/11/27
 14 13  0  0  0  0  0  0  0  0999 V2000
    4.0671   12.6908   -0.3993 N   0  0  0  0  0  0  0  0  0  0  0  0
    4.5922   13.9361   -0.9750 C   0  0  0  0  0  0  0  0  0  0  0  0
    6.1137   13.8571   -1.0461 C   0  0  0  0  0  0  0  0  0  0  0  0
    6.6809   14.1366    0.3360 C   0  0  0  0  0  0  0  0  0  0  0  0
    6.4482   12.9680    1.1923 N   0  0  0  0  0  0  0  0  0  0  0  0
    6.4393   13.4498    2.5845 C   0  0  0  0  0  0  0  0  0  0  0  0
    6.7552   12.3045    3.5533 C   0  0  0  0  0  0  0  0  0  0  0  0
    5.6209   11.2724    3.4653 C   0  0  0  0  0  0  0  0  0  0  0  0
    5.8657   10.3458    2.3481 C   0  0  0  0  0  0  0  0  0  0  0  0
    5.2357    9.0551    2.6932 N   0  0  0  0  0  0  0  0  0  0  0  0
    6.1351    8.2677    3.6529 C   0  0  0  0  0  0  0  0  0  0  0  0
    5.9611    6.7642    3.4063 C   0  0  0  0  0  0  0  0  0  0  0  0
    4.6097    6.3441    3.8242 C   0  0  0  0  0  0  0  0  0  0  0  0
    4.4540    4.8885    3.6156 N   0  0  0  0  0  0  0  0  0  0  0  0
  1  2  1  0  0  0  0
  2  3  1  0  0  0  0
  3  4  1  0  0  0  0
  4  5  1  0  0  0  0
  5  6  1  0  0  0  0
  6  7  1  0  0  0  0
  7  8  1  0  0  0  0
  8  9  1  0  0  0  0
  9 10  1  0  0  0  0
 10 11  1  0  0  0  0
 11 12  1  0  0  0  0
 12 13  1  0  0  0  0
 13 14  1  0  0  0  0
M  END
>  <CHROM.1>
-78.83766838,73.91505731,-155.39087193,-157.71707823,-64.71115681,84.66978318
151.24615541,-79.81009152,-148.23240987,-68.33316475,-178.67959865,5.64158249
10.73467338,2.01803625,1.43007600,-0.98330408,-0.56734843

>  <Name>
ligand

>  <RI>
0

>  <Rbt.Current_Directory>
/home/itssahil/PROJECTS/Mol_Feturizer/New_Systems/rnas/2O3Y

>  <Rbt.Executable>
rbdock ($Id: //depot/dev/client3/rdock/2013.1/src/exe/rbdock.cxx#4 $)

>  <Rbt.Library>
libRbt.so (2013.1, Build901 2013/11/27)

>  <Rbt.Parameter_File>
/export/apps/rDock/src/rDock_2013.1_src/data/scripts/dock_solv.prm

>  <Rbt.Receptor>
prm/blind_docking_20.prm

>  <SCORE>
-0.188458

>  <SCORE.INTER>
4.16064

>  <SCORE.INTER.CONST>
1

>  <SCORE.INTER.POLAR>
0

>  <SCORE.INTER.ROT>
11

>  <SCORE.INTER.SOLV>
6.07641

>  <SCORE.INTER.VDW>
-10.185

>  <SCORE.INTER.norm>
0.297188

>  <SCORE.INTRA>
-4.39658

>  <SCORE.INTRA.DIHEDRAL>
-15.2921

>  <SCORE.INTRA.DIHEDRAL.0>
24.1231

>  <SCORE.INTRA.POLAR>
0

>  <SCORE.INTRA.POLAR.0>
0

>  <SCORE.INTRA.REPUL>
0

>  <SCORE.INTRA.REPUL.0>
0

>  <SCORE.INTRA.SOLV>
3.98069

>  <SCORE.INTRA.SOLV.lig_0>
-48.2216

>  <SCORE.INTRA.VDW>
1.25914

>  <SCORE.INTRA.VDW.0>
-1.3967

>  <SCORE.INTRA.norm>
-0.314042

>  <SCORE.RESTR>
0.0474887

>  <SCORE.RESTR.CAVITY>
0.0474887

>  <SCORE.RESTR.norm>
0.00339205

>  <SCORE.SYSTEM>
0

>  <SCORE.SYSTEM.CONST>
0

>  <SCORE.SYSTEM.DIHEDRAL>
0

>  <SCORE.SYSTEM.SOLV>
0

>  <SCORE.SYSTEM.norm>
0

>  <SCORE.heavy>
14

>  <SCORE.norm>
-0.0134613

>  <RMSD>
13.928

$$$$
ligand
 OpenBabel11021811463D
libRbt.so/2013.1/901 2013/11/27
 14 13  0  0  0  0  0  0  0  0999 V2000
    5.1782    5.8645    5.1291 N   0  0  0  0  0  0  0  0  0  0  0  0
    5.2990    7.0827    4.3170 C   0  0  0  0  0  0  0  0  0  0  0  0
    5.2992    6.7061    2.8390 C   0  0  0  0  0  0  0  0  0  0  0  0
    5.1648    7.9750    2.0133 C   0  0  0  0  0  0  0  0  0  0  0  0
    6.3190    8.8411    2.2785 N   0  0  0  0  0  0  0  0  0  0  0  0
    5.8367   10.2318    2.2155 C   0  0  0  0  0  0  0  0  0  0  0  0
    6.1913   10.9842    3.5032 C   0  0  0  0  0  0  0  0  0  0  0  0
    5.8344   12.4656    3.3094 C   0  0  0  0  0  0  0  0  0  0  0  0
    6.9066   13.1517    2.5702 C   0  0  0  0  0  0  0  0  0  0  0  0
    6.7195   12.8547    1.1355 N   0  0  0  0  0  0  0  0  0  0  0  0
    6.9984   14.1064    0.2957 C   0  0  0  0  0  0  0  0  0  0  0  0
    6.1882   14.0461   -1.0048 C   0  0  0  0  0  0  0  0  0  0  0  0
    4.7458   14.0432   -0.6934 C   0  0  0  0  0  0  0  0  0  0  0  0
    3.9657   13.9746   -1.9477 N   0  0  0  0  0  0  0  0  0  0  0  0
  1  2  1  0  0  0  0
  2  3  1  0  0  0  0
  3  4  1  0  0  0  0
  4  5  1  0  0  0  0
  5  6  1  0  0  0  0
  6  7  1  0  0  0  0
  7  8  1  0  0  0  0
  8  9  1  0  0  0  0
  9 10  1  0  0  0  0
 10 11  1  0  0  0  0
 11 12  1  0  0  0  0
 12 13  1  0  0  0  0
 13 14  1  0  0  0  0
M  END
>  <CHROM.1>
169.64523420,61.68756843,-145.49358343,125.56960351,172.60801590,-81.45985967
80.63504645,139.86567981,-152.29810353,62.54895421,-179.57153002,5.76056513
10.88075564,1.85440022,1.63794414,1.02726015,2.54332043

>  <Name>
ligand

>  <RI>
0

>  <Rbt.Current_Directory>
/home/itssahil/PROJECTS/Mol_Feturizer/New_Systems/rnas/2O3Y

>  <Rbt.Executable>
rbdock ($Id: //depot/dev/client3/rdock/2013.1/src/exe/rbdock.cxx#4 $)

>  <Rbt.Library>
libRbt.so (2013.1, Build901 2013/11/27)

>  <Rbt.Parameter_File>
/export/apps/rDock/src/rDock_2013.1_src/data/scripts/dock_solv.prm

>  <Rbt.Receptor>
prm/blind_docking_20.prm

>  <SCORE>
-2.94047

>  <SCORE.INTER>
4.20305

>  <SCORE.INTER.CONST>
1

>  <SCORE.INTER.POLAR>
0

>  <SCORE.INTER.ROT>
11

>  <SCORE.INTER.SOLV>
8.84336

>  <SCORE.INTER.VDW>
-11.0791

>  <SCORE.INTER.norm>
0.300218

>  <SCORE.INTRA>
-7.14982

>  <SCORE.INTRA.DIHEDRAL>
-16.9435

>  <SCORE.INTRA.DIHEDRAL.0>
24.1231

>  <SCORE.INTRA.POLAR>
0

>  <SCORE.INTRA.POLAR.0>
0

>  <SCORE.INTRA.REPUL>
0

>  <SCORE.INTRA.REPUL.0>
0

>  <SCORE.INTRA.SOLV>
1.04212

>  <SCORE.INTRA.SOLV.lig_0>
-48.2216

>  <SCORE.INTRA.VDW>
0.800875

>  <SCORE.INTRA.VDW.0>
-1.3967

>  <SCORE.INTRA.norm>
-0.510702

>  <SCORE.RESTR>
0.0062981

>  <SCORE.RESTR.CAVITY>
0.0062981

>  <SCORE.RESTR.norm>
0.000449864

>  <SCORE.SYSTEM>
0

>  <SCORE.SYSTEM.CONST>
0

>  <SCORE.SYSTEM.DIHEDRAL>
0

>  <SCORE.SYSTEM.SOLV>
0

>  <SCORE.SYSTEM.norm>
0

>  <SCORE.heavy>
14

>  <SCORE.norm>
-0.210034

>  <RMSD>
13.951

$$$$
ligand
 OpenBabel11021811463D
libRbt.so/2013.1/901 2013/11/27
 14 13  0  0  0  0  0  0  0  0999 V2000
    3.9571   13.0611   -0.4971 N   0  0  0  0  0  0  0  0  0  0  0  0
    4.9890   13.3352   -1.5062 C   0  0  0  0  0  0  0  0  0  0  0  0
    6.1360   14.1045   -0.8591 C   0  0  0  0  0  0  0  0  0  0  0  0
    6.9783   13.1325   -0.0492 C   0  0  0  0  0  0  0  0  0  0  0  0
    6.1900   12.6547    1.0923 N   0  0  0  0  0  0  0  0  0  0  0  0
    7.0575   11.7487    1.8652 C   0  0  0  0  0  0  0  0  0  0  0  0
    6.3127   11.2028    3.0888 C   0  0  0  0  0  0  0  0  0  0  0  0
    5.1475   10.3323    2.5948 C   0  0  0  0  0  0  0  0  0  0  0  0
    5.6496    9.0251    2.1410 C   0  0  0  0  0  0  0  0  0  0  0  0
    6.1190    8.2897    3.3329 N   0  0  0  0  0  0  0  0  0  0  0  0
    5.9040    6.7838    3.1436 C   0  0  0  0  0  0  0  0  0  0  0  0
    6.3239    6.0388    4.4165 C   0  0  0  0  0  0  0  0  0  0  0  0
    6.0151    4.6026    4.2779 C   0  0  0  0  0  0  0  0  0  0  0  0
    4.5501    4.4121    4.2144 N   0  0  0  0  0  0  0  0  0  0  0  0
  1  2  1  0  0  0  0
  2  3  1  0  0  0  0
  3  4  1  0  0  0  0
  4  5  1  0  0  0  0
  5  6  1  0  0  0  0
  6  7  1  0  0  0  0
  7  8  1  0  0  0  0
  8  9  1  0  0  0  0
  9 10  1  0  0  0  0
 10 11  1  0  0  0  0
 11 12  1  0  0  0  0
 12 13  1  0  0  0  0
 13 14  1  0  0  0  0
M  END
>  <CHROM.1>
76.93861142,-67.53882697,-178.44668048,179.75721968,64.89524333,76.82178201
68.91075807,147.95722593,-176.93274693,175.39462286,-66.17436892,5.80952086
9.90897836,1.94680479,1.56121357,-0.67531385,-0.51674791

>  <Name>
ligand

>  <RI>
0

>  <Rbt.Current_Directory>
/home/itssahil/PROJECTS/Mol_Feturizer/New_Systems/rnas/2O3Y

>  <Rbt.Executable>
rbdock ($Id: //depot/dev/client3/rdock/2013.1/src/exe/rbdock.cxx#4 $)

>  <Rbt.Library>
libRbt.so (2013.1, Build901 2013/11/27)

>  <Rbt.Parameter_File>
/export/apps/rDock/src/rDock_2013.1_src/data/scripts/dock_solv.prm

>  <Rbt.Receptor>
prm/blind_docking_20.prm

>  <SCORE>
-5.26211

>  <SCORE.INTER>
1.61121

>  <SCORE.INTER.CONST>
1

>  <SCORE.INTER.POLAR>
0

>  <SCORE.INTER.ROT>
11

>  <SCORE.INTER.SOLV>
8.01604

>  <SCORE.INTER.VDW>
-12.5312

>  <SCORE.INTER.norm>
0.115087

>  <SCORE.INTRA>
-6.87782

>  <SCORE.INTRA.DIHEDRAL>
-20.5007

>  <SCORE.INTRA.DIHEDRAL.0>
24.1231

>  <SCORE.INTRA.POLAR>
0

>  <SCORE.INTRA.POLAR.0>
0

>  <SCORE.INTRA.REPUL>
0

>  <SCORE.INTRA.REPUL.0>
0

>  <SCORE.INTRA.SOLV>
4.28429

>  <SCORE.INTRA.SOLV.lig_0>
-48.2216

>  <SCORE.INTRA.VDW>
1.23039

>  <SCORE.INTRA.VDW.0>
-1.3967

>  <SCORE.INTRA.norm>
-0.491273

>  <SCORE.RESTR>
0.00450234

>  <SCORE.RESTR.CAVITY>
0.00450234

>  <SCORE.RESTR.norm>
0.000321596

>  <SCORE.SYSTEM>
0

>  <SCORE.SYSTEM.CONST>
0

>  <SCORE.SYSTEM.DIHEDRAL>
0

>  <SCORE.SYSTEM.SOLV>
0

>  <SCORE.SYSTEM.norm>
0

>  <SCORE.heavy>
14

>  <SCORE.norm>
-0.375865

>  <RMSD>
13.968

$$$$
ligand
 OpenBabel11021811463D
libRbt.so/2013.1/901 2013/11/27
 14 13  0  0  0  0  0  0  0  0999 V2000
    4.1314   14.0460   -2.0752 N   0  0  0  0  0  0  0  0  0  0  0  0
    4.8652   13.2809   -1.0582 C   0  0  0  0  0  0  0  0  0  0  0  0
    6.1647   14.0051   -0.7221 C   0  0  0  0  0  0  0  0  0  0  0  0
    6.9312   13.1808    0.2993 C   0  0  0  0  0  0  0  0  0  0  0  0
    6.1456   13.1034    1.5361 N   0  0  0  0  0  0  0  0  0  0  0  0
    6.9216   12.2902    2.4885 C   0  0  0  0  0  0  0  0  0  0  0  0
    6.1080   11.0748    2.9477 C   0  0  0  0  0  0  0  0  0  0  0  0
    5.7954   10.2112    1.7164 C   0  0  0  0  0  0  0  0  0  0  0  0
    5.1366    8.9613    2.1292 C   0  0  0  0  0  0  0  0  0  0  0  0
    6.1363    8.1478    2.8507 N   0  0  0  0  0  0  0  0  0  0  0  0
    5.5388    6.7871    3.2266 C   0  0  0  0  0  0  0  0  0  0  0  0
    6.5252    6.0179    4.1136 C   0  0  0  0  0  0  0  0  0  0  0  0
    5.9235    4.7377    4.5337 C   0  0  0  0  0  0  0  0  0  0  0  0
    4.7473    4.9980    5.3912 N   0  0  0  0  0  0  0  0  0  0  0  0
  1  2  1  0  0  0  0
  2  3  1  0  0  0  0
  3  4  1  0  0  0  0
  4  5  1  0  0  0  0
  5  6  1  0  0  0  0
  6  7  1  0  0  0  0
  7  8  1  0  0  0  0
  8  9  1  0  0  0  0
  9 10  1  0  0  0  0
 10 11  1  0  0  0  0
 11 12  1  0  0  0  0
 12 13  1  0  0  0  0
 13 14  1  0  0  0  0
M  END
>  <CHROM.1>
-178.31590169,-63.51185972,179.60927471,-122.10176215,61.41319321,174.09781939
-68.83210153,-176.17842037,-173.44690674,177.09424070,-64.73804916,5.79098715
10.06015608,1.95553988,1.58064280,-0.83258857,-0.53751597

>  <Name>
ligand

>  <RI>
0

>  <Rbt.Current_Directory>
/home/itssahil/PROJECTS/Mol_Feturizer/New_Systems/rnas/2O3Y

>  <Rbt.Executable>
rbdock ($Id: //depot/dev/client3/rdock/2013.1/src/exe/rbdock.cxx#4 $)

>  <Rbt.Library>
libRbt.so (2013.1, Build901 2013/11/27)

>  <Rbt.Parameter_File>
/export/apps/rDock/src/rDock_2013.1_src/data/scripts/dock_solv.prm

>  <Rbt.Receptor>
prm/blind_docking_20.prm

>  <SCORE>
-7.29752

>  <SCORE.INTER>
2.42455

>  <SCORE.INTER.CONST>
1

>  <SCORE.INTER.POLAR>
0

>  <SCORE.INTER.ROT>
11

>  <SCORE.INTER.SOLV>
8.30828

>  <SCORE.INTER.VDW>
-12.0864

>  <SCORE.INTER.norm>
0.173182

>  <SCORE.INTRA>
-9.72207

>  <SCORE.INTRA.DIHEDRAL>
-22.2636

>  <SCORE.INTRA.DIHEDRAL.0>
24.1231

>  <SCORE.INTRA.POLAR>
0

>  <SCORE.INTRA.POLAR.0>
0

>  <SCORE.INTRA.REPUL>
0

>  <SCORE.INTRA.REPUL.0>
0

>  <SCORE.INTRA.SOLV>
1.27516

>  <SCORE.INTRA.SOLV.lig_0>
-48.2216

>  <SCORE.INTRA.VDW>
0.772162

>  <SCORE.INTRA.VDW.0>
-1.3967

>  <SCORE.INTRA.norm>
-0.694434

>  <SCORE.RESTR>
0

>  <SCORE.RESTR.CAVITY>
0

>  <SCORE.RESTR.norm>
0

>  <SCORE.SYSTEM>
0

>  <SCORE.SYSTEM.CONST>
0

>  <SCORE.SYSTEM.DIHEDRAL>
0

>  <SCORE.SYSTEM.SOLV>
0

>  <SCORE.SYSTEM.norm>
0

>  <SCORE.heavy>
14

>  <SCORE.norm>
-0.521252

>  <RMSD>
13.979

$$$$
ligand
 OpenBabel11021811463D
libRbt.so/2013.1/901 2013/11/27
 14 13  0  0  0  0  0  0  0  0999 V2000
   13.0660   -3.0569    8.4979 N   0  0  0  0  0  0  0  0  0  0  0  0
   12.3553   -2.3736    7.4088 C   0  0  0  0  0  0  0  0  0  0  0  0
   12.1032   -0.9220    7.8032 C   0  0  0  0  0  0  0  0  0  0  0  0
   11.1652   -0.8984    8.9989 C   0  0  0  0  0  0  0  0  0  0  0  0
   11.8040   -1.5968   10.1201 N   0  0  0  0  0  0  0  0  0  0  0  0
   12.1892   -0.5695   11.1035 C   0  0  0  0  0  0  0  0  0  0  0  0
   13.1451   -1.1556   12.1488 C   0  0  0  0  0  0  0  0  0  0  0  0
   14.4849   -1.4575   11.4609 C   0  0  0  0  0  0  0  0  0  0  0  0
   15.4396   -2.0126   12.4342 C   0  0  0  0  0  0  0  0  0  0  0  0
   16.7706   -2.0279   11.7941 N   0  0  0  0  0  0  0  0  0  0  0  0
   17.6688   -0.9526   12.4161 C   0  0  0  0  0  0  0  0  0  0  0  0
   18.9403   -1.6026   12.9749 C   0  0  0  0  0  0  0  0  0  0  0  0
   18.6085   -2.3957   14.1742 C   0  0  0  0  0  0  0  0  0  0  0  0
   17.9342   -3.6486   13.7717 N   0  0  0  0  0  0  0  0  0  0  0  0
  1  2  1  0  0  0  0
  2  3  1  0  0  0  0
  3  4  1  0  0  0  0
  4  5  1  0  0  0  0
  5  6  1  0  0  0  0
  6  7  1  0  0  0  0
  7  8  1  0  0  0  0
  8  9  1  0  0  0  0
  9 10  1  0  0  0  0
 10 11  1  0  0  0  0
 11 12  1  0  0  0  0
 12 13  1  0  0  0  0
 13 14  1  0  0  0  0
M  END
>  <CHROM.1>
-64.60276760,61.21208806,108.00909786,-166.84740265,69.02312467,179.49929297
-168.85637893,108.20975748,122.71179164,-70.72836015,74.83476252,14.69098736
-1.76183739,11.07909554,-2.59549019,-0.35051790,1.20716132

>  <Name>
ligand

>  <RI>
0

>  <Rbt.Current_Directory>
/home/itssahil/PROJECTS/Mol_Feturizer/New_Systems/rnas/2O3Y

>  <Rbt.Executable>
rbdock ($Id: //depot/dev/client3/rdock/2013.1/src/exe/rbdock.cxx#4 $)

>  <Rbt.Library>
libRbt.so (2013.1, Build901 2013/11/27)

>  <Rbt.Parameter_File>
/export/apps/rDock/src/rDock_2013.1_src/data/scripts/dock_solv.prm

>  <Rbt.Receptor>
prm/blind_docking_80.prm

>  <SCORE>
-1.66862

>  <SCORE.INTER>
2.38355

>  <SCORE.INTER.CONST>
1

>  <SCORE.INTER.POLAR>
0

>  <SCORE.INTER.ROT>
11

>  <SCORE.INTER.SOLV>
8.74775

>  <SCORE.INTER.VDW>
-12.2602

>  <SCORE.INTER.norm>
0.170254

>  <SCORE.INTRA>
-4.39573

>  <SCORE.INTRA.DIHEDRAL>
-18.5565

>  <SCORE.INTRA.DIHEDRAL.0>
24.1231

>  <SCORE.INTRA.POLAR>
0

>  <SCORE.INTRA.POLAR.0>
0

>  <SCORE.INTRA.REPUL>
0

>  <SCORE.INTRA.REPUL.0>
0

>  <SCORE.INTRA.SOLV>
7.67471

>  <SCORE.INTRA.SOLV.lig_0>
-48.2216

>  <SCORE.INTRA.VDW>
1.04518

>  <SCORE.INTRA.VDW.0>
-1.3967

>  <SCORE.INTRA.norm>
-0.313981

>  <SCORE.RESTR>
0.34356

>  <SCORE.RESTR.CAVITY>
0.34356

>  <SCORE.RESTR.norm>
0.02454

>  <SCORE.SYSTEM>
0

>  <SCORE.SYSTEM.CONST>
0

>  <SCORE.SYSTEM.DIHEDRAL>
0

>  <SCORE.SYSTEM.SOLV>
0

>  <SCORE.SYSTEM.norm>
0

>  <SCORE.heavy>
14

>  <SCORE.norm>
-0.119187

>  <RMSD>
14.040

$$$$
ligand
 OpenBabel11021811463D
libRbt.so/2013.1/901 2013/11/27
 14 13  0  0  0  0  0  0  0  0999 V2000
   19.4973   -2.4692   15.0701 N   0  0  0  0  0  0  0  0  0  0  0  0
   18.2328   -2.9959   14.5394 C   0  0  0  0  0  0  0  0  0  0  0  0
   18.5063   -3.7576   13.2466 C   0  0  0  0  0  0  0  0  0  0  0  0
   19.0927   -2.7936   12.2283 C   0  0  0  0  0  0  0  0  0  0  0  0
   18.1129   -1.7367   11.9529 N   0  0  0  0  0  0  0  0  0  0  0  0
   17.3290   -2.1709   10.7834 C   0  0  0  0  0  0  0  0  0  0  0  0
   15.8588   -1.7656   10.9392 C   0  0  0  0  0  0  0  0  0  0  0  0
   15.3533   -2.2961   12.2893 C   0  0  0  0  0  0  0  0  0  0  0  0
   13.8836   -2.2332   12.3392 C   0  0  0  0  0  0  0  0  0  0  0  0
   13.4919   -0.8191   12.1699 N   0  0  0  0  0  0  0  0  0  0  0  0
   12.2736   -0.7150   11.2454 C   0  0  0  0  0  0  0  0  0  0  0  0
   12.7071   -0.9469    9.7928 C   0  0  0  0  0  0  0  0  0  0  0  0
   11.5184   -0.9934    8.9197 C   0  0  0  0  0  0  0  0  0  0  0  0
   11.9154   -1.4197    7.5605 N   0  0  0  0  0  0  0  0  0  0  0  0
  1  2  1  0  0  0  0
  2  3  1  0  0  0  0
  3  4  1  0  0  0  0
  4  5  1  0  0  0  0
  5  6  1  0  0  0  0
  6  7  1  0  0  0  0
  7  8  1  0  0  0  0
  8  9  1  0  0  0  0
  9 10  1  0  0  0  0
 10 11  1  0  0  0  0
 11 12  1  0  0  0  0
 12 13  1  0  0  0  0
 13 14  1  0  0  0  0
M  END
>  <CHROM.1>
-61.72374290,-61.71959656,-92.83204444,142.37121045,-53.31622838,-165.82816499
-59.98885298,138.66513580,-75.10681523,173.87120098,-171.43287812,15.55513486
-1.93673926,11.64831529,0.54234568,-0.24945808,1.58003079

>  <Name>
ligand

>  <RI>
0

>  <Rbt.Current_Directory>
/home/itssahil/PROJECTS/Mol_Feturizer/New_Systems/rnas/2O3Y

>  <Rbt.Executable>
rbdock ($Id: //depot/dev/client3/rdock/2013.1/src/exe/rbdock.cxx#4 $)

>  <Rbt.Library>
libRbt.so (2013.1, Build901 2013/11/27)

>  <Rbt.Parameter_File>
/export/apps/rDock/src/rDock_2013.1_src/data/scripts/dock_solv.prm

>  <Rbt.Receptor>
prm/blind_docking_80.prm

>  <SCORE>
-3.27687

>  <SCORE.INTER>
3.93263

>  <SCORE.INTER.CONST>
1

>  <SCORE.INTER.POLAR>
0

>  <SCORE.INTER.ROT>
11

>  <SCORE.INTER.SOLV>
14.493

>  <SCORE.INTER.VDW>
-13.1426

>  <SCORE.INTER.norm>
0.280902

>  <SCORE.INTRA>
-7.2095

>  <SCORE.INTRA.DIHEDRAL>
-20.0793

>  <SCORE.INTRA.DIHEDRAL.0>
24.1231

>  <SCORE.INTRA.POLAR>
0

>  <SCORE.INTRA.POLAR.0>
0

>  <SCORE.INTRA.REPUL>
0

>  <SCORE.INTRA.REPUL.0>
0

>  <SCORE.INTRA.SOLV>
1.9649

>  <SCORE.INTRA.SOLV.lig_0>
-48.2216

>  <SCORE.INTRA.VDW>
1.8477

>  <SCORE.INTRA.VDW.0>
-1.3967

>  <SCORE.INTRA.norm>
-0.514964

>  <SCORE.RESTR>
0

>  <SCORE.RESTR.CAVITY>
0

>  <SCORE.RESTR.norm>
0

>  <SCORE.SYSTEM>
0

>  <SCORE.SYSTEM.CONST>
0

>  <SCORE.SYSTEM.DIHEDRAL>
0

>  <SCORE.SYSTEM.SOLV>
0

>  <SCORE.SYSTEM.norm>
0

>  <SCORE.heavy>
14

>  <SCORE.norm>
-0.234062

>  <RMSD>
14.063

$$$$
ligand
 OpenBabel11021811463D
libRbt.so/2013.1/901 2013/11/27
 14 13  0  0  0  0  0  0  0  0999 V2000
   19.0751   -2.4272   10.6750 N   0  0  0  0  0  0  0  0  0  0  0  0
   18.2972   -1.3085   11.2243 C   0  0  0  0  0  0  0  0  0  0  0  0
   19.0369   -0.7187   12.4206 C   0  0  0  0  0  0  0  0  0  0  0  0
   19.0775   -1.7582   13.5286 C   0  0  0  0  0  0  0  0  0  0  0  0
   17.7043   -2.0675   13.9429 N   0  0  0  0  0  0  0  0  0  0  0  0
   17.6558   -3.5123   14.2273 C   0  0  0  0  0  0  0  0  0  0  0  0
   16.2509   -4.0665   13.9645 C   0  0  0  0  0  0  0  0  0  0  0  0
   16.0088   -4.0664   12.4476 C   0  0  0  0  0  0  0  0  0  0  0  0
   15.5671   -2.7335   12.0060 C   0  0  0  0  0  0  0  0  0  0  0  0
   14.2331   -2.4894   12.5911 N   0  0  0  0  0  0  0  0  0  0  0  0
   13.6176   -1.2194   11.9926 C   0  0  0  0  0  0  0  0  0  0  0  0
   12.7909   -1.5818   10.7529 C   0  0  0  0  0  0  0  0  0  0  0  0
   12.2383   -0.3551   10.1468 C   0  0  0  0  0  0  0  0  0  0  0  0
   11.4864   -0.7004    8.9212 N   0  0  0  0  0  0  0  0  0  0  0  0
  1  2  1  0  0  0  0
  2  3  1  0  0  0  0
  3  4  1  0  0  0  0
  4  5  1  0  0  0  0
  5  6  1  0  0  0  0
  6  7  1  0  0  0  0
  7  8  1  0  0  0  0
  8  9  1  0  0  0  0
  9 10  1  0  0  0  0
 10 11  1  0  0  0  0
 11 12  1  0  0  0  0
 12 13  1  0  0  0  0
 13 14  1  0  0  0  0
M  END
>  <CHROM.1>
-65.66409486,-62.18650928,142.29685747,-150.96639188,70.56811316,-82.99697087
-66.80800878,-170.94174255,90.75307410,-177.93672604,177.75235373,15.93153744
-2.07184117,12.06031140,-0.44485538,-0.12940115,-0.86459255

>  <Name>
ligand

>  <RI>
0

>  <Rbt.Current_Directory>
/home/itssahil/PROJECTS/Mol_Feturizer/New_Systems/rnas/2O3Y

>  <Rbt.Executable>
rbdock ($Id: //depot/dev/client3/rdock/2013.1/src/exe/rbdock.cxx#4 $)

>  <Rbt.Library>
libRbt.so (2013.1, Build901 2013/11/27)

>  <Rbt.Parameter_File>
/export/apps/rDock/src/rDock_2013.1_src/data/scripts/dock_solv.prm

>  <Rbt.Receptor>
prm/blind_docking_80.prm

>  <SCORE>
-3.69663

>  <SCORE.INTER>
2.69682

>  <SCORE.INTER.CONST>
1

>  <SCORE.INTER.POLAR>
0

>  <SCORE.INTER.ROT>
11

>  <SCORE.INTER.SOLV>
10.8845

>  <SCORE.INTER.VDW>
-12.7636

>  <SCORE.INTER.norm>
0.19263

>  <SCORE.INTRA>
-6.39345

>  <SCORE.INTRA.DIHEDRAL>
-19.306

>  <SCORE.INTRA.DIHEDRAL.0>
24.1231

>  <SCORE.INTRA.POLAR>
0

>  <SCORE.INTRA.POLAR.0>
0

>  <SCORE.INTRA.REPUL>
0

>  <SCORE.INTRA.REPUL.0>
0

>  <SCORE.INTRA.SOLV>
4.61179

>  <SCORE.INTRA.SOLV.lig_0>
-48.2216

>  <SCORE.INTRA.VDW>
0.95367

>  <SCORE.INTRA.VDW.0>
-1.3967

>  <SCORE.INTRA.norm>
-0.456675

>  <SCORE.RESTR>
0

>  <SCORE.RESTR.CAVITY>
0

>  <SCORE.RESTR.norm>
0

>  <SCORE.SYSTEM>
0

>  <SCORE.SYSTEM.CONST>
0

>  <SCORE.SYSTEM.DIHEDRAL>
0

>  <SCORE.SYSTEM.SOLV>
0

>  <SCORE.SYSTEM.norm>
0

>  <SCORE.heavy>
14

>  <SCORE.norm>
-0.264045

>  <RMSD>
14.076

$$$$
ligand
 OpenBabel11021811463D
libRbt.so/2013.1/901 2013/11/27
 14 13  0  0  0  0  0  0  0  0999 V2000
   11.9655   -1.2241    9.1087 N   0  0  0  0  0  0  0  0  0  0  0  0
   12.1427   -0.2633   10.2058 C   0  0  0  0  0  0  0  0  0  0  0  0
   12.4040   -1.0214   11.5032 C   0  0  0  0  0  0  0  0  0  0  0  0
   13.7956   -1.6292   11.4401 C   0  0  0  0  0  0  0  0  0  0  0  0
   13.9756   -2.5286   12.5854 N   0  0  0  0  0  0  0  0  0  0  0  0
   15.4224   -2.7748   12.7158 C   0  0  0  0  0  0  0  0  0  0  0  0
   15.6803   -4.1039   13.4348 C   0  0  0  0  0  0  0  0  0  0  0  0
   17.1984   -4.2846   13.5834 C   0  0  0  0  0  0  0  0  0  0  0  0
   17.7168   -3.3770   14.6199 C   0  0  0  0  0  0  0  0  0  0  0  0
   19.0315   -2.8828   14.1628 N   0  0  0  0  0  0  0  0  0  0  0  0
   19.0440   -1.3500   14.1476 C   0  0  0  0  0  0  0  0  0  0  0  0
   19.1666   -0.8495   12.7033 C   0  0  0  0  0  0  0  0  0  0  0  0
   17.9424   -1.1894   11.9528 C   0  0  0  0  0  0  0  0  0  0  0  0
   18.1633   -0.9589   10.5090 N   0  0  0  0  0  0  0  0  0  0  0  0
  1  2  1  0  0  0  0
  2  3  1  0  0  0  0
  3  4  1  0  0  0  0
  4  5  1  0  0  0  0
  5  6  1  0  0  0  0
  6  7  1  0  0  0  0
  7  8  1  0  0  0  0
  8  9  1  0  0  0  0
  9 10  1  0  0  0  0
 10 11  1  0  0  0  0
 11 12  1  0  0  0  0
 12 13  1  0  0  0  0
 13 14  1  0  0  0  0
M  END
>  <CHROM.1>
71.20030006,-171.28182374,-163.52676986,-155.62121774,-178.13514882,73.52834272
-142.12513132,124.61503568,-113.73501235,67.05464210,-168.57864145,15.97501929
-2.03130823,12.33407382,-2.68571980,0.22639836,2.38420025

>  <Name>
ligand

>  <RI>
0

>  <Rbt.Current_Directory>
/home/itssahil/PROJECTS/Mol_Feturizer/New_Systems/rnas/2O3Y

>  <Rbt.Executable>
rbdock ($Id: //depot/dev/client3/rdock/2013.1/src/exe/rbdock.cxx#4 $)

>  <Rbt.Library>
libRbt.so (2013.1, Build901 2013/11/27)

>  <Rbt.Parameter_File>
/export/apps/rDock/src/rDock_2013.1_src/data/scripts/dock_solv.prm

>  <Rbt.Receptor>
prm/blind_docking_80.prm

>  <SCORE>
-3.24439

>  <SCORE.INTER>
2.38865

>  <SCORE.INTER.CONST>
1

>  <SCORE.INTER.POLAR>
0

>  <SCORE.INTER.ROT>
11

>  <SCORE.INTER.SOLV>
14.2735

>  <SCORE.INTER.VDW>
-14.0987

>  <SCORE.INTER.norm>
0.170618

>  <SCORE.INTRA>
-5.73194

>  <SCORE.INTRA.DIHEDRAL>
-15.1127

>  <SCORE.INTRA.DIHEDRAL.0>
24.1231

>  <SCORE.INTRA.POLAR>
0

>  <SCORE.INTRA.POLAR.0>
0

>  <SCORE.INTRA.REPUL>
0

>  <SCORE.INTRA.REPUL.0>
0

>  <SCORE.INTRA.SOLV>
1.81707

>  <SCORE.INTRA.SOLV.lig_0>
-48.2216

>  <SCORE.INTRA.VDW>
0.915871

>  <SCORE.INTRA.VDW.0>
-1.3967

>  <SCORE.INTRA.norm>
-0.409424

>  <SCORE.RESTR>
0.0988999

>  <SCORE.RESTR.CAVITY>
0.0988999

>  <SCORE.RESTR.norm>
0.00706428

>  <SCORE.SYSTEM>
0

>  <SCORE.SYSTEM.CONST>
0

>  <SCORE.SYSTEM.DIHEDRAL>
0

>  <SCORE.SYSTEM.SOLV>
0

>  <SCORE.SYSTEM.norm>
0

>  <SCORE.heavy>
14

>  <SCORE.norm>
-0.231742

>  <RMSD>
14.082

$$$$
ligand
 OpenBabel11021811463D
libRbt.so/2013.1/901 2013/11/27
 14 13  0  0  0  0  0  0  0  0999 V2000
   11.9285   -1.2770    7.4553 N   0  0  0  0  0  0  0  0  0  0  0  0
   12.4534   -1.5414    8.8016 C   0  0  0  0  0  0  0  0  0  0  0  0
   11.5162   -0.9298    9.8379 C   0  0  0  0  0  0  0  0  0  0  0  0
   12.0418   -1.2608   11.2251 C   0  0  0  0  0  0  0  0  0  0  0  0
   13.2695   -0.4941   11.4654 N   0  0  0  0  0  0  0  0  0  0  0  0
   14.3488   -1.4707   11.6938 C   0  0  0  0  0  0  0  0  0  0  0  0
   15.2252   -1.6079   10.4436 C   0  0  0  0  0  0  0  0  0  0  0  0
   16.4551   -2.4530   10.8077 C   0  0  0  0  0  0  0  0  0  0  0  0
   17.3593   -1.6822   11.6766 C   0  0  0  0  0  0  0  0  0  0  0  0
   18.3006   -2.6358   12.2982 N   0  0  0  0  0  0  0  0  0  0  0  0
   17.6731   -3.2573   13.5511 C   0  0  0  0  0  0  0  0  0  0  0  0
   18.7747   -3.6168   14.5555 C   0  0  0  0  0  0  0  0  0  0  0  0
   19.4641   -2.3898   14.9990 C   0  0  0  0  0  0  0  0  0  0  0  0
   18.5035   -1.4989   15.6845 N   0  0  0  0  0  0  0  0  0  0  0  0
  1  2  1  0  0  0  0
  2  3  1  0  0  0  0
  3  4  1  0  0  0  0
  4  5  1  0  0  0  0
  5  6  1  0  0  0  0
  6  7  1  0  0  0  0
  7  8  1  0  0  0  0
  8  9  1  0  0  0  0
  9 10  1  0  0  0  0
 10 11  1  0  0  0  0
 11 12  1  0  0  0  0
 12 13  1  0  0  0  0
 13 14  1  0  0  0  0
M  END
>  <CHROM.1>
177.69486546,70.60375604,-119.41745816,102.60783643,170.88765166,-71.37314736
164.20394393,-84.52231361,-150.42248045,63.44367028,61.86450852,15.52241645
-1.86555677,11.74966646,-2.55238175,-0.35013084,1.37598241

>  <Name>
ligand

>  <RI>
0

>  <Rbt.Current_Directory>
/home/itssahil/PROJECTS/Mol_Feturizer/New_Systems/rnas/2O3Y

>  <Rbt.Executable>
rbdock ($Id: //depot/dev/client3/rdock/2013.1/src/exe/rbdock.cxx#4 $)

>  <Rbt.Library>
libRbt.so (2013.1, Build901 2013/11/27)

>  <Rbt.Parameter_File>
/export/apps/rDock/src/rDock_2013.1_src/data/scripts/dock_solv.prm

>  <Rbt.Receptor>
prm/blind_docking_80.prm

>  <SCORE>
-1.99629

>  <SCORE.INTER>
4.08045

>  <SCORE.INTER.CONST>
1

>  <SCORE.INTER.POLAR>
0

>  <SCORE.INTER.ROT>
11

>  <SCORE.INTER.SOLV>
17.7925

>  <SCORE.INTER.VDW>
-14.1439

>  <SCORE.INTER.norm>
0.291461

>  <SCORE.INTRA>
-6.09985

>  <SCORE.INTRA.DIHEDRAL>
-18.7196

>  <SCORE.INTRA.DIHEDRAL.0>
24.1231

>  <SCORE.INTRA.POLAR>
0

>  <SCORE.INTRA.POLAR.0>
0

>  <SCORE.INTRA.REPUL>
0

>  <SCORE.INTRA.REPUL.0>
0

>  <SCORE.INTRA.SOLV>
2.28743

>  <SCORE.INTRA.SOLV.lig_0>
-48.2216

>  <SCORE.INTRA.VDW>
2.11621

>  <SCORE.INTRA.VDW.0>
-1.3967

>  <SCORE.INTRA.norm>
-0.435703

>  <SCORE.RESTR>
0.0231024

>  <SCORE.RESTR.CAVITY>
0.0231024

>  <SCORE.RESTR.norm>
0.00165017

>  <SCORE.SYSTEM>
0

>  <SCORE.SYSTEM.CONST>
0

>  <SCORE.SYSTEM.DIHEDRAL>
0

>  <SCORE.SYSTEM.SOLV>
0

>  <SCORE.SYSTEM.norm>
0

>  <SCORE.heavy>
14

>  <SCORE.norm>
-0.142592

>  <RMSD>
14.096

$$$$
ligand
 OpenBabel11021811463D
libRbt.so/2013.1/901 2013/11/27
 14 13  0  0  0  0  0  0  0  0999 V2000
   17.9215   -4.1537   14.3761 N   0  0  0  0  0  0  0  0  0  0  0  0
   18.9553   -3.1593   14.6935 C   0  0  0  0  0  0  0  0  0  0  0  0
   18.8144   -1.9669   13.7530 C   0  0  0  0  0  0  0  0  0  0  0  0
   19.0851   -2.4332   12.3319 C   0  0  0  0  0  0  0  0  0  0  0  0
   18.6732   -1.3795   11.3976 N   0  0  0  0  0  0  0  0  0  0  0  0
   17.3334   -1.7422   10.9036 C   0  0  0  0  0  0  0  0  0  0  0  0
   16.2536   -1.2930   11.8947 C   0  0  0  0  0  0  0  0  0  0  0  0
   14.8809   -1.6566   11.3091 C   0  0  0  0  0  0  0  0  0  0  0  0
   13.8088   -1.0886   12.1426 C   0  0  0  0  0  0  0  0  0  0  0  0
   12.5196   -1.4594   11.5243 N   0  0  0  0  0  0  0  0  0  0  0  0
   12.0804   -0.3792   10.5293 C   0  0  0  0  0  0  0  0  0  0  0  0
   11.7096   -1.0304    9.1914 C   0  0  0  0  0  0  0  0  0  0  0  0
   12.8866   -1.7220    8.6310 C   0  0  0  0  0  0  0  0  0  0  0  0
   12.4993   -2.4477    7.4022 N   0  0  0  0  0  0  0  0  0  0  0  0
  1  2  1  0  0  0  0
  2  3  1  0  0  0  0
  3  4  1  0  0  0  0
  4  5  1  0  0  0  0
  5  6  1  0  0  0  0
  6  7  1  0  0  0  0
  7  8  1  0  0  0  0
  8  9  1  0  0  0  0
  9 10  1  0  0  0  0
 10 11  1  0  0  0  0
 11 12  1  0  0  0  0
 12 13  1  0  0  0  0
 13 14  1  0  0  0  0
M  END
>  <CHROM.1>
-64.11395772,167.88472235,-98.39865610,83.19344015,178.25439397,-172.66096170
179.46611165,-90.57417964,129.88266891,-61.29339569,175.09140072,15.53018321
-1.85062764,11.43440955,0.57256386,-0.15706111,1.63252601

>  <Name>
ligand

>  <RI>
0

>  <Rbt.Current_Directory>
/home/itssahil/PROJECTS/Mol_Feturizer/New_Systems/rnas/2O3Y

>  <Rbt.Executable>
rbdock ($Id: //depot/dev/client3/rdock/2013.1/src/exe/rbdock.cxx#4 $)

>  <Rbt.Library>
libRbt.so (2013.1, Build901 2013/11/27)

>  <Rbt.Parameter_File>
/export/apps/rDock/src/rDock_2013.1_src/data/scripts/dock_solv.prm

>  <Rbt.Receptor>
prm/blind_docking_80.prm

>  <SCORE>
-4.8362

>  <SCORE.INTER>
3.12683

>  <SCORE.INTER.CONST>
1

>  <SCORE.INTER.POLAR>
0

>  <SCORE.INTER.ROT>
11

>  <SCORE.INTER.SOLV>
15.4799

>  <SCORE.INTER.VDW>
-14.0088

>  <SCORE.INTER.norm>
0.223345

>  <SCORE.INTRA>
-7.96303

>  <SCORE.INTRA.DIHEDRAL>
-20.2041

>  <SCORE.INTRA.DIHEDRAL.0>
24.1231

>  <SCORE.INTRA.POLAR>
0

>  <SCORE.INTRA.POLAR.0>
0

>  <SCORE.INTRA.REPUL>
0

>  <SCORE.INTRA.REPUL.0>
0

>  <SCORE.INTRA.SOLV>
1.29559

>  <SCORE.INTRA.SOLV.lig_0>
-48.2216

>  <SCORE.INTRA.VDW>
1.4912

>  <SCORE.INTRA.VDW.0>
-1.3967

>  <SCORE.INTRA.norm>
-0.568788

>  <SCORE.RESTR>
0

>  <SCORE.RESTR.CAVITY>
0

>  <SCORE.RESTR.norm>
0

>  <SCORE.SYSTEM>
0

>  <SCORE.SYSTEM.CONST>
0

>  <SCORE.SYSTEM.DIHEDRAL>
0

>  <SCORE.SYSTEM.SOLV>
0

>  <SCORE.SYSTEM.norm>
0

>  <SCORE.heavy>
14

>  <SCORE.norm>
-0.345443

>  <RMSD>
14.110

$$$$
ligand
 OpenBabel11021811463D
libRbt.so/2013.1/901 2013/11/27
 14 13  0  0  0  0  0  0  0  0999 V2000
   18.8573   -1.9583   11.6106 N   0  0  0  0  0  0  0  0  0  0  0  0
   18.8163   -0.8040   12.5183 C   0  0  0  0  0  0  0  0  0  0  0  0
   19.1451   -1.2638   13.9348 C   0  0  0  0  0  0  0  0  0  0  0  0
   17.9793   -2.0834   14.4634 C   0  0  0  0  0  0  0  0  0  0  0  0
   17.8569   -3.3084   13.6652 N   0  0  0  0  0  0  0  0  0  0  0  0
   16.5469   -3.9016   13.9858 C   0  0  0  0  0  0  0  0  0  0  0  0
   15.7192   -4.1015   12.7110 C   0  0  0  0  0  0  0  0  0  0  0  0
   15.5010   -2.7284   12.0579 C   0  0  0  0  0  0  0  0  0  0  0  0
   14.7966   -2.8847   10.7749 C   0  0  0  0  0  0  0  0  0  0  0  0
   14.4772   -1.5323   10.2741 N   0  0  0  0  0  0  0  0  0  0  0  0
   13.5275   -1.6235    9.0743 C   0  0  0  0  0  0  0  0  0  0  0  0
   12.0802   -1.7326    9.5693 C   0  0  0  0  0  0  0  0  0  0  0  0
   11.7312   -0.5342   10.3563 C   0  0  0  0  0  0  0  0  0  0  0  0
   12.4213   -0.5786   11.6634 N   0  0  0  0  0  0  0  0  0  0  0  0
  1  2  1  0  0  0  0
  2  3  1  0  0  0  0
  3  4  1  0  0  0  0
  4  5  1  0  0  0  0
  5  6  1  0  0  0  0
  6  7  1  0  0  0  0
  7  8  1  0  0  0  0
  8  9  1  0  0  0  0
  9 10  1  0  0  0  0
 10 11  1  0  0  0  0
 11 12  1  0  0  0  0
 12 13  1  0  0  0  0
 13 14  1  0  0  0  0
M  END
>  <CHROM.1>
-70.83764372,65.21030071,-166.58821003,124.23352557,-60.59789658,175.73066983
173.52098806,-169.87123820,84.38391538,60.77560553,-72.49027427,15.67533980
-2.07405746,11.90427780,-0.43891685,-0.34171053,-0.68047362

>  <Name>
ligand

>  <RI>
0

>  <Rbt.Current_Directory>
/home/itssahil/PROJECTS/Mol_Feturizer/New_Systems/rnas/2O3Y

>  <Rbt.Executable>
rbdock ($Id: //depot/dev/client3/rdock/2013.1/src/exe/rbdock.cxx#4 $)

>  <Rbt.Library>
libRbt.so (2013.1, Build901 2013/11/27)

>  <Rbt.Parameter_File>
/export/apps/rDock/src/rDock_2013.1_src/data/scripts/dock_solv.prm

>  <Rbt.Receptor>
prm/blind_docking_80.prm

>  <SCORE>
-0.290551

>  <SCORE.INTER>
5.06584

>  <SCORE.INTER.CONST>
1

>  <SCORE.INTER.POLAR>
0

>  <SCORE.INTER.ROT>
11

>  <SCORE.INTER.SOLV>
12.093

>  <SCORE.INTER.VDW>
-11.5871

>  <SCORE.INTER.norm>
0.361846

>  <SCORE.INTRA>
-5.40303

>  <SCORE.INTRA.DIHEDRAL>
-20.9461

>  <SCORE.INTRA.DIHEDRAL.0>
24.1231

>  <SCORE.INTRA.POLAR>
0

>  <SCORE.INTRA.POLAR.0>
0

>  <SCORE.INTRA.REPUL>
0

>  <SCORE.INTRA.REPUL.0>
0

>  <SCORE.INTRA.SOLV>
8.64937

>  <SCORE.INTRA.SOLV.lig_0>
-48.2216

>  <SCORE.INTRA.VDW>
0.745341

>  <SCORE.INTRA.VDW.0>
-1.3967

>  <SCORE.INTRA.norm>
-0.385931

>  <SCORE.RESTR>
0.0466379

>  <SCORE.RESTR.CAVITY>
0.0466379

>  <SCORE.RESTR.norm>
0.00333128

>  <SCORE.SYSTEM>
0

>  <SCORE.SYSTEM.CONST>
0

>  <SCORE.SYSTEM.DIHEDRAL>
0

>  <SCORE.SYSTEM.SOLV>
0

>  <SCORE.SYSTEM.norm>
0

>  <SCORE.heavy>
14

>  <SCORE.norm>
-0.0207536

>  <RMSD>
14.118

$$$$
ligand
 OpenBabel11021811463D
libRbt.so/2013.1/901 2013/11/27
 14 13  0  0  0  0  0  0  0  0999 V2000
   11.9340   -2.0944    8.3651 N   0  0  0  0  0  0  0  0  0  0  0  0
   11.4420   -0.9027    9.0693 C   0  0  0  0  0  0  0  0  0  0  0  0
   12.4738   -0.4660   10.1041 C   0  0  0  0  0  0  0  0  0  0  0  0
   12.5527   -1.5261   11.1903 C   0  0  0  0  0  0  0  0  0  0  0  0
   13.6572   -1.1972   12.0985 N   0  0  0  0  0  0  0  0  0  0  0  0
   14.2251   -2.4740   12.5653 C   0  0  0  0  0  0  0  0  0  0  0  0
   15.5451   -2.7722   11.8452 C   0  0  0  0  0  0  0  0  0  0  0  0
   16.0996   -4.0989   12.3855 C   0  0  0  0  0  0  0  0  0  0  0  0
   16.6566   -3.9028   13.7338 C   0  0  0  0  0  0  0  0  0  0  0  0
   17.9879   -3.2815   13.5801 N   0  0  0  0  0  0  0  0  0  0  0  0
   17.9047   -1.7769   13.8612 C   0  0  0  0  0  0  0  0  0  0  0  0
   18.9847   -1.0417   13.0583 C   0  0  0  0  0  0  0  0  0  0  0  0
   18.6938   -1.1509   11.6157 C   0  0  0  0  0  0  0  0  0  0  0  0
   18.9709   -2.5282   11.1547 N   0  0  0  0  0  0  0  0  0  0  0  0
  1  2  1  0  0  0  0
  2  3  1  0  0  0  0
  3  4  1  0  0  0  0
  4  5  1  0  0  0  0
  5  6  1  0  0  0  0
  6  7  1  0  0  0  0
  7  8  1  0  0  0  0
  8  9  1  0  0  0  0
  9 10  1  0  0  0  0
 10 11  1  0  0  0  0
 11 12  1  0  0  0  0
 12 13  1  0  0  0  0
 13 14  1  0  0  0  0
M  END
>  <CHROM.1>
-67.18313878,173.04117898,-146.70688780,103.64556886,179.14499579,-74.51140674
-78.51614713,101.22243502,-151.23162903,66.41359621,-72.60439544,15.50910196
-2.08659990,11.75926867,-2.68486417,0.19038362,2.26817280

>  <Name>
ligand

>  <RI>
0

>  <Rbt.Current_Directory>
/home/itssahil/PROJECTS/Mol_Feturizer/New_Systems/rnas/2O3Y

>  <Rbt.Executable>
rbdock ($Id: //depot/dev/client3/rdock/2013.1/src/exe/rbdock.cxx#4 $)

>  <Rbt.Library>
libRbt.so (2013.1, Build901 2013/11/27)

>  <Rbt.Parameter_File>
/export/apps/rDock/src/rDock_2013.1_src/data/scripts/dock_solv.prm

>  <Rbt.Receptor>
prm/blind_docking_80.prm

>  <SCORE>
-2.1328

>  <SCORE.INTER>
3.0742

>  <SCORE.INTER.CONST>
1

>  <SCORE.INTER.POLAR>
0

>  <SCORE.INTER.ROT>
11

>  <SCORE.INTER.SOLV>
8.10223

>  <SCORE.INTER.VDW>
-11.5846

>  <SCORE.INTER.norm>
0.219586

>  <SCORE.INTRA>
-5.20701

>  <SCORE.INTRA.DIHEDRAL>
-17.7822

>  <SCORE.INTRA.DIHEDRAL.0>
24.1231

>  <SCORE.INTRA.POLAR>
0

>  <SCORE.INTRA.POLAR.0>
0

>  <SCORE.INTRA.REPUL>
0

>  <SCORE.INTRA.REPUL.0>
0

>  <SCORE.INTRA.SOLV>
5.47488

>  <SCORE.INTRA.SOLV.lig_0>
-48.2216

>  <SCORE.INTRA.VDW>
0.946657

>  <SCORE.INTRA.VDW.0>
-1.3967

>  <SCORE.INTRA.norm>
-0.371929

>  <SCORE.RESTR>
0

>  <SCORE.RESTR.CAVITY>
0

>  <SCORE.RESTR.norm>
0

>  <SCORE.SYSTEM>
0

>  <SCORE.SYSTEM.CONST>
0

>  <SCORE.SYSTEM.DIHEDRAL>
0

>  <SCORE.SYSTEM.SOLV>
0

>  <SCORE.SYSTEM.norm>
0

>  <SCORE.heavy>
14

>  <SCORE.norm>
-0.152343

>  <RMSD>
14.119

$$$$
ligand
 OpenBabel11021811463D
libRbt.so/2013.1/901 2013/11/27
 14 13  0  0  0  0  0  0  0  0999 V2000
   12.4777   -2.5752    7.4532 N   0  0  0  0  0  0  0  0  0  0  0  0
   12.1802   -2.3073    8.8667 C   0  0  0  0  0  0  0  0  0  0  0  0
   11.4658   -0.9651    8.9865 C   0  0  0  0  0  0  0  0  0  0  0  0
   11.4041   -0.5757   10.4544 C   0  0  0  0  0  0  0  0  0  0  0  0
   12.7663   -0.3266   10.9394 N   0  0  0  0  0  0  0  0  0  0  0  0
   13.1397   -1.4757   11.7825 C   0  0  0  0  0  0  0  0  0  0  0  0
   14.6273   -1.4154   12.1478 C   0  0  0  0  0  0  0  0  0  0  0  0
   15.4471   -1.6354   10.8675 C   0  0  0  0  0  0  0  0  0  0  0  0
   16.8712   -1.3680   11.1266 C   0  0  0  0  0  0  0  0  0  0  0  0
   17.3186   -2.3104   12.1724 N   0  0  0  0  0  0  0  0  0  0  0  0
   17.7018   -1.5455   13.4444 C   0  0  0  0  0  0  0  0  0  0  0  0
   17.8732   -2.5308   14.6068 C   0  0  0  0  0  0  0  0  0  0  0  0
   19.1011   -3.3251   14.4096 C   0  0  0  0  0  0  0  0  0  0  0  0
   18.9948   -4.1035   13.1569 N   0  0  0  0  0  0  0  0  0  0  0  0
  1  2  1  0  0  0  0
  2  3  1  0  0  0  0
  3  4  1  0  0  0  0
  4  5  1  0  0  0  0
  5  6  1  0  0  0  0
  6  7  1  0  0  0  0
  7  8  1  0  0  0  0
  8  9  1  0  0  0  0
  9 10  1  0  0  0  0
 10 11  1  0  0  0  0
 11 12  1  0  0  0  0
 12 13  1  0  0  0  0
 13 14  1  0  0  0  0
M  END
>  <CHROM.1>
-169.22261805,66.05842074,-105.89495032,170.74120905,-67.48882606,170.76214356
60.50379813,-114.73550298,167.94797087,71.24761567,-61.29910832,15.09764972
-1.88978610,11.45841227,-2.72090625,-0.47222078,1.09890024

>  <Name>
ligand

>  <RI>
0

>  <Rbt.Current_Directory>
/home/itssahil/PROJECTS/Mol_Feturizer/New_Systems/rnas/2O3Y

>  <Rbt.Executable>
rbdock ($Id: //depot/dev/client3/rdock/2013.1/src/exe/rbdock.cxx#4 $)

>  <Rbt.Library>
libRbt.so (2013.1, Build901 2013/11/27)

>  <Rbt.Parameter_File>
/export/apps/rDock/src/rDock_2013.1_src/data/scripts/dock_solv.prm

>  <Rbt.Receptor>
prm/blind_docking_80.prm

>  <SCORE>
-4.72181

>  <SCORE.INTER>
1.83763

>  <SCORE.INTER.CONST>
1

>  <SCORE.INTER.POLAR>
0

>  <SCORE.INTER.ROT>
11

>  <SCORE.INTER.SOLV>
10.7821

>  <SCORE.INTER.VDW>
-13.3023

>  <SCORE.INTER.norm>
0.131259

>  <SCORE.INTRA>
-6.60114

>  <SCORE.INTRA.DIHEDRAL>
-20.119

>  <SCORE.INTRA.DIHEDRAL.0>
24.1231

>  <SCORE.INTRA.POLAR>
0

>  <SCORE.INTRA.POLAR.0>
0

>  <SCORE.INTRA.REPUL>
0

>  <SCORE.INTRA.REPUL.0>
0

>  <SCORE.INTRA.SOLV>
4.00555

>  <SCORE.INTRA.SOLV.lig_0>
-48.2216

>  <SCORE.INTRA.VDW>
1.45558

>  <SCORE.INTRA.VDW.0>
-1.3967

>  <SCORE.INTRA.norm>
-0.47151

>  <SCORE.RESTR>
0.0417024

>  <SCORE.RESTR.CAVITY>
0.0417024

>  <SCORE.RESTR.norm>
0.00297874

>  <SCORE.SYSTEM>
0

>  <SCORE.SYSTEM.CONST>
0

>  <SCORE.SYSTEM.DIHEDRAL>
0

>  <SCORE.SYSTEM.SOLV>
0

>  <SCORE.SYSTEM.norm>
0

>  <SCORE.heavy>
14

>  <SCORE.norm>
-0.337272

>  <RMSD>
14.124

$$$$
ligand
 OpenBabel11021811463D
libRbt.so/2013.1/901 2013/11/27
 14 13  0  0  0  0  0  0  0  0999 V2000
    3.9514   12.2706   -1.8460 N   0  0  0  0  0  0  0  0  0  0  0  0
    4.4552   13.6492   -1.9062 C   0  0  0  0  0  0  0  0  0  0  0  0
    4.9432   14.0690   -0.5235 C   0  0  0  0  0  0  0  0  0  0  0  0
    6.1943   13.2745   -0.1868 C   0  0  0  0  0  0  0  0  0  0  0  0
    6.5656   13.5379    1.2081 N   0  0  0  0  0  0  0  0  0  0  0  0
    7.2992   12.3541    1.6889 C   0  0  0  0  0  0  0  0  0  0  0  0
    6.6510   11.7989    2.9624 C   0  0  0  0  0  0  0  0  0  0  0  0
    5.2935   11.1873    2.5847 C   0  0  0  0  0  0  0  0  0  0  0  0
    5.4877    9.8603    1.9781 C   0  0  0  0  0  0  0  0  0  0  0  0
    5.9420    8.9448    3.0446 N   0  0  0  0  0  0  0  0  0  0  0  0
    6.1077    7.5261    2.4883 C   0  0  0  0  0  0  0  0  0  0  0  0
    6.5258    6.5753    3.6165 C   0  0  0  0  0  0  0  0  0  0  0  0
    5.4358    6.4658    4.6052 C   0  0  0  0  0  0  0  0  0  0  0  0
    4.3087    5.7070    4.0217 N   0  0  0  0  0  0  0  0  0  0  0  0
  1  2  1  0  0  0  0
  2  3  1  0  0  0  0
  3  4  1  0  0  0  0
  4  5  1  0  0  0  0
  5  6  1  0  0  0  0
  6  7  1  0  0  0  0
  7  8  1  0  0  0  0
  8  9  1  0  0  0  0
  9 10  1  0  0  0  0
 10 11  1  0  0  0  0
 11 12  1  0  0  0  0
 12 13  1  0  0  0  0
 13 14  1  0  0  0  0
M  END
>  <CHROM.1>
68.79859687,-172.44848854,153.19150077,-125.11249364,69.54527544,78.39760541
69.99626269,177.66170735,-177.77916787,65.48057984,70.65822600,5.65455183
10.51594054,1.69546423,1.61650416,-0.83623465,-0.54399066

>  <Name>
ligand

>  <RI>
0

>  <Rbt.Current_Directory>
/home/itssahil/PROJECTS/Mol_Feturizer/New_Systems/rnas/2O3Y

>  <Rbt.Executable>
rbdock ($Id: //depot/dev/client3/rdock/2013.1/src/exe/rbdock.cxx#4 $)

>  <Rbt.Library>
libRbt.so (2013.1, Build901 2013/11/27)

>  <Rbt.Parameter_File>
/export/apps/rDock/src/rDock_2013.1_src/data/scripts/dock_solv.prm

>  <Rbt.Receptor>
prm/blind_docking_20.prm

>  <SCORE>
-3.93421

>  <SCORE.INTER>
3.52985

>  <SCORE.INTER.CONST>
1

>  <SCORE.INTER.POLAR>
0

>  <SCORE.INTER.ROT>
11

>  <SCORE.INTER.SOLV>
9.11173

>  <SCORE.INTER.VDW>
-11.6173

>  <SCORE.INTER.norm>
0.252132

>  <SCORE.INTRA>
-7.46407

>  <SCORE.INTRA.DIHEDRAL>
-19.383

>  <SCORE.INTRA.DIHEDRAL.0>
24.1231

>  <SCORE.INTRA.POLAR>
0

>  <SCORE.INTRA.POLAR.0>
0

>  <SCORE.INTRA.REPUL>
0

>  <SCORE.INTRA.REPUL.0>
0

>  <SCORE.INTRA.SOLV>
2.66344

>  <SCORE.INTRA.SOLV.lig_0>
-48.2216

>  <SCORE.INTRA.VDW>
0.895731

>  <SCORE.INTRA.VDW.0>
-1.3967

>  <SCORE.INTRA.norm>
-0.533148

>  <SCORE.RESTR>
0

>  <SCORE.RESTR.CAVITY>
0

>  <SCORE.RESTR.norm>
0

>  <SCORE.SYSTEM>
0

>  <SCORE.SYSTEM.CONST>
0

>  <SCORE.SYSTEM.DIHEDRAL>
0

>  <SCORE.SYSTEM.SOLV>
0

>  <SCORE.SYSTEM.norm>
0

>  <SCORE.heavy>
14

>  <SCORE.norm>
-0.281015

>  <RMSD>
14.148

$$$$
ligand
 OpenBabel11021811463D
libRbt.so/2013.1/901 2013/11/27
 14 13  0  0  0  0  0  0  0  0999 V2000
   18.5060   -1.4975   15.6744 N   0  0  0  0  0  0  0  0  0  0  0  0
   18.0274   -2.1428   14.4445 C   0  0  0  0  0  0  0  0  0  0  0  0
   19.1367   -3.0170   13.8687 C   0  0  0  0  0  0  0  0  0  0  0  0
   18.6533   -3.6166   12.5584 C   0  0  0  0  0  0  0  0  0  0  0  0
   18.3822   -2.5316   11.6087 N   0  0  0  0  0  0  0  0  0  0  0  0
   17.4614   -3.0697   10.5921 C   0  0  0  0  0  0  0  0  0  0  0  0
   16.0825   -2.4106   10.7109 C   0  0  0  0  0  0  0  0  0  0  0  0
   15.5410   -2.6777   12.1234 C   0  0  0  0  0  0  0  0  0  0  0  0
   14.1037   -2.3651   12.1816 C   0  0  0  0  0  0  0  0  0  0  0  0
   13.9446   -0.9354   11.8464 N   0  0  0  0  0  0  0  0  0  0  0  0
   13.4280   -0.7832   10.4111 C   0  0  0  0  0  0  0  0  0  0  0  0
   11.8978   -0.8829   10.4004 C   0  0  0  0  0  0  0  0  0  0  0  0
   11.4117   -0.9328    9.0080 C   0  0  0  0  0  0  0  0  0  0  0  0
   11.9417   -2.1400    8.3385 N   0  0  0  0  0  0  0  0  0  0  0  0
  1  2  1  0  0  0  0
  2  3  1  0  0  0  0
  3  4  1  0  0  0  0
  4  5  1  0  0  0  0
  5  6  1  0  0  0  0
  6  7  1  0  0  0  0
  7  8  1  0  0  0  0
  8  9  1  0  0  0  0
  9 10  1  0  0  0  0
 10 11  1  0  0  0  0
 11 12  1  0  0  0  0
 12 13  1  0  0  0  0
 13 14  1  0  0  0  0
M  END
>  <CHROM.1>
-176.94057412,62.18699966,-158.70911091,111.72038268,-58.76870635,-165.90668619
-60.36888763,103.50592730,85.46902964,-171.86933864,62.07884769,15.60839820
-2.07174832,11.69757927,0.45423349,-0.39408458,1.21363567

>  <Name>
ligand

>  <RI>
0

>  <Rbt.Current_Directory>
/home/itssahil/PROJECTS/Mol_Feturizer/New_Systems/rnas/2O3Y

>  <Rbt.Executable>
rbdock ($Id: //depot/dev/client3/rdock/2013.1/src/exe/rbdock.cxx#4 $)

>  <Rbt.Library>
libRbt.so (2013.1, Build901 2013/11/27)

>  <Rbt.Parameter_File>
/export/apps/rDock/src/rDock_2013.1_src/data/scripts/dock_solv.prm

>  <Rbt.Receptor>
prm/blind_docking_80.prm

>  <SCORE>
-2.14113

>  <SCORE.INTER>
5.09711

>  <SCORE.INTER.CONST>
1

>  <SCORE.INTER.POLAR>
0

>  <SCORE.INTER.ROT>
11

>  <SCORE.INTER.SOLV>
13.554

>  <SCORE.INTER.VDW>
-12.0533

>  <SCORE.INTER.norm>
0.364079

>  <SCORE.INTRA>
-7.24026

>  <SCORE.INTRA.DIHEDRAL>
-20.0757

>  <SCORE.INTRA.DIHEDRAL.0>
24.1231

>  <SCORE.INTRA.POLAR>
0

>  <SCORE.INTRA.POLAR.0>
0

>  <SCORE.INTRA.REPUL>
0

>  <SCORE.INTRA.REPUL.0>
0

>  <SCORE.INTRA.SOLV>
1.67476

>  <SCORE.INTRA.SOLV.lig_0>
-48.2216

>  <SCORE.INTRA.VDW>
1.9602

>  <SCORE.INTRA.VDW.0>
-1.3967

>  <SCORE.INTRA.norm>
-0.517162

>  <SCORE.RESTR>
0.0020246

>  <SCORE.RESTR.CAVITY>
0.0020246

>  <SCORE.RESTR.norm>
0.000144614

>  <SCORE.SYSTEM>
0

>  <SCORE.SYSTEM.CONST>
0

>  <SCORE.SYSTEM.DIHEDRAL>
0

>  <SCORE.SYSTEM.SOLV>
0

>  <SCORE.SYSTEM.norm>
0

>  <SCORE.heavy>
14

>  <SCORE.norm>
-0.152938

>  <RMSD>
14.169

$$$$
ligand
 OpenBabel11021811463D
libRbt.so/2013.1/901 2013/11/27
 14 13  0  0  0  0  0  0  0  0999 V2000
   12.0855   -1.8486    8.5362 N   0  0  0  0  0  0  0  0  0  0  0  0
   11.4128   -1.1789    9.6574 C   0  0  0  0  0  0  0  0  0  0  0  0
   12.4507   -0.4566   10.5101 C   0  0  0  0  0  0  0  0  0  0  0  0
   13.3540   -1.4927   11.1589 C   0  0  0  0  0  0  0  0  0  0  0  0
   14.3698   -0.8034   11.9625 N   0  0  0  0  0  0  0  0  0  0  0  0
   15.3978   -1.8018   12.3048 C   0  0  0  0  0  0  0  0  0  0  0  0
   16.7447   -1.1195   12.5699 C   0  0  0  0  0  0  0  0  0  0  0  0
   17.4932   -0.9954   11.2343 C   0  0  0  0  0  0  0  0  0  0  0  0
   18.0389   -2.3034   10.8368 C   0  0  0  0  0  0  0  0  0  0  0  0
   18.9622   -2.7437   11.9024 N   0  0  0  0  0  0  0  0  0  0  0  0
   18.4039   -3.9861   12.6056 C   0  0  0  0  0  0  0  0  0  0  0  0
   18.9700   -4.0716   14.0282 C   0  0  0  0  0  0  0  0  0  0  0  0
   18.4088   -2.9850   14.8538 C   0  0  0  0  0  0  0  0  0  0  0  0
   19.0993   -1.7152   14.5419 N   0  0  0  0  0  0  0  0  0  0  0  0
  1  2  1  0  0  0  0
  2  3  1  0  0  0  0
  3  4  1  0  0  0  0
  4  5  1  0  0  0  0
  5  6  1  0  0  0  0
  6  7  1  0  0  0  0
  7  8  1  0  0  0  0
  8  9  1  0  0  0  0
  9 10  1  0  0  0  0
 10 11  1  0  0  0  0
 11 12  1  0  0  0  0
 12 13  1  0  0  0  0
 13 14  1  0  0  0  0
M  END
>  <CHROM.1>
-66.03517609,179.02556709,-166.86049068,154.70096897,-88.25622817,-75.43391996
-59.78905849,113.52782768,-154.92146026,69.17269535,-77.96279139,16.08509482
-1.96450061,11.90741813,-2.72917744,-0.37603881,1.32768594

>  <Name>
ligand

>  <RI>
0

>  <Rbt.Current_Directory>
/home/itssahil/PROJECTS/Mol_Feturizer/New_Systems/rnas/2O3Y

>  <Rbt.Executable>
rbdock ($Id: //depot/dev/client3/rdock/2013.1/src/exe/rbdock.cxx#4 $)

>  <Rbt.Library>
libRbt.so (2013.1, Build901 2013/11/27)

>  <Rbt.Parameter_File>
/export/apps/rDock/src/rDock_2013.1_src/data/scripts/dock_solv.prm

>  <Rbt.Receptor>
prm/blind_docking_80.prm

>  <SCORE>
-3.82672

>  <SCORE.INTER>
0.702157

>  <SCORE.INTER.CONST>
1

>  <SCORE.INTER.POLAR>
0

>  <SCORE.INTER.ROT>
11

>  <SCORE.INTER.SOLV>
10.5269

>  <SCORE.INTER.VDW>
-13.9742

>  <SCORE.INTER.norm>
0.0501541

>  <SCORE.INTRA>
-4.52888

>  <SCORE.INTRA.DIHEDRAL>
-16.8795

>  <SCORE.INTRA.DIHEDRAL.0>
24.1231

>  <SCORE.INTRA.POLAR>
0

>  <SCORE.INTRA.POLAR.0>
0

>  <SCORE.INTRA.REPUL>
0

>  <SCORE.INTRA.REPUL.0>
0

>  <SCORE.INTRA.SOLV>
5.94358

>  <SCORE.INTRA.SOLV.lig_0>
-48.2216

>  <SCORE.INTRA.VDW>
0.939084

>  <SCORE.INTRA.VDW.0>
-1.3967

>  <SCORE.INTRA.norm>
-0.323491

>  <SCORE.RESTR>
0

>  <SCORE.RESTR.CAVITY>
0

>  <SCORE.RESTR.norm>
0

>  <SCORE.SYSTEM>
0

>  <SCORE.SYSTEM.CONST>
0

>  <SCORE.SYSTEM.DIHEDRAL>
0

>  <SCORE.SYSTEM.SOLV>
0

>  <SCORE.SYSTEM.norm>
0

>  <SCORE.heavy>
14

>  <SCORE.norm>
-0.273337

>  <RMSD>
14.171

$$$$
ligand
 OpenBabel11021811463D
libRbt.so/2013.1/901 2013/11/27
 14 13  0  0  0  0  0  0  0  0999 V2000
   17.6298   -4.8986   13.5166 N   0  0  0  0  0  0  0  0  0  0  0  0
   17.1947   -3.7696   14.3497 C   0  0  0  0  0  0  0  0  0  0  0  0
   18.4197   -3.0237   14.8686 C   0  0  0  0  0  0  0  0  0  0  0  0
   19.1065   -2.3411   13.6970 C   0  0  0  0  0  0  0  0  0  0  0  0
   18.1834   -1.3661   13.1053 N   0  0  0  0  0  0  0  0  0  0  0  0
   18.5052   -1.2853   11.6698 C   0  0  0  0  0  0  0  0  0  0  0  0
   17.2606   -0.9066   10.8589 C   0  0  0  0  0  0  0  0  0  0  0  0
   16.3251   -2.1241   10.8153 C   0  0  0  0  0  0  0  0  0  0  0  0
   15.5322   -2.1974   12.0534 C   0  0  0  0  0  0  0  0  0  0  0  0
   14.6895   -0.9859   12.1153 N   0  0  0  0  0  0  0  0  0  0  0  0
   13.2874   -1.2890   11.5749 C   0  0  0  0  0  0  0  0  0  0  0  0
   13.2883   -1.1754   10.0456 C   0  0  0  0  0  0  0  0  0  0  0  0
   11.9525   -1.5170    9.5200 C   0  0  0  0  0  0  0  0  0  0  0  0
   10.9688   -0.5068    9.9655 N   0  0  0  0  0  0  0  0  0  0  0  0
  1  2  1  0  0  0  0
  2  3  1  0  0  0  0
  3  4  1  0  0  0  0
  4  5  1  0  0  0  0
  5  6  1  0  0  0  0
  6  7  1  0  0  0  0
  7  8  1  0  0  0  0
  8  9  1  0  0  0  0
  9 10  1  0  0  0  0
 10 11  1  0  0  0  0
 11 12  1  0  0  0  0
 12 13  1  0  0  0  0
 13 14  1  0  0  0  0
M  END
>  <CHROM.1>
68.21018710,61.92766827,-149.51553598,151.33043021,-73.04608816,81.76770918
62.92318908,96.54045901,-83.67607072,177.85829465,65.76219069,15.88189440
-1.95618789,12.01106995,0.55324915,0.19263056,2.35631197

>  <Name>
ligand

>  <RI>
0

>  <Rbt.Current_Directory>
/home/itssahil/PROJECTS/Mol_Feturizer/New_Systems/rnas/2O3Y

>  <Rbt.Executable>
rbdock ($Id: //depot/dev/client3/rdock/2013.1/src/exe/rbdock.cxx#4 $)

>  <Rbt.Library>
libRbt.so (2013.1, Build901 2013/11/27)

>  <Rbt.Parameter_File>
/export/apps/rDock/src/rDock_2013.1_src/data/scripts/dock_solv.prm

>  <Rbt.Receptor>
prm/blind_docking_80.prm

>  <SCORE>
-2.70407

>  <SCORE.INTER>
2.47628

>  <SCORE.INTER.CONST>
1

>  <SCORE.INTER.POLAR>
0

>  <SCORE.INTER.ROT>
11

>  <SCORE.INTER.SOLV>
14.7301

>  <SCORE.INTER.VDW>
-14.1925

>  <SCORE.INTER.norm>
0.176877

>  <SCORE.INTRA>
-5.18687

>  <SCORE.INTRA.DIHEDRAL>
-18.903

>  <SCORE.INTRA.DIHEDRAL.0>
24.1231

>  <SCORE.INTRA.POLAR>
0

>  <SCORE.INTRA.POLAR.0>
0

>  <SCORE.INTRA.REPUL>
0

>  <SCORE.INTRA.REPUL.0>
0

>  <SCORE.INTRA.SOLV>
5.18192

>  <SCORE.INTRA.SOLV.lig_0>
-48.2216

>  <SCORE.INTRA.VDW>
1.67369

>  <SCORE.INTRA.VDW.0>
-1.3967

>  <SCORE.INTRA.norm>
-0.370491

>  <SCORE.RESTR>
0.0065226

>  <SCORE.RESTR.CAVITY>
0.0065226

>  <SCORE.RESTR.norm>
0.0004659

>  <SCORE.SYSTEM>
0

>  <SCORE.SYSTEM.CONST>
0

>  <SCORE.SYSTEM.DIHEDRAL>
0

>  <SCORE.SYSTEM.SOLV>
0

>  <SCORE.SYSTEM.norm>
0

>  <SCORE.heavy>
14

>  <SCORE.norm>
-0.193148

>  <RMSD>
14.177

$$$$
ligand
 OpenBabel11021811463D
libRbt.so/2013.1/901 2013/11/27
 14 13  0  0  0  0  0  0  0  0999 V2000
   11.9434   -1.8447    7.4750 N   0  0  0  0  0  0  0  0  0  0  0  0
   12.5736   -1.4693    8.7478 C   0  0  0  0  0  0  0  0  0  0  0  0
   11.4907   -1.1169    9.7625 C   0  0  0  0  0  0  0  0  0  0  0  0
   12.1591   -0.6727   11.0532 C   0  0  0  0  0  0  0  0  0  0  0  0
   12.5217   -1.8598   11.8356 N   0  0  0  0  0  0  0  0  0  0  0  0
   13.8671   -2.2697   11.3968 C   0  0  0  0  0  0  0  0  0  0  0  0
   14.9405   -1.4113   12.0758 C   0  0  0  0  0  0  0  0  0  0  0  0
   16.2874   -1.6961   11.3944 C   0  0  0  0  0  0  0  0  0  0  0  0
   17.3633   -0.9530   12.0703 C   0  0  0  0  0  0  0  0  0  0  0  0
   17.4730   -1.4799   13.4458 N   0  0  0  0  0  0  0  0  0  0  0  0
   18.9421   -1.5182   13.8817 C   0  0  0  0  0  0  0  0  0  0  0  0
   19.1669   -2.6988   14.8343 C   0  0  0  0  0  0  0  0  0  0  0  0
   18.9422   -3.9681   14.1161 C   0  0  0  0  0  0  0  0  0  0  0  0
   17.5075   -4.1060   13.7857 N   0  0  0  0  0  0  0  0  0  0  0  0
  1  2  1  0  0  0  0
  2  3  1  0  0  0  0
  3  4  1  0  0  0  0
  4  5  1  0  0  0  0
  5  6  1  0  0  0  0
  6  7  1  0  0  0  0
  7  8  1  0  0  0  0
  8  9  1  0  0  0  0
  9 10  1  0  0  0  0
 10 11  1  0  0  0  0
 11 12  1  0  0  0  0
 12 13  1  0  0  0  0
 13 14  1  0  0  0  0
M  END
>  <CHROM.1>
-177.54664728,-82.83407822,88.25268580,80.58101208,-169.53622522,-176.54370770
64.49290339,142.97220426,-147.79953851,64.87450285,-68.63602550,15.37010876
-1.93302178,11.84829686,-2.53977590,0.19201849,2.11140929

>  <Name>
ligand

>  <RI>
0

>  <Rbt.Current_Directory>
/home/itssahil/PROJECTS/Mol_Feturizer/New_Systems/rnas/2O3Y

>  <Rbt.Executable>
rbdock ($Id: //depot/dev/client3/rdock/2013.1/src/exe/rbdock.cxx#4 $)

>  <Rbt.Library>
libRbt.so (2013.1, Build901 2013/11/27)

>  <Rbt.Parameter_File>
/export/apps/rDock/src/rDock_2013.1_src/data/scripts/dock_solv.prm

>  <Rbt.Receptor>
prm/blind_docking_80.prm

>  <SCORE>
-3.65297

>  <SCORE.INTER>
1.32586

>  <SCORE.INTER.CONST>
1

>  <SCORE.INTER.POLAR>
0

>  <SCORE.INTER.ROT>
11

>  <SCORE.INTER.SOLV>
13.2354

>  <SCORE.INTER.VDW>
-14.4612

>  <SCORE.INTER.norm>
0.0947039

>  <SCORE.INTRA>
-4.97882

>  <SCORE.INTRA.DIHEDRAL>
-19.1091

>  <SCORE.INTRA.DIHEDRAL.0>
24.1231

>  <SCORE.INTRA.POLAR>
0

>  <SCORE.INTRA.POLAR.0>
0

>  <SCORE.INTRA.REPUL>
0

>  <SCORE.INTRA.REPUL.0>
0

>  <SCORE.INTRA.SOLV>
4.65365

>  <SCORE.INTRA.SOLV.lig_0>
-48.2216

>  <SCORE.INTRA.VDW>
2.2489

>  <SCORE.INTRA.VDW.0>
-1.3967

>  <SCORE.INTRA.norm>
-0.35563

>  <SCORE.RESTR>
0

>  <SCORE.RESTR.CAVITY>
0

>  <SCORE.RESTR.norm>
0

>  <SCORE.SYSTEM>
0

>  <SCORE.SYSTEM.CONST>
0

>  <SCORE.SYSTEM.DIHEDRAL>
0

>  <SCORE.SYSTEM.SOLV>
0

>  <SCORE.SYSTEM.norm>
0

>  <SCORE.heavy>
14

>  <SCORE.norm>
-0.260926

>  <RMSD>
14.191

$$$$
ligand
 OpenBabel11021811463D
libRbt.so/2013.1/901 2013/11/27
 14 13  0  0  0  0  0  0  0  0999 V2000
   19.1089   -1.0180   13.9246 N   0  0  0  0  0  0  0  0  0  0  0  0
   18.8372   -1.6459   15.2247 C   0  0  0  0  0  0  0  0  0  0  0  0
   18.6202   -3.1425   15.0269 C   0  0  0  0  0  0  0  0  0  0  0  0
   17.3743   -3.3461   14.1804 C   0  0  0  0  0  0  0  0  0  0  0  0
   17.6881   -3.0213   12.7843 N   0  0  0  0  0  0  0  0  0  0  0  0
   16.7646   -1.9491   12.3741 C   0  0  0  0  0  0  0  0  0  0  0  0
   17.0250   -1.5406   10.9197 C   0  0  0  0  0  0  0  0  0  0  0  0
   16.7021   -2.7407   10.0170 C   0  0  0  0  0  0  0  0  0  0  0  0
   15.2782   -2.7246    9.6441 C   0  0  0  0  0  0  0  0  0  0  0  0
   14.4937   -2.9823   10.8688 N   0  0  0  0  0  0  0  0  0  0  0  0
   13.0454   -2.5185   10.6764 C   0  0  0  0  0  0  0  0  0  0  0  0
   12.9645   -0.9965   10.8449 C   0  0  0  0  0  0  0  0  0  0  0  0
   11.6139   -0.5262   10.4815 C   0  0  0  0  0  0  0  0  0  0  0  0
   11.3862   -0.7351    9.0354 N   0  0  0  0  0  0  0  0  0  0  0  0
  1  2  1  0  0  0  0
  2  3  1  0  0  0  0
  3  4  1  0  0  0  0
  4  5  1  0  0  0  0
  5  6  1  0  0  0  0
  6  7  1  0  0  0  0
  7  8  1  0  0  0  0
  8  9  1  0  0  0  0
  9 10  1  0  0  0  0
 10 11  1  0  0  0  0
 11 12  1  0  0  0  0
 12 13  1  0  0  0  0
 13 14  1  0  0  0  0
M  END
>  <CHROM.1>
-64.13398171,75.23728983,-121.78561099,179.82712927,64.44041516,88.14670350
-67.47522993,160.77940985,-78.90962462,172.36712020,-66.51213060,15.77878871
-2.06343712,11.85742821,0.52500116,-0.37051986,1.23225969

>  <Name>
ligand

>  <RI>
0

>  <Rbt.Current_Directory>
/home/itssahil/PROJECTS/Mol_Feturizer/New_Systems/rnas/2O3Y

>  <Rbt.Executable>
rbdock ($Id: //depot/dev/client3/rdock/2013.1/src/exe/rbdock.cxx#4 $)

>  <Rbt.Library>
libRbt.so (2013.1, Build901 2013/11/27)

>  <Rbt.Parameter_File>
/export/apps/rDock/src/rDock_2013.1_src/data/scripts/dock_solv.prm

>  <Rbt.Receptor>
prm/blind_docking_80.prm

>  <SCORE>
-2.9431

>  <SCORE.INTER>
1.15199

>  <SCORE.INTER.CONST>
1

>  <SCORE.INTER.POLAR>
0

>  <SCORE.INTER.ROT>
11

>  <SCORE.INTER.SOLV>
8.72552

>  <SCORE.INTER.VDW>
-13.0738

>  <SCORE.INTER.norm>
0.0822853

>  <SCORE.INTRA>
-4.11778

>  <SCORE.INTRA.DIHEDRAL>
-18.0557

>  <SCORE.INTRA.DIHEDRAL.0>
24.1231

>  <SCORE.INTRA.POLAR>
0

>  <SCORE.INTRA.POLAR.0>
0

>  <SCORE.INTRA.REPUL>
0

>  <SCORE.INTRA.REPUL.0>
0

>  <SCORE.INTRA.SOLV>
6.63112

>  <SCORE.INTRA.SOLV.lig_0>
-48.2216

>  <SCORE.INTRA.VDW>
1.59451

>  <SCORE.INTRA.VDW.0>
-1.3967

>  <SCORE.INTRA.norm>
-0.294127

>  <SCORE.RESTR>
0.0226892

>  <SCORE.RESTR.CAVITY>
0.0226892

>  <SCORE.RESTR.norm>
0.00162066

>  <SCORE.SYSTEM>
0

>  <SCORE.SYSTEM.CONST>
0

>  <SCORE.SYSTEM.DIHEDRAL>
0

>  <SCORE.SYSTEM.SOLV>
0

>  <SCORE.SYSTEM.norm>
0

>  <SCORE.heavy>
14

>  <SCORE.norm>
-0.210221

>  <RMSD>
14.196

$$$$
ligand
 OpenBabel11021811463D
libRbt.so/2013.1/901 2013/11/27
 14 13  0  0  0  0  0  0  0  0999 V2000
   17.8753   -3.8754   14.1994 N   0  0  0  0  0  0  0  0  0  0  0  0
   19.0889   -3.3693   14.8545 C   0  0  0  0  0  0  0  0  0  0  0  0
   19.0550   -1.8446   14.8712 C   0  0  0  0  0  0  0  0  0  0  0  0
   19.1405   -1.3401   13.4400 C   0  0  0  0  0  0  0  0  0  0  0  0
   17.8564   -1.5808   12.7720 N   0  0  0  0  0  0  0  0  0  0  0  0
   18.1573   -1.9129   11.3685 C   0  0  0  0  0  0  0  0  0  0  0  0
   16.8976   -2.4104   10.6503 C   0  0  0  0  0  0  0  0  0  0  0  0
   15.8021   -1.3449   10.8054 C   0  0  0  0  0  0  0  0  0  0  0  0
   14.4909   -1.9121   10.4510 C   0  0  0  0  0  0  0  0  0  0  0  0
   13.4540   -1.0040   10.9819 N   0  0  0  0  0  0  0  0  0  0  0  0
   12.0596   -1.5879   10.7283 C   0  0  0  0  0  0  0  0  0  0  0  0
   11.3983   -0.8537    9.5556 C   0  0  0  0  0  0  0  0  0  0  0  0
   12.1386   -1.1353    8.3105 C   0  0  0  0  0  0  0  0  0  0  0  0
   12.0033   -2.5664    7.9637 N   0  0  0  0  0  0  0  0  0  0  0  0
  1  2  1  0  0  0  0
  2  3  1  0  0  0  0
  3  4  1  0  0  0  0
  4  5  1  0  0  0  0
  5  6  1  0  0  0  0
  6  7  1  0  0  0  0
  7  8  1  0  0  0  0
  8  9  1  0  0  0  0
  9 10  1  0  0  0  0
 10 11  1  0  0  0  0
 11 12  1  0  0  0  0
 12 13  1  0  0  0  0
 13 14  1  0  0  0  0
M  END
>  <CHROM.1>
-65.89462582,73.55528305,-144.76576641,170.45388442,55.10880000,-165.18200722
163.79213242,-176.17643301,-103.49155470,66.21007431,66.15938036,15.67286123
-1.90969485,11.49659011,0.62987295,-0.01355704,1.74947625

>  <Name>
ligand

>  <RI>
0

>  <Rbt.Current_Directory>
/home/itssahil/PROJECTS/Mol_Feturizer/New_Systems/rnas/2O3Y

>  <Rbt.Executable>
rbdock ($Id: //depot/dev/client3/rdock/2013.1/src/exe/rbdock.cxx#4 $)

>  <Rbt.Library>
libRbt.so (2013.1, Build901 2013/11/27)

>  <Rbt.Parameter_File>
/export/apps/rDock/src/rDock_2013.1_src/data/scripts/dock_solv.prm

>  <Rbt.Receptor>
prm/blind_docking_80.prm

>  <SCORE>
-2.88982

>  <SCORE.INTER>
2.69778

>  <SCORE.INTER.CONST>
1

>  <SCORE.INTER.POLAR>
0

>  <SCORE.INTER.ROT>
11

>  <SCORE.INTER.SOLV>
11.0198

>  <SCORE.INTER.VDW>
-12.8081

>  <SCORE.INTER.norm>
0.192699

>  <SCORE.INTRA>
-5.61659

>  <SCORE.INTRA.DIHEDRAL>
-19.3007

>  <SCORE.INTRA.DIHEDRAL.0>
24.1231

>  <SCORE.INTRA.POLAR>
0

>  <SCORE.INTRA.POLAR.0>
0

>  <SCORE.INTRA.REPUL>
0

>  <SCORE.INTRA.REPUL.0>
0

>  <SCORE.INTRA.SOLV>
6.19574

>  <SCORE.INTRA.SOLV.lig_0>
-48.2216

>  <SCORE.INTRA.VDW>
0.935876

>  <SCORE.INTRA.VDW.0>
-1.3967

>  <SCORE.INTRA.norm>
-0.401185

>  <SCORE.RESTR>
0.0289899

>  <SCORE.RESTR.CAVITY>
0.0289899

>  <SCORE.RESTR.norm>
0.00207071

>  <SCORE.SYSTEM>
0

>  <SCORE.SYSTEM.CONST>
0

>  <SCORE.SYSTEM.DIHEDRAL>
0

>  <SCORE.SYSTEM.SOLV>
0

>  <SCORE.SYSTEM.norm>
0

>  <SCORE.heavy>
14

>  <SCORE.norm>
-0.206416

>  <RMSD>
14.224

$$$$
ligand
 OpenBabel11021811463D
libRbt.so/2013.1/901 2013/11/27
 14 13  0  0  0  0  0  0  0  0999 V2000
   18.8410   -2.3502   10.4359 N   0  0  0  0  0  0  0  0  0  0  0  0
   18.4786   -0.9920   10.8626 C   0  0  0  0  0  0  0  0  0  0  0  0
   17.5870   -1.0720   12.0975 C   0  0  0  0  0  0  0  0  0  0  0  0
   18.3899   -1.6733   13.2394 C   0  0  0  0  0  0  0  0  0  0  0  0
   17.4646   -2.1502   14.2735 N   0  0  0  0  0  0  0  0  0  0  0  0
   17.6016   -3.6161   14.3304 C   0  0  0  0  0  0  0  0  0  0  0  0
   16.2407   -4.2927   14.1301 C   0  0  0  0  0  0  0  0  0  0  0  0
   15.8032   -4.0734   12.6741 C   0  0  0  0  0  0  0  0  0  0  0  0
   15.0011   -2.8438   12.5667 C   0  0  0  0  0  0  0  0  0  0  0  0
   14.8449   -2.5375   11.1302 N   0  0  0  0  0  0  0  0  0  0  0  0
   13.3871   -2.1775   10.8219 C   0  0  0  0  0  0  0  0  0  0  0  0
   13.2972   -1.5351    9.4323 C   0  0  0  0  0  0  0  0  0  0  0  0
   11.8817   -1.3347    9.0668 C   0  0  0  0  0  0  0  0  0  0  0  0
   11.2578   -0.3725   10.0003 N   0  0  0  0  0  0  0  0  0  0  0  0
  1  2  1  0  0  0  0
  2  3  1  0  0  0  0
  3  4  1  0  0  0  0
  4  5  1  0  0  0  0
  5  6  1  0  0  0  0
  6  7  1  0  0  0  0
  7  8  1  0  0  0  0
  8  9  1  0  0  0  0
  9 10  1  0  0  0  0
 10 11  1  0  0  0  0
 11 12  1  0  0  0  0
 12 13  1  0  0  0  0
 13 14  1  0  0  0  0
M  END
>  <CHROM.1>
64.57207728,-162.03053991,114.61807157,-124.60837699,69.21659460,-91.07743201
168.67278172,134.29686039,166.16205137,173.31818890,64.01191626,15.71978781
-2.21591808,11.79025951,-0.55765043,-0.15721759,-0.95865776

>  <Name>
ligand

>  <RI>
0

>  <Rbt.Current_Directory>
/home/itssahil/PROJECTS/Mol_Feturizer/New_Systems/rnas/2O3Y

>  <Rbt.Executable>
rbdock ($Id: //depot/dev/client3/rdock/2013.1/src/exe/rbdock.cxx#4 $)

>  <Rbt.Library>
libRbt.so (2013.1, Build901 2013/11/27)

>  <Rbt.Parameter_File>
/export/apps/rDock/src/rDock_2013.1_src/data/scripts/dock_solv.prm

>  <Rbt.Receptor>
prm/blind_docking_80.prm

>  <SCORE>
-0.0815402

>  <SCORE.INTER>
5.01935

>  <SCORE.INTER.CONST>
1

>  <SCORE.INTER.POLAR>
0

>  <SCORE.INTER.ROT>
11

>  <SCORE.INTER.SOLV>
12.6373

>  <SCORE.INTER.VDW>
-11.7995

>  <SCORE.INTER.norm>
0.358525

>  <SCORE.INTRA>
-5.10089

>  <SCORE.INTRA.DIHEDRAL>
-15.114

>  <SCORE.INTRA.DIHEDRAL.0>
24.1231

>  <SCORE.INTRA.POLAR>
0

>  <SCORE.INTRA.POLAR.0>
0

>  <SCORE.INTRA.REPUL>
0

>  <SCORE.INTRA.REPUL.0>
0

>  <SCORE.INTRA.SOLV>
4.15362

>  <SCORE.INTRA.SOLV.lig_0>
-48.2216

>  <SCORE.INTRA.VDW>
0.379319

>  <SCORE.INTRA.VDW.0>
-1.3967

>  <SCORE.INTRA.norm>
-0.364349

>  <SCORE.RESTR>
0

>  <SCORE.RESTR.CAVITY>
0

>  <SCORE.RESTR.norm>
0

>  <SCORE.SYSTEM>
0

>  <SCORE.SYSTEM.CONST>
0

>  <SCORE.SYSTEM.DIHEDRAL>
0

>  <SCORE.SYSTEM.SOLV>
0

>  <SCORE.SYSTEM.norm>
0

>  <SCORE.heavy>
14

>  <SCORE.norm>
-0.0058243

>  <RMSD>
14.235

$$$$
ligand
 OpenBabel11021811463D
libRbt.so/2013.1/901 2013/11/27
 14 13  0  0  0  0  0  0  0  0999 V2000
   19.0022   -2.2368   14.6740 N   0  0  0  0  0  0  0  0  0  0  0  0
   18.2421   -3.3429   14.0766 C   0  0  0  0  0  0  0  0  0  0  0  0
   19.0007   -3.8820   12.8682 C   0  0  0  0  0  0  0  0  0  0  0  0
   19.0973   -2.7821   11.8237 C   0  0  0  0  0  0  0  0  0  0  0  0
   17.8001   -2.6478   11.1512 N   0  0  0  0  0  0  0  0  0  0  0  0
   17.2670   -1.3209   11.5059 C   0  0  0  0  0  0  0  0  0  0  0  0
   16.0881   -1.4554   12.4764 C   0  0  0  0  0  0  0  0  0  0  0  0
   14.8024   -1.6216   11.6526 C   0  0  0  0  0  0  0  0  0  0  0  0
   14.8202   -2.9103   10.9416 C   0  0  0  0  0  0  0  0  0  0  0  0
   13.5588   -3.0170   10.1805 N   0  0  0  0  0  0  0  0  0  0  0  0
   13.5970   -2.0889    8.9611 C   0  0  0  0  0  0  0  0  0  0  0  0
   12.1685   -1.6893    8.5721 C   0  0  0  0  0  0  0  0  0  0  0  0
   11.4699   -1.1318    9.7463 C   0  0  0  0  0  0  0  0  0  0  0  0
   12.1780    0.0771   10.2193 N   0  0  0  0  0  0  0  0  0  0  0  0
  1  2  1  0  0  0  0
  2  3  1  0  0  0  0
  3  4  1  0  0  0  0
  4  5  1  0  0  0  0
  5  6  1  0  0  0  0
  6  7  1  0  0  0  0
  7  8  1  0  0  0  0
  8  9  1  0  0  0  0
  9 10  1  0  0  0  0
 10 11  1  0  0  0  0
 11 12  1  0  0  0  0
 12 13  1  0  0  0  0
 13 14  1  0  0  0  0
M  END
>  <CHROM.1>
-63.11185066,-76.24286067,114.03945458,-108.15641376,-87.81097561,67.16485807
179.50226906,73.79880738,-153.54520203,53.31728210,61.13607783,15.64945695
-2.14648596,11.34630110,0.30547788,-0.47558358,0.97968598

>  <Name>
ligand

>  <RI>
0

>  <Rbt.Current_Directory>
/home/itssahil/PROJECTS/Mol_Feturizer/New_Systems/rnas/2O3Y

>  <Rbt.Executable>
rbdock ($Id: //depot/dev/client3/rdock/2013.1/src/exe/rbdock.cxx#4 $)

>  <Rbt.Library>
libRbt.so (2013.1, Build901 2013/11/27)

>  <Rbt.Parameter_File>
/export/apps/rDock/src/rDock_2013.1_src/data/scripts/dock_solv.prm

>  <Rbt.Receptor>
prm/blind_docking_80.prm

>  <SCORE>
3.40331

>  <SCORE.INTER>
5.97592

>  <SCORE.INTER.CONST>
1

>  <SCORE.INTER.POLAR>
0

>  <SCORE.INTER.ROT>
11

>  <SCORE.INTER.SOLV>
11.773

>  <SCORE.INTER.VDW>
-10.8737

>  <SCORE.INTER.norm>
0.426852

>  <SCORE.INTRA>
-2.57395

>  <SCORE.INTRA.DIHEDRAL>
-17.4184

>  <SCORE.INTRA.DIHEDRAL.0>
24.1231

>  <SCORE.INTRA.POLAR>
0

>  <SCORE.INTRA.POLAR.0>
0

>  <SCORE.INTRA.REPUL>
0

>  <SCORE.INTRA.REPUL.0>
0

>  <SCORE.INTRA.SOLV>
6.56176

>  <SCORE.INTRA.SOLV.lig_0>
-48.2216

>  <SCORE.INTRA.VDW>
2.85439

>  <SCORE.INTRA.VDW.0>
-1.3967

>  <SCORE.INTRA.norm>
-0.183853

>  <SCORE.RESTR>
0.00133547

>  <SCORE.RESTR.CAVITY>
0.00133547

>  <SCORE.RESTR.norm>
9.53904e-05

>  <SCORE.SYSTEM>
0

>  <SCORE.SYSTEM.CONST>
0

>  <SCORE.SYSTEM.DIHEDRAL>
0

>  <SCORE.SYSTEM.SOLV>
0

>  <SCORE.SYSTEM.norm>
0

>  <SCORE.heavy>
14

>  <SCORE.norm>
0.243094

>  <RMSD>
14.249

$$$$
ligand
 OpenBabel11021811463D
libRbt.so/2013.1/901 2013/11/27
 14 13  0  0  0  0  0  0  0  0999 V2000
   12.8690   -1.5297    7.1449 N   0  0  0  0  0  0  0  0  0  0  0  0
   13.0222   -2.4798    8.2548 C   0  0  0  0  0  0  0  0  0  0  0  0
   11.9804   -2.1762    9.3266 C   0  0  0  0  0  0  0  0  0  0  0  0
   12.2722   -0.8055    9.9147 C   0  0  0  0  0  0  0  0  0  0  0  0
   12.0583   -0.8536   11.3655 N   0  0  0  0  0  0  0  0  0  0  0  0
   13.3894   -0.8462   11.9971 C   0  0  0  0  0  0  0  0  0  0  0  0
   13.8304   -2.2733   12.3419 C   0  0  0  0  0  0  0  0  0  0  0  0
   15.1161   -2.5824   11.5603 C   0  0  0  0  0  0  0  0  0  0  0  0
   16.2144   -1.7244   12.0336 C   0  0  0  0  0  0  0  0  0  0  0  0
   17.4753   -2.2802   11.5017 N   0  0  0  0  0  0  0  0  0  0  0  0
   18.5497   -2.2944   12.5950 C   0  0  0  0  0  0  0  0  0  0  0  0
   18.2955   -3.4648   13.5527 C   0  0  0  0  0  0  0  0  0  0  0  0
   19.1020   -3.2913   14.7763 C   0  0  0  0  0  0  0  0  0  0  0  0
   18.6603   -2.0773   15.4958 N   0  0  0  0  0  0  0  0  0  0  0  0
  1  2  1  0  0  0  0
  2  3  1  0  0  0  0
  3  4  1  0  0  0  0
  4  5  1  0  0  0  0
  5  6  1  0  0  0  0
  6  7  1  0  0  0  0
  7  8  1  0  0  0  0
  8  9  1  0  0  0  0
  9 10  1  0  0  0  0
 10 11  1  0  0  0  0
 11 12  1  0  0  0  0
 12 13  1  0  0  0  0
 13 14  1  0  0  0  0
M  END
>  <CHROM.1>
-65.05981502,-139.74808863,105.97683310,-96.95297561,118.69505278,65.94320861
166.28223005,-135.91761413,77.24586701,-165.90891826,64.11721536,15.20248985
-2.04865991,11.56158019,-2.52060930,-0.31103972,1.39777715

>  <Name>
ligand

>  <RI>
0

>  <Rbt.Current_Directory>
/home/itssahil/PROJECTS/Mol_Feturizer/New_Systems/rnas/2O3Y

>  <Rbt.Executable>
rbdock ($Id: //depot/dev/client3/rdock/2013.1/src/exe/rbdock.cxx#4 $)

>  <Rbt.Library>
libRbt.so (2013.1, Build901 2013/11/27)

>  <Rbt.Parameter_File>
/export/apps/rDock/src/rDock_2013.1_src/data/scripts/dock_solv.prm

>  <Rbt.Receptor>
prm/blind_docking_80.prm

>  <SCORE>
4.29282

>  <SCORE.INTER>
6.30546

>  <SCORE.INTER.CONST>
1

>  <SCORE.INTER.POLAR>
0

>  <SCORE.INTER.ROT>
11

>  <SCORE.INTER.SOLV>
17.9635

>  <SCORE.INTER.VDW>
-12.7175

>  <SCORE.INTER.norm>
0.45039

>  <SCORE.INTRA>
-2.05522

>  <SCORE.INTRA.DIHEDRAL>
-9.64051

>  <SCORE.INTRA.DIHEDRAL.0>
24.1231

>  <SCORE.INTRA.POLAR>
0

>  <SCORE.INTRA.POLAR.0>
0

>  <SCORE.INTRA.REPUL>
0

>  <SCORE.INTRA.REPUL.0>
0

>  <SCORE.INTRA.SOLV>
1.52558

>  <SCORE.INTRA.SOLV.lig_0>
-48.2216

>  <SCORE.INTRA.VDW>
2.00225

>  <SCORE.INTRA.VDW.0>
-1.3967

>  <SCORE.INTRA.norm>
-0.146801

>  <SCORE.RESTR>
0.042579

>  <SCORE.RESTR.CAVITY>
0.042579

>  <SCORE.RESTR.norm>
0.00304135

>  <SCORE.SYSTEM>
0

>  <SCORE.SYSTEM.CONST>
0

>  <SCORE.SYSTEM.DIHEDRAL>
0

>  <SCORE.SYSTEM.SOLV>
0

>  <SCORE.SYSTEM.norm>
0

>  <SCORE.heavy>
14

>  <SCORE.norm>
0.30663

>  <RMSD>
14.252

$$$$
ligand
 OpenBabel11021811463D
libRbt.so/2013.1/901 2013/11/27
 14 13  0  0  0  0  0  0  0  0999 V2000
   17.2425   -5.0590   13.7069 N   0  0  0  0  0  0  0  0  0  0  0  0
   18.3152   -4.0579   13.6342 C   0  0  0  0  0  0  0  0  0  0  0  0
   18.2422   -3.1503   14.8578 C   0  0  0  0  0  0  0  0  0  0  0  0
   19.1318   -1.9410   14.6206 C   0  0  0  0  0  0  0  0  0  0  0  0
   18.4629   -1.0338   13.6811 N   0  0  0  0  0  0  0  0  0  0  0  0
   19.0939   -1.2355   12.3652 C   0  0  0  0  0  0  0  0  0  0  0  0
   18.0642   -1.0672   11.2421 C   0  0  0  0  0  0  0  0  0  0  0  0
   16.8979   -2.0305   11.5094 C   0  0  0  0  0  0  0  0  0  0  0  0
   15.7867   -1.7479   10.5863 C   0  0  0  0  0  0  0  0  0  0  0  0
   14.5859   -2.4279   11.1129 N   0  0  0  0  0  0  0  0  0  0  0  0
   13.8642   -1.5234   12.1183 C   0  0  0  0  0  0  0  0  0  0  0  0
   12.4108   -1.3164   11.6753 C   0  0  0  0  0  0  0  0  0  0  0  0
   12.3813   -0.6383   10.3651 C   0  0  0  0  0  0  0  0  0  0  0  0
   10.9814   -0.4909    9.9121 N   0  0  0  0  0  0  0  0  0  0  0  0
  1  2  1  0  0  0  0
  2  3  1  0  0  0  0
  3  4  1  0  0  0  0
  4  5  1  0  0  0  0
  5  6  1  0  0  0  0
  6  7  1  0  0  0  0
  7  8  1  0  0  0  0
  8  9  1  0  0  0  0
  9 10  1  0  0  0  0
 10 11  1  0  0  0  0
 11 12  1  0  0  0  0
 12 13  1  0  0  0  0
 13 14  1  0  0  0  0
M  END
>  <CHROM.1>
-167.07801539,75.25580399,-101.88148530,145.80051514,-55.37847370,170.62903251
-164.87643653,87.00783500,123.61701254,-62.06190492,177.60096938,16.10467430
-1.97988170,12.24198813,0.46272843,0.23784074,2.50201725

>  <Name>
ligand

>  <RI>
0

>  <Rbt.Current_Directory>
/home/itssahil/PROJECTS/Mol_Feturizer/New_Systems/rnas/2O3Y

>  <Rbt.Executable>
rbdock ($Id: //depot/dev/client3/rdock/2013.1/src/exe/rbdock.cxx#4 $)

>  <Rbt.Library>
libRbt.so (2013.1, Build901 2013/11/27)

>  <Rbt.Parameter_File>
/export/apps/rDock/src/rDock_2013.1_src/data/scripts/dock_solv.prm

>  <Rbt.Receptor>
prm/blind_docking_80.prm

>  <SCORE>
-5.61886

>  <SCORE.INTER>
1.58722

>  <SCORE.INTER.CONST>
1

>  <SCORE.INTER.POLAR>
0

>  <SCORE.INTER.ROT>
11

>  <SCORE.INTER.SOLV>
14.6793

>  <SCORE.INTER.VDW>
-14.7683

>  <SCORE.INTER.norm>
0.113373

>  <SCORE.INTRA>
-7.24982

>  <SCORE.INTRA.DIHEDRAL>
-18.0039

>  <SCORE.INTRA.DIHEDRAL.0>
24.1231

>  <SCORE.INTRA.POLAR>
0

>  <SCORE.INTRA.POLAR.0>
0

>  <SCORE.INTRA.REPUL>
0

>  <SCORE.INTRA.REPUL.0>
0

>  <SCORE.INTRA.SOLV>
1.44876

>  <SCORE.INTRA.SOLV.lig_0>
-48.2216

>  <SCORE.INTRA.VDW>
1.02777

>  <SCORE.INTRA.VDW.0>
-1.3967

>  <SCORE.INTRA.norm>
-0.517844

>  <SCORE.RESTR>
0.0437386

>  <SCORE.RESTR.CAVITY>
0.0437386

>  <SCORE.RESTR.norm>
0.00312418

>  <SCORE.SYSTEM>
0

>  <SCORE.SYSTEM.CONST>
0

>  <SCORE.SYSTEM.DIHEDRAL>
0

>  <SCORE.SYSTEM.SOLV>
0

>  <SCORE.SYSTEM.norm>
0

>  <SCORE.heavy>
14

>  <SCORE.norm>
-0.401347

>  <RMSD>
14.253

$$$$
ligand
 OpenBabel11021811463D
libRbt.so/2013.1/901 2013/11/27
 14 13  0  0  0  0  0  0  0  0999 V2000
   18.1956   -1.3977   15.8076 N   0  0  0  0  0  0  0  0  0  0  0  0
   19.0956   -1.8640   14.7443 C   0  0  0  0  0  0  0  0  0  0  0  0
   19.0975   -3.3890   14.7174 C   0  0  0  0  0  0  0  0  0  0  0  0
   17.7295   -3.8694   14.2613 C   0  0  0  0  0  0  0  0  0  0  0  0
   17.5412   -3.5048   12.8526 N   0  0  0  0  0  0  0  0  0  0  0  0
   16.1110   -3.1987   12.6750 C   0  0  0  0  0  0  0  0  0  0  0  0
   15.8923   -2.3600   11.4105 C   0  0  0  0  0  0  0  0  0  0  0  0
   14.3834   -2.1266   11.2423 C   0  0  0  0  0  0  0  0  0  0  0  0
   13.9479   -1.0033   12.0881 C   0  0  0  0  0  0  0  0  0  0  0  0
   12.4828   -0.8803   11.9462 N   0  0  0  0  0  0  0  0  0  0  0  0
   12.1317   -0.3005   10.5713 C   0  0  0  0  0  0  0  0  0  0  0  0
   11.8445   -1.4419    9.5883 C   0  0  0  0  0  0  0  0  0  0  0  0
   11.9144   -0.9362    8.2038 C   0  0  0  0  0  0  0  0  0  0  0  0
   12.0306   -2.0720    7.2641 N   0  0  0  0  0  0  0  0  0  0  0  0
  1  2  1  0  0  0  0
  2  3  1  0  0  0  0
  3  4  1  0  0  0  0
  4  5  1  0  0  0  0
  5  6  1  0  0  0  0
  6  7  1  0  0  0  0
  7  8  1  0  0  0  0
  8  9  1  0  0  0  0
  9 10  1  0  0  0  0
 10 11  1  0  0  0  0
 11 12  1  0  0  0  0
 12 13  1  0  0  0  0
 13 14  1  0  0  0  0
M  END
>  <CHROM.1>
67.65492779,67.98574165,-145.93355352,160.40797515,177.46197827,82.13590151
-176.66292232,-72.90717401,94.49964321,-162.78789293,163.69582568,15.17132752
-2.02462240,11.95519971,0.44972177,-0.59434208,0.98698054

>  <Name>
ligand

>  <RI>
0

>  <Rbt.Current_Directory>
/home/itssahil/PROJECTS/Mol_Feturizer/New_Systems/rnas/2O3Y

>  <Rbt.Executable>
rbdock ($Id: //depot/dev/client3/rdock/2013.1/src/exe/rbdock.cxx#4 $)

>  <Rbt.Library>
libRbt.so (2013.1, Build901 2013/11/27)

>  <Rbt.Parameter_File>
/export/apps/rDock/src/rDock_2013.1_src/data/scripts/dock_solv.prm

>  <Rbt.Receptor>
prm/blind_docking_80.prm

>  <SCORE>
-1.85661

>  <SCORE.INTER>
3.89173

>  <SCORE.INTER.CONST>
1

>  <SCORE.INTER.POLAR>
0

>  <SCORE.INTER.ROT>
11

>  <SCORE.INTER.SOLV>
17.8663

>  <SCORE.INTER.VDW>
-14.2943

>  <SCORE.INTER.norm>
0.277981

>  <SCORE.INTRA>
-5.93549

>  <SCORE.INTRA.DIHEDRAL>
-17.8841

>  <SCORE.INTRA.DIHEDRAL.0>
24.1231

>  <SCORE.INTRA.POLAR>
0

>  <SCORE.INTRA.POLAR.0>
0

>  <SCORE.INTRA.REPUL>
0

>  <SCORE.INTRA.REPUL.0>
0

>  <SCORE.INTRA.SOLV>
1.41709

>  <SCORE.INTRA.SOLV.lig_0>
-48.2216

>  <SCORE.INTRA.VDW>
2.29803

>  <SCORE.INTRA.VDW.0>
-1.3967

>  <SCORE.INTRA.norm>
-0.423963

>  <SCORE.RESTR>
0.187144

>  <SCORE.RESTR.CAVITY>
0.187144

>  <SCORE.RESTR.norm>
0.0133674

>  <SCORE.SYSTEM>
0

>  <SCORE.SYSTEM.CONST>
0

>  <SCORE.SYSTEM.DIHEDRAL>
0

>  <SCORE.SYSTEM.SOLV>
0

>  <SCORE.SYSTEM.norm>
0

>  <SCORE.heavy>
14

>  <SCORE.norm>
-0.132615

>  <RMSD>
14.257

$$$$
ligand
 OpenBabel11021811463D
libRbt.so/2013.1/901 2013/11/27
 14 13  0  0  0  0  0  0  0  0999 V2000
   19.0928   -0.9485   13.5157 N   0  0  0  0  0  0  0  0  0  0  0  0
   18.1559   -1.9666   14.0096 C   0  0  0  0  0  0  0  0  0  0  0  0
   18.6552   -3.3501   13.6059 C   0  0  0  0  0  0  0  0  0  0  0  0
   17.5685   -4.3680   13.9113 C   0  0  0  0  0  0  0  0  0  0  0  0
   16.5039   -4.2442   12.9091 N   0  0  0  0  0  0  0  0  0  0  0  0
   15.3950   -3.5138   13.5475 C   0  0  0  0  0  0  0  0  0  0  0  0
   14.4818   -2.8868   12.4879 C   0  0  0  0  0  0  0  0  0  0  0  0
   15.3089   -1.8811   11.6731 C   0  0  0  0  0  0  0  0  0  0  0  0
   14.5116   -1.3631   10.5494 C   0  0  0  0  0  0  0  0  0  0  0  0
   13.4692   -0.4806   11.1119 N   0  0  0  0  0  0  0  0  0  0  0  0
   12.1106   -1.1902   11.0957 C   0  0  0  0  0  0  0  0  0  0  0  0
   11.2565   -0.6430    9.9456 C   0  0  0  0  0  0  0  0  0  0  0  0
   11.9075   -0.9422    8.6557 C   0  0  0  0  0  0  0  0  0  0  0  0
   11.9420   -2.4051    8.4428 N   0  0  0  0  0  0  0  0  0  0  0  0
  1  2  1  0  0  0  0
  2  3  1  0  0  0  0
  3  4  1  0  0  0  0
  4  5  1  0  0  0  0
  5  6  1  0  0  0  0
  6  7  1  0  0  0  0
  7  8  1  0  0  0  0
  8  9  1  0  0  0  0
  9 10  1  0  0  0  0
 10 11  1  0  0  0  0
 11 12  1  0  0  0  0
 12 13  1  0  0  0  0
 13 14  1  0  0  0  0
M  END
>  <CHROM.1>
-170.46507486,74.63658525,-102.65950847,159.05603849,-61.74504485,173.81652628
70.79428006,-104.30755623,-103.38571443,63.06716211,65.20433577,15.02558037
-2.15602072,11.81878542,-0.39826376,-0.51974603,-0.29826088

>  <Name>
ligand

>  <RI>
0

>  <Rbt.Current_Directory>
/home/itssahil/PROJECTS/Mol_Feturizer/New_Systems/rnas/2O3Y

>  <Rbt.Executable>
rbdock ($Id: //depot/dev/client3/rdock/2013.1/src/exe/rbdock.cxx#4 $)

>  <Rbt.Library>
libRbt.so (2013.1, Build901 2013/11/27)

>  <Rbt.Parameter_File>
/export/apps/rDock/src/rDock_2013.1_src/data/scripts/dock_solv.prm

>  <Rbt.Receptor>
prm/blind_docking_80.prm

>  <SCORE>
-3.12131

>  <SCORE.INTER>
3.21024

>  <SCORE.INTER.CONST>
1

>  <SCORE.INTER.POLAR>
0

>  <SCORE.INTER.ROT>
11

>  <SCORE.INTER.SOLV>
10.0496

>  <SCORE.INTER.VDW>
-12.143

>  <SCORE.INTER.norm>
0.229303

>  <SCORE.INTRA>
-6.33766

>  <SCORE.INTRA.DIHEDRAL>
-18.9868

>  <SCORE.INTRA.DIHEDRAL.0>
24.1231

>  <SCORE.INTRA.POLAR>
0

>  <SCORE.INTRA.POLAR.0>
0

>  <SCORE.INTRA.REPUL>
0

>  <SCORE.INTRA.REPUL.0>
0

>  <SCORE.INTRA.SOLV>
3.58174

>  <SCORE.INTRA.SOLV.lig_0>
-48.2216

>  <SCORE.INTRA.VDW>
1.36486

>  <SCORE.INTRA.VDW.0>
-1.3967

>  <SCORE.INTRA.norm>
-0.45269

>  <SCORE.RESTR>
0.00610564

>  <SCORE.RESTR.CAVITY>
0.00610564

>  <SCORE.RESTR.norm>
0.000436117

>  <SCORE.SYSTEM>
0

>  <SCORE.SYSTEM.CONST>
0

>  <SCORE.SYSTEM.DIHEDRAL>
0

>  <SCORE.SYSTEM.SOLV>
0

>  <SCORE.SYSTEM.norm>
0

>  <SCORE.heavy>
14

>  <SCORE.norm>
-0.222951

>  <RMSD>
14.259

$$$$
ligand
 OpenBabel11021811463D
libRbt.so/2013.1/901 2013/11/27
 14 13  0  0  0  0  0  0  0  0999 V2000
   18.8368   -1.0353   13.7438 N   0  0  0  0  0  0  0  0  0  0  0  0
   19.0871   -1.8225   14.9586 C   0  0  0  0  0  0  0  0  0  0  0  0
   18.3312   -3.1442   14.8682 C   0  0  0  0  0  0  0  0  0  0  0  0
   18.9134   -3.9608   13.7261 C   0  0  0  0  0  0  0  0  0  0  0  0
   18.1632   -3.6679   12.4996 N   0  0  0  0  0  0  0  0  0  0  0  0
   19.0784   -2.9476   11.5972 C   0  0  0  0  0  0  0  0  0  0  0  0
   18.3089   -2.3501   10.4137 C   0  0  0  0  0  0  0  0  0  0  0  0
   17.2524   -1.3812   10.9657 C   0  0  0  0  0  0  0  0  0  0  0  0
   16.0235   -2.1149   11.3091 C   0  0  0  0  0  0  0  0  0  0  0  0
   15.0467   -1.1329   11.8222 N   0  0  0  0  0  0  0  0  0  0  0  0
   13.7318   -1.8338   12.1823 C   0  0  0  0  0  0  0  0  0  0  0  0
   12.9047   -2.0632   10.9115 C   0  0  0  0  0  0  0  0  0  0  0  0
   12.5122   -0.7644   10.3314 C   0  0  0  0  0  0  0  0  0  0  0  0
   11.6506   -0.9866    9.1504 N   0  0  0  0  0  0  0  0  0  0  0  0
  1  2  1  0  0  0  0
  2  3  1  0  0  0  0
  3  4  1  0  0  0  0
  4  5  1  0  0  0  0
  5  6  1  0  0  0  0
  6  7  1  0  0  0  0
  7  8  1  0  0  0  0
  8  9  1  0  0  0  0
  9 10  1  0  0  0  0
 10 11  1  0  0  0  0
 11 12  1  0  0  0  0
 12 13  1  0  0  0  0
 13 14  1  0  0  0  0
M  END
>  <CHROM.1>
65.25726992,-91.65235296,112.12019594,-168.43412248,59.64123153,-85.94252372
-179.58229994,179.25249832,-80.44558917,-64.60693282,-176.78807974,16.41739789
-2.08625983,12.03435792,0.47197834,-0.23275035,1.56994835

>  <Name>
ligand

>  <RI>
0

>  <Rbt.Current_Directory>
/home/itssahil/PROJECTS/Mol_Feturizer/New_Systems/rnas/2O3Y

>  <Rbt.Executable>
rbdock ($Id: //depot/dev/client3/rdock/2013.1/src/exe/rbdock.cxx#4 $)

>  <Rbt.Library>
libRbt.so (2013.1, Build901 2013/11/27)

>  <Rbt.Parameter_File>
/export/apps/rDock/src/rDock_2013.1_src/data/scripts/dock_solv.prm

>  <Rbt.Receptor>
prm/blind_docking_80.prm

>  <SCORE>
-2.55317

>  <SCORE.INTER>
1.50298

>  <SCORE.INTER.CONST>
1

>  <SCORE.INTER.POLAR>
0

>  <SCORE.INTER.ROT>
11

>  <SCORE.INTER.SOLV>
9.75971

>  <SCORE.INTER.VDW>
-13.1846

>  <SCORE.INTER.norm>
0.107356

>  <SCORE.INTRA>
-4.05615

>  <SCORE.INTRA.DIHEDRAL>
-16.9169

>  <SCORE.INTRA.DIHEDRAL.0>
24.1231

>  <SCORE.INTRA.POLAR>
0

>  <SCORE.INTRA.POLAR.0>
0

>  <SCORE.INTRA.REPUL>
0

>  <SCORE.INTRA.REPUL.0>
0

>  <SCORE.INTRA.SOLV>
6.4813

>  <SCORE.INTRA.SOLV.lig_0>
-48.2216

>  <SCORE.INTRA.VDW>
1.16166

>  <SCORE.INTRA.VDW.0>
-1.3967

>  <SCORE.INTRA.norm>
-0.289725

>  <SCORE.RESTR>
0

>  <SCORE.RESTR.CAVITY>
0

>  <SCORE.RESTR.norm>
0

>  <SCORE.SYSTEM>
0

>  <SCORE.SYSTEM.CONST>
0

>  <SCORE.SYSTEM.DIHEDRAL>
0

>  <SCORE.SYSTEM.SOLV>
0

>  <SCORE.SYSTEM.norm>
0

>  <SCORE.heavy>
14

>  <SCORE.norm>
-0.18237

>  <RMSD>
14.278

$$$$
ligand
 OpenBabel11021811463D
libRbt.so/2013.1/901 2013/11/27
 14 13  0  0  0  0  0  0  0  0999 V2000
   17.2178   -3.1924   14.3259 N   0  0  0  0  0  0  0  0  0  0  0  0
   18.6366   -3.1730   14.7063 C   0  0  0  0  0  0  0  0  0  0  0  0
   19.4911   -2.9772   13.4582 C   0  0  0  0  0  0  0  0  0  0  0  0
   19.4438   -1.5109   13.0610 C   0  0  0  0  0  0  0  0  0  0  0  0
   18.0756   -1.1709   12.6543 N   0  0  0  0  0  0  0  0  0  0  0  0
   18.0732   -1.0835   11.1835 C   0  0  0  0  0  0  0  0  0  0  0  0
   17.0449   -2.0519   10.5877 C   0  0  0  0  0  0  0  0  0  0  0  0
   15.6653   -1.7069   11.1684 C   0  0  0  0  0  0  0  0  0  0  0  0
   14.6389   -2.5915   10.5934 C   0  0  0  0  0  0  0  0  0  0  0  0
   14.5590   -2.3006    9.1474 N   0  0  0  0  0  0  0  0  0  0  0  0
   13.1878   -2.7132    8.6002 C   0  0  0  0  0  0  0  0  0  0  0  0
   12.3695   -1.4612    8.2618 C   0  0  0  0  0  0  0  0  0  0  0  0
   12.1530   -0.6625    9.4835 C   0  0  0  0  0  0  0  0  0  0  0  0
   11.4249   -1.4713   10.4847 N   0  0  0  0  0  0  0  0  0  0  0  0
  1  2  1  0  0  0  0
  2  3  1  0  0  0  0
  3  4  1  0  0  0  0
  4  5  1  0  0  0  0
  5  6  1  0  0  0  0
  6  7  1  0  0  0  0
  7  8  1  0  0  0  0
  8  9  1  0  0  0  0
  9 10  1  0  0  0  0
 10 11  1  0  0  0  0
 11 12  1  0  0  0  0
 12 13  1  0  0  0  0
 13 14  1  0  0  0  0
M  END
>  <CHROM.1>
77.66044854,-65.61116703,-104.28947572,122.73421799,57.86205876,178.46030216
-64.81606814,-156.53303928,109.12630210,-61.46124361,-59.71963218,15.85603695
-2.00477290,11.26528510,0.60333820,0.11812058,1.90181171

>  <Name>
ligand

>  <RI>
0

>  <Rbt.Current_Directory>
/home/itssahil/PROJECTS/Mol_Feturizer/New_Systems/rnas/2O3Y

>  <Rbt.Executable>
rbdock ($Id: //depot/dev/client3/rdock/2013.1/src/exe/rbdock.cxx#4 $)

>  <Rbt.Library>
libRbt.so (2013.1, Build901 2013/11/27)

>  <Rbt.Parameter_File>
/export/apps/rDock/src/rDock_2013.1_src/data/scripts/dock_solv.prm

>  <Rbt.Receptor>
prm/blind_docking_80.prm

>  <SCORE>
-0.73768

>  <SCORE.INTER>
3.90283

>  <SCORE.INTER.CONST>
1

>  <SCORE.INTER.POLAR>
0

>  <SCORE.INTER.ROT>
11

>  <SCORE.INTER.SOLV>
11.6002

>  <SCORE.INTER.VDW>
-12.1982

>  <SCORE.INTER.norm>
0.278773

>  <SCORE.INTRA>
-4.64051

>  <SCORE.INTRA.DIHEDRAL>
-19.0776

>  <SCORE.INTRA.DIHEDRAL.0>
24.1231

>  <SCORE.INTRA.POLAR>
0

>  <SCORE.INTRA.POLAR.0>
0

>  <SCORE.INTRA.REPUL>
0

>  <SCORE.INTRA.REPUL.0>
0

>  <SCORE.INTRA.SOLV>
7.49478

>  <SCORE.INTRA.SOLV.lig_0>
-48.2216

>  <SCORE.INTRA.VDW>
1.15088

>  <SCORE.INTRA.VDW.0>
-1.3967

>  <SCORE.INTRA.norm>
-0.331465

>  <SCORE.RESTR>
0

>  <SCORE.RESTR.CAVITY>
0

>  <SCORE.RESTR.norm>
0

>  <SCORE.SYSTEM>
0

>  <SCORE.SYSTEM.CONST>
0

>  <SCORE.SYSTEM.DIHEDRAL>
0

>  <SCORE.SYSTEM.SOLV>
0

>  <SCORE.SYSTEM.norm>
0

>  <SCORE.heavy>
14

>  <SCORE.norm>
-0.0526915

>  <RMSD>
14.279

$$$$
ligand
 OpenBabel11021811463D
libRbt.so/2013.1/901 2013/11/27
 14 13  0  0  0  0  0  0  0  0999 V2000
   11.8895   -1.8780    7.4959 N   0  0  0  0  0  0  0  0  0  0  0  0
   12.7111   -1.6241    8.6871 C   0  0  0  0  0  0  0  0  0  0  0  0
   11.8309   -1.0562    9.7956 C   0  0  0  0  0  0  0  0  0  0  0  0
   12.7061   -0.7364   10.9964 C   0  0  0  0  0  0  0  0  0  0  0  0
   13.3028   -1.9801   11.4963 N   0  0  0  0  0  0  0  0  0  0  0  0
   14.7205   -1.6942   11.7778 C   0  0  0  0  0  0  0  0  0  0  0  0
   15.5644   -1.8501   10.5076 C   0  0  0  0  0  0  0  0  0  0  0  0
   17.0471   -1.7775   10.9024 C   0  0  0  0  0  0  0  0  0  0  0  0
   17.4771   -3.0562   11.4911 C   0  0  0  0  0  0  0  0  0  0  0  0
   18.8025   -2.8404   12.1063 N   0  0  0  0  0  0  0  0  0  0  0  0
   18.9526   -3.7122   13.3582 C   0  0  0  0  0  0  0  0  0  0  0  0
   17.8709   -3.3390   14.3792 C   0  0  0  0  0  0  0  0  0  0  0  0
   17.9146   -1.8879   14.6432 C   0  0  0  0  0  0  0  0  0  0  0  0
   19.1444   -1.5551   15.3937 N   0  0  0  0  0  0  0  0  0  0  0  0
  1  2  1  0  0  0  0
  2  3  1  0  0  0  0
  3  4  1  0  0  0  0
  4  5  1  0  0  0  0
  5  6  1  0  0  0  0
  6  7  1  0  0  0  0
  7  8  1  0  0  0  0
  8  9  1  0  0  0  0
  9 10  1  0  0  0  0
 10 11  1  0  0  0  0
 11 12  1  0  0  0  0
 12 13  1  0  0  0  0
 13 14  1  0  0  0  0
M  END
>  <CHROM.1>
-177.29526253,-62.99166640,136.02668768,-85.20358009,-170.52487265,77.69528052
-168.19913491,146.38083518,-60.43759440,-53.78459206,-69.69007313,15.70958791
-2.07053539,11.64507686,-2.57036389,-0.35590070,1.31868968

>  <Name>
ligand

>  <RI>
0

>  <Rbt.Current_Directory>
/home/itssahil/PROJECTS/Mol_Feturizer/New_Systems/rnas/2O3Y

>  <Rbt.Executable>
rbdock ($Id: //depot/dev/client3/rdock/2013.1/src/exe/rbdock.cxx#4 $)

>  <Rbt.Library>
libRbt.so (2013.1, Build901 2013/11/27)

>  <Rbt.Parameter_File>
/export/apps/rDock/src/rDock_2013.1_src/data/scripts/dock_solv.prm

>  <Rbt.Receptor>
prm/blind_docking_80.prm

>  <SCORE>
-2.30418

>  <SCORE.INTER>
3.42924

>  <SCORE.INTER.CONST>
1

>  <SCORE.INTER.POLAR>
0

>  <SCORE.INTER.ROT>
11

>  <SCORE.INTER.SOLV>
12.1104

>  <SCORE.INTER.VDW>
-12.684

>  <SCORE.INTER.norm>
0.244946

>  <SCORE.INTRA>
-5.79186

>  <SCORE.INTRA.DIHEDRAL>
-19.339

>  <SCORE.INTRA.DIHEDRAL.0>
24.1231

>  <SCORE.INTRA.POLAR>
0

>  <SCORE.INTRA.POLAR.0>
0

>  <SCORE.INTRA.REPUL>
0

>  <SCORE.INTRA.REPUL.0>
0

>  <SCORE.INTRA.SOLV>
1.90669

>  <SCORE.INTRA.SOLV.lig_0>
-48.2216

>  <SCORE.INTRA.VDW>
2.92431

>  <SCORE.INTRA.VDW.0>
-1.3967

>  <SCORE.INTRA.norm>
-0.413704

>  <SCORE.RESTR>
0.0584339

>  <SCORE.RESTR.CAVITY>
0.0584339

>  <SCORE.RESTR.norm>
0.00417385

>  <SCORE.SYSTEM>
0

>  <SCORE.SYSTEM.CONST>
0

>  <SCORE.SYSTEM.DIHEDRAL>
0

>  <SCORE.SYSTEM.SOLV>
0

>  <SCORE.SYSTEM.norm>
0

>  <SCORE.heavy>
14

>  <SCORE.norm>
-0.164585

>  <RMSD>
14.286

$$$$
ligand
 OpenBabel11021811463D
libRbt.so/2013.1/901 2013/11/27
 14 13  0  0  0  0  0  0  0  0999 V2000
   18.9725   -1.1036   13.7804 N   0  0  0  0  0  0  0  0  0  0  0  0
   18.7922   -1.8034   15.0594 C   0  0  0  0  0  0  0  0  0  0  0  0
   19.0489   -3.2935   14.8600 C   0  0  0  0  0  0  0  0  0  0  0  0
   17.8799   -3.8906   14.0938 C   0  0  0  0  0  0  0  0  0  0  0  0
   17.8857   -3.3605   12.7257 N   0  0  0  0  0  0  0  0  0  0  0  0
   16.4994   -3.4299   12.2315 C   0  0  0  0  0  0  0  0  0  0  0  0
   15.7906   -2.0843   12.4237 C   0  0  0  0  0  0  0  0  0  0  0  0
   14.3362   -2.2344   11.9527 C   0  0  0  0  0  0  0  0  0  0  0  0
   13.6245   -0.9535   12.0927 C   0  0  0  0  0  0  0  0  0  0  0  0
   12.2543   -1.1461   11.5758 N   0  0  0  0  0  0  0  0  0  0  0  0
   12.0071   -0.2238   10.3766 C   0  0  0  0  0  0  0  0  0  0  0  0
   11.7096   -1.0666    9.1305 C   0  0  0  0  0  0  0  0  0  0  0  0
   12.9197   -1.8114    8.7324 C   0  0  0  0  0  0  0  0  0  0  0  0
   12.6462   -2.5846    7.5019 N   0  0  0  0  0  0  0  0  0  0  0  0
  1  2  1  0  0  0  0
  2  3  1  0  0  0  0
  3  4  1  0  0  0  0
  4  5  1  0  0  0  0
  5  6  1  0  0  0  0
  6  7  1  0  0  0  0
  7  8  1  0  0  0  0
  8  9  1  0  0  0  0
  9 10  1  0  0  0  0
 10 11  1  0  0  0  0
 11 12  1  0  0  0  0
 12 13  1  0  0  0  0
 13 14  1  0  0  0  0
M  END
>  <CHROM.1>
-72.87149376,68.07535057,-154.49782346,96.14061881,-177.42627152,-178.77184568
177.76885979,-118.21119889,118.36496573,-67.55907079,-177.91008893,15.31186065
-2.07045247,11.89570650,0.39261543,-0.56174133,0.93012846

>  <Name>
ligand

>  <RI>
0

>  <Rbt.Current_Directory>
/home/itssahil/PROJECTS/Mol_Feturizer/New_Systems/rnas/2O3Y

>  <Rbt.Executable>
rbdock ($Id: //depot/dev/client3/rdock/2013.1/src/exe/rbdock.cxx#4 $)

>  <Rbt.Library>
libRbt.so (2013.1, Build901 2013/11/27)

>  <Rbt.Parameter_File>
/export/apps/rDock/src/rDock_2013.1_src/data/scripts/dock_solv.prm

>  <Rbt.Receptor>
prm/blind_docking_80.prm

>  <SCORE>
-6.40752

>  <SCORE.INTER>
1.3258

>  <SCORE.INTER.CONST>
1

>  <SCORE.INTER.POLAR>
0

>  <SCORE.INTER.ROT>
11

>  <SCORE.INTER.SOLV>
11.308

>  <SCORE.INTER.VDW>
-13.8188

>  <SCORE.INTER.norm>
0.0947

>  <SCORE.INTRA>
-7.73332

>  <SCORE.INTRA.DIHEDRAL>
-19.3518

>  <SCORE.INTRA.DIHEDRAL.0>
24.1231

>  <SCORE.INTRA.POLAR>
0

>  <SCORE.INTRA.POLAR.0>
0

>  <SCORE.INTRA.REPUL>
0

>  <SCORE.INTRA.REPUL.0>
0

>  <SCORE.INTRA.SOLV>
3.48563

>  <SCORE.INTRA.SOLV.lig_0>
-48.2216

>  <SCORE.INTRA.VDW>
0.199758

>  <SCORE.INTRA.VDW.0>
-1.3967

>  <SCORE.INTRA.norm>
-0.55238

>  <SCORE.RESTR>
0

>  <SCORE.RESTR.CAVITY>
0

>  <SCORE.RESTR.norm>
0

>  <SCORE.SYSTEM>
0

>  <SCORE.SYSTEM.CONST>
0

>  <SCORE.SYSTEM.DIHEDRAL>
0

>  <SCORE.SYSTEM.SOLV>
0

>  <SCORE.SYSTEM.norm>
0

>  <SCORE.heavy>
14

>  <SCORE.norm>
-0.45768

>  <RMSD>
14.294

$$$$
ligand
 OpenBabel11021811463D
libRbt.so/2013.1/901 2013/11/27
 14 13  0  0  0  0  0  0  0  0999 V2000
   16.8065   -1.3476   10.9502 N   0  0  0  0  0  0  0  0  0  0  0  0
   17.5737   -0.8628   12.1055 C   0  0  0  0  0  0  0  0  0  0  0  0
   19.0478   -1.2022   11.9108 C   0  0  0  0  0  0  0  0  0  0  0  0
   19.2201   -2.7078   12.0267 C   0  0  0  0  0  0  0  0  0  0  0  0
   19.4020   -3.0596   13.4396 N   0  0  0  0  0  0  0  0  0  0  0  0
   18.4153   -4.1081   13.7523 C   0  0  0  0  0  0  0  0  0  0  0  0
   17.0599   -3.4849   14.1050 C   0  0  0  0  0  0  0  0  0  0  0  0
   15.9526   -4.4021   13.5644 C   0  0  0  0  0  0  0  0  0  0  0  0
   14.6792   -3.6677   13.4893 C   0  0  0  0  0  0  0  0  0  0  0  0
   14.8479   -2.5827   12.5015 N   0  0  0  0  0  0  0  0  0  0  0  0
   13.4849   -1.9842   12.1355 C   0  0  0  0  0  0  0  0  0  0  0  0
   13.6501   -0.9979   10.9730 C   0  0  0  0  0  0  0  0  0  0  0  0
   12.3289   -0.4813   10.5665 C   0  0  0  0  0  0  0  0  0  0  0  0
   11.5170   -1.5803   10.0013 N   0  0  0  0  0  0  0  0  0  0  0  0
  1  2  1  0  0  0  0
  2  3  1  0  0  0  0
  3  4  1  0  0  0  0
  4  5  1  0  0  0  0
  5  6  1  0  0  0  0
  6  7  1  0  0  0  0
  7  8  1  0  0  0  0
  8  9  1  0  0  0  0
  9 10  1  0  0  0  0
 10 11  1  0  0  0  0
 11 12  1  0  0  0  0
 12 13  1  0  0  0  0
 13 14  1  0  0  0  0
M  END
>  <CHROM.1>
-69.45616465,-86.55344071,127.47995215,-84.34806096,144.39502622,-162.03932165
64.22132393,167.04999082,-172.21588712,176.65755227,-65.96134062,15.99914316
-2.31930253,12.25175286,-0.40924041,-0.09807743,-0.71688456

>  <Name>
ligand

>  <RI>
0

>  <Rbt.Current_Directory>
/home/itssahil/PROJECTS/Mol_Feturizer/New_Systems/rnas/2O3Y

>  <Rbt.Executable>
rbdock ($Id: //depot/dev/client3/rdock/2013.1/src/exe/rbdock.cxx#4 $)

>  <Rbt.Library>
libRbt.so (2013.1, Build901 2013/11/27)

>  <Rbt.Parameter_File>
/export/apps/rDock/src/rDock_2013.1_src/data/scripts/dock_solv.prm

>  <Rbt.Receptor>
prm/blind_docking_80.prm

>  <SCORE>
-1.46705

>  <SCORE.INTER>
1.34147

>  <SCORE.INTER.CONST>
1

>  <SCORE.INTER.POLAR>
0

>  <SCORE.INTER.ROT>
11

>  <SCORE.INTER.SOLV>
8.45144

>  <SCORE.INTER.VDW>
-12.8562

>  <SCORE.INTER.norm>
0.0958193

>  <SCORE.INTRA>
-3.5909

>  <SCORE.INTRA.DIHEDRAL>
-14.7082

>  <SCORE.INTRA.DIHEDRAL.0>
24.1231

>  <SCORE.INTRA.POLAR>
0

>  <SCORE.INTRA.POLAR.0>
0

>  <SCORE.INTRA.REPUL>
0

>  <SCORE.INTRA.REPUL.0>
0

>  <SCORE.INTRA.SOLV>
7.33243

>  <SCORE.INTRA.SOLV.lig_0>
-48.2216

>  <SCORE.INTRA.VDW>
0.0969919

>  <SCORE.INTRA.VDW.0>
-1.3967

>  <SCORE.INTRA.norm>
-0.256493

>  <SCORE.RESTR>
0.782383

>  <SCORE.RESTR.CAVITY>
0.782383

>  <SCORE.RESTR.norm>
0.0558845

>  <SCORE.SYSTEM>
0

>  <SCORE.SYSTEM.CONST>
0

>  <SCORE.SYSTEM.DIHEDRAL>
0

>  <SCORE.SYSTEM.SOLV>
0

>  <SCORE.SYSTEM.norm>
0

>  <SCORE.heavy>
14

>  <SCORE.norm>
-0.104789

>  <RMSD>
14.299

$$$$
ligand
 OpenBabel11021811463D
libRbt.so/2013.1/901 2013/11/27
 14 13  0  0  0  0  0  0  0  0999 V2000
   18.4475   -4.1034   12.6887 N   0  0  0  0  0  0  0  0  0  0  0  0
   17.9677   -4.1008   14.0772 C   0  0  0  0  0  0  0  0  0  0  0  0
   18.7309   -3.0470   14.8730 C   0  0  0  0  0  0  0  0  0  0  0  0
   18.3790   -1.6737   14.3251 C   0  0  0  0  0  0  0  0  0  0  0  0
   18.8254   -1.5882   12.9300 N   0  0  0  0  0  0  0  0  0  0  0  0
   17.9094   -0.6622   12.2412 C   0  0  0  0  0  0  0  0  0  0  0  0
   16.9116   -1.4373   11.3731 C   0  0  0  0  0  0  0  0  0  0  0  0
   15.8522   -2.0593   12.2952 C   0  0  0  0  0  0  0  0  0  0  0  0
   14.8649   -2.8068   11.4995 C   0  0  0  0  0  0  0  0  0  0  0  0
   14.1090   -1.8273   10.6926 N   0  0  0  0  0  0  0  0  0  0  0  0
   13.5784   -2.4907    9.4166 C   0  0  0  0  0  0  0  0  0  0  0  0
   12.6855   -1.5035    8.6551 C   0  0  0  0  0  0  0  0  0  0  0  0
   11.4462   -1.2617    9.4188 C   0  0  0  0  0  0  0  0  0  0  0  0
   11.7594   -0.5042   10.6495 N   0  0  0  0  0  0  0  0  0  0  0  0
  1  2  1  0  0  0  0
  2  3  1  0  0  0  0
  3  4  1  0  0  0  0
  4  5  1  0  0  0  0
  5  6  1  0  0  0  0
  6  7  1  0  0  0  0
  7  8  1  0  0  0  0
  8  9  1  0  0  0  0
  9 10  1  0  0  0  0
 10 11  1  0  0  0  0
 11 12  1  0  0  0  0
 12 13  1  0  0  0  0
 13 14  1  0  0  0  0
M  END
>  <CHROM.1>
65.58437909,-62.93494461,150.27061714,-103.45130681,75.89770487,179.57269614
-67.18593365,153.07142910,174.63938073,-68.52642325,68.79756469,15.81909508
-2.07617862,11.79542211,0.24475833,0.56901066,3.00172163

>  <Name>
ligand

>  <RI>
0

>  <Rbt.Current_Directory>
/home/itssahil/PROJECTS/Mol_Feturizer/New_Systems/rnas/2O3Y

>  <Rbt.Executable>
rbdock ($Id: //depot/dev/client3/rdock/2013.1/src/exe/rbdock.cxx#4 $)

>  <Rbt.Library>
libRbt.so (2013.1, Build901 2013/11/27)

>  <Rbt.Parameter_File>
/export/apps/rDock/src/rDock_2013.1_src/data/scripts/dock_solv.prm

>  <Rbt.Receptor>
prm/blind_docking_80.prm

>  <SCORE>
-1.75648

>  <SCORE.INTER>
2.86724

>  <SCORE.INTER.CONST>
1

>  <SCORE.INTER.POLAR>
0

>  <SCORE.INTER.ROT>
11

>  <SCORE.INTER.SOLV>
9.82937

>  <SCORE.INTER.VDW>
-12.2983

>  <SCORE.INTER.norm>
0.204803

>  <SCORE.INTRA>
-4.62711

>  <SCORE.INTRA.DIHEDRAL>
-20.2118

>  <SCORE.INTRA.DIHEDRAL.0>
24.1231

>  <SCORE.INTRA.POLAR>
0

>  <SCORE.INTRA.POLAR.0>
0

>  <SCORE.INTRA.REPUL>
0

>  <SCORE.INTRA.REPUL.0>
0

>  <SCORE.INTRA.SOLV>
8.93504

>  <SCORE.INTRA.SOLV.lig_0>
-48.2216

>  <SCORE.INTRA.VDW>
1.01126

>  <SCORE.INTRA.VDW.0>
-1.3967

>  <SCORE.INTRA.norm>
-0.330508

>  <SCORE.RESTR>
0.00338821

>  <SCORE.RESTR.CAVITY>
0.00338821

>  <SCORE.RESTR.norm>
0.000242015

>  <SCORE.SYSTEM>
0

>  <SCORE.SYSTEM.CONST>
0

>  <SCORE.SYSTEM.DIHEDRAL>
0

>  <SCORE.SYSTEM.SOLV>
0

>  <SCORE.SYSTEM.norm>
0

>  <SCORE.heavy>
14

>  <SCORE.norm>
-0.125463

>  <RMSD>
14.318

$$$$
ligand
 OpenBabel11021811463D
libRbt.so/2013.1/901 2013/11/27
 14 13  0  0  0  0  0  0  0  0999 V2000
   18.0631   -2.6270   10.6300 N   0  0  0  0  0  0  0  0  0  0  0  0
   18.0352   -1.2166   11.0401 C   0  0  0  0  0  0  0  0  0  0  0  0
   19.1222   -0.9724   12.0818 C   0  0  0  0  0  0  0  0  0  0  0  0
   18.6890   -1.6037   13.3947 C   0  0  0  0  0  0  0  0  0  0  0  0
   18.6319   -3.0603   13.2275 N   0  0  0  0  0  0  0  0  0  0  0  0
   17.6926   -3.5730   14.2403 C   0  0  0  0  0  0  0  0  0  0  0  0
   16.3351   -3.8922   13.6038 C   0  0  0  0  0  0  0  0  0  0  0  0
   15.7260   -2.5810   13.0849 C   0  0  0  0  0  0  0  0  0  0  0  0
   14.3976   -2.8353   12.5039 C   0  0  0  0  0  0  0  0  0  0  0  0
   13.8024   -1.5272   12.1628 N   0  0  0  0  0  0  0  0  0  0  0  0
   14.0097   -1.2240   10.6745 C   0  0  0  0  0  0  0  0  0  0  0  0
   12.8156   -1.7511    9.8696 C   0  0  0  0  0  0  0  0  0  0  0  0
   13.0880   -1.6128    8.4260 C   0  0  0  0  0  0  0  0  0  0  0  0
   11.9000   -2.0333    7.6525 N   0  0  0  0  0  0  0  0  0  0  0  0
  1  2  1  0  0  0  0
  2  3  1  0  0  0  0
  3  4  1  0  0  0  0
  4  5  1  0  0  0  0
  5  6  1  0  0  0  0
  6  7  1  0  0  0  0
  7  8  1  0  0  0  0
  8  9  1  0  0  0  0
  9 10  1  0  0  0  0
 10 11  1  0  0  0  0
 11 12  1  0  0  0  0
 12 13  1  0  0  0  0
 13 14  1  0  0  0  0
M  END
>  <CHROM.1>
-73.21270509,65.70366851,-155.82174586,101.97724403,-64.20693647,-178.12557742
173.78426851,97.89264526,90.94870714,-172.96982841,-176.08596181,15.87929141
-2.17922910,11.61402198,-0.60647594,-0.16986412,-1.15249090

>  <Name>
ligand

>  <RI>
0

>  <Rbt.Current_Directory>
/home/itssahil/PROJECTS/Mol_Feturizer/New_Systems/rnas/2O3Y

>  <Rbt.Executable>
rbdock ($Id: //depot/dev/client3/rdock/2013.1/src/exe/rbdock.cxx#4 $)

>  <Rbt.Library>
libRbt.so (2013.1, Build901 2013/11/27)

>  <Rbt.Parameter_File>
/export/apps/rDock/src/rDock_2013.1_src/data/scripts/dock_solv.prm

>  <Rbt.Receptor>
prm/blind_docking_80.prm

>  <SCORE>
-4.16729

>  <SCORE.INTER>
2.6101

>  <SCORE.INTER.CONST>
1

>  <SCORE.INTER.POLAR>
0

>  <SCORE.INTER.ROT>
11

>  <SCORE.INTER.SOLV>
9.2028

>  <SCORE.INTER.VDW>
-12.2609

>  <SCORE.INTER.norm>
0.186436

>  <SCORE.INTRA>
-6.83991

>  <SCORE.INTRA.DIHEDRAL>
-20.0547

>  <SCORE.INTRA.DIHEDRAL.0>
24.1231

>  <SCORE.INTRA.POLAR>
0

>  <SCORE.INTRA.POLAR.0>
0

>  <SCORE.INTRA.REPUL>
0

>  <SCORE.INTRA.REPUL.0>
0

>  <SCORE.INTRA.SOLV>
5.02115

>  <SCORE.INTRA.SOLV.lig_0>
-48.2216

>  <SCORE.INTRA.VDW>
0.676859

>  <SCORE.INTRA.VDW.0>
-1.3967

>  <SCORE.INTRA.norm>
-0.488565

>  <SCORE.RESTR>
0.062518

>  <SCORE.RESTR.CAVITY>
0.062518

>  <SCORE.RESTR.norm>
0.00446557

>  <SCORE.SYSTEM>
0

>  <SCORE.SYSTEM.CONST>
0

>  <SCORE.SYSTEM.DIHEDRAL>
0

>  <SCORE.SYSTEM.SOLV>
0

>  <SCORE.SYSTEM.norm>
0

>  <SCORE.heavy>
14

>  <SCORE.norm>
-0.297663

>  <RMSD>
14.321

$$$$
ligand
 OpenBabel11021811463D
libRbt.so/2013.1/901 2013/11/27
 14 13  0  0  0  0  0  0  0  0999 V2000
   13.3285   -2.0639   12.5357 N   0  0  0  0  0  0  0  0  0  0  0  0
   12.7535   -0.8637   11.9136 C   0  0  0  0  0  0  0  0  0  0  0  0
   12.4089   -1.1650   10.4588 C   0  0  0  0  0  0  0  0  0  0  0  0
   13.7008   -1.3703    9.6849 C   0  0  0  0  0  0  0  0  0  0  0  0
   14.3194   -2.6294   10.1149 N   0  0  0  0  0  0  0  0  0  0  0  0
   15.7734   -2.4797    9.9296 C   0  0  0  0  0  0  0  0  0  0  0  0
   16.4107   -1.8347   11.1656 C   0  0  0  0  0  0  0  0  0  0  0  0
   17.7708   -1.2496   10.7565 C   0  0  0  0  0  0  0  0  0  0  0  0
   18.5180   -0.8233   11.9509 C   0  0  0  0  0  0  0  0  0  0  0  0
   19.1004   -2.0325   12.5676 N   0  0  0  0  0  0  0  0  0  0  0  0
   19.0968   -1.9011   14.0949 C   0  0  0  0  0  0  0  0  0  0  0  0
   17.9515   -2.7351   14.6816 C   0  0  0  0  0  0  0  0  0  0  0  0
   17.9875   -4.0978   14.1168 C   0  0  0  0  0  0  0  0  0  0  0  0
   17.4038   -4.0893   12.7582 N   0  0  0  0  0  0  0  0  0  0  0  0
  1  2  1  0  0  0  0
  2  3  1  0  0  0  0
  3  4  1  0  0  0  0
  4  5  1  0  0  0  0
  5  6  1  0  0  0  0
  6  7  1  0  0  0  0
  7  8  1  0  0  0  0
  8  9  1  0  0  0  0
  9 10  1  0  0  0  0
 10 11  1  0  0  0  0
 11 12  1  0  0  0  0
 12 13  1  0  0  0  0
 13 14  1  0  0  0  0
M  END
>  <CHROM.1>
-68.10056406,69.80138358,-151.41519917,86.66057463,-160.07542160,-170.46693182
78.55868524,-144.44112789,102.71007338,49.63379317,-78.71126925,16.18033998
-2.09514294,11.90923704,2.62911526,-0.03524942,-1.15496997

>  <Name>
ligand

>  <RI>
0

>  <Rbt.Current_Directory>
/home/itssahil/PROJECTS/Mol_Feturizer/New_Systems/rnas/2O3Y

>  <Rbt.Executable>
rbdock ($Id: //depot/dev/client3/rdock/2013.1/src/exe/rbdock.cxx#4 $)

>  <Rbt.Library>
libRbt.so (2013.1, Build901 2013/11/27)

>  <Rbt.Parameter_File>
/export/apps/rDock/src/rDock_2013.1_src/data/scripts/dock_solv.prm

>  <Rbt.Receptor>
prm/blind_docking_80.prm

>  <SCORE>
-1.40178

>  <SCORE.INTER>
0.880824

>  <SCORE.INTER.CONST>
1

>  <SCORE.INTER.POLAR>
0

>  <SCORE.INTER.ROT>
11

>  <SCORE.INTER.SOLV>
8.49495

>  <SCORE.INTER.VDW>
-13.1778

>  <SCORE.INTER.norm>
0.062916

>  <SCORE.INTRA>
-2.28299

>  <SCORE.INTRA.DIHEDRAL>
-16.1629

>  <SCORE.INTRA.DIHEDRAL.0>
24.1231

>  <SCORE.INTRA.POLAR>
0

>  <SCORE.INTRA.POLAR.0>
0

>  <SCORE.INTRA.REPUL>
0

>  <SCORE.INTRA.REPUL.0>
0

>  <SCORE.INTRA.SOLV>
9.95243

>  <SCORE.INTRA.SOLV.lig_0>
-48.2216

>  <SCORE.INTRA.VDW>
0.82223

>  <SCORE.INTRA.VDW.0>
-1.3967

>  <SCORE.INTRA.norm>
-0.163071

>  <SCORE.RESTR>
0.000383784

>  <SCORE.RESTR.CAVITY>
0.000383784

>  <SCORE.RESTR.norm>
2.74131e-05

>  <SCORE.SYSTEM>
0

>  <SCORE.SYSTEM.CONST>
0

>  <SCORE.SYSTEM.DIHEDRAL>
0

>  <SCORE.SYSTEM.SOLV>
0

>  <SCORE.SYSTEM.norm>
0

>  <SCORE.heavy>
14

>  <SCORE.norm>
-0.100127

>  <RMSD>
14.322

$$$$
ligand
 OpenBabel11021811463D
libRbt.so/2013.1/901 2013/11/27
 14 13  0  0  0  0  0  0  0  0999 V2000
   19.0160   -3.9915   13.9166 N   0  0  0  0  0  0  0  0  0  0  0  0
   18.2351   -3.2269   14.8983 C   0  0  0  0  0  0  0  0  0  0  0  0
   18.3166   -1.7416   14.5615 C   0  0  0  0  0  0  0  0  0  0  0  0
   17.6207   -1.5052   13.2311 C   0  0  0  0  0  0  0  0  0  0  0  0
   18.4075   -2.1325   12.1633 N   0  0  0  0  0  0  0  0  0  0  0  0
   17.9741   -1.5222   10.8943 C   0  0  0  0  0  0  0  0  0  0  0  0
   17.5988   -2.6048    9.8759 C   0  0  0  0  0  0  0  0  0  0  0  0
   16.2343   -3.1877   10.2733 C   0  0  0  0  0  0  0  0  0  0  0  0
   15.1524   -2.3024    9.8123 C   0  0  0  0  0  0  0  0  0  0  0  0
   13.8700   -2.9436   10.1671 N   0  0  0  0  0  0  0  0  0  0  0  0
   12.7016   -2.0082    9.8357 C   0  0  0  0  0  0  0  0  0  0  0  0
   12.7366   -0.7898   10.7663 C   0  0  0  0  0  0  0  0  0  0  0  0
   12.5881   -1.2286   12.1673 C   0  0  0  0  0  0  0  0  0  0  0  0
   13.7954   -1.9722   12.5868 N   0  0  0  0  0  0  0  0  0  0  0  0
  1  2  1  0  0  0  0
  2  3  1  0  0  0  0
  3  4  1  0  0  0  0
  4  5  1  0  0  0  0
  5  6  1  0  0  0  0
  6  7  1  0  0  0  0
  7  8  1  0  0  0  0
  8  9  1  0  0  0  0
  9 10  1  0  0  0  0
 10 11  1  0  0  0  0
 11 12  1  0  0  0  0
 12 13  1  0  0  0  0
 13 14  1  0  0  0  0
M  END
>  <CHROM.1>
65.78841784,-68.30728677,-161.57412215,-128.01792336,75.06997800,80.67355827
177.44352987,174.52639881,-67.73041490,-61.46112455,68.66461520,16.01753057
-2.22527920,11.79624394,0.49000855,-0.21425313,1.46910348

>  <Name>
ligand

>  <RI>
0

>  <Rbt.Current_Directory>
/home/itssahil/PROJECTS/Mol_Feturizer/New_Systems/rnas/2O3Y

>  <Rbt.Executable>
rbdock ($Id: //depot/dev/client3/rdock/2013.1/src/exe/rbdock.cxx#4 $)

>  <Rbt.Library>
libRbt.so (2013.1, Build901 2013/11/27)

>  <Rbt.Parameter_File>
/export/apps/rDock/src/rDock_2013.1_src/data/scripts/dock_solv.prm

>  <Rbt.Receptor>
prm/blind_docking_80.prm

>  <SCORE>
-0.840517

>  <SCORE.INTER>
2.72094

>  <SCORE.INTER.CONST>
1

>  <SCORE.INTER.POLAR>
0

>  <SCORE.INTER.ROT>
11

>  <SCORE.INTER.SOLV>
10.4923

>  <SCORE.INTER.VDW>
-12.6168

>  <SCORE.INTER.norm>
0.194353

>  <SCORE.INTRA>
-3.62281

>  <SCORE.INTRA.DIHEDRAL>
-19.5093

>  <SCORE.INTRA.DIHEDRAL.0>
24.1231

>  <SCORE.INTRA.POLAR>
0

>  <SCORE.INTRA.POLAR.0>
0

>  <SCORE.INTRA.REPUL>
0

>  <SCORE.INTRA.REPUL.0>
0

>  <SCORE.INTRA.SOLV>
8.30735

>  <SCORE.INTRA.SOLV.lig_0>
-48.2216

>  <SCORE.INTRA.VDW>
1.97817

>  <SCORE.INTRA.VDW.0>
-1.3967

>  <SCORE.INTRA.norm>
-0.258772

>  <SCORE.RESTR>
0.0613606

>  <SCORE.RESTR.CAVITY>
0.0613606

>  <SCORE.RESTR.norm>
0.0043829

>  <SCORE.SYSTEM>
0

>  <SCORE.SYSTEM.CONST>
0

>  <SCORE.SYSTEM.DIHEDRAL>
0

>  <SCORE.SYSTEM.SOLV>
0

>  <SCORE.SYSTEM.norm>
0

>  <SCORE.heavy>
14

>  <SCORE.norm>
-0.0600369

>  <RMSD>
14.324

$$$$
ligand
 OpenBabel11021811463D
libRbt.so/2013.1/901 2013/11/27
 14 13  0  0  0  0  0  0  0  0999 V2000
   12.9357   -2.9137    8.5135 N   0  0  0  0  0  0  0  0  0  0  0  0
   12.4571   -1.6131    8.0259 C   0  0  0  0  0  0  0  0  0  0  0  0
   11.6049   -0.9522    9.1045 C   0  0  0  0  0  0  0  0  0  0  0  0
   12.5113   -0.5253   10.2474 C   0  0  0  0  0  0  0  0  0  0  0  0
   12.8929   -1.7115   11.0221 N   0  0  0  0  0  0  0  0  0  0  0  0
   13.9842   -1.3036   11.9240 C   0  0  0  0  0  0  0  0  0  0  0  0
   15.3449   -1.6897   11.3328 C   0  0  0  0  0  0  0  0  0  0  0  0
   16.4420   -1.2077   12.2938 C   0  0  0  0  0  0  0  0  0  0  0  0
   17.7689   -1.5678   11.7681 C   0  0  0  0  0  0  0  0  0  0  0  0
   17.8680   -3.0415   11.7796 N   0  0  0  0  0  0  0  0  0  0  0  0
   19.1107   -3.4817   12.5616 C   0  0  0  0  0  0  0  0  0  0  0  0
   18.6896   -4.0476   13.9233 C   0  0  0  0  0  0  0  0  0  0  0  0
   18.1000   -2.9752   14.7476 C   0  0  0  0  0  0  0  0  0  0  0  0
   19.0999   -1.9077   14.9653 N   0  0  0  0  0  0  0  0  0  0  0  0
  1  2  1  0  0  0  0
  2  3  1  0  0  0  0
  3  4  1  0  0  0  0
  4  5  1  0  0  0  0
  5  6  1  0  0  0  0
  6  7  1  0  0  0  0
  7  8  1  0  0  0  0
  8  9  1  0  0  0  0
  9 10  1  0  0  0  0
 10 11  1  0  0  0  0
 11 12  1  0  0  0  0
 12 13  1  0  0  0  0
 13 14  1  0  0  0  0
M  END
>  <CHROM.1>
70.31145927,-75.36519058,168.05018835,-98.22798321,178.48399120,179.57673592
-66.01095700,-125.11749302,105.79991873,-65.95864587,-60.60407918,15.62926303
-2.06688911,11.58639766,-2.71767395,-0.49650373,1.06774430

>  <Name>
ligand

>  <RI>
0

>  <Rbt.Current_Directory>
/home/itssahil/PROJECTS/Mol_Feturizer/New_Systems/rnas/2O3Y

>  <Rbt.Executable>
rbdock ($Id: //depot/dev/client3/rdock/2013.1/src/exe/rbdock.cxx#4 $)

>  <Rbt.Library>
libRbt.so (2013.1, Build901 2013/11/27)

>  <Rbt.Parameter_File>
/export/apps/rDock/src/rDock_2013.1_src/data/scripts/dock_solv.prm

>  <Rbt.Receptor>
prm/blind_docking_80.prm

>  <SCORE>
-4.36371

>  <SCORE.INTER>
1.19379

>  <SCORE.INTER.CONST>
1

>  <SCORE.INTER.POLAR>
0

>  <SCORE.INTER.ROT>
11

>  <SCORE.INTER.SOLV>
9.46651

>  <SCORE.INTER.VDW>
-13.293

>  <SCORE.INTER.norm>
0.0852704

>  <SCORE.INTRA>
-5.56823

>  <SCORE.INTRA.DIHEDRAL>
-19.4203

>  <SCORE.INTRA.DIHEDRAL.0>
24.1231

>  <SCORE.INTRA.POLAR>
0

>  <SCORE.INTRA.POLAR.0>
0

>  <SCORE.INTRA.REPUL>
0

>  <SCORE.INTRA.REPUL.0>
0

>  <SCORE.INTRA.SOLV>
6.54147

>  <SCORE.INTRA.SOLV.lig_0>
-48.2216

>  <SCORE.INTRA.VDW>
0.871207

>  <SCORE.INTRA.VDW.0>
-1.3967

>  <SCORE.INTRA.norm>
-0.397731

>  <SCORE.RESTR>
0.0107322

>  <SCORE.RESTR.CAVITY>
0.0107322

>  <SCORE.RESTR.norm>
0.000766588

>  <SCORE.SYSTEM>
0

>  <SCORE.SYSTEM.CONST>
0

>  <SCORE.SYSTEM.DIHEDRAL>
0

>  <SCORE.SYSTEM.SOLV>
0

>  <SCORE.SYSTEM.norm>
0

>  <SCORE.heavy>
14

>  <SCORE.norm>
-0.311694

>  <RMSD>
14.333

$$$$
ligand
 OpenBabel11021811463D
libRbt.so/2013.1/901 2013/11/27
 14 13  0  0  0  0  0  0  0  0999 V2000
   17.6815   -1.9534   14.6676 N   0  0  0  0  0  0  0  0  0  0  0  0
   19.0623   -2.3804   14.4042 C   0  0  0  0  0  0  0  0  0  0  0  0
   19.0724   -3.8626   14.0451 C   0  0  0  0  0  0  0  0  0  0  0  0
   18.3004   -4.0550   12.7500 C   0  0  0  0  0  0  0  0  0  0  0  0
   16.8638   -3.9599   13.0326 N   0  0  0  0  0  0  0  0  0  0  0  0
   16.3131   -2.9398   12.1232 C   0  0  0  0  0  0  0  0  0  0  0  0
   14.9352   -2.4737   12.6071 C   0  0  0  0  0  0  0  0  0  0  0  0
   14.3886   -1.4552   11.5955 C   0  0  0  0  0  0  0  0  0  0  0  0
   13.0719   -0.9639   12.0336 C   0  0  0  0  0  0  0  0  0  0  0  0
   12.4564   -0.2589   10.8908 N   0  0  0  0  0  0  0  0  0  0  0  0
   11.3978   -1.1483   10.2290 C   0  0  0  0  0  0  0  0  0  0  0  0
   12.0858   -2.2655    9.4351 C   0  0  0  0  0  0  0  0  0  0  0  0
   12.9067   -1.6786    8.3585 C   0  0  0  0  0  0  0  0  0  0  0  0
   12.0301   -1.0163    7.3687 N   0  0  0  0  0  0  0  0  0  0  0  0
  1  2  1  0  0  0  0
  2  3  1  0  0  0  0
  3  4  1  0  0  0  0
  4  5  1  0  0  0  0
  5  6  1  0  0  0  0
  6  7  1  0  0  0  0
  7  8  1  0  0  0  0
  8  9  1  0  0  0  0
  9 10  1  0  0  0  0
 10 11  1  0  0  0  0
 11 12  1  0  0  0  0
 12 13  1  0  0  0  0
 13 14  1  0  0  0  0
M  END
>  <CHROM.1>
63.86552731,-75.85427271,126.12061667,-163.37236303,-177.84112516,-179.10912024
-166.49698595,102.35713514,-73.56007249,-62.19873454,-66.08110272,15.04054794
-2.17240435,11.68156632,0.42016557,-0.55313444,1.11419089

>  <Name>
ligand

>  <RI>
0

>  <Rbt.Current_Directory>
/home/itssahil/PROJECTS/Mol_Feturizer/New_Systems/rnas/2O3Y

>  <Rbt.Executable>
rbdock ($Id: //depot/dev/client3/rdock/2013.1/src/exe/rbdock.cxx#4 $)

>  <Rbt.Library>
libRbt.so (2013.1, Build901 2013/11/27)

>  <Rbt.Parameter_File>
/export/apps/rDock/src/rDock_2013.1_src/data/scripts/dock_solv.prm

>  <Rbt.Receptor>
prm/blind_docking_80.prm

>  <SCORE>
-0.44661

>  <SCORE.INTER>
5.1184

>  <SCORE.INTER.CONST>
1

>  <SCORE.INTER.POLAR>
0

>  <SCORE.INTER.ROT>
11

>  <SCORE.INTER.SOLV>
15.9488

>  <SCORE.INTER.VDW>
-12.8373

>  <SCORE.INTER.norm>
0.3656

>  <SCORE.INTRA>
-5.69442

>  <SCORE.INTRA.DIHEDRAL>
-19.8402

>  <SCORE.INTRA.DIHEDRAL.0>
24.1231

>  <SCORE.INTRA.POLAR>
0

>  <SCORE.INTRA.POLAR.0>
0

>  <SCORE.INTRA.REPUL>
0

>  <SCORE.INTRA.REPUL.0>
0

>  <SCORE.INTRA.SOLV>
5.64426

>  <SCORE.INTRA.SOLV.lig_0>
-48.2216

>  <SCORE.INTRA.VDW>
1.40353

>  <SCORE.INTRA.VDW.0>
-1.3967

>  <SCORE.INTRA.norm>
-0.406744

>  <SCORE.RESTR>
0.129408

>  <SCORE.RESTR.CAVITY>
0.129408

>  <SCORE.RESTR.norm>
0.00924346

>  <SCORE.SYSTEM>
0

>  <SCORE.SYSTEM.CONST>
0

>  <SCORE.SYSTEM.DIHEDRAL>
0

>  <SCORE.SYSTEM.SOLV>
0

>  <SCORE.SYSTEM.norm>
0

>  <SCORE.heavy>
14

>  <SCORE.norm>
-0.0319007

>  <RMSD>
14.368

$$$$
ligand
 OpenBabel11021811463D
libRbt.so/2013.1/901 2013/11/27
 14 13  0  0  0  0  0  0  0  0999 V2000
   12.0039   -2.2591    9.1073 N   0  0  0  0  0  0  0  0  0  0  0  0
   11.9693   -0.8212    9.4063 C   0  0  0  0  0  0  0  0  0  0  0  0
   12.0689   -0.6168   10.9144 C   0  0  0  0  0  0  0  0  0  0  0  0
   13.4961   -0.9037   11.3514 C   0  0  0  0  0  0  0  0  0  0  0  0
   13.7442   -2.3465   11.2523 N   0  0  0  0  0  0  0  0  0  0  0  0
   15.1196   -2.5130   10.7508 C   0  0  0  0  0  0  0  0  0  0  0  0
   16.0676   -2.8939   11.8937 C   0  0  0  0  0  0  0  0  0  0  0  0
   15.5173   -4.1553   12.5760 C   0  0  0  0  0  0  0  0  0  0  0  0
   16.5618   -4.7785   13.4052 C   0  0  0  0  0  0  0  0  0  0  0  0
   16.8679   -3.8477   14.5104 N   0  0  0  0  0  0  0  0  0  0  0  0
   18.2256   -3.1760   14.2753 C   0  0  0  0  0  0  0  0  0  0  0  0
   18.0242   -1.6738   14.0417 C   0  0  0  0  0  0  0  0  0  0  0  0
   19.1530   -1.1359   13.2582 C   0  0  0  0  0  0  0  0  0  0  0  0
   19.0973   -1.6633   11.8779 N   0  0  0  0  0  0  0  0  0  0  0  0
  1  2  1  0  0  0  0
  2  3  1  0  0  0  0
  3  4  1  0  0  0  0
  4  5  1  0  0  0  0
  5  6  1  0  0  0  0
  6  7  1  0  0  0  0
  7  8  1  0  0  0  0
  8  9  1  0  0  0  0
  9 10  1  0  0  0  0
 10 11  1  0  0  0  0
 11 12  1  0  0  0  0
 12 13  1  0  0  0  0
 13 14  1  0  0  0  0
M  END
>  <CHROM.1>
73.46571456,-71.00608493,141.22225693,102.63997096,55.53102333,163.76973309
66.07883594,-106.38402679,114.03771347,-155.27603624,69.11674905,15.56553429
-2.34169711,12.04448778,2.72397340,-0.41754354,-0.47930222

>  <Name>
ligand

>  <RI>
0

>  <Rbt.Current_Directory>
/home/itssahil/PROJECTS/Mol_Feturizer/New_Systems/rnas/2O3Y

>  <Rbt.Executable>
rbdock ($Id: //depot/dev/client3/rdock/2013.1/src/exe/rbdock.cxx#4 $)

>  <Rbt.Library>
libRbt.so (2013.1, Build901 2013/11/27)

>  <Rbt.Parameter_File>
/export/apps/rDock/src/rDock_2013.1_src/data/scripts/dock_solv.prm

>  <Rbt.Receptor>
prm/blind_docking_80.prm

>  <SCORE>
-0.0465969

>  <SCORE.INTER>
3.21255

>  <SCORE.INTER.CONST>
1

>  <SCORE.INTER.POLAR>
0

>  <SCORE.INTER.ROT>
11

>  <SCORE.INTER.SOLV>
8.26243

>  <SCORE.INTER.VDW>
-11.5458

>  <SCORE.INTER.norm>
0.229468

>  <SCORE.INTRA>
-3.34739

>  <SCORE.INTRA.DIHEDRAL>
-15.3899

>  <SCORE.INTRA.DIHEDRAL.0>
24.1231

>  <SCORE.INTRA.POLAR>
0

>  <SCORE.INTRA.POLAR.0>
0

>  <SCORE.INTRA.REPUL>
0

>  <SCORE.INTRA.REPUL.0>
0

>  <SCORE.INTRA.SOLV>
6.20932

>  <SCORE.INTRA.SOLV.lig_0>
-48.2216

>  <SCORE.INTRA.VDW>
1.24293

>  <SCORE.INTRA.VDW.0>
-1.3967

>  <SCORE.INTRA.norm>
-0.239099

>  <SCORE.RESTR>
0.0882426

>  <SCORE.RESTR.CAVITY>
0.0882426

>  <SCORE.RESTR.norm>
0.00630305

>  <SCORE.SYSTEM>
0

>  <SCORE.SYSTEM.CONST>
0

>  <SCORE.SYSTEM.DIHEDRAL>
0

>  <SCORE.SYSTEM.SOLV>
0

>  <SCORE.SYSTEM.norm>
0

>  <SCORE.heavy>
14

>  <SCORE.norm>
-0.00332835

>  <RMSD>
14.372

$$$$
ligand
 OpenBabel11021811463D
libRbt.so/2013.1/901 2013/11/27
 14 13  0  0  0  0  0  0  0  0999 V2000
   18.7114   -1.4093   15.4429 N   0  0  0  0  0  0  0  0  0  0  0  0
   19.5399   -2.5124   14.9380 C   0  0  0  0  0  0  0  0  0  0  0  0
   18.8309   -3.1796   13.7639 C   0  0  0  0  0  0  0  0  0  0  0  0
   17.5476   -3.8182   14.2694 C   0  0  0  0  0  0  0  0  0  0  0  0
   16.6907   -4.1392   13.1224 N   0  0  0  0  0  0  0  0  0  0  0  0
   15.7673   -3.0049   12.9447 C   0  0  0  0  0  0  0  0  0  0  0  0
   15.3468   -2.8772   11.4760 C   0  0  0  0  0  0  0  0  0  0  0  0
   14.9891   -1.4085   11.2033 C   0  0  0  0  0  0  0  0  0  0  0  0
   13.7494   -1.0500   11.9113 C   0  0  0  0  0  0  0  0  0  0  0  0
   12.6149   -1.5022   11.0805 N   0  0  0  0  0  0  0  0  0  0  0  0
   12.2268   -0.4108   10.0764 C   0  0  0  0  0  0  0  0  0  0  0  0
   11.2714   -0.9917    9.0269 C   0  0  0  0  0  0  0  0  0  0  0  0
   11.9368   -2.0913    8.3019 C   0  0  0  0  0  0  0  0  0  0  0  0
   12.8993   -1.5345    7.3273 N   0  0  0  0  0  0  0  0  0  0  0  0
  1  2  1  0  0  0  0
  2  3  1  0  0  0  0
  3  4  1  0  0  0  0
  4  5  1  0  0  0  0
  5  6  1  0  0  0  0
  6  7  1  0  0  0  0
  7  8  1  0  0  0  0
  8  9  1  0  0  0  0
  9 10  1  0  0  0  0
 10 11  1  0  0  0  0
 11 12  1  0  0  0  0
 12 13  1  0  0  0  0
 13 14  1  0  0  0  0
M  END
>  <CHROM.1>
-64.77745340,164.85993905,-94.48133709,151.68288923,-153.16563719,-69.15852821
-82.44532616,-87.91664024,167.62413760,-60.51042374,-76.24379980,15.15155706
-2.13783053,11.77749994,0.32987272,-0.67106571,0.78308093

>  <Name>
ligand

>  <RI>
0

>  <Rbt.Current_Directory>
/home/itssahil/PROJECTS/Mol_Feturizer/New_Systems/rnas/2O3Y

>  <Rbt.Executable>
rbdock ($Id: //depot/dev/client3/rdock/2013.1/src/exe/rbdock.cxx#4 $)

>  <Rbt.Library>
libRbt.so (2013.1, Build901 2013/11/27)

>  <Rbt.Parameter_File>
/export/apps/rDock/src/rDock_2013.1_src/data/scripts/dock_solv.prm

>  <Rbt.Receptor>
prm/blind_docking_80.prm

>  <SCORE>
0.580644

>  <SCORE.INTER>
5.02116

>  <SCORE.INTER.CONST>
1

>  <SCORE.INTER.POLAR>
0

>  <SCORE.INTER.ROT>
11

>  <SCORE.INTER.SOLV>
16.9124

>  <SCORE.INTER.VDW>
-13.2234

>  <SCORE.INTER.norm>
0.358654

>  <SCORE.INTRA>
-4.57848

>  <SCORE.INTRA.DIHEDRAL>
-15.9847

>  <SCORE.INTRA.DIHEDRAL.0>
24.1231

>  <SCORE.INTRA.POLAR>
0

>  <SCORE.INTRA.POLAR.0>
0

>  <SCORE.INTRA.REPUL>
0

>  <SCORE.INTRA.REPUL.0>
0

>  <SCORE.INTRA.SOLV>
2.8668

>  <SCORE.INTRA.SOLV.lig_0>
-48.2216

>  <SCORE.INTRA.VDW>
1.98047

>  <SCORE.INTRA.VDW.0>
-1.3967

>  <SCORE.INTRA.norm>
-0.327034

>  <SCORE.RESTR>
0.137956

>  <SCORE.RESTR.CAVITY>
0.137956

>  <SCORE.RESTR.norm>
0.00985403

>  <SCORE.SYSTEM>
0

>  <SCORE.SYSTEM.CONST>
0

>  <SCORE.SYSTEM.DIHEDRAL>
0

>  <SCORE.SYSTEM.SOLV>
0

>  <SCORE.SYSTEM.norm>
0

>  <SCORE.heavy>
14

>  <SCORE.norm>
0.0414746

>  <RMSD>
14.374

$$$$
ligand
 OpenBabel11021811463D
libRbt.so/2013.1/901 2013/11/27
 14 13  0  0  0  0  0  0  0  0999 V2000
   12.4557   -2.0339   11.9932 N   0  0  0  0  0  0  0  0  0  0  0  0
   13.0325   -0.8184   11.4034 C   0  0  0  0  0  0  0  0  0  0  0  0
   12.2702   -0.4641   10.1307 C   0  0  0  0  0  0  0  0  0  0  0  0
   12.3997   -1.6170    9.1489 C   0  0  0  0  0  0  0  0  0  0  0  0
   13.8175   -1.8101    8.8243 N   0  0  0  0  0  0  0  0  0  0  0  0
   14.2189   -3.1044    9.4025 C   0  0  0  0  0  0  0  0  0  0  0  0
   15.3878   -2.9201   10.3771 C   0  0  0  0  0  0  0  0  0  0  0  0
   16.6861   -2.8318    9.5610 C   0  0  0  0  0  0  0  0  0  0  0  0
   17.8085   -2.4545   10.4354 C   0  0  0  0  0  0  0  0  0  0  0  0
   17.9694   -3.5244   11.4410 N   0  0  0  0  0  0  0  0  0  0  0  0
   18.7769   -3.0083   12.6374 C   0  0  0  0  0  0  0  0  0  0  0  0
   18.1581   -3.5288   13.9404 C   0  0  0  0  0  0  0  0  0  0  0  0
   18.8607   -2.9385   15.0960 C   0  0  0  0  0  0  0  0  0  0  0  0
   18.6405   -1.4765   15.1189 N   0  0  0  0  0  0  0  0  0  0  0  0
  1  2  1  0  0  0  0
  2  3  1  0  0  0  0
  3  4  1  0  0  0  0
  4  5  1  0  0  0  0
  5  6  1  0  0  0  0
  6  7  1  0  0  0  0
  7  8  1  0  0  0  0
  8  9  1  0  0  0  0
  9 10  1  0  0  0  0
 10 11  1  0  0  0  0
 11 12  1  0  0  0  0
 12 13  1  0  0  0  0
 13 14  1  0  0  0  0
M  END
>  <CHROM.1>
-60.45505422,-61.09441278,112.15730336,-122.24339948,-81.00127124,171.57354027
62.38332234,-161.27606131,138.73090390,-175.05816832,64.89698677,15.74875308
-2.32367968,11.39341180,2.61479647,0.35688230,-1.81145814

>  <Name>
ligand

>  <RI>
0

>  <Rbt.Current_Directory>
/home/itssahil/PROJECTS/Mol_Feturizer/New_Systems/rnas/2O3Y

>  <Rbt.Executable>
rbdock ($Id: //depot/dev/client3/rdock/2013.1/src/exe/rbdock.cxx#4 $)

>  <Rbt.Library>
libRbt.so (2013.1, Build901 2013/11/27)

>  <Rbt.Parameter_File>
/export/apps/rDock/src/rDock_2013.1_src/data/scripts/dock_solv.prm

>  <Rbt.Receptor>
prm/blind_docking_80.prm

>  <SCORE>
-0.779854

>  <SCORE.INTER>
4.93746

>  <SCORE.INTER.CONST>
1

>  <SCORE.INTER.POLAR>
0

>  <SCORE.INTER.ROT>
11

>  <SCORE.INTER.SOLV>
12.6471

>  <SCORE.INTER.VDW>
-11.8574

>  <SCORE.INTER.norm>
0.352676

>  <SCORE.INTRA>
-5.7297

>  <SCORE.INTRA.DIHEDRAL>
-18.5682

>  <SCORE.INTRA.DIHEDRAL.0>
24.1231

>  <SCORE.INTRA.POLAR>
0

>  <SCORE.INTRA.POLAR.0>
0

>  <SCORE.INTRA.REPUL>
0

>  <SCORE.INTRA.REPUL.0>
0

>  <SCORE.INTRA.SOLV>
4.61743

>  <SCORE.INTRA.SOLV.lig_0>
-48.2216

>  <SCORE.INTRA.VDW>
1.24571

>  <SCORE.INTRA.VDW.0>
-1.3967

>  <SCORE.INTRA.norm>
-0.409264

>  <SCORE.RESTR>
0.012383

>  <SCORE.RESTR.CAVITY>
0.012383

>  <SCORE.RESTR.norm>
0.000884502

>  <SCORE.SYSTEM>
0

>  <SCORE.SYSTEM.CONST>
0

>  <SCORE.SYSTEM.DIHEDRAL>
0

>  <SCORE.SYSTEM.SOLV>
0

>  <SCORE.SYSTEM.norm>
0

>  <SCORE.heavy>
14

>  <SCORE.norm>
-0.0557038

>  <RMSD>
14.416

$$$$
ligand
 OpenBabel11021811463D
libRbt.so/2013.1/901 2013/11/27
 14 13  0  0  0  0  0  0  0  0999 V2000
   19.1139   -2.0540   12.2994 N   0  0  0  0  0  0  0  0  0  0  0  0
   18.9901   -1.3969   13.6075 C   0  0  0  0  0  0  0  0  0  0  0  0
   19.1514   -2.4364   14.7118 C   0  0  0  0  0  0  0  0  0  0  0  0
   17.8825   -3.2699   14.7848 C   0  0  0  0  0  0  0  0  0  0  0  0
   17.7806   -4.0905   13.5728 N   0  0  0  0  0  0  0  0  0  0  0  0
   16.3784   -4.5307   13.4679 C   0  0  0  0  0  0  0  0  0  0  0  0
   15.6825   -3.8377   12.2909 C   0  0  0  0  0  0  0  0  0  0  0  0
   15.6714   -2.3254   12.5604 C   0  0  0  0  0  0  0  0  0  0  0  0
   15.0149   -1.6184   11.4487 C   0  0  0  0  0  0  0  0  0  0  0  0
   13.5963   -2.0298   11.4346 N   0  0  0  0  0  0  0  0  0  0  0  0
   12.6884   -0.8017   11.5664 C   0  0  0  0  0  0  0  0  0  0  0  0
   11.4324   -0.9943   10.7080 C   0  0  0  0  0  0  0  0  0  0  0  0
   11.8035   -1.0151    9.2799 C   0  0  0  0  0  0  0  0  0  0  0  0
   12.4616   -2.2988    8.9551 N   0  0  0  0  0  0  0  0  0  0  0  0
  1  2  1  0  0  0  0
  2  3  1  0  0  0  0
  3  4  1  0  0  0  0
  4  5  1  0  0  0  0
  5  6  1  0  0  0  0
  6  7  1  0  0  0  0
  7  8  1  0  0  0  0
  8  9  1  0  0  0  0
  9 10  1  0  0  0  0
 10 11  1  0  0  0  0
 11 12  1  0  0  0  0
 12 13  1  0  0  0  0
 13 14  1  0  0  0  0
M  END
>  <CHROM.1>
-74.54853498,68.49943381,-161.95574075,110.27626956,-62.53209483,179.77854293
65.40214076,122.43707454,143.53960773,-66.25289052,73.87653718,15.54619427
-2.33557395,12.19228242,-0.37820422,-0.44097374,-0.37107088

>  <Name>
ligand

>  <RI>
0

>  <Rbt.Current_Directory>
/home/itssahil/PROJECTS/Mol_Feturizer/New_Systems/rnas/2O3Y

>  <Rbt.Executable>
rbdock ($Id: //depot/dev/client3/rdock/2013.1/src/exe/rbdock.cxx#4 $)

>  <Rbt.Library>
libRbt.so (2013.1, Build901 2013/11/27)

>  <Rbt.Parameter_File>
/export/apps/rDock/src/rDock_2013.1_src/data/scripts/dock_solv.prm

>  <Rbt.Receptor>
prm/blind_docking_80.prm

>  <SCORE>
-2.59166

>  <SCORE.INTER>
2.17365

>  <SCORE.INTER.CONST>
1

>  <SCORE.INTER.POLAR>
0

>  <SCORE.INTER.ROT>
11

>  <SCORE.INTER.SOLV>
6.76768

>  <SCORE.INTER.VDW>
-11.7401

>  <SCORE.INTER.norm>
0.15526

>  <SCORE.INTRA>
-4.77923

>  <SCORE.INTRA.DIHEDRAL>
-18.7472

>  <SCORE.INTRA.DIHEDRAL.0>
24.1231

>  <SCORE.INTRA.POLAR>
0

>  <SCORE.INTRA.POLAR.0>
0

>  <SCORE.INTRA.REPUL>
0

>  <SCORE.INTRA.REPUL.0>
0

>  <SCORE.INTRA.SOLV>
8.14894

>  <SCORE.INTRA.SOLV.lig_0>
-48.2216

>  <SCORE.INTRA.VDW>
0.519879

>  <SCORE.INTRA.VDW.0>
-1.3967

>  <SCORE.INTRA.norm>
-0.341374

>  <SCORE.RESTR>
0.0139254

>  <SCORE.RESTR.CAVITY>
0.0139254

>  <SCORE.RESTR.norm>
0.000994671

>  <SCORE.SYSTEM>
0

>  <SCORE.SYSTEM.CONST>
0

>  <SCORE.SYSTEM.DIHEDRAL>
0

>  <SCORE.SYSTEM.SOLV>
0

>  <SCORE.SYSTEM.norm>
0

>  <SCORE.heavy>
14

>  <SCORE.norm>
-0.185118

>  <RMSD>
14.420

$$$$
ligand
 OpenBabel11021811463D
libRbt.so/2013.1/901 2013/11/27
 14 13  0  0  0  0  0  0  0  0999 V2000
   11.4357   -1.5109    8.5221 N   0  0  0  0  0  0  0  0  0  0  0  0
   12.6987   -1.7582    9.2306 C   0  0  0  0  0  0  0  0  0  0  0  0
   12.6331   -1.1232   10.6157 C   0  0  0  0  0  0  0  0  0  0  0  0
   13.8820   -1.5125   11.3894 C   0  0  0  0  0  0  0  0  0  0  0  0
   15.0622   -1.0257   10.6661 N   0  0  0  0  0  0  0  0  0  0  0  0
   15.7877   -2.2118   10.1788 C   0  0  0  0  0  0  0  0  0  0  0  0
   17.0621   -2.4392   10.9999 C   0  0  0  0  0  0  0  0  0  0  0  0
   17.9296   -1.1752   10.9030 C   0  0  0  0  0  0  0  0  0  0  0  0
   19.0352   -1.2449   11.8722 C   0  0  0  0  0  0  0  0  0  0  0  0
   18.4473   -1.1697   13.2252 N   0  0  0  0  0  0  0  0  0  0  0  0
   19.0626   -2.2438   14.1294 C   0  0  0  0  0  0  0  0  0  0  0  0
   17.9502   -3.1134   14.7277 C   0  0  0  0  0  0  0  0  0  0  0  0
   17.3918   -3.9953   13.6847 C   0  0  0  0  0  0  0  0  0  0  0  0
   16.1511   -4.6290   14.1802 N   0  0  0  0  0  0  0  0  0  0  0  0
  1  2  1  0  0  0  0
  2  3  1  0  0  0  0
  3  4  1  0  0  0  0
  4  5  1  0  0  0  0
  5  6  1  0  0  0  0
  6  7  1  0  0  0  0
  7  8  1  0  0  0  0
  8  9  1  0  0  0  0
  9 10  1  0  0  0  0
 10 11  1  0  0  0  0
 11 12  1  0  0  0  0
 12 13  1  0  0  0  0
 13 14  1  0  0  0  0
M  END
>  <CHROM.1>
174.01411358,59.97769484,-112.60288683,-106.39632499,-57.79404681,169.35025689
-67.37589862,133.76382901,-124.54506866,72.70013794,-168.57353312,16.03812047
-2.08233513,11.73753160,2.55398738,-0.27923581,-0.90240965

>  <Name>
ligand

>  <RI>
0

>  <Rbt.Current_Directory>
/home/itssahil/PROJECTS/Mol_Feturizer/New_Systems/rnas/2O3Y

>  <Rbt.Executable>
rbdock ($Id: //depot/dev/client3/rdock/2013.1/src/exe/rbdock.cxx#4 $)

>  <Rbt.Library>
libRbt.so (2013.1, Build901 2013/11/27)

>  <Rbt.Parameter_File>
/export/apps/rDock/src/rDock_2013.1_src/data/scripts/dock_solv.prm

>  <Rbt.Receptor>
prm/blind_docking_80.prm

>  <SCORE>
-4.37717

>  <SCORE.INTER>
2.6704

>  <SCORE.INTER.CONST>
1

>  <SCORE.INTER.POLAR>
0

>  <SCORE.INTER.ROT>
11

>  <SCORE.INTER.SOLV>
12.6632

>  <SCORE.INTER.VDW>
-13.3741

>  <SCORE.INTER.norm>
0.190743

>  <SCORE.INTRA>
-7.04758

>  <SCORE.INTRA.DIHEDRAL>
-17.7924

>  <SCORE.INTRA.DIHEDRAL.0>
24.1231

>  <SCORE.INTRA.POLAR>
0

>  <SCORE.INTRA.POLAR.0>
0

>  <SCORE.INTRA.REPUL>
0

>  <SCORE.INTRA.REPUL.0>
0

>  <SCORE.INTRA.SOLV>
1.65815

>  <SCORE.INTRA.SOLV.lig_0>
-48.2216

>  <SCORE.INTRA.VDW>
1.01954

>  <SCORE.INTRA.VDW.0>
-1.3967

>  <SCORE.INTRA.norm>
-0.503398

>  <SCORE.RESTR>
0

>  <SCORE.RESTR.CAVITY>
0

>  <SCORE.RESTR.norm>
0

>  <SCORE.SYSTEM>
0

>  <SCORE.SYSTEM.CONST>
0

>  <SCORE.SYSTEM.DIHEDRAL>
0

>  <SCORE.SYSTEM.SOLV>
0

>  <SCORE.SYSTEM.norm>
0

>  <SCORE.heavy>
14

>  <SCORE.norm>
-0.312655

>  <RMSD>
14.439

$$$$
ligand
 OpenBabel11021811463D
libRbt.so/2013.1/901 2013/11/27
 14 13  0  0  0  0  0  0  0  0999 V2000
   12.5372   -2.7222    6.9705 N   0  0  0  0  0  0  0  0  0  0  0  0
   12.3893   -1.5836    7.8869 C   0  0  0  0  0  0  0  0  0  0  0  0
   12.4217   -2.0868    9.3263 C   0  0  0  0  0  0  0  0  0  0  0  0
   12.3000   -0.8949   10.2616 C   0  0  0  0  0  0  0  0  0  0  0  0
   12.3938   -1.3652   11.6482 N   0  0  0  0  0  0  0  0  0  0  0  0
   13.6551   -0.8374   12.1971 C   0  0  0  0  0  0  0  0  0  0  0  0
   14.7338   -1.9265   12.2126 C   0  0  0  0  0  0  0  0  0  0  0  0
   15.5015   -1.8631   10.8836 C   0  0  0  0  0  0  0  0  0  0  0  0
   16.6527   -2.7797   10.9202 C   0  0  0  0  0  0  0  0  0  0  0  0
   17.5271   -2.3531   12.0316 N   0  0  0  0  0  0  0  0  0  0  0  0
   18.4304   -3.5120   12.4684 C   0  0  0  0  0  0  0  0  0  0  0  0
   17.9946   -4.0129   13.8507 C   0  0  0  0  0  0  0  0  0  0  0  0
   18.0908   -2.9147   14.8316 C   0  0  0  0  0  0  0  0  0  0  0  0
   19.4961   -2.4686   14.9434 N   0  0  0  0  0  0  0  0  0  0  0  0
  1  2  1  0  0  0  0
  2  3  1  0  0  0  0
  3  4  1  0  0  0  0
  4  5  1  0  0  0  0
  5  6  1  0  0  0  0
  6  7  1  0  0  0  0
  7  8  1  0  0  0  0
  8  9  1  0  0  0  0
  9 10  1  0  0  0  0
 10 11  1  0  0  0  0
 11 12  1  0  0  0  0
 12 13  1  0  0  0  0
 13 14  1  0  0  0  0
M  END
>  <CHROM.1>
178.71131717,-177.36912381,112.54017924,-101.57204937,90.64552717,173.06539413
-60.05306312,158.85694547,-109.81593282,-59.61639959,-62.14321902,15.29451364
-2.23719151,11.45950601,-2.55701057,-0.41855152,1.27513520

>  <Name>
ligand

>  <RI>
0

>  <Rbt.Current_Directory>
/home/itssahil/PROJECTS/Mol_Feturizer/New_Systems/rnas/2O3Y

>  <Rbt.Executable>
rbdock ($Id: //depot/dev/client3/rdock/2013.1/src/exe/rbdock.cxx#4 $)

>  <Rbt.Library>
libRbt.so (2013.1, Build901 2013/11/27)

>  <Rbt.Parameter_File>
/export/apps/rDock/src/rDock_2013.1_src/data/scripts/dock_solv.prm

>  <Rbt.Receptor>
prm/blind_docking_80.prm

>  <SCORE>
-2.42405

>  <SCORE.INTER>
4.19249

>  <SCORE.INTER.CONST>
1

>  <SCORE.INTER.POLAR>
0

>  <SCORE.INTER.ROT>
11

>  <SCORE.INTER.SOLV>
11.8565

>  <SCORE.INTER.VDW>
-12.0905

>  <SCORE.INTER.norm>
0.299463

>  <SCORE.INTRA>
-7.13577

>  <SCORE.INTRA.DIHEDRAL>
-17.4751

>  <SCORE.INTRA.DIHEDRAL.0>
24.1231

>  <SCORE.INTRA.POLAR>
0

>  <SCORE.INTRA.POLAR.0>
0

>  <SCORE.INTRA.REPUL>
0

>  <SCORE.INTRA.REPUL.0>
0

>  <SCORE.INTRA.SOLV>
1.75285

>  <SCORE.INTRA.SOLV.lig_0>
-48.2216

>  <SCORE.INTRA.VDW>
0.725375

>  <SCORE.INTRA.VDW.0>
-1.3967

>  <SCORE.INTRA.norm>
-0.509698

>  <SCORE.RESTR>
0.519233

>  <SCORE.RESTR.CAVITY>
0.519233

>  <SCORE.RESTR.norm>
0.0370881

>  <SCORE.SYSTEM>
0

>  <SCORE.SYSTEM.CONST>
0

>  <SCORE.SYSTEM.DIHEDRAL>
0

>  <SCORE.SYSTEM.SOLV>
0

>  <SCORE.SYSTEM.norm>
0

>  <SCORE.heavy>
14

>  <SCORE.norm>
-0.173147

>  <RMSD>
14.447

$$$$
ligand
 OpenBabel11021811463D
libRbt.so/2013.1/901 2013/11/27
 14 13  0  0  0  0  0  0  0  0999 V2000
   16.1042   -2.9726   13.6674 N   0  0  0  0  0  0  0  0  0  0  0  0
   17.1412   -3.9396   14.0517 C   0  0  0  0  0  0  0  0  0  0  0  0
   18.2300   -3.2236   14.8443 C   0  0  0  0  0  0  0  0  0  0  0  0
   19.1017   -2.4405   13.8762 C   0  0  0  0  0  0  0  0  0  0  0  0
   18.3352   -1.3014   13.3588 N   0  0  0  0  0  0  0  0  0  0  0  0
   18.9921   -0.8716   12.1120 C   0  0  0  0  0  0  0  0  0  0  0  0
   18.5218   -1.7292   10.9316 C   0  0  0  0  0  0  0  0  0  0  0  0
   16.9866   -1.7768   10.9522 C   0  0  0  0  0  0  0  0  0  0  0  0
   16.5007   -2.8242   10.0392 C   0  0  0  0  0  0  0  0  0  0  0  0
   15.0963   -3.1103   10.3962 N   0  0  0  0  0  0  0  0  0  0  0  0
   14.1484   -2.4099    9.4160 C   0  0  0  0  0  0  0  0  0  0  0  0
   13.0142   -1.7298   10.1921 C   0  0  0  0  0  0  0  0  0  0  0  0
   12.0995   -1.0568    9.2499 C   0  0  0  0  0  0  0  0  0  0  0  0
   11.0022   -0.4076    9.9989 N   0  0  0  0  0  0  0  0  0  0  0  0
  1  2  1  0  0  0  0
  2  3  1  0  0  0  0
  3  4  1  0  0  0  0
  4  5  1  0  0  0  0
  5  6  1  0  0  0  0
  6  7  1  0  0  0  0
  7  8  1  0  0  0  0
  8  9  1  0  0  0  0
  9 10  1  0  0  0  0
 10 11  1  0  0  0  0
 11 12  1  0  0  0  0
 12 13  1  0  0  0  0
 13 14  1  0  0  0  0
M  END
>  <CHROM.1>
-76.61548981,70.71877922,-160.02294086,83.25194754,49.58768530,-167.08557765
162.91736277,101.04827653,-134.87512719,-179.90637779,179.69540428,16.09139315
-2.12821890,11.64894991,0.58680773,0.08852171,1.96478686

>  <Name>
ligand

>  <RI>
0

>  <Rbt.Current_Directory>
/home/itssahil/PROJECTS/Mol_Feturizer/New_Systems/rnas/2O3Y

>  <Rbt.Executable>
rbdock ($Id: //depot/dev/client3/rdock/2013.1/src/exe/rbdock.cxx#4 $)

>  <Rbt.Library>
libRbt.so (2013.1, Build901 2013/11/27)

>  <Rbt.Parameter_File>
/export/apps/rDock/src/rDock_2013.1_src/data/scripts/dock_solv.prm

>  <Rbt.Receptor>
prm/blind_docking_80.prm

>  <SCORE>
-2.49376

>  <SCORE.INTER>
2.9198

>  <SCORE.INTER.CONST>
1

>  <SCORE.INTER.POLAR>
0

>  <SCORE.INTER.ROT>
11

>  <SCORE.INTER.SOLV>
11.9606

>  <SCORE.INTER.VDW>
-12.9737

>  <SCORE.INTER.norm>
0.208557

>  <SCORE.INTRA>
-5.42556

>  <SCORE.INTRA.DIHEDRAL>
-17.9664

>  <SCORE.INTRA.DIHEDRAL.0>
24.1231

>  <SCORE.INTRA.POLAR>
0

>  <SCORE.INTRA.POLAR.0>
0

>  <SCORE.INTRA.REPUL>
0

>  <SCORE.INTRA.REPUL.0>
0

>  <SCORE.INTRA.SOLV>
5.87714

>  <SCORE.INTRA.SOLV.lig_0>
-48.2216

>  <SCORE.INTRA.VDW>
0.619081

>  <SCORE.INTRA.VDW.0>
-1.3967

>  <SCORE.INTRA.norm>
-0.38754

>  <SCORE.RESTR>
0.0120019

>  <SCORE.RESTR.CAVITY>
0.0120019

>  <SCORE.RESTR.norm>
0.000857278

>  <SCORE.SYSTEM>
0

>  <SCORE.SYSTEM.CONST>
0

>  <SCORE.SYSTEM.DIHEDRAL>
0

>  <SCORE.SYSTEM.SOLV>
0

>  <SCORE.SYSTEM.norm>
0

>  <SCORE.heavy>
14

>  <SCORE.norm>
-0.178126

>  <RMSD>
14.459

$$$$
ligand
 OpenBabel11021811463D
libRbt.so/2013.1/901 2013/11/27
 14 13  0  0  0  0  0  0  0  0999 V2000
   11.8505   -1.8371    7.5098 N   0  0  0  0  0  0  0  0  0  0  0  0
   12.2768   -1.3731    8.8369 C   0  0  0  0  0  0  0  0  0  0  0  0
   13.7273   -1.7814    9.0725 C   0  0  0  0  0  0  0  0  0  0  0  0
   14.1743   -1.2351   10.4185 C   0  0  0  0  0  0  0  0  0  0  0  0
   15.6323   -1.3615   10.5241 N   0  0  0  0  0  0  0  0  0  0  0  0
   15.9623   -1.3498   11.9599 C   0  0  0  0  0  0  0  0  0  0  0  0
   17.4148   -0.9097   12.1757 C   0  0  0  0  0  0  0  0  0  0  0  0
   18.2859   -1.5806   11.1031 C   0  0  0  0  0  0  0  0  0  0  0  0
   18.1959   -3.0451   11.2217 C   0  0  0  0  0  0  0  0  0  0  0  0
   19.0027   -3.4480   12.3916 N   0  0  0  0  0  0  0  0  0  0  0  0
   18.0862   -3.8309   13.5592 C   0  0  0  0  0  0  0  0  0  0  0  0
   18.8227   -3.6119   14.8863 C   0  0  0  0  0  0  0  0  0  0  0  0
   19.1679   -2.1849   15.0347 C   0  0  0  0  0  0  0  0  0  0  0  0
   17.9567   -1.4138   15.3884 N   0  0  0  0  0  0  0  0  0  0  0  0
  1  2  1  0  0  0  0
  2  3  1  0  0  0  0
  3  4  1  0  0  0  0
  4  5  1  0  0  0  0
  5  6  1  0  0  0  0
  6  7  1  0  0  0  0
  7  8  1  0  0  0  0
  8  9  1  0  0  0  0
  9 10  1  0  0  0  0
 10 11  1  0  0  0  0
 11 12  1  0  0  0  0
 12 13  1  0  0  0  0
 13 14  1  0  0  0  0
M  END
>  <CHROM.1>
177.22152986,-167.63160061,-157.71044384,-157.01267993,-41.35468165,-60.43309289
-75.25444222,105.71398427,-153.74595066,61.84103036,75.25917117,16.46845924
-2.06879168,11.72027936,-2.53387390,-0.49281413,1.18582123

>  <Name>
ligand

>  <RI>
0

>  <Rbt.Current_Directory>
/home/itssahil/PROJECTS/Mol_Feturizer/New_Systems/rnas/2O3Y

>  <Rbt.Executable>
rbdock ($Id: //depot/dev/client3/rdock/2013.1/src/exe/rbdock.cxx#4 $)

>  <Rbt.Library>
libRbt.so (2013.1, Build901 2013/11/27)

>  <Rbt.Parameter_File>
/export/apps/rDock/src/rDock_2013.1_src/data/scripts/dock_solv.prm

>  <Rbt.Receptor>
prm/blind_docking_80.prm

>  <SCORE>
-0.296062

>  <SCORE.INTER>
4.34939

>  <SCORE.INTER.CONST>
1

>  <SCORE.INTER.POLAR>
0

>  <SCORE.INTER.ROT>
11

>  <SCORE.INTER.SOLV>
15.339

>  <SCORE.INTER.VDW>
-13.1467

>  <SCORE.INTER.norm>
0.310671

>  <SCORE.INTRA>
-4.70786

>  <SCORE.INTRA.DIHEDRAL>
-18.3661

>  <SCORE.INTRA.DIHEDRAL.0>
24.1231

>  <SCORE.INTRA.POLAR>
0

>  <SCORE.INTRA.POLAR.0>
0

>  <SCORE.INTRA.REPUL>
0

>  <SCORE.INTRA.REPUL.0>
0

>  <SCORE.INTRA.SOLV>
4.17374

>  <SCORE.INTRA.SOLV.lig_0>
-48.2216

>  <SCORE.INTRA.VDW>
2.3883

>  <SCORE.INTRA.VDW.0>
-1.3967

>  <SCORE.INTRA.norm>
-0.336276

>  <SCORE.RESTR>
0.0624133

>  <SCORE.RESTR.CAVITY>
0.0624133

>  <SCORE.RESTR.norm>
0.00445809

>  <SCORE.SYSTEM>
0

>  <SCORE.SYSTEM.CONST>
0

>  <SCORE.SYSTEM.DIHEDRAL>
0

>  <SCORE.SYSTEM.SOLV>
0

>  <SCORE.SYSTEM.norm>
0

>  <SCORE.heavy>
14

>  <SCORE.norm>
-0.0211473

>  <RMSD>
14.487

$$$$
ligand
 OpenBabel11021811463D
libRbt.so/2013.1/901 2013/11/27
 14 13  0  0  0  0  0  0  0  0999 V2000
   16.1771   -4.8733   13.9036 N   0  0  0  0  0  0  0  0  0  0  0  0
   16.7209   -3.5180   13.7434 C   0  0  0  0  0  0  0  0  0  0  0  0
   17.9106   -3.3375   14.6807 C   0  0  0  0  0  0  0  0  0  0  0  0
   18.4830   -1.9442   14.4780 C   0  0  0  0  0  0  0  0  0  0  0  0
   19.1057   -1.8728   13.1513 N   0  0  0  0  0  0  0  0  0  0  0  0
   18.4544   -0.7659   12.4294 C   0  0  0  0  0  0  0  0  0  0  0  0
   18.5223   -0.9959   10.9153 C   0  0  0  0  0  0  0  0  0  0  0  0
   17.5499   -2.1294   10.5561 C   0  0  0  0  0  0  0  0  0  0  0  0
   16.1610   -1.6910   10.7694 C   0  0  0  0  0  0  0  0  0  0  0  0
   15.2799   -2.8358   10.4617 N   0  0  0  0  0  0  0  0  0  0  0  0
   14.1863   -2.4111    9.4751 C   0  0  0  0  0  0  0  0  0  0  0  0
   13.0715   -1.6737   10.2268 C   0  0  0  0  0  0  0  0  0  0  0  0
   11.9994   -1.2985    9.2849 C   0  0  0  0  0  0  0  0  0  0  0  0
   10.9624   -0.5198    9.9953 N   0  0  0  0  0  0  0  0  0  0  0  0
  1  2  1  0  0  0  0
  2  3  1  0  0  0  0
  3  4  1  0  0  0  0
  4  5  1  0  0  0  0
  5  6  1  0  0  0  0
  6  7  1  0  0  0  0
  7  8  1  0  0  0  0
  8  9  1  0  0  0  0
  9 10  1  0  0  0  0
 10 11  1  0  0  0  0
 11 12  1  0  0  0  0
 12 13  1  0  0  0  0
 13 14  1  0  0  0  0
M  END
>  <CHROM.1>
178.59009875,-68.87225010,123.00718811,-153.58441636,72.29901168,67.76536307
-177.72296784,-128.60003006,-79.75683813,-178.36431251,-176.75212362,16.04200594
-2.13320902,11.71928798,0.55429645,0.25281240,2.22367292

>  <Name>
ligand

>  <RI>
0

>  <Rbt.Current_Directory>
/home/itssahil/PROJECTS/Mol_Feturizer/New_Systems/rnas/2O3Y

>  <Rbt.Executable>
rbdock ($Id: //depot/dev/client3/rdock/2013.1/src/exe/rbdock.cxx#4 $)

>  <Rbt.Library>
libRbt.so (2013.1, Build901 2013/11/27)

>  <Rbt.Parameter_File>
/export/apps/rDock/src/rDock_2013.1_src/data/scripts/dock_solv.prm

>  <Rbt.Receptor>
prm/blind_docking_80.prm

>  <SCORE>
-5.01501

>  <SCORE.INTER>
3.1947

>  <SCORE.INTER.CONST>
1

>  <SCORE.INTER.POLAR>
0

>  <SCORE.INTER.ROT>
11

>  <SCORE.INTER.SOLV>
12.0014

>  <SCORE.INTER.VDW>
-12.804

>  <SCORE.INTER.norm>
0.228193

>  <SCORE.INTRA>
-8.20971

>  <SCORE.INTRA.DIHEDRAL>
-19.8371

>  <SCORE.INTRA.DIHEDRAL.0>
24.1231

>  <SCORE.INTRA.POLAR>
0

>  <SCORE.INTRA.POLAR.0>
0

>  <SCORE.INTRA.REPUL>
0

>  <SCORE.INTRA.REPUL.0>
0

>  <SCORE.INTRA.SOLV>
1.21295

>  <SCORE.INTRA.SOLV.lig_0>
-48.2216

>  <SCORE.INTRA.VDW>
1.10236

>  <SCORE.INTRA.VDW.0>
-1.3967

>  <SCORE.INTRA.norm>
-0.586408

>  <SCORE.RESTR>
0

>  <SCORE.RESTR.CAVITY>
0

>  <SCORE.RESTR.norm>
0

>  <SCORE.SYSTEM>
0

>  <SCORE.SYSTEM.CONST>
0

>  <SCORE.SYSTEM.DIHEDRAL>
0

>  <SCORE.SYSTEM.SOLV>
0

>  <SCORE.SYSTEM.norm>
0

>  <SCORE.heavy>
14

>  <SCORE.norm>
-0.358215

>  <RMSD>
14.513

$$$$
ligand
 OpenBabel11021811463D
libRbt.so/2013.1/901 2013/11/27
 14 13  0  0  0  0  0  0  0  0999 V2000
   19.0939   -1.4820   15.4954 N   0  0  0  0  0  0  0  0  0  0  0  0
   18.1924   -2.4765   14.8982 C   0  0  0  0  0  0  0  0  0  0  0  0
   19.0185   -3.6006   14.2815 C   0  0  0  0  0  0  0  0  0  0  0  0
   18.0879   -4.5216   13.5097 C   0  0  0  0  0  0  0  0  0  0  0  0
   17.5601   -3.8002   12.3461 N   0  0  0  0  0  0  0  0  0  0  0  0
   16.1216   -3.5911   12.5857 C   0  0  0  0  0  0  0  0  0  0  0  0
   15.4298   -3.0923   11.3119 C   0  0  0  0  0  0  0  0  0  0  0  0
   13.9197   -3.0152   11.5824 C   0  0  0  0  0  0  0  0  0  0  0  0
   13.5990   -1.7772   12.3114 C   0  0  0  0  0  0  0  0  0  0  0  0
   13.4653   -0.6951   11.3150 N   0  0  0  0  0  0  0  0  0  0  0  0
   11.9937   -0.5127   10.9267 C   0  0  0  0  0  0  0  0  0  0  0  0
   11.8461   -0.6114    9.4035 C   0  0  0  0  0  0  0  0  0  0  0  0
   12.1709   -1.9805    8.9592 C   0  0  0  0  0  0  0  0  0  0  0  0
   12.0329   -2.0732    7.4899 N   0  0  0  0  0  0  0  0  0  0  0  0
  1  2  1  0  0  0  0
  2  3  1  0  0  0  0
  3  4  1  0  0  0  0
  4  5  1  0  0  0  0
  5  6  1  0  0  0  0
  6  7  1  0  0  0  0
  7  8  1  0  0  0  0
  8  9  1  0  0  0  0
  9 10  1  0  0  0  0
 10 11  1  0  0  0  0
 11 12  1  0  0  0  0
 12 13  1  0  0  0  0
 13 14  1  0  0  0  0
M  END
>  <CHROM.1>
-172.53221299,67.65210129,-111.69484652,-168.90109947,174.90856673,80.48983262
83.79503592,95.10923717,-125.68203806,66.11217547,-179.80336778,15.18069695
-2.37368122,11.88698862,0.26605433,-0.64351015,0.76854086

>  <Name>
ligand

>  <RI>
0

>  <Rbt.Current_Directory>
/home/itssahil/PROJECTS/Mol_Feturizer/New_Systems/rnas/2O3Y

>  <Rbt.Executable>
rbdock ($Id: //depot/dev/client3/rdock/2013.1/src/exe/rbdock.cxx#4 $)

>  <Rbt.Library>
libRbt.so (2013.1, Build901 2013/11/27)

>  <Rbt.Parameter_File>
/export/apps/rDock/src/rDock_2013.1_src/data/scripts/dock_solv.prm

>  <Rbt.Receptor>
prm/blind_docking_80.prm

>  <SCORE>
-1.12306

>  <SCORE.INTER>
5.88916

>  <SCORE.INTER.CONST>
1

>  <SCORE.INTER.POLAR>
0

>  <SCORE.INTER.ROT>
11

>  <SCORE.INTER.SOLV>
14.4318

>  <SCORE.INTER.VDW>
-11.8178

>  <SCORE.INTER.norm>
0.420654

>  <SCORE.INTRA>
-7.02895

>  <SCORE.INTRA.DIHEDRAL>
-16.8061

>  <SCORE.INTRA.DIHEDRAL.0>
24.1231

>  <SCORE.INTRA.POLAR>
0

>  <SCORE.INTRA.POLAR.0>
0

>  <SCORE.INTRA.REPUL>
0

>  <SCORE.INTRA.REPUL.0>
0

>  <SCORE.INTRA.SOLV>
0.600029

>  <SCORE.INTRA.SOLV.lig_0>
-48.2216

>  <SCORE.INTRA.VDW>
1.07407

>  <SCORE.INTRA.VDW.0>
-1.3967

>  <SCORE.INTRA.norm>
-0.502068

>  <SCORE.RESTR>
0.0167324

>  <SCORE.RESTR.CAVITY>
0.0167324

>  <SCORE.RESTR.norm>
0.00119517

>  <SCORE.SYSTEM>
0

>  <SCORE.SYSTEM.CONST>
0

>  <SCORE.SYSTEM.DIHEDRAL>
0

>  <SCORE.SYSTEM.SOLV>
0

>  <SCORE.SYSTEM.norm>
0

>  <SCORE.heavy>
14

>  <SCORE.norm>
-0.0802185

>  <RMSD>
14.514

$$$$
ligand
 OpenBabel11021811463D
libRbt.so/2013.1/901 2013/11/27
 14 13  0  0  0  0  0  0  0  0999 V2000
   12.7430   -1.6209   12.2747 N   0  0  0  0  0  0  0  0  0  0  0  0
   12.7610   -0.9080   10.9904 C   0  0  0  0  0  0  0  0  0  0  0  0
   14.1536   -1.0089   10.3766 C   0  0  0  0  0  0  0  0  0  0  0  0
   14.4414   -2.4672   10.0596 C   0  0  0  0  0  0  0  0  0  0  0  0
   15.7684   -2.5681    9.4416 N   0  0  0  0  0  0  0  0  0  0  0  0
   16.6628   -3.1789   10.4404 C   0  0  0  0  0  0  0  0  0  0  0  0
   18.0204   -2.4672   10.4551 C   0  0  0  0  0  0  0  0  0  0  0  0
   17.7958   -1.0098   10.8853 C   0  0  0  0  0  0  0  0  0  0  0  0
   17.4267   -0.9539   12.3092 C   0  0  0  0  0  0  0  0  0  0  0  0
   18.6207   -1.3282   13.0941 N   0  0  0  0  0  0  0  0  0  0  0  0
   18.2052   -1.8288   14.4822 C   0  0  0  0  0  0  0  0  0  0  0  0
   18.7207   -3.2579   14.6907 C   0  0  0  0  0  0  0  0  0  0  0  0
   18.1055   -4.1592   13.6974 C   0  0  0  0  0  0  0  0  0  0  0  0
   16.6501   -4.2507   13.9421 N   0  0  0  0  0  0  0  0  0  0  0  0
  1  2  1  0  0  0  0
  2  3  1  0  0  0  0
  3  4  1  0  0  0  0
  4  5  1  0  0  0  0
  5  6  1  0  0  0  0
  6  7  1  0  0  0  0
  7  8  1  0  0  0  0
  8  9  1  0  0  0  0
  9 10  1  0  0  0  0
 10 11  1  0  0  0  0
 11 12  1  0  0  0  0
 12 13  1  0  0  0  0
 13 14  1  0  0  0  0
M  END
>  <CHROM.1>
64.35119185,178.77426881,107.79608385,-137.71075893,63.07277333,70.14113211
69.50350544,-157.59834294,121.67078551,-62.40623129,-65.72743034,16.43415523
-2.21473169,11.93841763,2.49104695,0.09640850,-1.33319538

>  <Name>
ligand

>  <RI>
0

>  <Rbt.Current_Directory>
/home/itssahil/PROJECTS/Mol_Feturizer/New_Systems/rnas/2O3Y

>  <Rbt.Executable>
rbdock ($Id: //depot/dev/client3/rdock/2013.1/src/exe/rbdock.cxx#4 $)

>  <Rbt.Library>
libRbt.so (2013.1, Build901 2013/11/27)

>  <Rbt.Parameter_File>
/export/apps/rDock/src/rDock_2013.1_src/data/scripts/dock_solv.prm

>  <Rbt.Receptor>
prm/blind_docking_80.prm

>  <SCORE>
-5.51242

>  <SCORE.INTER>
0.888044

>  <SCORE.INTER.CONST>
1

>  <SCORE.INTER.POLAR>
0

>  <SCORE.INTER.ROT>
11

>  <SCORE.INTER.SOLV>
14.3621

>  <SCORE.INTER.VDW>
-15.1287

>  <SCORE.INTER.norm>
0.0634317

>  <SCORE.INTRA>
-6.40046

>  <SCORE.INTRA.DIHEDRAL>
-19.5025

>  <SCORE.INTRA.DIHEDRAL.0>
24.1231

>  <SCORE.INTRA.POLAR>
0

>  <SCORE.INTRA.POLAR.0>
0

>  <SCORE.INTRA.REPUL>
0

>  <SCORE.INTRA.REPUL.0>
0

>  <SCORE.INTRA.SOLV>
4.96229

>  <SCORE.INTRA.SOLV.lig_0>
-48.2216

>  <SCORE.INTRA.VDW>
0.869654

>  <SCORE.INTRA.VDW.0>
-1.3967

>  <SCORE.INTRA.norm>
-0.457176

>  <SCORE.RESTR>
0

>  <SCORE.RESTR.CAVITY>
0

>  <SCORE.RESTR.norm>
0

>  <SCORE.SYSTEM>
0

>  <SCORE.SYSTEM.CONST>
0

>  <SCORE.SYSTEM.DIHEDRAL>
0

>  <SCORE.SYSTEM.SOLV>
0

>  <SCORE.SYSTEM.norm>
0

>  <SCORE.heavy>
14

>  <SCORE.norm>
-0.393744

>  <RMSD>
14.518

$$$$
ligand
 OpenBabel11021811463D
libRbt.so/2013.1/901 2013/11/27
 14 13  0  0  0  0  0  0  0  0999 V2000
   16.9593   -5.1971   13.6553 N   0  0  0  0  0  0  0  0  0  0  0  0
   16.7020   -3.7716   13.9004 C   0  0  0  0  0  0  0  0  0  0  0  0
   17.7954   -3.2093   14.8029 C   0  0  0  0  0  0  0  0  0  0  0  0
   19.1456   -3.4859   14.1621 C   0  0  0  0  0  0  0  0  0  0  0  0
   19.1072   -3.0497   12.7617 N   0  0  0  0  0  0  0  0  0  0  0  0
   19.1892   -1.5787   12.7669 C   0  0  0  0  0  0  0  0  0  0  0  0
   18.3230   -0.9865   11.6493 C   0  0  0  0  0  0  0  0  0  0  0  0
   16.8574   -1.3490   11.9323 C   0  0  0  0  0  0  0  0  0  0  0  0
   16.1096   -1.4556   10.6689 C   0  0  0  0  0  0  0  0  0  0  0  0
   14.7556   -1.9491   10.9925 N   0  0  0  0  0  0  0  0  0  0  0  0
   13.6961   -1.0280   10.3771 C   0  0  0  0  0  0  0  0  0  0  0  0
   12.8292   -1.8237    9.3937 C   0  0  0  0  0  0  0  0  0  0  0  0
   11.7412   -0.9676    8.8832 C   0  0  0  0  0  0  0  0  0  0  0  0
   10.9115   -0.4914   10.0108 N   0  0  0  0  0  0  0  0  0  0  0  0
  1  2  1  0  0  0  0
  2  3  1  0  0  0  0
  3  4  1  0  0  0  0
  4  5  1  0  0  0  0
  5  6  1  0  0  0  0
  6  7  1  0  0  0  0
  7  8  1  0  0  0  0
  8  9  1  0  0  0  0
  9 10  1  0  0  0  0
 10 11  1  0  0  0  0
 11 12  1  0  0  0  0
 12 13  1  0  0  0  0
 13 14  1  0  0  0  0
M  END
>  <CHROM.1>
55.33173532,49.82254311,75.35416731,-143.83272084,63.37796577,-150.61920177
173.85377214,127.76972414,119.48137841,175.42972722,-59.29633564,16.00897277
-2.16715745,11.85407372,0.58040442,0.25584224,2.42732761

>  <Name>
ligand

>  <RI>
0

>  <Rbt.Current_Directory>
/home/itssahil/PROJECTS/Mol_Feturizer/New_Systems/rnas/2O3Y

>  <Rbt.Executable>
rbdock ($Id: //depot/dev/client3/rdock/2013.1/src/exe/rbdock.cxx#4 $)

>  <Rbt.Library>
libRbt.so (2013.1, Build901 2013/11/27)

>  <Rbt.Parameter_File>
/export/apps/rDock/src/rDock_2013.1_src/data/scripts/dock_solv.prm

>  <Rbt.Receptor>
prm/blind_docking_80.prm

>  <SCORE>
-0.113324

>  <SCORE.INTER>
3.47446

>  <SCORE.INTER.CONST>
1

>  <SCORE.INTER.POLAR>
0

>  <SCORE.INTER.ROT>
11

>  <SCORE.INTER.SOLV>
12.5168

>  <SCORE.INTER.VDW>
-12.7893

>  <SCORE.INTER.norm>
0.248176

>  <SCORE.INTRA>
-3.74736

>  <SCORE.INTRA.DIHEDRAL>
-17.1074

>  <SCORE.INTRA.DIHEDRAL.0>
24.1231

>  <SCORE.INTRA.POLAR>
0

>  <SCORE.INTRA.POLAR.0>
0

>  <SCORE.INTRA.REPUL>
0

>  <SCORE.INTRA.REPUL.0>
0

>  <SCORE.INTRA.SOLV>
3.79099

>  <SCORE.INTRA.SOLV.lig_0>
-48.2216

>  <SCORE.INTRA.VDW>
2.91085

>  <SCORE.INTRA.VDW.0>
-1.3967

>  <SCORE.INTRA.norm>
-0.267669

>  <SCORE.RESTR>
0.159576

>  <SCORE.RESTR.CAVITY>
0.159576

>  <SCORE.RESTR.norm>
0.0113983

>  <SCORE.SYSTEM>
0

>  <SCORE.SYSTEM.CONST>
0

>  <SCORE.SYSTEM.DIHEDRAL>
0

>  <SCORE.SYSTEM.SOLV>
0

>  <SCORE.SYSTEM.norm>
0

>  <SCORE.heavy>
14

>  <SCORE.norm>
-0.00809457

>  <RMSD>
14.545

$$$$
ligand
 OpenBabel11021811463D
libRbt.so/2013.1/901 2013/11/27
 14 13  0  0  0  0  0  0  0  0999 V2000
   19.0607   -0.9316   13.4318 N   0  0  0  0  0  0  0  0  0  0  0  0
   19.2858   -1.4788   14.7764 C   0  0  0  0  0  0  0  0  0  0  0  0
   18.2585   -2.5711   15.0552 C   0  0  0  0  0  0  0  0  0  0  0  0
   18.4357   -3.6792   14.0302 C   0  0  0  0  0  0  0  0  0  0  0  0
   17.3502   -4.6536   14.1888 N   0  0  0  0  0  0  0  0  0  0  0  0
   16.5184   -4.5722   12.9755 C   0  0  0  0  0  0  0  0  0  0  0  0
   15.4133   -3.5241   13.1490 C   0  0  0  0  0  0  0  0  0  0  0  0
   16.0010   -2.1446   12.8155 C   0  0  0  0  0  0  0  0  0  0  0  0
   15.7210   -1.8014   11.4118 C   0  0  0  0  0  0  0  0  0  0  0  0
   14.2999   -1.4084   11.3239 N   0  0  0  0  0  0  0  0  0  0  0  0
   13.8617   -1.3340    9.8568 C   0  0  0  0  0  0  0  0  0  0  0  0
   12.3913   -0.9058    9.7787 C   0  0  0  0  0  0  0  0  0  0  0  0
   11.8961   -1.0740    8.3989 C   0  0  0  0  0  0  0  0  0  0  0  0
   11.9060   -2.5079    8.0377 N   0  0  0  0  0  0  0  0  0  0  0  0
  1  2  1  0  0  0  0
  2  3  1  0  0  0  0
  3  4  1  0  0  0  0
  4  5  1  0  0  0  0
  5  6  1  0  0  0  0
  6  7  1  0  0  0  0
  7  8  1  0  0  0  0
  8  9  1  0  0  0  0
  9 10  1  0  0  0  0
 10 11  1  0  0  0  0
 11 12  1  0  0  0  0
 12 13  1  0  0  0  0
 13 14  1  0  0  0  0
M  END
>  <CHROM.1>
60.96916874,-173.18648557,113.06583799,-89.28432586,83.67516107,95.20221185
75.77953954,-167.68322917,-179.19375438,-169.55827433,64.72843754,15.74286431
-2.32760481,12.08800384,-0.37351853,-0.66278194,-0.32521370

>  <Name>
ligand

>  <RI>
0

>  <Rbt.Current_Directory>
/home/itssahil/PROJECTS/Mol_Feturizer/New_Systems/rnas/2O3Y

>  <Rbt.Executable>
rbdock ($Id: //depot/dev/client3/rdock/2013.1/src/exe/rbdock.cxx#4 $)

>  <Rbt.Library>
libRbt.so (2013.1, Build901 2013/11/27)

>  <Rbt.Parameter_File>
/export/apps/rDock/src/rDock_2013.1_src/data/scripts/dock_solv.prm

>  <Rbt.Receptor>
prm/blind_docking_80.prm

>  <SCORE>
-1.79613

>  <SCORE.INTER>
2.18032

>  <SCORE.INTER.CONST>
1

>  <SCORE.INTER.POLAR>
0

>  <SCORE.INTER.ROT>
11

>  <SCORE.INTER.SOLV>
11.367

>  <SCORE.INTER.VDW>
-13.2688

>  <SCORE.INTER.norm>
0.155737

>  <SCORE.INTRA>
-4.18708

>  <SCORE.INTRA.DIHEDRAL>
-14.9644

>  <SCORE.INTRA.DIHEDRAL.0>
24.1231

>  <SCORE.INTRA.POLAR>
0

>  <SCORE.INTRA.POLAR.0>
0

>  <SCORE.INTRA.REPUL>
0

>  <SCORE.INTRA.REPUL.0>
0

>  <SCORE.INTRA.SOLV>
3.56186

>  <SCORE.INTRA.SOLV.lig_0>
-48.2216

>  <SCORE.INTRA.VDW>
1.51417

>  <SCORE.INTRA.VDW.0>
-1.3967

>  <SCORE.INTRA.norm>
-0.299077

>  <SCORE.RESTR>
0.210628

>  <SCORE.RESTR.CAVITY>
0.210628

>  <SCORE.RESTR.norm>
0.0150449

>  <SCORE.SYSTEM>
0

>  <SCORE.SYSTEM.CONST>
0

>  <SCORE.SYSTEM.DIHEDRAL>
0

>  <SCORE.SYSTEM.SOLV>
0

>  <SCORE.SYSTEM.norm>
0

>  <SCORE.heavy>
14

>  <SCORE.norm>
-0.128295

>  <RMSD>
14.552

$$$$
ligand
 OpenBabel11021811463D
libRbt.so/2013.1/901 2013/11/27
 14 13  0  0  0  0  0  0  0  0999 V2000
   19.0139   -3.0788   15.3308 N   0  0  0  0  0  0  0  0  0  0  0  0
   19.0887   -3.6066   13.9619 C   0  0  0  0  0  0  0  0  0  0  0  0
   17.8401   -4.4328   13.6707 C   0  0  0  0  0  0  0  0  0  0  0  0
   16.6161   -3.5585   13.8885 C   0  0  0  0  0  0  0  0  0  0  0  0
   16.7418   -2.3489   13.0676 N   0  0  0  0  0  0  0  0  0  0  0  0
   16.2960   -2.7030   11.7087 C   0  0  0  0  0  0  0  0  0  0  0  0
   14.7696   -2.6109   11.6010 C   0  0  0  0  0  0  0  0  0  0  0  0
   14.3448   -1.1850   11.9827 C   0  0  0  0  0  0  0  0  0  0  0  0
   12.9359   -0.9624   11.6192 C   0  0  0  0  0  0  0  0  0  0  0  0
   12.8045   -1.2143   10.1697 N   0  0  0  0  0  0  0  0  0  0  0  0
   11.4562   -0.6903    9.6622 C   0  0  0  0  0  0  0  0  0  0  0  0
   11.0048   -1.5158    8.4512 C   0  0  0  0  0  0  0  0  0  0  0  0
   12.0643   -1.5138    7.4241 C   0  0  0  0  0  0  0  0  0  0  0  0
   13.0644   -2.5566    7.7384 N   0  0  0  0  0  0  0  0  0  0  0  0
  1  2  1  0  0  0  0
  2  3  1  0  0  0  0
  3  4  1  0  0  0  0
  4  5  1  0  0  0  0
  5  6  1  0  0  0  0
  6  7  1  0  0  0  0
  7  8  1  0  0  0  0
  8  9  1  0  0  0  0
  9 10  1  0  0  0  0
 10 11  1  0  0  0  0
 11 12  1  0  0  0  0
 12 13  1  0  0  0  0
 13 14  1  0  0  0  0
M  END
>  <CHROM.1>
56.97625481,54.99175249,82.26882548,83.63998429,57.39947000,167.83836017
-57.48453231,-166.78786982,-151.50902661,-54.55313857,83.45660086,14.85986262
-2.28410225,11.44828087,0.50511672,-0.57978199,1.15185522

>  <Name>
ligand

>  <RI>
0

>  <Rbt.Current_Directory>
/home/itssahil/PROJECTS/Mol_Feturizer/New_Systems/rnas/2O3Y

>  <Rbt.Executable>
rbdock ($Id: //depot/dev/client3/rdock/2013.1/src/exe/rbdock.cxx#4 $)

>  <Rbt.Library>
libRbt.so (2013.1, Build901 2013/11/27)

>  <Rbt.Parameter_File>
/export/apps/rDock/src/rDock_2013.1_src/data/scripts/dock_solv.prm

>  <Rbt.Receptor>
prm/blind_docking_80.prm

>  <SCORE>
0.937857

>  <SCORE.INTER>
4.4382

>  <SCORE.INTER.CONST>
1

>  <SCORE.INTER.POLAR>
0

>  <SCORE.INTER.ROT>
11

>  <SCORE.INTER.SOLV>
15.0329

>  <SCORE.INTER.VDW>
-12.9855

>  <SCORE.INTER.norm>
0.317015

>  <SCORE.INTRA>
-3.92249

>  <SCORE.INTRA.DIHEDRAL>
-19.9427

>  <SCORE.INTRA.DIHEDRAL.0>
24.1231

>  <SCORE.INTRA.POLAR>
0

>  <SCORE.INTRA.POLAR.0>
0

>  <SCORE.INTRA.REPUL>
0

>  <SCORE.INTRA.REPUL.0>
0

>  <SCORE.INTRA.SOLV>
5.63726

>  <SCORE.INTRA.SOLV.lig_0>
-48.2216

>  <SCORE.INTRA.VDW>
3.23021

>  <SCORE.INTRA.VDW.0>
-1.3967

>  <SCORE.INTRA.norm>
-0.280178

>  <SCORE.RESTR>
0.42214

>  <SCORE.RESTR.CAVITY>
0.42214

>  <SCORE.RESTR.norm>
0.0301529

>  <SCORE.SYSTEM>
0

>  <SCORE.SYSTEM.CONST>
0

>  <SCORE.SYSTEM.DIHEDRAL>
0

>  <SCORE.SYSTEM.SOLV>
0

>  <SCORE.SYSTEM.norm>
0

>  <SCORE.heavy>
14

>  <SCORE.norm>
0.0669898

>  <RMSD>
14.561

$$$$
ligand
 OpenBabel11021811463D
libRbt.so/2013.1/901 2013/11/27
 14 13  0  0  0  0  0  0  0  0999 V2000
   16.1821   -4.9353   13.9398 N   0  0  0  0  0  0  0  0  0  0  0  0
   17.4470   -4.2667   13.6065 C   0  0  0  0  0  0  0  0  0  0  0  0
   17.8140   -3.2952   14.7235 C   0  0  0  0  0  0  0  0  0  0  0  0
   19.0950   -2.5731   14.3392 C   0  0  0  0  0  0  0  0  0  0  0  0
   18.7632   -1.4535   13.4507 N   0  0  0  0  0  0  0  0  0  0  0  0
   19.0769   -1.8863   12.0778 C   0  0  0  0  0  0  0  0  0  0  0  0
   18.3208   -1.0290   11.0564 C   0  0  0  0  0  0  0  0  0  0  0  0
   16.8145   -1.2071   11.2988 C   0  0  0  0  0  0  0  0  0  0  0  0
   16.3552   -2.4784   10.7160 C   0  0  0  0  0  0  0  0  0  0  0  0
   14.9126   -2.6064   11.0063 N   0  0  0  0  0  0  0  0  0  0  0  0
   14.0942   -1.8197    9.9762 C   0  0  0  0  0  0  0  0  0  0  0  0
   12.7841   -1.3422   10.6141 C   0  0  0  0  0  0  0  0  0  0  0  0
   11.9682   -0.6362    9.6075 C   0  0  0  0  0  0  0  0  0  0  0  0
   11.5779   -1.5761    8.5347 N   0  0  0  0  0  0  0  0  0  0  0  0
  1  2  1  0  0  0  0
  2  3  1  0  0  0  0
  3  4  1  0  0  0  0
  4  5  1  0  0  0  0
  5  6  1  0  0  0  0
  6  7  1  0  0  0  0
  7  8  1  0  0  0  0
  8  9  1  0  0  0  0
  9 10  1  0  0  0  0
 10 11  1  0  0  0  0
 11 12  1  0  0  0  0
 12 13  1  0  0  0  0
 13 14  1  0  0  0  0
M  END
>  <CHROM.1>
-177.83492413,82.56451089,-101.51709911,159.57379872,-60.91469649,-78.80914861
178.76883935,82.63750874,-151.01098750,-177.50920645,64.04720590,16.08643745
-2.22163299,11.78198727,0.56682748,0.31365689,2.36030543

>  <Name>
ligand

>  <RI>
0

>  <Rbt.Current_Directory>
/home/itssahil/PROJECTS/Mol_Feturizer/New_Systems/rnas/2O3Y

>  <Rbt.Executable>
rbdock ($Id: //depot/dev/client3/rdock/2013.1/src/exe/rbdock.cxx#4 $)

>  <Rbt.Library>
libRbt.so (2013.1, Build901 2013/11/27)

>  <Rbt.Parameter_File>
/export/apps/rDock/src/rDock_2013.1_src/data/scripts/dock_solv.prm

>  <Rbt.Receptor>
prm/blind_docking_80.prm

>  <SCORE>
-4.60437

>  <SCORE.INTER>
2.34972

>  <SCORE.INTER.CONST>
1

>  <SCORE.INTER.POLAR>
0

>  <SCORE.INTER.ROT>
11

>  <SCORE.INTER.SOLV>
10.0319

>  <SCORE.INTER.VDW>
-12.7108

>  <SCORE.INTER.norm>
0.167837

>  <SCORE.INTRA>
-6.95409

>  <SCORE.INTRA.DIHEDRAL>
-18.7365

>  <SCORE.INTRA.DIHEDRAL.0>
24.1231

>  <SCORE.INTRA.POLAR>
0

>  <SCORE.INTRA.POLAR.0>
0

>  <SCORE.INTRA.REPUL>
0

>  <SCORE.INTRA.REPUL.0>
0

>  <SCORE.INTRA.SOLV>
2.29419

>  <SCORE.INTRA.SOLV.lig_0>
-48.2216

>  <SCORE.INTRA.VDW>
1.26705

>  <SCORE.INTRA.VDW.0>
-1.3967

>  <SCORE.INTRA.norm>
-0.49672

>  <SCORE.RESTR>
0

>  <SCORE.RESTR.CAVITY>
0

>  <SCORE.RESTR.norm>
0

>  <SCORE.SYSTEM>
0

>  <SCORE.SYSTEM.CONST>
0

>  <SCORE.SYSTEM.DIHEDRAL>
0

>  <SCORE.SYSTEM.SOLV>
0

>  <SCORE.SYSTEM.norm>
0

>  <SCORE.heavy>
14

>  <SCORE.norm>
-0.328883

>  <RMSD>
14.593

$$$$
ligand
 OpenBabel11021811463D
libRbt.so/2013.1/901 2013/11/27
 14 13  0  0  0  0  0  0  0  0999 V2000
   20.0270   -1.7491   12.9498 N   0  0  0  0  0  0  0  0  0  0  0  0
   18.9497   -1.1048   13.7131 C   0  0  0  0  0  0  0  0  0  0  0  0
   18.7627   -1.8367   15.0382 C   0  0  0  0  0  0  0  0  0  0  0  0
   18.2375   -3.2340   14.7526 C   0  0  0  0  0  0  0  0  0  0  0  0
   16.9074   -3.1281   14.1421 N   0  0  0  0  0  0  0  0  0  0  0  0
   16.6940   -4.3580   13.3595 C   0  0  0  0  0  0  0  0  0  0  0  0
   15.9527   -4.0448   12.0548 C   0  0  0  0  0  0  0  0  0  0  0  0
   16.7865   -3.0297   11.2586 C   0  0  0  0  0  0  0  0  0  0  0  0
   16.2109   -2.8440    9.9166 C   0  0  0  0  0  0  0  0  0  0  0  0
   14.8860   -2.2127   10.0832 N   0  0  0  0  0  0  0  0  0  0  0  0
   13.8649   -2.8722    9.1493 C   0  0  0  0  0  0  0  0  0  0  0  0
   12.4469   -2.4573    9.5600 C   0  0  0  0  0  0  0  0  0  0  0  0
   12.2101   -1.0509    9.1814 C   0  0  0  0  0  0  0  0  0  0  0  0
   12.0146   -0.9551    7.7188 N   0  0  0  0  0  0  0  0  0  0  0  0
  1  2  1  0  0  0  0
  2  3  1  0  0  0  0
  3  4  1  0  0  0  0
  4  5  1  0  0  0  0
  5  6  1  0  0  0  0
  6  7  1  0  0  0  0
  7  8  1  0  0  0  0
  8  9  1  0  0  0  0
  9 10  1  0  0  0  0
 10 11  1  0  0  0  0
 11 12  1  0  0  0  0
 12 13  1  0  0  0  0
 13 14  1  0  0  0  0
M  END
>  <CHROM.1>
-66.71365264,-64.26394697,155.40738878,-141.89600791,58.43719482,172.00345434
65.83227528,-137.29289574,166.43119567,72.92058783,74.36955212,15.99651295
-2.49142967,11.63431673,-0.50916904,-0.56408262,-0.68476997

>  <Name>
ligand

>  <RI>
0

>  <Rbt.Current_Directory>
/home/itssahil/PROJECTS/Mol_Feturizer/New_Systems/rnas/2O3Y

>  <Rbt.Executable>
rbdock ($Id: //depot/dev/client3/rdock/2013.1/src/exe/rbdock.cxx#4 $)

>  <Rbt.Library>
libRbt.so (2013.1, Build901 2013/11/27)

>  <Rbt.Parameter_File>
/export/apps/rDock/src/rDock_2013.1_src/data/scripts/dock_solv.prm

>  <Rbt.Receptor>
prm/blind_docking_80.prm

>  <SCORE>
-0.653321

>  <SCORE.INTER>
6.11359

>  <SCORE.INTER.CONST>
1

>  <SCORE.INTER.POLAR>
0

>  <SCORE.INTER.ROT>
11

>  <SCORE.INTER.SOLV>
10.7793

>  <SCORE.INTER.VDW>
-10.4507

>  <SCORE.INTER.norm>
0.436685

>  <SCORE.INTRA>
-7.31321

>  <SCORE.INTRA.DIHEDRAL>
-19.7367

>  <SCORE.INTRA.DIHEDRAL.0>
24.1231

>  <SCORE.INTRA.POLAR>
0

>  <SCORE.INTRA.POLAR.0>
0

>  <SCORE.INTRA.REPUL>
0

>  <SCORE.INTRA.REPUL.0>
0

>  <SCORE.INTRA.SOLV>
4.0509

>  <SCORE.INTRA.SOLV.lig_0>
-48.2216

>  <SCORE.INTRA.VDW>
0.529689

>  <SCORE.INTRA.VDW.0>
-1.3967

>  <SCORE.INTRA.norm>
-0.522372

>  <SCORE.RESTR>
0.546298

>  <SCORE.RESTR.CAVITY>
0.546298

>  <SCORE.RESTR.norm>
0.0390213

>  <SCORE.SYSTEM>
0

>  <SCORE.SYSTEM.CONST>
0

>  <SCORE.SYSTEM.DIHEDRAL>
0

>  <SCORE.SYSTEM.SOLV>
0

>  <SCORE.SYSTEM.norm>
0

>  <SCORE.heavy>
14

>  <SCORE.norm>
-0.0466658

>  <RMSD>
14.726

$$$$
ligand
 OpenBabel11021811463D
libRbt.so/2013.1/901 2013/11/27
 14 13  0  0  0  0  0  0  0  0999 V2000
    9.2635   15.1290   33.5336 N   0  0  0  0  0  0  0  0  0  0  0  0
   10.3848   14.4502   32.8701 C   0  0  0  0  0  0  0  0  0  0  0  0
   10.1922   12.9406   32.9718 C   0  0  0  0  0  0  0  0  0  0  0  0
    9.0003   12.5432   32.1166 C   0  0  0  0  0  0  0  0  0  0  0  0
    9.3504   12.7134   30.7019 N   0  0  0  0  0  0  0  0  0  0  0  0
    8.5762   13.8632   30.2024 C   0  0  0  0  0  0  0  0  0  0  0  0
    9.2651   14.4885   28.9841 C   0  0  0  0  0  0  0  0  0  0  0  0
   10.6925   14.8863   29.3892 C   0  0  0  0  0  0  0  0  0  0  0  0
   11.4607   15.2927   28.2012 C   0  0  0  0  0  0  0  0  0  0  0  0
   12.6647   16.0072   28.6720 N   0  0  0  0  0  0  0  0  0  0  0  0
   13.5053   16.4710   27.4769 C   0  0  0  0  0  0  0  0  0  0  0  0
   14.5664   17.4719   27.9501 C   0  0  0  0  0  0  0  0  0  0  0  0
   13.9183   18.7407   28.3340 C   0  0  0  0  0  0  0  0  0  0  0  0
   13.1391   18.5461   29.5756 N   0  0  0  0  0  0  0  0  0  0  0  0
  1  2  1  0  0  0  0
  2  3  1  0  0  0  0
  3  4  1  0  0  0  0
  4  5  1  0  0  0  0
  5  6  1  0  0  0  0
  6  7  1  0  0  0  0
  7  8  1  0  0  0  0
  8  9  1  0  0  0  0
  9 10  1  0  0  0  0
 10 11  1  0  0  0  0
 11 12  1  0  0  0  0
 12 13  1  0  0  0  0
 13 14  1  0  0  0  0
M  END
>  <CHROM.1>
68.36030722,69.53253622,-109.63107795,156.03231506,-56.86656394,171.03485520
164.55809968,-179.46341275,167.23162969,-70.41814775,69.86776450,11.14141365
15.25300903,30.06974580,-2.69892772,-0.82862067,-1.74588620

>  <Name>
ligand

>  <RI>
0

>  <Rbt.Current_Directory>
/home/itssahil/PROJECTS/Mol_Feturizer/New_Systems/rnas/2O3Y

>  <Rbt.Executable>
rbdock ($Id: //depot/dev/client3/rdock/2013.1/src/exe/rbdock.cxx#4 $)

>  <Rbt.Library>
libRbt.so (2013.1, Build901 2013/11/27)

>  <Rbt.Parameter_File>
/export/apps/rDock/src/rDock_2013.1_src/data/scripts/dock_solv.prm

>  <Rbt.Receptor>
prm/blind_docking_40.prm

>  <SCORE>
-0.680752

>  <SCORE.INTER>
5.58115

>  <SCORE.INTER.CONST>
1

>  <SCORE.INTER.POLAR>
0

>  <SCORE.INTER.ROT>
11

>  <SCORE.INTER.SOLV>
10.5025

>  <SCORE.INTER.VDW>
-10.7134

>  <SCORE.INTER.norm>
0.398654

>  <SCORE.INTRA>
-6.47118

>  <SCORE.INTRA.DIHEDRAL>
-19.8865

>  <SCORE.INTRA.DIHEDRAL.0>
24.1231

>  <SCORE.INTRA.POLAR>
0

>  <SCORE.INTRA.POLAR.0>
0

>  <SCORE.INTRA.REPUL>
0

>  <SCORE.INTRA.REPUL.0>
0

>  <SCORE.INTRA.SOLV>
5.71268

>  <SCORE.INTRA.SOLV.lig_0>
-48.2216

>  <SCORE.INTRA.VDW>
0.615716

>  <SCORE.INTRA.VDW.0>
-1.3967

>  <SCORE.INTRA.norm>
-0.462227

>  <SCORE.RESTR>
0.209273

>  <SCORE.RESTR.CAVITY>
0.209273

>  <SCORE.RESTR.norm>
0.0149481

>  <SCORE.SYSTEM>
0

>  <SCORE.SYSTEM.CONST>
0

>  <SCORE.SYSTEM.DIHEDRAL>
0

>  <SCORE.SYSTEM.SOLV>
0

>  <SCORE.SYSTEM.norm>
0

>  <SCORE.heavy>
14

>  <SCORE.norm>
-0.0486252

>  <RMSD>
18.771

$$$$
ligand
 OpenBabel11021811463D
libRbt.so/2013.1/901 2013/11/27
 14 13  0  0  0  0  0  0  0  0999 V2000
    9.4667   13.3892   33.8117 N   0  0  0  0  0  0  0  0  0  0  0  0
   10.3112   13.4744   32.6127 C   0  0  0  0  0  0  0  0  0  0  0  0
    9.6503   12.7043   31.4741 C   0  0  0  0  0  0  0  0  0  0  0  0
    8.3797   13.4322   31.0671 C   0  0  0  0  0  0  0  0  0  0  0  0
    8.7406   14.7173   30.4579 N   0  0  0  0  0  0  0  0  0  0  0  0
    8.4399   14.6110   29.0195 C   0  0  0  0  0  0  0  0  0  0  0  0
    9.6475   15.0482   28.1826 C   0  0  0  0  0  0  0  0  0  0  0  0
   10.8483   14.1752   28.5767 C   0  0  0  0  0  0  0  0  0  0  0  0
   11.5734   14.7898   29.7006 C   0  0  0  0  0  0  0  0  0  0  0  0
   12.4098   15.8761   29.1509 N   0  0  0  0  0  0  0  0  0  0  0  0
   11.8665   17.2386   29.5961 C   0  0  0  0  0  0  0  0  0  0  0  0
   13.0226   18.1209   30.0825 C   0  0  0  0  0  0  0  0  0  0  0  0
   14.0509   18.2201   29.0289 C   0  0  0  0  0  0  0  0  0  0  0  0
   13.5270   19.0109   27.8946 N   0  0  0  0  0  0  0  0  0  0  0  0
  1  2  1  0  0  0  0
  2  3  1  0  0  0  0
  3  4  1  0  0  0  0
  4  5  1  0  0  0  0
  5  6  1  0  0  0  0
  6  7  1  0  0  0  0
  7  8  1  0  0  0  0
  8  9  1  0  0  0  0
  9 10  1  0  0  0  0
 10 11  1  0  0  0  0
 11 12  1  0  0  0  0
 12 13  1  0  0  0  0
 13 14  1  0  0  0  0
M  END
>  <CHROM.1>
67.62621659,67.49248117,109.54238566,-129.34209563,57.36918825,-88.87591324
-78.75848690,110.55968938,134.16889126,55.02679248,69.08052384,10.85238142
15.34328423,30.04672200,-2.47077431,-0.69215196,-1.22426713

>  <Name>
ligand

>  <RI>
0

>  <Rbt.Current_Directory>
/home/itssahil/PROJECTS/Mol_Feturizer/New_Systems/rnas/2O3Y

>  <Rbt.Executable>
rbdock ($Id: //depot/dev/client3/rdock/2013.1/src/exe/rbdock.cxx#4 $)

>  <Rbt.Library>
libRbt.so (2013.1, Build901 2013/11/27)

>  <Rbt.Parameter_File>
/export/apps/rDock/src/rDock_2013.1_src/data/scripts/dock_solv.prm

>  <Rbt.Receptor>
prm/blind_docking_40.prm

>  <SCORE>
2.08681

>  <SCORE.INTER>
5.48749

>  <SCORE.INTER.CONST>
1

>  <SCORE.INTER.POLAR>
0

>  <SCORE.INTER.ROT>
11

>  <SCORE.INTER.SOLV>
8.5707

>  <SCORE.INTER.VDW>
-10.1319

>  <SCORE.INTER.norm>
0.391964

>  <SCORE.INTRA>
-3.83746

>  <SCORE.INTRA.DIHEDRAL>
-14.7509

>  <SCORE.INTRA.DIHEDRAL.0>
24.1231

>  <SCORE.INTRA.POLAR>
0

>  <SCORE.INTRA.POLAR.0>
0

>  <SCORE.INTRA.REPUL>
0

>  <SCORE.INTRA.REPUL.0>
0

>  <SCORE.INTRA.SOLV>
4.38196

>  <SCORE.INTRA.SOLV.lig_0>
-48.2216

>  <SCORE.INTRA.VDW>
1.34702

>  <SCORE.INTRA.VDW.0>
-1.3967

>  <SCORE.INTRA.norm>
-0.274104

>  <SCORE.RESTR>
0.436776

>  <SCORE.RESTR.CAVITY>
0.436776

>  <SCORE.RESTR.norm>
0.0311983

>  <SCORE.SYSTEM>
0

>  <SCORE.SYSTEM.CONST>
0

>  <SCORE.SYSTEM.DIHEDRAL>
0

>  <SCORE.SYSTEM.SOLV>
0

>  <SCORE.SYSTEM.norm>
0

>  <SCORE.heavy>
14

>  <SCORE.norm>
0.149058

>  <RMSD>
18.881

$$$$
ligand
 OpenBabel11021811463D
libRbt.so/2013.1/901 2013/11/27
 14 13  0  0  0  0  0  0  0  0999 V2000
   12.9247   19.2660   29.3924 N   0  0  0  0  0  0  0  0  0  0  0  0
   14.3322   19.0678   29.0209 C   0  0  0  0  0  0  0  0  0  0  0  0
   14.4296   17.9448   27.9935 C   0  0  0  0  0  0  0  0  0  0  0  0
   13.8905   16.6673   28.6160 C   0  0  0  0  0  0  0  0  0  0  0  0
   12.4251   16.6828   28.5430 N   0  0  0  0  0  0  0  0  0  0  0  0
   11.9241   16.5063   29.9173 C   0  0  0  0  0  0  0  0  0  0  0  0
   11.8312   15.0174   30.2702 C   0  0  0  0  0  0  0  0  0  0  0  0
   10.9626   14.3243   29.2097 C   0  0  0  0  0  0  0  0  0  0  0  0
    9.5617   14.7561   29.3421 C   0  0  0  0  0  0  0  0  0  0  0  0
    9.1702   14.5724   30.7545 N   0  0  0  0  0  0  0  0  0  0  0  0
    9.2285   13.0874   31.1304 C   0  0  0  0  0  0  0  0  0  0  0  0
    9.4468   12.9461   32.6417 C   0  0  0  0  0  0  0  0  0  0  0  0
   10.6227   13.7378   33.0513 C   0  0  0  0  0  0  0  0  0  0  0  0
   10.2340   15.1540   33.2237 N   0  0  0  0  0  0  0  0  0  0  0  0
  1  2  1  0  0  0  0
  2  3  1  0  0  0  0
  3  4  1  0  0  0  0
  4  5  1  0  0  0  0
  5  6  1  0  0  0  0
  6  7  1  0  0  0  0
  7  8  1  0  0  0  0
  8  9  1  0  0  0  0
  9 10  1  0  0  0  0
 10 11  1  0  0  0  0
 11 12  1  0  0  0  0
 12 13  1  0  0  0  0
 13 14  1  0  0  0  0
M  END
>  <CHROM.1>
-60.81282039,80.86907400,-124.19994001,-85.91490972,-55.15024025,-69.36306449
-51.45567775,-63.27788983,154.83966191,-52.88516578,81.93027398,11.49898478
15.69473573,30.22178730,-0.38336701,0.86924970,1.43030497

>  <Name>
ligand

>  <RI>
0

>  <Rbt.Current_Directory>
/home/itssahil/PROJECTS/Mol_Feturizer/New_Systems/rnas/2O3Y

>  <Rbt.Executable>
rbdock ($Id: //depot/dev/client3/rdock/2013.1/src/exe/rbdock.cxx#4 $)

>  <Rbt.Library>
libRbt.so (2013.1, Build901 2013/11/27)

>  <Rbt.Parameter_File>
/export/apps/rDock/src/rDock_2013.1_src/data/scripts/dock_solv.prm

>  <Rbt.Receptor>
prm/blind_docking_40.prm

>  <SCORE>
5.00591

>  <SCORE.INTER>
3.96304

>  <SCORE.INTER.CONST>
1

>  <SCORE.INTER.POLAR>
0

>  <SCORE.INTER.ROT>
11

>  <SCORE.INTER.SOLV>
8.61486

>  <SCORE.INTER.VDW>
-11.1629

>  <SCORE.INTER.norm>
0.283075

>  <SCORE.INTRA>
0.82294

>  <SCORE.INTRA.DIHEDRAL>
-17.9758

>  <SCORE.INTRA.DIHEDRAL.0>
24.1231

>  <SCORE.INTRA.POLAR>
0

>  <SCORE.INTRA.POLAR.0>
0

>  <SCORE.INTRA.REPUL>
0

>  <SCORE.INTRA.REPUL.0>
0

>  <SCORE.INTRA.SOLV>
9.35896

>  <SCORE.INTRA.SOLV.lig_0>
-48.2216

>  <SCORE.INTRA.VDW>
5.13135

>  <SCORE.INTRA.VDW.0>
-1.3967

>  <SCORE.INTRA.norm>
0.0587814

>  <SCORE.RESTR>
0.219931

>  <SCORE.RESTR.CAVITY>
0.219931

>  <SCORE.RESTR.norm>
0.0157093

>  <SCORE.SYSTEM>
0

>  <SCORE.SYSTEM.CONST>
0

>  <SCORE.SYSTEM.DIHEDRAL>
0

>  <SCORE.SYSTEM.SOLV>
0

>  <SCORE.SYSTEM.norm>
0

>  <SCORE.heavy>
14

>  <SCORE.norm>
0.357565

>  <RMSD>
18.999

$$$$
ligand
 OpenBabel11021811463D
libRbt.so/2013.1/901 2013/11/27
 14 13  0  0  0  0  0  0  0  0999 V2000
   13.7000   18.5408   27.9206 N   0  0  0  0  0  0  0  0  0  0  0  0
   13.4084   17.1702   28.3615 C   0  0  0  0  0  0  0  0  0  0  0  0
   12.5939   17.2170   29.6501 C   0  0  0  0  0  0  0  0  0  0  0  0
   12.3126   15.7928   30.1002 C   0  0  0  0  0  0  0  0  0  0  0  0
   11.6006   15.8298   31.3826 N   0  0  0  0  0  0  0  0  0  0  0  0
   11.3502   14.4323   31.7762 C   0  0  0  0  0  0  0  0  0  0  0  0
   10.1751   14.3508   32.7572 C   0  0  0  0  0  0  0  0  0  0  0  0
    9.6762   12.8984   32.7917 C   0  0  0  0  0  0  0  0  0  0  0  0
    9.0652   12.5426   31.5006 C   0  0  0  0  0  0  0  0  0  0  0  0
    8.0286   13.5523   31.2047 N   0  0  0  0  0  0  0  0  0  0  0  0
    8.0092   13.8661   29.7044 C   0  0  0  0  0  0  0  0  0  0  0  0
    9.2869   14.6213   29.3189 C   0  0  0  0  0  0  0  0  0  0  0  0
    9.4448   14.6167   27.8517 C   0  0  0  0  0  0  0  0  0  0  0  0
   10.7827   15.1346   27.4932 N   0  0  0  0  0  0  0  0  0  0  0  0
  1  2  1  0  0  0  0
  2  3  1  0  0  0  0
  3  4  1  0  0  0  0
  4  5  1  0  0  0  0
  5  6  1  0  0  0  0
  6  7  1  0  0  0  0
  7  8  1  0  0  0  0
  8  9  1  0  0  0  0
  9 10  1  0  0  0  0
 10 11  1  0  0  0  0
 11 12  1  0  0  0  0
 12 13  1  0  0  0  0
 13 14  1  0  0  0  0
M  END
>  <CHROM.1>
-179.44330333,176.56038590,179.96252931,-157.51945293,162.50670035,-67.71875150
-53.97444642,142.51881280,-69.20925181,165.33677122,-170.28182818,10.67373587
15.04011092,30.12980092,-0.68994824,0.62293844,1.88082869

>  <Name>
ligand

>  <RI>
0

>  <Rbt.Current_Directory>
/home/itssahil/PROJECTS/Mol_Feturizer/New_Systems/rnas/2O3Y

>  <Rbt.Executable>
rbdock ($Id: //depot/dev/client3/rdock/2013.1/src/exe/rbdock.cxx#4 $)

>  <Rbt.Library>
libRbt.so (2013.1, Build901 2013/11/27)

>  <Rbt.Parameter_File>
/export/apps/rDock/src/rDock_2013.1_src/data/scripts/dock_solv.prm

>  <Rbt.Receptor>
prm/blind_docking_40.prm

>  <SCORE>
0.23135

>  <SCORE.INTER>
6.43559

>  <SCORE.INTER.CONST>
1

>  <SCORE.INTER.POLAR>
0

>  <SCORE.INTER.ROT>
11

>  <SCORE.INTER.SOLV>
10.4544

>  <SCORE.INTER.VDW>
-10.1277

>  <SCORE.INTER.norm>
0.459685

>  <SCORE.INTRA>
-6.35081

>  <SCORE.INTRA.DIHEDRAL>
-20.2242

>  <SCORE.INTRA.DIHEDRAL.0>
24.1231

>  <SCORE.INTRA.POLAR>
0

>  <SCORE.INTRA.POLAR.0>
0

>  <SCORE.INTRA.REPUL>
0

>  <SCORE.INTRA.REPUL.0>
0

>  <SCORE.INTRA.SOLV>
4.39957

>  <SCORE.INTRA.SOLV.lig_0>
-48.2216

>  <SCORE.INTRA.VDW>
1.56153

>  <SCORE.INTRA.VDW.0>
-1.3967

>  <SCORE.INTRA.norm>
-0.45363

>  <SCORE.RESTR>
0.146572

>  <SCORE.RESTR.CAVITY>
0.146572

>  <SCORE.RESTR.norm>
0.0104695

>  <SCORE.SYSTEM>
0

>  <SCORE.SYSTEM.CONST>
0

>  <SCORE.SYSTEM.DIHEDRAL>
0

>  <SCORE.SYSTEM.SOLV>
0

>  <SCORE.SYSTEM.norm>
0

>  <SCORE.heavy>
14

>  <SCORE.norm>
0.016525

>  <RMSD>
19.001

$$$$
ligand
 OpenBabel11021811463D
libRbt.so/2013.1/901 2013/11/27
 14 13  0  0  0  0  0  0  0  0999 V2000
   14.9335   17.5163   27.9774 N   0  0  0  0  0  0  0  0  0  0  0  0
   13.9232   17.8123   29.0020 C   0  0  0  0  0  0  0  0  0  0  0  0
   12.5337   17.5452   28.4328 C   0  0  0  0  0  0  0  0  0  0  0  0
   12.3961   16.0557   28.1633 C   0  0  0  0  0  0  0  0  0  0  0  0
   12.0993   15.3681   29.4250 N   0  0  0  0  0  0  0  0  0  0  0  0
   10.9163   14.5230   29.1864 C   0  0  0  0  0  0  0  0  0  0  0  0
    9.6282   15.3281   29.3925 C   0  0  0  0  0  0  0  0  0  0  0  0
    8.4431   14.3509   29.3867 C   0  0  0  0  0  0  0  0  0  0  0  0
    8.2730   13.7541   30.7215 C   0  0  0  0  0  0  0  0  0  0  0  0
    9.4634   12.9229   30.9931 N   0  0  0  0  0  0  0  0  0  0  0  0
    9.7923   12.9436   32.4902 C   0  0  0  0  0  0  0  0  0  0  0  0
   10.8668   14.0020   32.7676 C   0  0  0  0  0  0  0  0  0  0  0  0
   10.2573   15.3458   32.7546 C   0  0  0  0  0  0  0  0  0  0  0  0
    9.3010   15.4698   33.8756 N   0  0  0  0  0  0  0  0  0  0  0  0
  1  2  1  0  0  0  0
  2  3  1  0  0  0  0
  3  4  1  0  0  0  0
  4  5  1  0  0  0  0
  5  6  1  0  0  0  0
  6  7  1  0  0  0  0
  7  8  1  0  0  0  0
  8  9  1  0  0  0  0
  9 10  1  0  0  0  0
 10 11  1  0  0  0  0
 11 12  1  0  0  0  0
 12 13  1  0  0  0  0
 13 14  1  0  0  0  0
M  END
>  <CHROM.1>
65.90844705,79.79761468,128.95260075,-85.95242180,-169.76586144,83.45032759
-65.71988818,147.08383854,-96.07500543,77.06660982,65.19772933,10.91601418
15.20979537,30.32624780,-0.61205725,0.63788718,1.59269905

>  <Name>
ligand

>  <RI>
0

>  <Rbt.Current_Directory>
/home/itssahil/PROJECTS/Mol_Feturizer/New_Systems/rnas/2O3Y

>  <Rbt.Executable>
rbdock ($Id: //depot/dev/client3/rdock/2013.1/src/exe/rbdock.cxx#4 $)

>  <Rbt.Library>
libRbt.so (2013.1, Build901 2013/11/27)

>  <Rbt.Parameter_File>
/export/apps/rDock/src/rDock_2013.1_src/data/scripts/dock_solv.prm

>  <Rbt.Receptor>
prm/blind_docking_40.prm

>  <SCORE>
3.04748

>  <SCORE.INTER>
7.00094

>  <SCORE.INTER.CONST>
1

>  <SCORE.INTER.POLAR>
0

>  <SCORE.INTER.ROT>
11

>  <SCORE.INTER.SOLV>
12.9861

>  <SCORE.INTER.VDW>
-10.5947

>  <SCORE.INTER.norm>
0.500067

>  <SCORE.INTRA>
-3.95732

>  <SCORE.INTRA.DIHEDRAL>
-15.8764

>  <SCORE.INTRA.DIHEDRAL.0>
24.1231

>  <SCORE.INTRA.POLAR>
0

>  <SCORE.INTRA.POLAR.0>
0

>  <SCORE.INTRA.REPUL>
0

>  <SCORE.INTRA.REPUL.0>
0

>  <SCORE.INTRA.SOLV>
4.95473

>  <SCORE.INTRA.SOLV.lig_0>
-48.2216

>  <SCORE.INTRA.VDW>
1.50353

>  <SCORE.INTRA.VDW.0>
-1.3967

>  <SCORE.INTRA.norm>
-0.282666

>  <SCORE.RESTR>
0.00386214

>  <SCORE.RESTR.CAVITY>
0.00386214

>  <SCORE.RESTR.norm>
0.000275867

>  <SCORE.SYSTEM>
0

>  <SCORE.SYSTEM.CONST>
0

>  <SCORE.SYSTEM.DIHEDRAL>
0

>  <SCORE.SYSTEM.SOLV>
0

>  <SCORE.SYSTEM.norm>
0

>  <SCORE.heavy>
14

>  <SCORE.norm>
0.217677

>  <RMSD>
19.001

$$$$
ligand
 OpenBabel11021811463D
libRbt.so/2013.1/901 2013/11/27
 14 13  0  0  0  0  0  0  0  0999 V2000
   13.9803   20.3780   29.0322 N   0  0  0  0  0  0  0  0  0  0  0  0
   13.9884   18.9550   29.3968 C   0  0  0  0  0  0  0  0  0  0  0  0
   14.1105   18.1107   28.1325 C   0  0  0  0  0  0  0  0  0  0  0  0
   14.1399   16.6434   28.5278 C   0  0  0  0  0  0  0  0  0  0  0  0
   12.8409   16.2787   29.1043 N   0  0  0  0  0  0  0  0  0  0  0  0
   11.9410   15.9733   27.9784 C   0  0  0  0  0  0  0  0  0  0  0  0
   10.5803   15.4889   28.4919 C   0  0  0  0  0  0  0  0  0  0  0  0
   10.7049   14.0023   28.8579 C   0  0  0  0  0  0  0  0  0  0  0  0
   11.1168   13.8603   30.2640 C   0  0  0  0  0  0  0  0  0  0  0  0
    9.8961   13.6396   31.0659 N   0  0  0  0  0  0  0  0  0  0  0  0
   10.2695   13.2534   32.5016 C   0  0  0  0  0  0  0  0  0  0  0  0
    9.6770   14.2740   33.4809 C   0  0  0  0  0  0  0  0  0  0  0  0
   10.1866   15.6221   33.1642 C   0  0  0  0  0  0  0  0  0  0  0  0
    9.5049   16.6239   34.0117 N   0  0  0  0  0  0  0  0  0  0  0  0
  1  2  1  0  0  0  0
  2  3  1  0  0  0  0
  3  4  1  0  0  0  0
  4  5  1  0  0  0  0
  5  6  1  0  0  0  0
  6  7  1  0  0  0  0
  7  8  1  0  0  0  0
  8  9  1  0  0  0  0
  9 10  1  0  0  0  0
 10 11  1  0  0  0  0
 11 12  1  0  0  0  0
 12 13  1  0  0  0  0
 13 14  1  0  0  0  0
M  END
>  <CHROM.1>
179.10355708,66.09314501,83.30915831,176.19991996,-80.85071383,89.63474575
96.62395750,170.65106555,120.63848013,-58.69442514,173.91143823,11.63839714
15.93563964,30.28622842,-0.07376622,0.96002324,0.87650735

>  <Name>
ligand

>  <RI>
0

>  <Rbt.Current_Directory>
/home/itssahil/PROJECTS/Mol_Feturizer/New_Systems/rnas/2O3Y

>  <Rbt.Executable>
rbdock ($Id: //depot/dev/client3/rdock/2013.1/src/exe/rbdock.cxx#4 $)

>  <Rbt.Library>
libRbt.so (2013.1, Build901 2013/11/27)

>  <Rbt.Parameter_File>
/export/apps/rDock/src/rDock_2013.1_src/data/scripts/dock_solv.prm

>  <Rbt.Receptor>
prm/blind_docking_40.prm

>  <SCORE>
-0.603294

>  <SCORE.INTER>
3.4001

>  <SCORE.INTER.CONST>
1

>  <SCORE.INTER.POLAR>
0

>  <SCORE.INTER.ROT>
11

>  <SCORE.INTER.SOLV>
10.2771

>  <SCORE.INTER.VDW>
-12.0923

>  <SCORE.INTER.norm>
0.242864

>  <SCORE.INTRA>
-5.3038

>  <SCORE.INTRA.DIHEDRAL>
-13.9718

>  <SCORE.INTRA.DIHEDRAL.0>
24.1231

>  <SCORE.INTRA.POLAR>
0

>  <SCORE.INTRA.POLAR.0>
0

>  <SCORE.INTRA.REPUL>
0

>  <SCORE.INTRA.REPUL.0>
0

>  <SCORE.INTRA.SOLV>
1.08935

>  <SCORE.INTRA.SOLV.lig_0>
-48.2216

>  <SCORE.INTRA.VDW>
1.13742

>  <SCORE.INTRA.VDW.0>
-1.3967

>  <SCORE.INTRA.norm>
-0.378843

>  <SCORE.RESTR>
1.30041

>  <SCORE.RESTR.CAVITY>
1.30041

>  <SCORE.RESTR.norm>
0.0928863

>  <SCORE.SYSTEM>
0

>  <SCORE.SYSTEM.CONST>
0

>  <SCORE.SYSTEM.DIHEDRAL>
0

>  <SCORE.SYSTEM.SOLV>
0

>  <SCORE.SYSTEM.norm>
0

>  <SCORE.heavy>
14

>  <SCORE.norm>
-0.0430924

>  <RMSD>
19.019

$$$$
ligand
 OpenBabel11021811463D
libRbt.so/2013.1/901 2013/11/27
 14 13  0  0  0  0  0  0  0  0999 V2000
   12.9324   19.3506   28.4994 N   0  0  0  0  0  0  0  0  0  0  0  0
   14.1960   18.8825   29.0846 C   0  0  0  0  0  0  0  0  0  0  0  0
   14.4702   17.4564   28.6186 C   0  0  0  0  0  0  0  0  0  0  0  0
   13.3407   16.5610   29.1007 C   0  0  0  0  0  0  0  0  0  0  0  0
   12.4145   16.3208   27.9883 N   0  0  0  0  0  0  0  0  0  0  0  0
   11.7270   15.0481   28.2682 C   0  0  0  0  0  0  0  0  0  0  0  0
   10.4401   15.2943   29.0639 C   0  0  0  0  0  0  0  0  0  0  0  0
    9.9966   13.9621   29.6869 C   0  0  0  0  0  0  0  0  0  0  0  0
   10.9227   13.5739   30.7632 C   0  0  0  0  0  0  0  0  0  0  0  0
   10.3959   12.3400   31.3810 N   0  0  0  0  0  0  0  0  0  0  0  0
    9.0982   12.6409   32.1395 C   0  0  0  0  0  0  0  0  0  0  0  0
    9.3977   13.5605   33.3296 C   0  0  0  0  0  0  0  0  0  0  0  0
    9.2500   14.9702   32.9193 C   0  0  0  0  0  0  0  0  0  0  0  0
    9.6253   15.8573   34.0413 N   0  0  0  0  0  0  0  0  0  0  0  0
  1  2  1  0  0  0  0
  2  3  1  0  0  0  0
  3  4  1  0  0  0  0
  4  5  1  0  0  0  0
  5  6  1  0  0  0  0
  6  7  1  0  0  0  0
  7  8  1  0  0  0  0
  8  9  1  0  0  0  0
  9 10  1  0  0  0  0
 10 11  1  0  0  0  0
 11 12  1  0  0  0  0
 12 13  1  0  0  0  0
 13 14  1  0  0  0  0
M  END
>  <CHROM.1>
-61.16894275,100.75023001,155.19485946,90.47223309,-163.12342807,70.42514961
176.24741395,-68.58557736,-65.82894108,91.36986949,-176.29005025,11.30049155
15.41539226,30.34885026,0.01671457,0.96769720,0.80599160

>  <Name>
ligand

>  <RI>
0

>  <Rbt.Current_Directory>
/home/itssahil/PROJECTS/Mol_Feturizer/New_Systems/rnas/2O3Y

>  <Rbt.Executable>
rbdock ($Id: //depot/dev/client3/rdock/2013.1/src/exe/rbdock.cxx#4 $)

>  <Rbt.Library>
libRbt.so (2013.1, Build901 2013/11/27)

>  <Rbt.Parameter_File>
/export/apps/rDock/src/rDock_2013.1_src/data/scripts/dock_solv.prm

>  <Rbt.Receptor>
prm/blind_docking_40.prm

>  <SCORE>
3.96663

>  <SCORE.INTER>
5.2217

>  <SCORE.INTER.CONST>
1

>  <SCORE.INTER.POLAR>
0

>  <SCORE.INTER.ROT>
11

>  <SCORE.INTER.SOLV>
11.1532

>  <SCORE.INTER.VDW>
-11.1699

>  <SCORE.INTER.norm>
0.372978

>  <SCORE.INTRA>
-1.62505

>  <SCORE.INTRA.DIHEDRAL>
-14.2274

>  <SCORE.INTRA.DIHEDRAL.0>
24.1231

>  <SCORE.INTRA.POLAR>
0

>  <SCORE.INTRA.POLAR.0>
0

>  <SCORE.INTRA.REPUL>
0

>  <SCORE.INTRA.REPUL.0>
0

>  <SCORE.INTRA.SOLV>
2.35108

>  <SCORE.INTRA.SOLV.lig_0>
-48.2216

>  <SCORE.INTRA.VDW>
4.31313

>  <SCORE.INTRA.VDW.0>
-1.3967

>  <SCORE.INTRA.norm>
-0.116075

>  <SCORE.RESTR>
0.369981

>  <SCORE.RESTR.CAVITY>
0.369981

>  <SCORE.RESTR.norm>
0.0264272

>  <SCORE.SYSTEM>
0

>  <SCORE.SYSTEM.CONST>
0

>  <SCORE.SYSTEM.DIHEDRAL>
0

>  <SCORE.SYSTEM.SOLV>
0

>  <SCORE.SYSTEM.norm>
0

>  <SCORE.heavy>
14

>  <SCORE.norm>
0.283331

>  <RMSD>
19.022

$$$$
ligand
 OpenBabel11021811463D
libRbt.so/2013.1/901 2013/11/27
 14 13  0  0  0  0  0  0  0  0999 V2000
   12.8928   19.0662   29.4729 N   0  0  0  0  0  0  0  0  0  0  0  0
   14.3089   18.9744   29.0929 C   0  0  0  0  0  0  0  0  0  0  0  0
   14.4440   18.0872   27.8597 C   0  0  0  0  0  0  0  0  0  0  0  0
   13.9663   16.6880   28.2119 C   0  0  0  0  0  0  0  0  0  0  0  0
   12.5293   16.5901   27.9319 N   0  0  0  0  0  0  0  0  0  0  0  0
   11.9276   15.8206   29.0348 C   0  0  0  0  0  0  0  0  0  0  0  0
   10.6016   15.1912   28.5923 C   0  0  0  0  0  0  0  0  0  0  0  0
    9.9148   14.5946   29.8300 C   0  0  0  0  0  0  0  0  0  0  0  0
   10.6125   13.3700   30.2546 C   0  0  0  0  0  0  0  0  0  0  0  0
   11.2422   13.6462   31.5619 N   0  0  0  0  0  0  0  0  0  0  0  0
   10.3399   13.1518   32.6983 C   0  0  0  0  0  0  0  0  0  0  0  0
    9.3000   14.2271   33.0361 C   0  0  0  0  0  0  0  0  0  0  0  0
    9.9804   15.5028   33.3311 C   0  0  0  0  0  0  0  0  0  0  0  0
    8.9775   16.5790   33.4810 N   0  0  0  0  0  0  0  0  0  0  0  0
  1  2  1  0  0  0  0
  2  3  1  0  0  0  0
  3  4  1  0  0  0  0
  4  5  1  0  0  0  0
  5  6  1  0  0  0  0
  6  7  1  0  0  0  0
  7  8  1  0  0  0  0
  8  9  1  0  0  0  0
  9 10  1  0  0  0  0
 10 11  1  0  0  0  0
 11 12  1  0  0  0  0
 12 13  1  0  0  0  0
 13 14  1  0  0  0  0
M  END
>  <CHROM.1>
-62.60215997,90.14242132,-139.49873085,-157.44672833,-171.17053930,-73.08939309
112.74468846,96.35704005,-84.87074676,-54.44093157,172.57764013,11.50273978
15.82040143,30.31339124,0.03643592,0.94744615,0.66778619

>  <Name>
ligand

>  <RI>
0

>  <Rbt.Current_Directory>
/home/itssahil/PROJECTS/Mol_Feturizer/New_Systems/rnas/2O3Y

>  <Rbt.Executable>
rbdock ($Id: //depot/dev/client3/rdock/2013.1/src/exe/rbdock.cxx#4 $)

>  <Rbt.Library>
libRbt.so (2013.1, Build901 2013/11/27)

>  <Rbt.Parameter_File>
/export/apps/rDock/src/rDock_2013.1_src/data/scripts/dock_solv.prm

>  <Rbt.Receptor>
prm/blind_docking_40.prm

>  <SCORE>
1.68581

>  <SCORE.INTER>
4.09936

>  <SCORE.INTER.CONST>
1

>  <SCORE.INTER.POLAR>
0

>  <SCORE.INTER.ROT>
11

>  <SCORE.INTER.SOLV>
8.75533

>  <SCORE.INTER.VDW>
-11.1189

>  <SCORE.INTER.norm>
0.292811

>  <SCORE.INTRA>
-2.50602

>  <SCORE.INTRA.DIHEDRAL>
-12.1688

>  <SCORE.INTRA.DIHEDRAL.0>
24.1231

>  <SCORE.INTRA.POLAR>
0

>  <SCORE.INTRA.POLAR.0>
0

>  <SCORE.INTRA.REPUL>
0

>  <SCORE.INTRA.REPUL.0>
0

>  <SCORE.INTRA.SOLV>
4.06721

>  <SCORE.INTRA.SOLV.lig_0>
-48.2216

>  <SCORE.INTRA.VDW>
1.54477

>  <SCORE.INTRA.VDW.0>
-1.3967

>  <SCORE.INTRA.norm>
-0.179002

>  <SCORE.RESTR>
0.0924679

>  <SCORE.RESTR.CAVITY>
0.0924679

>  <SCORE.RESTR.norm>
0.00660485

>  <SCORE.SYSTEM>
0

>  <SCORE.SYSTEM.CONST>
0

>  <SCORE.SYSTEM.DIHEDRAL>
0

>  <SCORE.SYSTEM.SOLV>
0

>  <SCORE.SYSTEM.norm>
0

>  <SCORE.heavy>
14

>  <SCORE.norm>
0.120415

>  <RMSD>
19.026

$$$$
ligand
 OpenBabel11021811463D
libRbt.so/2013.1/901 2013/11/27
 14 13  0  0  0  0  0  0  0  0999 V2000
   14.4108   19.0885   27.9929 N   0  0  0  0  0  0  0  0  0  0  0  0
   14.0946   19.0104   29.4254 C   0  0  0  0  0  0  0  0  0  0  0  0
   12.9402   18.0359   29.6351 C   0  0  0  0  0  0  0  0  0  0  0  0
   13.2634   16.7365   28.9159 C   0  0  0  0  0  0  0  0  0  0  0  0
   12.2785   15.7198   29.3023 N   0  0  0  0  0  0  0  0  0  0  0  0
   11.5240   15.3679   28.0868 C   0  0  0  0  0  0  0  0  0  0  0  0
   10.3900   14.3917   28.4200 C   0  0  0  0  0  0  0  0  0  0  0  0
    9.5027   15.0335   29.4973 C   0  0  0  0  0  0  0  0  0  0  0  0
    8.7012   14.0007   30.1737 C   0  0  0  0  0  0  0  0  0  0  0  0
    9.6394   13.0350   30.7810 N   0  0  0  0  0  0  0  0  0  0  0  0
    9.0446   12.4602   32.0717 C   0  0  0  0  0  0  0  0  0  0  0  0
    9.8877   12.9077   33.2720 C   0  0  0  0  0  0  0  0  0  0  0  0
    9.3584   14.1769   33.8070 C   0  0  0  0  0  0  0  0  0  0  0  0
    9.5548   15.2558   32.8151 N   0  0  0  0  0  0  0  0  0  0  0  0
  1  2  1  0  0  0  0
  2  3  1  0  0  0  0
  3  4  1  0  0  0  0
  4  5  1  0  0  0  0
  5  6  1  0  0  0  0
  6  7  1  0  0  0  0
  7  8  1  0  0  0  0
  8  9  1  0  0  0  0
  9 10  1  0  0  0  0
 10 11  1  0  0  0  0
 11 12  1  0  0  0  0
 12 13  1  0  0  0  0
 13 14  1  0  0  0  0
M  END
>  <CHROM.1>
50.57353494,170.21244029,115.60166863,-175.31348148,56.32745520,-160.72852977
59.42242178,147.79086516,-114.33505779,90.54553371,-66.54417840,11.04197414
15.37272581,30.29976827,-0.40651785,0.86122632,1.44654208

>  <Name>
ligand

>  <RI>
0

>  <Rbt.Current_Directory>
/home/itssahil/PROJECTS/Mol_Feturizer/New_Systems/rnas/2O3Y

>  <Rbt.Executable>
rbdock ($Id: //depot/dev/client3/rdock/2013.1/src/exe/rbdock.cxx#4 $)

>  <Rbt.Library>
libRbt.so (2013.1, Build901 2013/11/27)

>  <Rbt.Parameter_File>
/export/apps/rDock/src/rDock_2013.1_src/data/scripts/dock_solv.prm

>  <Rbt.Receptor>
prm/blind_docking_40.prm

>  <SCORE>
1.41984

>  <SCORE.INTER>
4.58301

>  <SCORE.INTER.CONST>
1

>  <SCORE.INTER.POLAR>
0

>  <SCORE.INTER.ROT>
11

>  <SCORE.INTER.SOLV>
8.79414

>  <SCORE.INTER.VDW>
-10.8094

>  <SCORE.INTER.norm>
0.327358

>  <SCORE.INTRA>
-3.46948

>  <SCORE.INTRA.DIHEDRAL>
-15.9125

>  <SCORE.INTRA.DIHEDRAL.0>
24.1231

>  <SCORE.INTRA.POLAR>
0

>  <SCORE.INTRA.POLAR.0>
0

>  <SCORE.INTRA.REPUL>
0.0514848

>  <SCORE.INTRA.REPUL.0>
0

>  <SCORE.INTRA.SOLV>
5.90779

>  <SCORE.INTRA.SOLV.lig_0>
-48.2216

>  <SCORE.INTRA.VDW>
1.27545

>  <SCORE.INTRA.VDW.0>
-1.3967

>  <SCORE.INTRA.norm>
-0.24782

>  <SCORE.RESTR>
0.306311

>  <SCORE.RESTR.CAVITY>
0.306311

>  <SCORE.RESTR.norm>
0.0218794

>  <SCORE.SYSTEM>
0

>  <SCORE.SYSTEM.CONST>
0

>  <SCORE.SYSTEM.DIHEDRAL>
0

>  <SCORE.SYSTEM.SOLV>
0

>  <SCORE.SYSTEM.norm>
0

>  <SCORE.heavy>
14

>  <SCORE.norm>
0.101417

>  <RMSD>
19.035

$$$$
ligand
 OpenBabel11021811463D
libRbt.so/2013.1/901 2013/11/27
 14 13  0  0  0  0  0  0  0  0999 V2000
   10.2505   15.2287   32.8839 N   0  0  0  0  0  0  0  0  0  0  0  0
    9.2681   14.3428   33.5228 C   0  0  0  0  0  0  0  0  0  0  0  0
    9.8015   12.9139   33.5221 C   0  0  0  0  0  0  0  0  0  0  0  0
    9.6958   12.3556   32.1124 C   0  0  0  0  0  0  0  0  0  0  0  0
   10.7060   13.0015   31.2667 N   0  0  0  0  0  0  0  0  0  0  0  0
    9.9894   13.6238   30.1397 C   0  0  0  0  0  0  0  0  0  0  0  0
   10.9602   14.4115   29.2526 C   0  0  0  0  0  0  0  0  0  0  0  0
   11.5558   15.5552   30.0873 C   0  0  0  0  0  0  0  0  0  0  0  0
   12.3245   16.4653   29.2228 C   0  0  0  0  0  0  0  0  0  0  0  0
   12.9841   17.4580   30.0952 N   0  0  0  0  0  0  0  0  0  0  0  0
   12.9242   18.8487   29.4531 C   0  0  0  0  0  0  0  0  0  0  0  0
   14.1170   19.0317   28.5069 C   0  0  0  0  0  0  0  0  0  0  0  0
   14.0692   18.0112   27.4421 C   0  0  0  0  0  0  0  0  0  0  0  0
   15.3470   18.0078   26.6980 N   0  0  0  0  0  0  0  0  0  0  0  0
  1  2  1  0  0  0  0
  2  3  1  0  0  0  0
  3  4  1  0  0  0  0
  4  5  1  0  0  0  0
  5  6  1  0  0  0  0
  6  7  1  0  0  0  0
  7  8  1  0  0  0  0
  8  9  1  0  0  0  0
  9 10  1  0  0  0  0
 10 11  1  0  0  0  0
 11 12  1  0  0  0  0
 12 13  1  0  0  0  0
 13 14  1  0  0  0  0
M  END
>  <CHROM.1>
-74.33574957,72.09017014,-123.04130489,175.94252139,-63.25660488,-170.92655861
-174.25746316,-139.69601441,-86.56380839,60.43600754,-168.56134287,11.71355829
15.66100162,30.30043258,3.06554840,-0.99308560,-2.39461746

>  <Name>
ligand

>  <RI>
0

>  <Rbt.Current_Directory>
/home/itssahil/PROJECTS/Mol_Feturizer/New_Systems/rnas/2O3Y

>  <Rbt.Executable>
rbdock ($Id: //depot/dev/client3/rdock/2013.1/src/exe/rbdock.cxx#4 $)

>  <Rbt.Library>
libRbt.so (2013.1, Build901 2013/11/27)

>  <Rbt.Parameter_File>
/export/apps/rDock/src/rDock_2013.1_src/data/scripts/dock_solv.prm

>  <Rbt.Receptor>
prm/blind_docking_40.prm

>  <SCORE>
2.22991

>  <SCORE.INTER>
5.7459

>  <SCORE.INTER.CONST>
1

>  <SCORE.INTER.POLAR>
0

>  <SCORE.INTER.ROT>
11

>  <SCORE.INTER.SOLV>
13.2818

>  <SCORE.INTER.VDW>
-11.53

>  <SCORE.INTER.norm>
0.410422

>  <SCORE.INTRA>
-4.82095

>  <SCORE.INTRA.DIHEDRAL>
-19.256

>  <SCORE.INTRA.DIHEDRAL.0>
24.1231

>  <SCORE.INTRA.POLAR>
0

>  <SCORE.INTRA.POLAR.0>
0

>  <SCORE.INTRA.REPUL>
0

>  <SCORE.INTRA.REPUL.0>
0

>  <SCORE.INTRA.SOLV>
5.81583

>  <SCORE.INTRA.SOLV.lig_0>
-48.2216

>  <SCORE.INTRA.VDW>
1.89913

>  <SCORE.INTRA.VDW.0>
-1.3967

>  <SCORE.INTRA.norm>
-0.344353

>  <SCORE.RESTR>
1.30496

>  <SCORE.RESTR.CAVITY>
1.30496

>  <SCORE.RESTR.norm>
0.0932111

>  <SCORE.SYSTEM>
0

>  <SCORE.SYSTEM.CONST>
0

>  <SCORE.SYSTEM.DIHEDRAL>
0

>  <SCORE.SYSTEM.SOLV>
0

>  <SCORE.SYSTEM.norm>
0

>  <SCORE.heavy>
14

>  <SCORE.norm>
0.159279

>  <RMSD>
19.065

$$$$
ligand
 OpenBabel11021811463D
libRbt.so/2013.1/901 2013/11/27
 14 13  0  0  0  0  0  0  0  0999 V2000
   14.0241   20.1550   28.9669 N   0  0  0  0  0  0  0  0  0  0  0  0
   13.7489   18.7259   29.1669 C   0  0  0  0  0  0  0  0  0  0  0  0
   14.3486   17.9301   28.0122 C   0  0  0  0  0  0  0  0  0  0  0  0
   13.9461   16.4724   28.1648 C   0  0  0  0  0  0  0  0  0  0  0  0
   12.5092   16.3438   27.8968 N   0  0  0  0  0  0  0  0  0  0  0  0
   11.9201   15.6294   29.0428 C   0  0  0  0  0  0  0  0  0  0  0  0
   10.8132   14.6782   28.5738 C   0  0  0  0  0  0  0  0  0  0  0  0
    9.9840   14.2630   29.7983 C   0  0  0  0  0  0  0  0  0  0  0  0
   10.7615   13.3469   30.6487 C   0  0  0  0  0  0  0  0  0  0  0  0
    9.9457   13.0469   31.8429 N   0  0  0  0  0  0  0  0  0  0  0  0
   10.2366   14.0651   32.9513 C   0  0  0  0  0  0  0  0  0  0  0  0
    8.9632   14.8577   33.2706 C   0  0  0  0  0  0  0  0  0  0  0  0
    9.3187   16.1194   33.9483 C   0  0  0  0  0  0  0  0  0  0  0  0
    9.9760   17.0321   32.9884 N   0  0  0  0  0  0  0  0  0  0  0  0
  1  2  1  0  0  0  0
  2  3  1  0  0  0  0
  3  4  1  0  0  0  0
  4  5  1  0  0  0  0
  5  6  1  0  0  0  0
  6  7  1  0  0  0  0
  7  8  1  0  0  0  0
  8  9  1  0  0  0  0
  9 10  1  0  0  0  0
 10 11  1  0  0  0  0
 11 12  1  0  0  0  0
 12 13  1  0  0  0  0
 13 14  1  0  0  0  0
M  END
>  <CHROM.1>
-174.80463345,70.09080253,-127.78021000,-142.96147016,-164.53591221,-71.71531940
176.76938292,-90.02892803,117.33988665,-159.84048704,70.28747118,11.46392783
15.90441122,30.37659578,0.01674751,0.92661927,0.68158546

>  <Name>
ligand

>  <RI>
0

>  <Rbt.Current_Directory>
/home/itssahil/PROJECTS/Mol_Feturizer/New_Systems/rnas/2O3Y

>  <Rbt.Executable>
rbdock ($Id: //depot/dev/client3/rdock/2013.1/src/exe/rbdock.cxx#4 $)

>  <Rbt.Library>
libRbt.so (2013.1, Build901 2013/11/27)

>  <Rbt.Parameter_File>
/export/apps/rDock/src/rDock_2013.1_src/data/scripts/dock_solv.prm

>  <Rbt.Receptor>
prm/blind_docking_40.prm

>  <SCORE>
-2.00621

>  <SCORE.INTER>
3.89269

>  <SCORE.INTER.CONST>
1

>  <SCORE.INTER.POLAR>
0

>  <SCORE.INTER.ROT>
11

>  <SCORE.INTER.SOLV>
9.34129

>  <SCORE.INTER.VDW>
-11.452

>  <SCORE.INTER.norm>
0.278049

>  <SCORE.INTRA>
-6.47754

>  <SCORE.INTRA.DIHEDRAL>
-16.6386

>  <SCORE.INTRA.DIHEDRAL.0>
24.1231

>  <SCORE.INTRA.POLAR>
0

>  <SCORE.INTRA.POLAR.0>
0

>  <SCORE.INTRA.REPUL>
0

>  <SCORE.INTRA.REPUL.0>
0

>  <SCORE.INTRA.SOLV>
1.29921

>  <SCORE.INTRA.SOLV.lig_0>
-48.2216

>  <SCORE.INTRA.VDW>
1.19218

>  <SCORE.INTRA.VDW.0>
-1.3967

>  <SCORE.INTRA.norm>
-0.462681

>  <SCORE.RESTR>
0.578639

>  <SCORE.RESTR.CAVITY>
0.578639

>  <SCORE.RESTR.norm>
0.0413313

>  <SCORE.SYSTEM>
0

>  <SCORE.SYSTEM.CONST>
0

>  <SCORE.SYSTEM.DIHEDRAL>
0

>  <SCORE.SYSTEM.SOLV>
0

>  <SCORE.SYSTEM.norm>
0

>  <SCORE.heavy>
14

>  <SCORE.norm>
-0.143301

>  <RMSD>
19.081

$$$$
ligand
 OpenBabel11021811463D
libRbt.so/2013.1/901 2013/11/27
 14 13  0  0  0  0  0  0  0  0999 V2000
   14.7151   19.1275   29.5048 N   0  0  0  0  0  0  0  0  0  0  0  0
   13.6452   19.0855   28.4990 C   0  0  0  0  0  0  0  0  0  0  0  0
   13.9316   17.9657   27.5040 C   0  0  0  0  0  0  0  0  0  0  0  0
   14.0227   16.6518   28.2627 C   0  0  0  0  0  0  0  0  0  0  0  0
   12.7404   16.3956   28.9283 N   0  0  0  0  0  0  0  0  0  0  0  0
   11.8956   15.6647   27.9677 C   0  0  0  0  0  0  0  0  0  0  0  0
   11.2453   14.4489   28.6378 C   0  0  0  0  0  0  0  0  0  0  0  0
   10.1732   14.9537   29.6152 C   0  0  0  0  0  0  0  0  0  0  0  0
   10.7916   15.3190   30.9000 C   0  0  0  0  0  0  0  0  0  0  0  0
    9.7012   15.6116   31.8524 N   0  0  0  0  0  0  0  0  0  0  0  0
   10.2083   15.4806   33.2931 C   0  0  0  0  0  0  0  0  0  0  0  0
    9.4453   14.3590   34.0084 C   0  0  0  0  0  0  0  0  0  0  0  0
    9.8541   13.0510   33.4613 C   0  0  0  0  0  0  0  0  0  0  0  0
    9.2919   12.8811   32.1042 N   0  0  0  0  0  0  0  0  0  0  0  0
  1  2  1  0  0  0  0
  2  3  1  0  0  0  0
  3  4  1  0  0  0  0
  4  5  1  0  0  0  0
  5  6  1  0  0  0  0
  6  7  1  0  0  0  0
  7  8  1  0  0  0  0
  8  9  1  0  0  0  0
  9 10  1  0  0  0  0
 10 11  1  0  0  0  0
 11 12  1  0  0  0  0
 12 13  1  0  0  0  0
 13 14  1  0  0  0  0
M  END
>  <CHROM.1>
58.52993834,60.88424395,88.35963110,132.49609789,71.10146968,-83.47806108
-172.15382375,158.74348732,-117.42652048,70.59182839,-72.36281409,11.54721722
15.78531069,30.32408662,-0.36883562,0.91093153,1.16240797

>  <Name>
ligand

>  <RI>
0

>  <Rbt.Current_Directory>
/home/itssahil/PROJECTS/Mol_Feturizer/New_Systems/rnas/2O3Y

>  <Rbt.Executable>
rbdock ($Id: //depot/dev/client3/rdock/2013.1/src/exe/rbdock.cxx#4 $)

>  <Rbt.Library>
libRbt.so (2013.1, Build901 2013/11/27)

>  <Rbt.Parameter_File>
/export/apps/rDock/src/rDock_2013.1_src/data/scripts/dock_solv.prm

>  <Rbt.Receptor>
prm/blind_docking_40.prm

>  <SCORE>
2.11676

>  <SCORE.INTER>
4.98971

>  <SCORE.INTER.CONST>
1

>  <SCORE.INTER.POLAR>
0

>  <SCORE.INTER.ROT>
11

>  <SCORE.INTER.SOLV>
10.5705

>  <SCORE.INTER.VDW>
-11.1304

>  <SCORE.INTER.norm>
0.356408

>  <SCORE.INTRA>
-3.45786

>  <SCORE.INTRA.DIHEDRAL>
-17.2678

>  <SCORE.INTRA.DIHEDRAL.0>
24.1231

>  <SCORE.INTRA.POLAR>
0

>  <SCORE.INTRA.POLAR.0>
0

>  <SCORE.INTRA.REPUL>
0

>  <SCORE.INTRA.REPUL.0>
0

>  <SCORE.INTRA.SOLV>
6.99917

>  <SCORE.INTRA.SOLV.lig_0>
-48.2216

>  <SCORE.INTRA.VDW>
1.67646

>  <SCORE.INTRA.VDW.0>
-1.3967

>  <SCORE.INTRA.norm>
-0.24699

>  <SCORE.RESTR>
0.5849

>  <SCORE.RESTR.CAVITY>
0.5849

>  <SCORE.RESTR.norm>
0.0417786

>  <SCORE.SYSTEM>
0

>  <SCORE.SYSTEM.CONST>
0

>  <SCORE.SYSTEM.DIHEDRAL>
0

>  <SCORE.SYSTEM.SOLV>
0

>  <SCORE.SYSTEM.norm>
0

>  <SCORE.heavy>
14

>  <SCORE.norm>
0.151197

>  <RMSD>
19.088

$$$$
ligand
 OpenBabel11021811463D
libRbt.so/2013.1/901 2013/11/27
 14 13  0  0  0  0  0  0  0  0999 V2000
   13.9747   19.5372   29.0422 N   0  0  0  0  0  0  0  0  0  0  0  0
   13.8177   18.0773   29.0890 C   0  0  0  0  0  0  0  0  0  0  0  0
   13.0192   17.6163   27.8741 C   0  0  0  0  0  0  0  0  0  0  0  0
   12.8182   16.1125   27.9656 C   0  0  0  0  0  0  0  0  0  0  0  0
   11.8996   15.8206   29.0719 N   0  0  0  0  0  0  0  0  0  0  0  0
   10.5364   15.8298   28.5130 C   0  0  0  0  0  0  0  0  0  0  0  0
    9.9737   14.4056   28.4412 C   0  0  0  0  0  0  0  0  0  0  0  0
    9.6611   13.9385   29.8707 C   0  0  0  0  0  0  0  0  0  0  0  0
   10.8820   13.4260   30.5137 C   0  0  0  0  0  0  0  0  0  0  0  0
   10.5001   12.9002   31.8402 N   0  0  0  0  0  0  0  0  0  0  0  0
   10.7054   13.9747   32.9140 C   0  0  0  0  0  0  0  0  0  0  0  0
    9.4517   14.8523   33.0117 C   0  0  0  0  0  0  0  0  0  0  0  0
    9.7372   16.0378   33.8427 C   0  0  0  0  0  0  0  0  0  0  0  0
    8.5816   16.9598   33.8086 N   0  0  0  0  0  0  0  0  0  0  0  0
  1  2  1  0  0  0  0
  2  3  1  0  0  0  0
  3  4  1  0  0  0  0
  4  5  1  0  0  0  0
  5  6  1  0  0  0  0
  6  7  1  0  0  0  0
  7  8  1  0  0  0  0
  8  9  1  0  0  0  0
  9 10  1  0  0  0  0
 10 11  1  0  0  0  0
 11 12  1  0  0  0  0
 12 13  1  0  0  0  0
 13 14  1  0  0  0  0
M  END
>  <CHROM.1>
-177.78140058,69.29028951,89.90333692,107.99567960,71.84617433,-82.96231724
-175.78950157,-94.42023486,86.68431049,-168.94407752,173.48095444,11.11129292
15.67749720,30.41396667,-0.19281597,0.97445195,0.83782147

>  <Name>
ligand

>  <RI>
0

>  <Rbt.Current_Directory>
/home/itssahil/PROJECTS/Mol_Feturizer/New_Systems/rnas/2O3Y

>  <Rbt.Executable>
rbdock ($Id: //depot/dev/client3/rdock/2013.1/src/exe/rbdock.cxx#4 $)

>  <Rbt.Library>
libRbt.so (2013.1, Build901 2013/11/27)

>  <Rbt.Parameter_File>
/export/apps/rDock/src/rDock_2013.1_src/data/scripts/dock_solv.prm

>  <Rbt.Receptor>
prm/blind_docking_40.prm

>  <SCORE>
-0.136801

>  <SCORE.INTER>
5.8188

>  <SCORE.INTER.CONST>
1

>  <SCORE.INTER.POLAR>
0

>  <SCORE.INTER.ROT>
11

>  <SCORE.INTER.SOLV>
9.15534

>  <SCORE.INTER.VDW>
-10.1059

>  <SCORE.INTER.norm>
0.415629

>  <SCORE.INTRA>
-6.89321

>  <SCORE.INTRA.DIHEDRAL>
-17.7205

>  <SCORE.INTRA.DIHEDRAL.0>
24.1231

>  <SCORE.INTRA.POLAR>
0

>  <SCORE.INTRA.POLAR.0>
0

>  <SCORE.INTRA.REPUL>
0

>  <SCORE.INTRA.REPUL.0>
0

>  <SCORE.INTRA.SOLV>
0.582868

>  <SCORE.INTRA.SOLV.lig_0>
-48.2216

>  <SCORE.INTRA.VDW>
1.6756

>  <SCORE.INTRA.VDW.0>
-1.3967

>  <SCORE.INTRA.norm>
-0.492372

>  <SCORE.RESTR>
0.937604

>  <SCORE.RESTR.CAVITY>
0.937604

>  <SCORE.RESTR.norm>
0.0669717

>  <SCORE.SYSTEM>
0

>  <SCORE.SYSTEM.CONST>
0

>  <SCORE.SYSTEM.DIHEDRAL>
0

>  <SCORE.SYSTEM.SOLV>
0

>  <SCORE.SYSTEM.norm>
0

>  <SCORE.heavy>
14

>  <SCORE.norm>
-0.00977153

>  <RMSD>
19.098

$$$$
ligand
 OpenBabel11021811463D
libRbt.so/2013.1/901 2013/11/27
 14 13  0  0  0  0  0  0  0  0999 V2000
    9.5628   15.2140   33.7746 N   0  0  0  0  0  0  0  0  0  0  0  0
    9.4199   13.7715   34.0132 C   0  0  0  0  0  0  0  0  0  0  0  0
    9.9363   13.0057   32.7994 C   0  0  0  0  0  0  0  0  0  0  0  0
    8.9956   13.2529   31.6315 C   0  0  0  0  0  0  0  0  0  0  0  0
    9.1224   14.6509   31.2046 N   0  0  0  0  0  0  0  0  0  0  0  0
    7.9753   14.9382   30.3259 C   0  0  0  0  0  0  0  0  0  0  0  0
    8.2433   14.4278   28.9054 C   0  0  0  0  0  0  0  0  0  0  0  0
    9.5316   15.0877   28.3914 C   0  0  0  0  0  0  0  0  0  0  0  0
   10.7079   14.3537   28.8858 C   0  0  0  0  0  0  0  0  0  0  0  0
   11.8966   15.1922   28.6297 N   0  0  0  0  0  0  0  0  0  0  0  0
   12.2251   16.0356   29.8669 C   0  0  0  0  0  0  0  0  0  0  0  0
   12.6094   17.4561   29.4355 C   0  0  0  0  0  0  0  0  0  0  0  0
   13.8179   17.4102   28.5901 C   0  0  0  0  0  0  0  0  0  0  0  0
   14.1965   18.7819   28.1878 N   0  0  0  0  0  0  0  0  0  0  0  0
  1  2  1  0  0  0  0
  2  3  1  0  0  0  0
  3  4  1  0  0  0  0
  4  5  1  0  0  0  0
  5  6  1  0  0  0  0
  6  7  1  0  0  0  0
  7  8  1  0  0  0  0
  8  9  1  0  0  0  0
  9 10  1  0  0  0  0
 10 11  1  0  0  0  0
 11 12  1  0  0  0  0
 12 13  1  0  0  0  0
 13 14  1  0  0  0  0
M  END
>  <CHROM.1>
-68.31789620,68.95368462,-165.84559432,-81.31553782,-57.31619717,82.70210287
-167.23440043,94.09478645,-138.32744106,-61.90427490,-179.34663903,10.58836279
15.25530017,30.33150407,-2.44447135,-0.59796630,-1.41366012

>  <Name>
ligand

>  <RI>
0

>  <Rbt.Current_Directory>
/home/itssahil/PROJECTS/Mol_Feturizer/New_Systems/rnas/2O3Y

>  <Rbt.Executable>
rbdock ($Id: //depot/dev/client3/rdock/2013.1/src/exe/rbdock.cxx#4 $)

>  <Rbt.Library>
libRbt.so (2013.1, Build901 2013/11/27)

>  <Rbt.Parameter_File>
/export/apps/rDock/src/rDock_2013.1_src/data/scripts/dock_solv.prm

>  <Rbt.Receptor>
prm/blind_docking_40.prm

>  <SCORE>
0.872346

>  <SCORE.INTER>
5.88073

>  <SCORE.INTER.CONST>
1

>  <SCORE.INTER.POLAR>
0

>  <SCORE.INTER.ROT>
11

>  <SCORE.INTER.SOLV>
9.5583

>  <SCORE.INTER.VDW>
-10.1989

>  <SCORE.INTER.norm>
0.420052

>  <SCORE.INTRA>
-5.05074

>  <SCORE.INTRA.DIHEDRAL>
-18.8464

>  <SCORE.INTRA.DIHEDRAL.0>
24.1231

>  <SCORE.INTRA.POLAR>
0

>  <SCORE.INTRA.POLAR.0>
0

>  <SCORE.INTRA.REPUL>
0

>  <SCORE.INTRA.REPUL.0>
0

>  <SCORE.INTRA.SOLV>
4.54231

>  <SCORE.INTRA.SOLV.lig_0>
-48.2216

>  <SCORE.INTRA.VDW>
2.10133

>  <SCORE.INTRA.VDW.0>
-1.3967

>  <SCORE.INTRA.norm>
-0.360767

>  <SCORE.RESTR>
0.0423499

>  <SCORE.RESTR.CAVITY>
0.0423499

>  <SCORE.RESTR.norm>
0.00302499

>  <SCORE.SYSTEM>
0

>  <SCORE.SYSTEM.CONST>
0

>  <SCORE.SYSTEM.DIHEDRAL>
0

>  <SCORE.SYSTEM.SOLV>
0

>  <SCORE.SYSTEM.norm>
0

>  <SCORE.heavy>
14

>  <SCORE.norm>
0.0623104

>  <RMSD>
19.102

$$$$
ligand
 OpenBabel11021811463D
libRbt.so/2013.1/901 2013/11/27
 14 13  0  0  0  0  0  0  0  0999 V2000
    8.9203   16.4962   33.1551 N   0  0  0  0  0  0  0  0  0  0  0  0
   10.0432   15.8320   33.8304 C   0  0  0  0  0  0  0  0  0  0  0  0
   10.4828   14.6242   33.0094 C   0  0  0  0  0  0  0  0  0  0  0  0
    9.3812   13.5780   33.0545 C   0  0  0  0  0  0  0  0  0  0  0  0
    9.3168   12.8970   31.7564 N   0  0  0  0  0  0  0  0  0  0  0  0
    8.4266   13.6951   30.8956 C   0  0  0  0  0  0  0  0  0  0  0  0
    9.1294   14.0579   29.5825 C   0  0  0  0  0  0  0  0  0  0  0  0
   10.4382   14.7869   29.9220 C   0  0  0  0  0  0  0  0  0  0  0  0
   11.1337   15.1800   28.6857 C   0  0  0  0  0  0  0  0  0  0  0  0
   12.2984   16.0023   29.0716 N   0  0  0  0  0  0  0  0  0  0  0  0
   13.1574   16.3131   27.8406 C   0  0  0  0  0  0  0  0  0  0  0  0
   14.4767   16.9583   28.2818 C   0  0  0  0  0  0  0  0  0  0  0  0
   14.2037   18.2502   28.9404 C   0  0  0  0  0  0  0  0  0  0  0  0
   13.5102   19.1533   27.9970 N   0  0  0  0  0  0  0  0  0  0  0  0
  1  2  1  0  0  0  0
  2  3  1  0  0  0  0
  3  4  1  0  0  0  0
  4  5  1  0  0  0  0
  5  6  1  0  0  0  0
  6  7  1  0  0  0  0
  7  8  1  0  0  0  0
  8  9  1  0  0  0  0
  9 10  1  0  0  0  0
 10 11  1  0  0  0  0
 11 12  1  0  0  0  0
 12 13  1  0  0  0  0
 13 14  1  0  0  0  0
M  END
>  <CHROM.1>
-67.98353052,144.24570195,-87.00890052,125.91373847,-55.98981389,-178.80574151
173.80938175,173.60633018,-170.49541402,-63.31363744,-59.95282560,11.06563921
15.55865482,30.43017089,-2.82446609,-0.82971484,-2.04749063

>  <Name>
ligand

>  <RI>
0

>  <Rbt.Current_Directory>
/home/itssahil/PROJECTS/Mol_Feturizer/New_Systems/rnas/2O3Y

>  <Rbt.Executable>
rbdock ($Id: //depot/dev/client3/rdock/2013.1/src/exe/rbdock.cxx#4 $)

>  <Rbt.Library>
libRbt.so (2013.1, Build901 2013/11/27)

>  <Rbt.Parameter_File>
/export/apps/rDock/src/rDock_2013.1_src/data/scripts/dock_solv.prm

>  <Rbt.Receptor>
prm/blind_docking_40.prm

>  <SCORE>
1.02405

>  <SCORE.INTER>
6.27643

>  <SCORE.INTER.CONST>
1

>  <SCORE.INTER.POLAR>
0

>  <SCORE.INTER.ROT>
11

>  <SCORE.INTER.SOLV>
6.25878

>  <SCORE.INTER.VDW>
-8.83531

>  <SCORE.INTER.norm>
0.448316

>  <SCORE.INTRA>
-5.35161

>  <SCORE.INTRA.DIHEDRAL>
-18.2707

>  <SCORE.INTRA.DIHEDRAL.0>
24.1231

>  <SCORE.INTRA.POLAR>
0

>  <SCORE.INTRA.POLAR.0>
0

>  <SCORE.INTRA.REPUL>
0

>  <SCORE.INTRA.REPUL.0>
0

>  <SCORE.INTRA.SOLV>
4.35532

>  <SCORE.INTRA.SOLV.lig_0>
-48.2216

>  <SCORE.INTRA.VDW>
1.60607

>  <SCORE.INTRA.VDW.0>
-1.3967

>  <SCORE.INTRA.norm>
-0.382258

>  <SCORE.RESTR>
0.099229

>  <SCORE.RESTR.CAVITY>
0.099229

>  <SCORE.RESTR.norm>
0.00708779

>  <SCORE.SYSTEM>
0

>  <SCORE.SYSTEM.CONST>
0

>  <SCORE.SYSTEM.DIHEDRAL>
0

>  <SCORE.SYSTEM.SOLV>
0

>  <SCORE.SYSTEM.norm>
0

>  <SCORE.heavy>
14

>  <SCORE.norm>
0.0731464

>  <RMSD>
19.122

$$$$
ligand
 OpenBabel11021811463D
libRbt.so/2013.1/901 2013/11/27
 14 13  0  0  0  0  0  0  0  0999 V2000
    9.9936   17.0931   32.9984 N   0  0  0  0  0  0  0  0  0  0  0  0
   10.3404   15.6664   33.0468 C   0  0  0  0  0  0  0  0  0  0  0  0
    9.2709   14.9134   33.8313 C   0  0  0  0  0  0  0  0  0  0  0  0
    9.4731   13.4217   33.6215 C   0  0  0  0  0  0  0  0  0  0  0  0
    9.2699   13.1077   32.2027 N   0  0  0  0  0  0  0  0  0  0  0  0
   10.6058   12.9857   31.5935 C   0  0  0  0  0  0  0  0  0  0  0  0
   10.5440   13.2929   30.0929 C   0  0  0  0  0  0  0  0  0  0  0  0
   10.0734   14.7445   29.9173 C   0  0  0  0  0  0  0  0  0  0  0  0
   10.1449   15.1314   28.4989 C   0  0  0  0  0  0  0  0  0  0  0  0
   11.5636   15.0727   28.0918 N   0  0  0  0  0  0  0  0  0  0  0  0
   12.3273   16.2732   28.6623 C   0  0  0  0  0  0  0  0  0  0  0  0
   13.6340   16.4703   27.8843 C   0  0  0  0  0  0  0  0  0  0  0  0
   14.4003   17.5859   28.4721 C   0  0  0  0  0  0  0  0  0  0  0  0
   13.6952   18.8612   28.2209 N   0  0  0  0  0  0  0  0  0  0  0  0
  1  2  1  0  0  0  0
  2  3  1  0  0  0  0
  3  4  1  0  0  0  0
  4  5  1  0  0  0  0
  5  6  1  0  0  0  0
  6  7  1  0  0  0  0
  7  8  1  0  0  0  0
  8  9  1  0  0  0  0
  9 10  1  0  0  0  0
 10 11  1  0  0  0  0
 11 12  1  0  0  0  0
 12 13  1  0  0  0  0
 13 14  1  0  0  0  0
M  END
>  <CHROM.1>
167.88202947,-63.57357434,100.45254472,-154.27334505,61.86835412,173.62552638
-63.17723931,-74.93059602,-161.26171043,-177.37186185,-68.63395649,11.09543837
15.32971599,30.50968383,-2.88183362,-0.96466854,-2.25362322

>  <Name>
ligand

>  <RI>
0

>  <Rbt.Current_Directory>
/home/itssahil/PROJECTS/Mol_Feturizer/New_Systems/rnas/2O3Y

>  <Rbt.Executable>
rbdock ($Id: //depot/dev/client3/rdock/2013.1/src/exe/rbdock.cxx#4 $)

>  <Rbt.Library>
libRbt.so (2013.1, Build901 2013/11/27)

>  <Rbt.Parameter_File>
/export/apps/rDock/src/rDock_2013.1_src/data/scripts/dock_solv.prm

>  <Rbt.Receptor>
prm/blind_docking_40.prm

>  <SCORE>
-1.8011

>  <SCORE.INTER>
5.209

>  <SCORE.INTER.CONST>
1

>  <SCORE.INTER.POLAR>
0

>  <SCORE.INTER.ROT>
11

>  <SCORE.INTER.SOLV>
9.44428

>  <SCORE.INTER.VDW>
-10.6088

>  <SCORE.INTER.norm>
0.372072

>  <SCORE.INTRA>
-7.04713

>  <SCORE.INTRA.DIHEDRAL>
-21.1946

>  <SCORE.INTRA.DIHEDRAL.0>
24.1231

>  <SCORE.INTRA.POLAR>
0

>  <SCORE.INTRA.POLAR.0>
0

>  <SCORE.INTRA.REPUL>
0

>  <SCORE.INTRA.REPUL.0>
0

>  <SCORE.INTRA.SOLV>
2.2278

>  <SCORE.INTRA.SOLV.lig_0>
-48.2216

>  <SCORE.INTRA.VDW>
2.43627

>  <SCORE.INTRA.VDW.0>
-1.3967

>  <SCORE.INTRA.norm>
-0.503367

>  <SCORE.RESTR>
0.0370255

>  <SCORE.RESTR.CAVITY>
0.0370255

>  <SCORE.RESTR.norm>
0.00264468

>  <SCORE.SYSTEM>
0

>  <SCORE.SYSTEM.CONST>
0

>  <SCORE.SYSTEM.DIHEDRAL>
0

>  <SCORE.SYSTEM.SOLV>
0

>  <SCORE.SYSTEM.norm>
0

>  <SCORE.heavy>
14

>  <SCORE.norm>
-0.12865

>  <RMSD>
19.123

$$$$
ligand
 OpenBabel11021811463D
libRbt.so/2013.1/901 2013/11/27
 14 13  0  0  0  0  0  0  0  0999 V2000
   13.4356   19.0293   27.9952 N   0  0  0  0  0  0  0  0  0  0  0  0
   14.1187   18.1168   28.9219 C   0  0  0  0  0  0  0  0  0  0  0  0
   13.7299   16.6791   28.5929 C   0  0  0  0  0  0  0  0  0  0  0  0
   12.2403   16.5086   28.8418 C   0  0  0  0  0  0  0  0  0  0  0  0
   11.8845   15.0971   28.6578 N   0  0  0  0  0  0  0  0  0  0  0  0
   10.6422   15.0662   27.8664 C   0  0  0  0  0  0  0  0  0  0  0  0
    9.4266   15.3362   28.7605 C   0  0  0  0  0  0  0  0  0  0  0  0
    9.2404   14.1327   29.6968 C   0  0  0  0  0  0  0  0  0  0  0  0
   10.2619   14.1533   30.7564 C   0  0  0  0  0  0  0  0  0  0  0  0
    9.9084   13.1067   31.7368 N   0  0  0  0  0  0  0  0  0  0  0  0
   10.5153   13.4373   33.1051 C   0  0  0  0  0  0  0  0  0  0  0  0
    9.4185   13.9523   34.0450 C   0  0  0  0  0  0  0  0  0  0  0  0
    8.9372   15.2661   33.5762 C   0  0  0  0  0  0  0  0  0  0  0  0
   10.0044   16.2759   33.7430 N   0  0  0  0  0  0  0  0  0  0  0  0
  1  2  1  0  0  0  0
  2  3  1  0  0  0  0
  3  4  1  0  0  0  0
  4  5  1  0  0  0  0
  5  6  1  0  0  0  0
  6  7  1  0  0  0  0
  7  8  1  0  0  0  0
  8  9  1  0  0  0  0
  9 10  1  0  0  0  0
 10 11  1  0  0  0  0
 11 12  1  0  0  0  0
 12 13  1  0  0  0  0
 13 14  1  0  0  0  0
M  END
>  <CHROM.1>
-64.22196157,-174.36673642,-135.57249684,-80.16200550,-68.96592818,74.67072568
171.30989818,-155.79890147,104.68360603,-67.85117480,-68.04391505,10.98299526
15.43964203,30.44965298,-0.65330703,0.84337768,1.38562543

>  <Name>
ligand

>  <RI>
0

>  <Rbt.Current_Directory>
/home/itssahil/PROJECTS/Mol_Feturizer/New_Systems/rnas/2O3Y

>  <Rbt.Executable>
rbdock ($Id: //depot/dev/client3/rdock/2013.1/src/exe/rbdock.cxx#4 $)

>  <Rbt.Library>
libRbt.so (2013.1, Build901 2013/11/27)

>  <Rbt.Parameter_File>
/export/apps/rDock/src/rDock_2013.1_src/data/scripts/dock_solv.prm

>  <Rbt.Receptor>
prm/blind_docking_40.prm

>  <SCORE>
1.0795

>  <SCORE.INTER>
6.29072

>  <SCORE.INTER.CONST>
1

>  <SCORE.INTER.POLAR>
0

>  <SCORE.INTER.ROT>
11

>  <SCORE.INTER.SOLV>
10.0528

>  <SCORE.INTER.VDW>
-10.0905

>  <SCORE.INTER.norm>
0.449337

>  <SCORE.INTRA>
-5.4909

>  <SCORE.INTRA.DIHEDRAL>
-19.2734

>  <SCORE.INTRA.DIHEDRAL.0>
24.1231

>  <SCORE.INTRA.POLAR>
0

>  <SCORE.INTRA.POLAR.0>
0

>  <SCORE.INTRA.REPUL>
0

>  <SCORE.INTRA.REPUL.0>
0

>  <SCORE.INTRA.SOLV>
3.57152

>  <SCORE.INTRA.SOLV.lig_0>
-48.2216

>  <SCORE.INTRA.VDW>
2.36002

>  <SCORE.INTRA.VDW.0>
-1.3967

>  <SCORE.INTRA.norm>
-0.392207

>  <SCORE.RESTR>
0.279692

>  <SCORE.RESTR.CAVITY>
0.279692

>  <SCORE.RESTR.norm>
0.019978

>  <SCORE.SYSTEM>
0

>  <SCORE.SYSTEM.CONST>
0

>  <SCORE.SYSTEM.DIHEDRAL>
0

>  <SCORE.SYSTEM.SOLV>
0

>  <SCORE.SYSTEM.norm>
0

>  <SCORE.heavy>
14

>  <SCORE.norm>
0.0771074

>  <RMSD>
19.139

$$$$
ligand
 OpenBabel11021811463D
libRbt.so/2013.1/901 2013/11/27
 14 13  0  0  0  0  0  0  0  0999 V2000
   12.9362   18.3780   30.0483 N   0  0  0  0  0  0  0  0  0  0  0  0
   13.9544   18.6074   29.0144 C   0  0  0  0  0  0  0  0  0  0  0  0
   14.5252   17.2673   28.5622 C   0  0  0  0  0  0  0  0  0  0  0  0
   13.4445   16.5060   27.8122 C   0  0  0  0  0  0  0  0  0  0  0  0
   12.4685   15.9881   28.7778 N   0  0  0  0  0  0  0  0  0  0  0  0
   11.4100   15.3182   28.0023 C   0  0  0  0  0  0  0  0  0  0  0  0
   10.9536   14.0364   28.7084 C   0  0  0  0  0  0  0  0  0  0  0  0
   10.3789   14.4206   30.0802 C   0  0  0  0  0  0  0  0  0  0  0  0
    9.9511   13.2132   30.8055 C   0  0  0  0  0  0  0  0  0  0  0  0
    9.1619   13.6517   31.9745 N   0  0  0  0  0  0  0  0  0  0  0  0
   10.0607   13.7501   33.2124 C   0  0  0  0  0  0  0  0  0  0  0  0
    9.5574   14.8732   34.1273 C   0  0  0  0  0  0  0  0  0  0  0  0
    9.9128   16.1835   33.5492 C   0  0  0  0  0  0  0  0  0  0  0  0
    9.0150   16.4871   32.4142 N   0  0  0  0  0  0  0  0  0  0  0  0
  1  2  1  0  0  0  0
  2  3  1  0  0  0  0
  3  4  1  0  0  0  0
  4  5  1  0  0  0  0
  5  6  1  0  0  0  0
  6  7  1  0  0  0  0
  7  8  1  0  0  0  0
  8  9  1  0  0  0  0
  9 10  1  0  0  0  0
 10 11  1  0  0  0  0
 11 12  1  0  0  0  0
 12 13  1  0  0  0  0
 13 14  1  0  0  0  0
M  END
>  <CHROM.1>
68.35525351,-74.58904373,177.26121727,140.77334279,61.42150417,-178.90202853
-168.45985606,-94.53454097,147.91632516,-74.85673186,75.49735871,11.26659212
15.61985777,30.50622538,-0.25397910,0.87957596,0.88521403

>  <Name>
ligand

>  <RI>
0

>  <Rbt.Current_Directory>
/home/itssahil/PROJECTS/Mol_Feturizer/New_Systems/rnas/2O3Y

>  <Rbt.Executable>
rbdock ($Id: //depot/dev/client3/rdock/2013.1/src/exe/rbdock.cxx#4 $)

>  <Rbt.Library>
libRbt.so (2013.1, Build901 2013/11/27)

>  <Rbt.Parameter_File>
/export/apps/rDock/src/rDock_2013.1_src/data/scripts/dock_solv.prm

>  <Rbt.Receptor>
prm/blind_docking_40.prm

>  <SCORE>
-2.79055

>  <SCORE.INTER>
2.64868

>  <SCORE.INTER.CONST>
1

>  <SCORE.INTER.POLAR>
0

>  <SCORE.INTER.ROT>
11

>  <SCORE.INTER.SOLV>
9.14121

>  <SCORE.INTER.VDW>
-12.2146

>  <SCORE.INTER.norm>
0.189191

>  <SCORE.INTRA>
-5.6932

>  <SCORE.INTRA.DIHEDRAL>
-18.6499

>  <SCORE.INTRA.DIHEDRAL.0>
24.1231

>  <SCORE.INTRA.POLAR>
0

>  <SCORE.INTRA.POLAR.0>
0

>  <SCORE.INTRA.REPUL>
0

>  <SCORE.INTRA.REPUL.0>
0

>  <SCORE.INTRA.SOLV>
6.60387

>  <SCORE.INTRA.SOLV.lig_0>
-48.2216

>  <SCORE.INTRA.VDW>
0.329828

>  <SCORE.INTRA.VDW.0>
-1.3967

>  <SCORE.INTRA.norm>
-0.406657

>  <SCORE.RESTR>
0.253981

>  <SCORE.RESTR.CAVITY>
0.253981

>  <SCORE.RESTR.norm>
0.0181415

>  <SCORE.SYSTEM>
0

>  <SCORE.SYSTEM.CONST>
0

>  <SCORE.SYSTEM.DIHEDRAL>
0

>  <SCORE.SYSTEM.SOLV>
0

>  <SCORE.SYSTEM.norm>
0

>  <SCORE.heavy>
14

>  <SCORE.norm>
-0.199325

>  <RMSD>
19.157

$$$$
ligand
 OpenBabel11021811463D
libRbt.so/2013.1/901 2013/11/27
 14 13  0  0  0  0  0  0  0  0999 V2000
    8.9685   16.6305   32.9440 N   0  0  0  0  0  0  0  0  0  0  0  0
    9.9199   16.0006   33.8692 C   0  0  0  0  0  0  0  0  0  0  0  0
    9.5592   14.5285   34.0394 C   0  0  0  0  0  0  0  0  0  0  0  0
    9.8352   13.8054   32.7313 C   0  0  0  0  0  0  0  0  0  0  0  0
    8.8665   14.2541   31.7247 N   0  0  0  0  0  0  0  0  0  0  0  0
    9.1852   13.5433   30.4742 C   0  0  0  0  0  0  0  0  0  0  0  0
    9.0283   14.4770   29.2685 C   0  0  0  0  0  0  0  0  0  0  0  0
   10.1436   15.5316   29.3274 C   0  0  0  0  0  0  0  0  0  0  0  0
   11.4508   14.8993   29.0867 C   0  0  0  0  0  0  0  0  0  0  0  0
   12.4869   15.9377   29.2600 N   0  0  0  0  0  0  0  0  0  0  0  0
   13.0142   16.3915   27.8941 C   0  0  0  0  0  0  0  0  0  0  0  0
   14.3247   17.1663   28.0785 C   0  0  0  0  0  0  0  0  0  0  0  0
   14.1097   18.2953   29.0040 C   0  0  0  0  0  0  0  0  0  0  0  0
   13.0042   19.1426   28.5076 N   0  0  0  0  0  0  0  0  0  0  0  0
  1  2  1  0  0  0  0
  2  3  1  0  0  0  0
  3  4  1  0  0  0  0
  4  5  1  0  0  0  0
  5  6  1  0  0  0  0
  6  7  1  0  0  0  0
  7  8  1  0  0  0  0
  8  9  1  0  0  0  0
  9 10  1  0  0  0  0
 10 11  1  0  0  0  0
 11 12  1  0  0  0  0
 12 13  1  0  0  0  0
 13 14  1  0  0  0  0
M  END
>  <CHROM.1>
68.58033172,-69.09297602,179.18995415,-140.48631417,69.10258685,68.16355575
-175.65285882,-104.22841019,-164.72034085,-55.97809753,-55.38453883,10.99269809
15.75711359,30.44348438,-2.74538297,-0.81089561,-2.02949138

>  <Name>
ligand

>  <RI>
0

>  <Rbt.Current_Directory>
/home/itssahil/PROJECTS/Mol_Feturizer/New_Systems/rnas/2O3Y

>  <Rbt.Executable>
rbdock ($Id: //depot/dev/client3/rdock/2013.1/src/exe/rbdock.cxx#4 $)

>  <Rbt.Library>
libRbt.so (2013.1, Build901 2013/11/27)

>  <Rbt.Parameter_File>
/export/apps/rDock/src/rDock_2013.1_src/data/scripts/dock_solv.prm

>  <Rbt.Receptor>
prm/blind_docking_40.prm

>  <SCORE>
-0.0484331

>  <SCORE.INTER>
5.11414

>  <SCORE.INTER.CONST>
1

>  <SCORE.INTER.POLAR>
0

>  <SCORE.INTER.ROT>
11

>  <SCORE.INTER.SOLV>
5.31983

>  <SCORE.INTER.VDW>
-9.29719

>  <SCORE.INTER.norm>
0.365295

>  <SCORE.INTRA>
-5.26594

>  <SCORE.INTRA.DIHEDRAL>
-20.671

>  <SCORE.INTRA.DIHEDRAL.0>
24.1231

>  <SCORE.INTRA.POLAR>
0

>  <SCORE.INTRA.POLAR.0>
0

>  <SCORE.INTRA.REPUL>
0

>  <SCORE.INTRA.REPUL.0>
0

>  <SCORE.INTRA.SOLV>
6.1478

>  <SCORE.INTRA.SOLV.lig_0>
-48.2216

>  <SCORE.INTRA.VDW>
1.99568

>  <SCORE.INTRA.VDW.0>
-1.3967

>  <SCORE.INTRA.norm>
-0.376138

>  <SCORE.RESTR>
0.103366

>  <SCORE.RESTR.CAVITY>
0.103366

>  <SCORE.RESTR.norm>
0.0073833

>  <SCORE.SYSTEM>
0

>  <SCORE.SYSTEM.CONST>
0

>  <SCORE.SYSTEM.DIHEDRAL>
0

>  <SCORE.SYSTEM.SOLV>
0

>  <SCORE.SYSTEM.norm>
0

>  <SCORE.heavy>
14

>  <SCORE.norm>
-0.00345951

>  <RMSD>
19.190

$$$$
ligand
 OpenBabel11021811463D
libRbt.so/2013.1/901 2013/11/27
 14 13  0  0  0  0  0  0  0  0999 V2000
   13.5010   19.1185   28.0173 N   0  0  0  0  0  0  0  0  0  0  0  0
   13.8776   18.2276   29.1231 C   0  0  0  0  0  0  0  0  0  0  0  0
   14.2565   16.8605   28.5631 C   0  0  0  0  0  0  0  0  0  0  0  0
   13.0228   16.2323   27.9358 C   0  0  0  0  0  0  0  0  0  0  0  0
   12.1217   15.7825   29.0029 N   0  0  0  0  0  0  0  0  0  0  0  0
   11.1808   14.8248   28.3962 C   0  0  0  0  0  0  0  0  0  0  0  0
   10.1630   14.3381   29.4340 C   0  0  0  0  0  0  0  0  0  0  0  0
   10.9191   13.5643   30.5244 C   0  0  0  0  0  0  0  0  0  0  0  0
    9.9666   12.8569   31.3956 C   0  0  0  0  0  0  0  0  0  0  0  0
    9.1592   13.8773   32.0945 N   0  0  0  0  0  0  0  0  0  0  0  0
    9.6129   14.0023   33.5534 C   0  0  0  0  0  0  0  0  0  0  0  0
    9.1997   15.3716   34.1066 C   0  0  0  0  0  0  0  0  0  0  0  0
    9.9877   16.4324   33.4500 C   0  0  0  0  0  0  0  0  0  0  0  0
    9.5118   16.6198   32.0626 N   0  0  0  0  0  0  0  0  0  0  0  0
  1  2  1  0  0  0  0
  2  3  1  0  0  0  0
  3  4  1  0  0  0  0
  4  5  1  0  0  0  0
  5  6  1  0  0  0  0
  6  7  1  0  0  0  0
  7  8  1  0  0  0  0
  8  9  1  0  0  0  0
  9 10  1  0  0  0  0
 10 11  1  0  0  0  0
 11 12  1  0  0  0  0
 12 13  1  0  0  0  0
 13 14  1  0  0  0  0
M  END
>  <CHROM.1>
-65.26316730,-73.86716029,-162.38293667,-177.93408232,-64.01584759,-168.93904760
-64.53556092,-104.79118351,157.87089750,-68.81475516,73.46484958,11.17719949
15.57887983,30.54720830,-0.08968716,0.93216348,0.68686150

>  <Name>
ligand

>  <RI>
0

>  <Rbt.Current_Directory>
/home/itssahil/PROJECTS/Mol_Feturizer/New_Systems/rnas/2O3Y

>  <Rbt.Executable>
rbdock ($Id: //depot/dev/client3/rdock/2013.1/src/exe/rbdock.cxx#4 $)

>  <Rbt.Library>
libRbt.so (2013.1, Build901 2013/11/27)

>  <Rbt.Parameter_File>
/export/apps/rDock/src/rDock_2013.1_src/data/scripts/dock_solv.prm

>  <Rbt.Receptor>
prm/blind_docking_40.prm

>  <SCORE>
-4.06095

>  <SCORE.INTER>
2.12805

>  <SCORE.INTER.CONST>
1

>  <SCORE.INTER.POLAR>
0

>  <SCORE.INTER.ROT>
11

>  <SCORE.INTER.SOLV>
6.62506

>  <SCORE.INTER.VDW>
-11.723

>  <SCORE.INTER.norm>
0.152004

>  <SCORE.INTRA>
-6.23385

>  <SCORE.INTRA.DIHEDRAL>
-20.1184

>  <SCORE.INTRA.DIHEDRAL.0>
24.1231

>  <SCORE.INTRA.POLAR>
0

>  <SCORE.INTRA.POLAR.0>
0

>  <SCORE.INTRA.REPUL>
0

>  <SCORE.INTRA.REPUL.0>
0

>  <SCORE.INTRA.SOLV>
6.57349

>  <SCORE.INTRA.SOLV.lig_0>
-48.2216

>  <SCORE.INTRA.VDW>
0.538599

>  <SCORE.INTRA.VDW.0>
-1.3967

>  <SCORE.INTRA.norm>
-0.445275

>  <SCORE.RESTR>
0.0448453

>  <SCORE.RESTR.CAVITY>
0.0448453

>  <SCORE.RESTR.norm>
0.00320323

>  <SCORE.SYSTEM>
0

>  <SCORE.SYSTEM.CONST>
0

>  <SCORE.SYSTEM.DIHEDRAL>
0

>  <SCORE.SYSTEM.SOLV>
0

>  <SCORE.SYSTEM.norm>
0

>  <SCORE.heavy>
14

>  <SCORE.norm>
-0.290068

>  <RMSD>
19.192

$$$$
ligand
 OpenBabel11021811463D
libRbt.so/2013.1/901 2013/11/27
 14 13  0  0  0  0  0  0  0  0999 V2000
    8.7004   16.7792   33.9559 N   0  0  0  0  0  0  0  0  0  0  0  0
    9.2597   15.4224   33.8906 C   0  0  0  0  0  0  0  0  0  0  0  0
   10.4678   15.4188   32.9596 C   0  0  0  0  0  0  0  0  0  0  0  0
   10.8878   13.9791   32.7127 C   0  0  0  0  0  0  0  0  0  0  0  0
    9.8097   13.2830   32.0015 N   0  0  0  0  0  0  0  0  0  0  0  0
   10.2440   13.1339   30.6015 C   0  0  0  0  0  0  0  0  0  0  0  0
    9.5337   14.1545   29.7051 C   0  0  0  0  0  0  0  0  0  0  0  0
   10.3615   15.4485   29.6985 C   0  0  0  0  0  0  0  0  0  0  0  0
   11.5519   15.2831   28.8487 C   0  0  0  0  0  0  0  0  0  0  0  0
   12.3761   16.5001   28.9944 N   0  0  0  0  0  0  0  0  0  0  0  0
   13.4192   16.5696   27.8732 C   0  0  0  0  0  0  0  0  0  0  0  0
   14.5307   17.5515   28.2628 C   0  0  0  0  0  0  0  0  0  0  0  0
   13.9974   18.9273   28.2774 C   0  0  0  0  0  0  0  0  0  0  0  0
   13.0685   19.0892   29.4165 N   0  0  0  0  0  0  0  0  0  0  0  0
  1  2  1  0  0  0  0
  2  3  1  0  0  0  0
  3  4  1  0  0  0  0
  4  5  1  0  0  0  0
  5  6  1  0  0  0  0
  6  7  1  0  0  0  0
  7  8  1  0  0  0  0
  8  9  1  0  0  0  0
  9 10  1  0  0  0  0
 10 11  1  0  0  0  0
 11 12  1  0  0  0  0
 12 13  1  0  0  0  0
 13 14  1  0  0  0  0
M  END
>  <CHROM.1>
-170.35994834,64.25503178,105.17695944,-103.26740510,87.89671497,75.73759775
-174.14524156,-164.75652880,-162.09545847,-68.53074895,70.00074674,11.30073312
15.82406232,30.51392264,-3.09659656,-0.92879631,-2.45524397

>  <Name>
ligand

>  <RI>
0

>  <Rbt.Current_Directory>
/home/itssahil/PROJECTS/Mol_Feturizer/New_Systems/rnas/2O3Y

>  <Rbt.Executable>
rbdock ($Id: //depot/dev/client3/rdock/2013.1/src/exe/rbdock.cxx#4 $)

>  <Rbt.Library>
libRbt.so (2013.1, Build901 2013/11/27)

>  <Rbt.Parameter_File>
/export/apps/rDock/src/rDock_2013.1_src/data/scripts/dock_solv.prm

>  <Rbt.Receptor>
prm/blind_docking_40.prm

>  <SCORE>
-1.13834

>  <SCORE.INTER>
3.84569

>  <SCORE.INTER.CONST>
1

>  <SCORE.INTER.POLAR>
0

>  <SCORE.INTER.ROT>
11

>  <SCORE.INTER.SOLV>
7.14578

>  <SCORE.INTER.VDW>
-10.7515

>  <SCORE.INTER.norm>
0.274692

>  <SCORE.INTRA>
-5.58624

>  <SCORE.INTRA.DIHEDRAL>
-17.065

>  <SCORE.INTRA.DIHEDRAL.0>
24.1231

>  <SCORE.INTRA.POLAR>
0

>  <SCORE.INTRA.POLAR.0>
0

>  <SCORE.INTRA.REPUL>
0

>  <SCORE.INTRA.REPUL.0>
0

>  <SCORE.INTRA.SOLV>
3.3897

>  <SCORE.INTRA.SOLV.lig_0>
-48.2216

>  <SCORE.INTRA.VDW>
1.25141

>  <SCORE.INTRA.VDW.0>
-1.3967

>  <SCORE.INTRA.norm>
-0.399017

>  <SCORE.RESTR>
0.602207

>  <SCORE.RESTR.CAVITY>
0.602207

>  <SCORE.RESTR.norm>
0.0430148

>  <SCORE.SYSTEM>
0

>  <SCORE.SYSTEM.CONST>
0

>  <SCORE.SYSTEM.DIHEDRAL>
0

>  <SCORE.SYSTEM.SOLV>
0

>  <SCORE.SYSTEM.norm>
0

>  <SCORE.heavy>
14

>  <SCORE.norm>
-0.0813103

>  <RMSD>
19.221

$$$$
ligand
 OpenBabel11021811463D
libRbt.so/2013.1/901 2013/11/27
 14 13  0  0  0  0  0  0  0  0999 V2000
   14.6999   19.3071   29.6377 N   0  0  0  0  0  0  0  0  0  0  0  0
   13.8514   18.5894   28.6770 C   0  0  0  0  0  0  0  0  0  0  0  0
   14.3576   17.1585   28.5271 C   0  0  0  0  0  0  0  0  0  0  0  0
   13.4514   16.4209   27.5550 C   0  0  0  0  0  0  0  0  0  0  0  0
   12.0779   16.4461   28.0706 N   0  0  0  0  0  0  0  0  0  0  0  0
   11.7133   15.0551   28.3913 C   0  0  0  0  0  0  0  0  0  0  0  0
   10.8768   14.9992   29.6747 C   0  0  0  0  0  0  0  0  0  0  0  0
   10.6185   13.5244   30.0176 C   0  0  0  0  0  0  0  0  0  0  0  0
    9.7880   13.4246   31.2289 C   0  0  0  0  0  0  0  0  0  0  0  0
   10.5868   13.9375   32.3605 N   0  0  0  0  0  0  0  0  0  0  0  0
    9.8088   13.7786   33.6717 C   0  0  0  0  0  0  0  0  0  0  0  0
    8.9143   15.0044   33.8925 C   0  0  0  0  0  0  0  0  0  0  0  0
    9.7399   16.2274   33.9071 C   0  0  0  0  0  0  0  0  0  0  0  0
   10.1216   16.5870   32.5245 N   0  0  0  0  0  0  0  0  0  0  0  0
  1  2  1  0  0  0  0
  2  3  1  0  0  0  0
  3  4  1  0  0  0  0
  4  5  1  0  0  0  0
  5  6  1  0  0  0  0
  6  7  1  0  0  0  0
  7  8  1  0  0  0  0
  8  9  1  0  0  0  0
  9 10  1  0  0  0  0
 10 11  1  0  0  0  0
 11 12  1  0  0  0  0
 12 13  1  0  0  0  0
 13 14  1  0  0  0  0
M  END
>  <CHROM.1>
178.73024092,-58.70337560,-114.26158237,141.59968697,-175.72186480,-178.61292487
-66.49797856,-176.42504314,-87.17430160,-57.60300231,76.66267601,11.47170620
15.74682986,30.58113582,-0.24896947,0.90666156,0.89784521

>  <Name>
ligand

>  <RI>
0

>  <Rbt.Current_Directory>
/home/itssahil/PROJECTS/Mol_Feturizer/New_Systems/rnas/2O3Y

>  <Rbt.Executable>
rbdock ($Id: //depot/dev/client3/rdock/2013.1/src/exe/rbdock.cxx#4 $)

>  <Rbt.Library>
libRbt.so (2013.1, Build901 2013/11/27)

>  <Rbt.Parameter_File>
/export/apps/rDock/src/rDock_2013.1_src/data/scripts/dock_solv.prm

>  <Rbt.Receptor>
prm/blind_docking_40.prm

>  <SCORE>
-1.44548

>  <SCORE.INTER>
4.66881

>  <SCORE.INTER.CONST>
1

>  <SCORE.INTER.POLAR>
0

>  <SCORE.INTER.ROT>
11

>  <SCORE.INTER.SOLV>
12.8659

>  <SCORE.INTER.VDW>
-12.1094

>  <SCORE.INTER.norm>
0.333487

>  <SCORE.INTRA>
-6.68554

>  <SCORE.INTRA.DIHEDRAL>
-20.3176

>  <SCORE.INTRA.DIHEDRAL.0>
24.1231

>  <SCORE.INTRA.POLAR>
0

>  <SCORE.INTRA.POLAR.0>
0

>  <SCORE.INTRA.REPUL>
0

>  <SCORE.INTRA.REPUL.0>
0

>  <SCORE.INTRA.SOLV>
4.95263

>  <SCORE.INTRA.SOLV.lig_0>
-48.2216

>  <SCORE.INTRA.VDW>
0.996953

>  <SCORE.INTRA.VDW.0>
-1.3967

>  <SCORE.INTRA.norm>
-0.477539

>  <SCORE.RESTR>
0.571241

>  <SCORE.RESTR.CAVITY>
0.571241

>  <SCORE.RESTR.norm>
0.0408029

>  <SCORE.SYSTEM>
0

>  <SCORE.SYSTEM.CONST>
0

>  <SCORE.SYSTEM.DIHEDRAL>
0

>  <SCORE.SYSTEM.SOLV>
0

>  <SCORE.SYSTEM.norm>
0

>  <SCORE.heavy>
14

>  <SCORE.norm>
-0.103249

>  <RMSD>
19.227

$$$$
ligand
 OpenBabel11021811463D
libRbt.so/2013.1/901 2013/11/27
 14 13  0  0  0  0  0  0  0  0999 V2000
   12.9483   18.5620   29.9927 N   0  0  0  0  0  0  0  0  0  0  0  0
   13.9116   18.6618   28.8880 C   0  0  0  0  0  0  0  0  0  0  0  0
   14.4367   17.2706   28.5490 C   0  0  0  0  0  0  0  0  0  0  0  0
   13.3531   16.5098   27.8026 C   0  0  0  0  0  0  0  0  0  0  0  0
   12.3226   16.0876   28.7579 N   0  0  0  0  0  0  0  0  0  0  0  0
   11.5317   15.0332   28.0995 C   0  0  0  0  0  0  0  0  0  0  0  0
   10.3776   14.5821   29.0020 C   0  0  0  0  0  0  0  0  0  0  0  0
   10.9747   13.9231   30.2545 C   0  0  0  0  0  0  0  0  0  0  0  0
    9.9165   13.2503   31.0254 C   0  0  0  0  0  0  0  0  0  0  0  0
   10.5069   12.8157   32.3077 N   0  0  0  0  0  0  0  0  0  0  0  0
    9.4746   12.9400   33.4341 C   0  0  0  0  0  0  0  0  0  0  0  0
    9.4927   14.3670   33.9952 C   0  0  0  0  0  0  0  0  0  0  0  0
    8.8083   15.2792   33.0587 C   0  0  0  0  0  0  0  0  0  0  0  0
    8.9943   16.6780   33.5007 N   0  0  0  0  0  0  0  0  0  0  0  0
  1  2  1  0  0  0  0
  2  3  1  0  0  0  0
  3  4  1  0  0  0  0
  4  5  1  0  0  0  0
  5  6  1  0  0  0  0
  6  7  1  0  0  0  0
  7  8  1  0  0  0  0
  8  9  1  0  0  0  0
  9 10  1  0  0  0  0
 10 11  1  0  0  0  0
 11 12  1  0  0  0  0
 12 13  1  0  0  0  0
 13 14  1  0  0  0  0
M  END
>  <CHROM.1>
74.54682804,-75.24493323,-163.11287387,-176.96486073,-64.95269620,-169.32620560
-171.61895650,144.42209195,-85.62637998,75.80385875,-171.89256516,11.21784808
15.42549500,30.61891671,0.00852437,0.94796473,0.62165347

>  <Name>
ligand

>  <RI>
0

>  <Rbt.Current_Directory>
/home/itssahil/PROJECTS/Mol_Feturizer/New_Systems/rnas/2O3Y

>  <Rbt.Executable>
rbdock ($Id: //depot/dev/client3/rdock/2013.1/src/exe/rbdock.cxx#4 $)

>  <Rbt.Library>
libRbt.so (2013.1, Build901 2013/11/27)

>  <Rbt.Parameter_File>
/export/apps/rDock/src/rDock_2013.1_src/data/scripts/dock_solv.prm

>  <Rbt.Receptor>
prm/blind_docking_40.prm

>  <SCORE>
-3.64339

>  <SCORE.INTER>
3.46161

>  <SCORE.INTER.CONST>
1

>  <SCORE.INTER.POLAR>
0

>  <SCORE.INTER.ROT>
11

>  <SCORE.INTER.SOLV>
10.6623

>  <SCORE.INTER.VDW>
-12.1797

>  <SCORE.INTER.norm>
0.247258

>  <SCORE.INTRA>
-7.21043

>  <SCORE.INTRA.DIHEDRAL>
-19.1066

>  <SCORE.INTRA.DIHEDRAL.0>
24.1231

>  <SCORE.INTRA.POLAR>
0

>  <SCORE.INTRA.POLAR.0>
0

>  <SCORE.INTRA.REPUL>
0

>  <SCORE.INTRA.REPUL.0>
0

>  <SCORE.INTRA.SOLV>
2.89613

>  <SCORE.INTRA.SOLV.lig_0>
-48.2216

>  <SCORE.INTRA.VDW>
0.894785

>  <SCORE.INTRA.VDW.0>
-1.3967

>  <SCORE.INTRA.norm>
-0.515031

>  <SCORE.RESTR>
0.105424

>  <SCORE.RESTR.CAVITY>
0.105424

>  <SCORE.RESTR.norm>
0.00753028

>  <SCORE.SYSTEM>
0

>  <SCORE.SYSTEM.CONST>
0

>  <SCORE.SYSTEM.DIHEDRAL>
0

>  <SCORE.SYSTEM.SOLV>
0

>  <SCORE.SYSTEM.norm>
0

>  <SCORE.heavy>
14

>  <SCORE.norm>
-0.260242

>  <RMSD>
19.249

$$$$
ligand
 OpenBabel11021811463D
libRbt.so/2013.1/901 2013/11/27
 14 13  0  0  0  0  0  0  0  0999 V2000
   14.5539   18.9050   27.9266 N   0  0  0  0  0  0  0  0  0  0  0  0
   13.6921   19.3349   29.0359 C   0  0  0  0  0  0  0  0  0  0  0  0
   13.1486   18.1065   29.7582 C   0  0  0  0  0  0  0  0  0  0  0  0
   12.4128   17.2363   28.7525 C   0  0  0  0  0  0  0  0  0  0  0  0
   11.8654   16.0648   29.4458 N   0  0  0  0  0  0  0  0  0  0  0  0
   11.5974   15.0432   28.4186 C   0  0  0  0  0  0  0  0  0  0  0  0
   10.6035   14.0001   28.9421 C   0  0  0  0  0  0  0  0  0  0  0  0
    9.1954   14.6126   28.8999 C   0  0  0  0  0  0  0  0  0  0  0  0
    9.0227   15.5608   30.0124 C   0  0  0  0  0  0  0  0  0  0  0  0
    8.9808   14.7770   31.2637 N   0  0  0  0  0  0  0  0  0  0  0  0
    8.8979   15.7156   32.4729 C   0  0  0  0  0  0  0  0  0  0  0  0
    9.8975   15.2651   33.5450 C   0  0  0  0  0  0  0  0  0  0  0  0
    9.4877   13.9563   34.0896 C   0  0  0  0  0  0  0  0  0  0  0  0
    9.6688   12.9099   33.0606 N   0  0  0  0  0  0  0  0  0  0  0  0
  1  2  1  0  0  0  0
  2  3  1  0  0  0  0
  3  4  1  0  0  0  0
  4  5  1  0  0  0  0
  5  6  1  0  0  0  0
  6  7  1  0  0  0  0
  7  8  1  0  0  0  0
  8  9  1  0  0  0  0
  9 10  1  0  0  0  0
 10 11  1  0  0  0  0
 11 12  1  0  0  0  0
 12 13  1  0  0  0  0
 13 14  1  0  0  0  0
M  END
>  <CHROM.1>
-56.81935310,-178.94331777,-160.28912477,-160.48053612,76.94145923,-76.25210952
-69.56643717,176.15175515,-133.96425856,-66.71786631,69.36161157,10.93018392
15.82063806,30.40168336,-0.46517090,0.84111237,1.37549249

>  <Name>
ligand

>  <RI>
0

>  <Rbt.Current_Directory>
/home/itssahil/PROJECTS/Mol_Feturizer/New_Systems/rnas/2O3Y

>  <Rbt.Executable>
rbdock ($Id: //depot/dev/client3/rdock/2013.1/src/exe/rbdock.cxx#4 $)

>  <Rbt.Library>
libRbt.so (2013.1, Build901 2013/11/27)

>  <Rbt.Parameter_File>
/export/apps/rDock/src/rDock_2013.1_src/data/scripts/dock_solv.prm

>  <Rbt.Receptor>
prm/blind_docking_40.prm

>  <SCORE>
1.89243

>  <SCORE.INTER>
7.44153

>  <SCORE.INTER.CONST>
1

>  <SCORE.INTER.POLAR>
0

>  <SCORE.INTER.ROT>
11

>  <SCORE.INTER.SOLV>
7.17295

>  <SCORE.INTER.VDW>
-8.36329

>  <SCORE.INTER.norm>
0.531538

>  <SCORE.INTRA>
-5.68067

>  <SCORE.INTRA.DIHEDRAL>
-19.5505

>  <SCORE.INTRA.DIHEDRAL.0>
24.1231

>  <SCORE.INTRA.POLAR>
0

>  <SCORE.INTRA.POLAR.0>
0

>  <SCORE.INTRA.REPUL>
0

>  <SCORE.INTRA.REPUL.0>
0

>  <SCORE.INTRA.SOLV>
5.52952

>  <SCORE.INTRA.SOLV.lig_0>
-48.2216

>  <SCORE.INTRA.VDW>
1.32984

>  <SCORE.INTRA.VDW.0>
-1.3967

>  <SCORE.INTRA.norm>
-0.405762

>  <SCORE.RESTR>
0.131564

>  <SCORE.RESTR.CAVITY>
0.131564

>  <SCORE.RESTR.norm>
0.00939745

>  <SCORE.SYSTEM>
0

>  <SCORE.SYSTEM.CONST>
0

>  <SCORE.SYSTEM.DIHEDRAL>
0

>  <SCORE.SYSTEM.SOLV>
0

>  <SCORE.SYSTEM.norm>
0

>  <SCORE.heavy>
14

>  <SCORE.norm>
0.135174

>  <RMSD>
19.252

$$$$
ligand
 OpenBabel11021811463D
libRbt.so/2013.1/901 2013/11/27
 14 13  0  0  0  0  0  0  0  0999 V2000
   10.0137   17.0070   31.5178 N   0  0  0  0  0  0  0  0  0  0  0  0
   10.0032   17.1203   32.9824 C   0  0  0  0  0  0  0  0  0  0  0  0
   10.2157   15.7406   33.5969 C   0  0  0  0  0  0  0  0  0  0  0  0
    8.9697   14.9038   33.3574 C   0  0  0  0  0  0  0  0  0  0  0  0
    8.8549   14.6192   31.9225 N   0  0  0  0  0  0  0  0  0  0  0  0
    8.9413   13.1568   31.7658 C   0  0  0  0  0  0  0  0  0  0  0  0
   10.3203   12.7524   31.2323 C   0  0  0  0  0  0  0  0  0  0  0  0
   10.5921   13.5486   29.9471 C   0  0  0  0  0  0  0  0  0  0  0  0
   11.4203   14.7277   30.2481 C   0  0  0  0  0  0  0  0  0  0  0  0
   11.6211   15.4657   28.9846 N   0  0  0  0  0  0  0  0  0  0  0  0
   12.7395   16.5011   29.1491 C   0  0  0  0  0  0  0  0  0  0  0  0
   13.4328   16.7302   27.8005 C   0  0  0  0  0  0  0  0  0  0  0  0
   14.6107   17.5991   27.9873 C   0  0  0  0  0  0  0  0  0  0  0  0
   14.1713   18.9588   28.3678 N   0  0  0  0  0  0  0  0  0  0  0  0
  1  2  1  0  0  0  0
  2  3  1  0  0  0  0
  3  4  1  0  0  0  0
  4  5  1  0  0  0  0
  5  6  1  0  0  0  0
  6  7  1  0  0  0  0
  7  8  1  0  0  0  0
  8  9  1  0  0  0  0
  9 10  1  0  0  0  0
 10 11  1  0  0  0  0
 11 12  1  0  0  0  0
 12 13  1  0  0  0  0
 13 14  1  0  0  0  0
M  END
>  <CHROM.1>
-70.41324733,68.14511515,117.68793118,-104.12392602,-53.76660894,97.46299528
-178.74970963,-166.28547559,150.90557147,-173.16914123,-67.66111282,11.13617435
15.63044707,30.63300509,3.06044265,-0.86106074,-2.62175687

>  <Name>
ligand

>  <RI>
0

>  <Rbt.Current_Directory>
/home/itssahil/PROJECTS/Mol_Feturizer/New_Systems/rnas/2O3Y

>  <Rbt.Executable>
rbdock ($Id: //depot/dev/client3/rdock/2013.1/src/exe/rbdock.cxx#4 $)

>  <Rbt.Library>
libRbt.so (2013.1, Build901 2013/11/27)

>  <Rbt.Parameter_File>
/export/apps/rDock/src/rDock_2013.1_src/data/scripts/dock_solv.prm

>  <Rbt.Receptor>
prm/blind_docking_40.prm

>  <SCORE>
1.77958

>  <SCORE.INTER>
5.28404

>  <SCORE.INTER.CONST>
1

>  <SCORE.INTER.POLAR>
0

>  <SCORE.INTER.ROT>
11

>  <SCORE.INTER.SOLV>
7.75557

>  <SCORE.INTER.VDW>
-9.99583

>  <SCORE.INTER.norm>
0.377432

>  <SCORE.INTRA>
-3.57673

>  <SCORE.INTRA.DIHEDRAL>
-15.7851

>  <SCORE.INTRA.DIHEDRAL.0>
24.1231

>  <SCORE.INTRA.POLAR>
0

>  <SCORE.INTRA.POLAR.0>
0

>  <SCORE.INTRA.REPUL>
0

>  <SCORE.INTRA.REPUL.0>
0

>  <SCORE.INTRA.SOLV>
7.50322

>  <SCORE.INTRA.SOLV.lig_0>
-48.2216

>  <SCORE.INTRA.VDW>
0.564217

>  <SCORE.INTRA.VDW.0>
-1.3967

>  <SCORE.INTRA.norm>
-0.255481

>  <SCORE.RESTR>
0.0722726

>  <SCORE.RESTR.CAVITY>
0.0722726

>  <SCORE.RESTR.norm>
0.00516233

>  <SCORE.SYSTEM>
0

>  <SCORE.SYSTEM.CONST>
0

>  <SCORE.SYSTEM.DIHEDRAL>
0

>  <SCORE.SYSTEM.SOLV>
0

>  <SCORE.SYSTEM.norm>
0

>  <SCORE.heavy>
14

>  <SCORE.norm>
0.127113

>  <RMSD>
19.287

$$$$
ligand
 OpenBabel11021811463D
libRbt.so/2013.1/901 2013/11/27
 14 13  0  0  0  0  0  0  0  0999 V2000
   10.0058   17.1263   33.0017 N   0  0  0  0  0  0  0  0  0  0  0  0
   10.2261   15.8472   33.6899 C   0  0  0  0  0  0  0  0  0  0  0  0
    9.0385   14.9251   33.4336 C   0  0  0  0  0  0  0  0  0  0  0  0
    9.4102   13.5188   33.8742 C   0  0  0  0  0  0  0  0  0  0  0  0
   10.6257   13.1026   33.1656 N   0  0  0  0  0  0  0  0  0  0  0  0
   10.2561   12.9134   31.7520 C   0  0  0  0  0  0  0  0  0  0  0  0
   11.1667   13.7445   30.8409 C   0  0  0  0  0  0  0  0  0  0  0  0
   10.5162   13.8229   29.4516 C   0  0  0  0  0  0  0  0  0  0  0  0
   11.3426   14.6437   28.5517 C   0  0  0  0  0  0  0  0  0  0  0  0
   11.3569   16.0191   29.0902 N   0  0  0  0  0  0  0  0  0  0  0  0
   12.7996   16.5202   29.2223 C   0  0  0  0  0  0  0  0  0  0  0  0
   13.3981   16.7424   27.8280 C   0  0  0  0  0  0  0  0  0  0  0  0
   14.6794   17.4649   27.9453 C   0  0  0  0  0  0  0  0  0  0  0  0
   14.4219   18.8894   28.2469 N   0  0  0  0  0  0  0  0  0  0  0  0
  1  2  1  0  0  0  0
  2  3  1  0  0  0  0
  3  4  1  0  0  0  0
  4  5  1  0  0  0  0
  5  6  1  0  0  0  0
  6  7  1  0  0  0  0
  7  8  1  0  0  0  0
  8  9  1  0  0  0  0
  9 10  1  0  0  0  0
 10 11  1  0  0  0  0
 11 12  1  0  0  0  0
 12 13  1  0  0  0  0
 13 14  1  0  0  0  0
M  END
>  <CHROM.1>
167.30977214,-56.34821904,-69.57535104,125.71309269,-164.65644555,178.53554002
-64.17075459,128.24180665,69.55410499,169.12685894,-75.12970116,11.37447134
15.37681180,30.72092603,-3.06005476,-0.98823001,-2.48100565

>  <Name>
ligand

>  <RI>
0

>  <Rbt.Current_Directory>
/home/itssahil/PROJECTS/Mol_Feturizer/New_Systems/rnas/2O3Y

>  <Rbt.Executable>
rbdock ($Id: //depot/dev/client3/rdock/2013.1/src/exe/rbdock.cxx#4 $)

>  <Rbt.Library>
libRbt.so (2013.1, Build901 2013/11/27)

>  <Rbt.Parameter_File>
/export/apps/rDock/src/rDock_2013.1_src/data/scripts/dock_solv.prm

>  <Rbt.Receptor>
prm/blind_docking_40.prm

>  <SCORE>
-1.0397

>  <SCORE.INTER>
4.40152

>  <SCORE.INTER.CONST>
1

>  <SCORE.INTER.POLAR>
0

>  <SCORE.INTER.ROT>
11

>  <SCORE.INTER.SOLV>
11.7466

>  <SCORE.INTER.VDW>
-11.9145

>  <SCORE.INTER.norm>
0.314394

>  <SCORE.INTRA>
-5.50914

>  <SCORE.INTRA.DIHEDRAL>
-18.8445

>  <SCORE.INTRA.DIHEDRAL.0>
24.1231

>  <SCORE.INTRA.POLAR>
0

>  <SCORE.INTRA.POLAR.0>
0

>  <SCORE.INTRA.REPUL>
0

>  <SCORE.INTRA.REPUL.0>
0

>  <SCORE.INTRA.SOLV>
1.72084

>  <SCORE.INTRA.SOLV.lig_0>
-48.2216

>  <SCORE.INTRA.VDW>
3.05271

>  <SCORE.INTRA.VDW.0>
-1.3967

>  <SCORE.INTRA.norm>
-0.39351

>  <SCORE.RESTR>
0.067917

>  <SCORE.RESTR.CAVITY>
0.067917

>  <SCORE.RESTR.norm>
0.00485121

>  <SCORE.SYSTEM>
0

>  <SCORE.SYSTEM.CONST>
0

>  <SCORE.SYSTEM.DIHEDRAL>
0

>  <SCORE.SYSTEM.SOLV>
0

>  <SCORE.SYSTEM.norm>
0

>  <SCORE.heavy>
14

>  <SCORE.norm>
-0.0742641

>  <RMSD>
19.290

$$$$
ligand
 OpenBabel11021811463D
libRbt.so/2013.1/901 2013/11/27
 14 13  0  0  0  0  0  0  0  0999 V2000
    9.6307   16.5876   33.9922 N   0  0  0  0  0  0  0  0  0  0  0  0
    9.0219   15.2881   33.6779 C   0  0  0  0  0  0  0  0  0  0  0  0
   10.1223   14.2551   33.4585 C   0  0  0  0  0  0  0  0  0  0  0  0
    9.4769   12.9168   33.1384 C   0  0  0  0  0  0  0  0  0  0  0  0
    9.5607   12.6806   31.6927 N   0  0  0  0  0  0  0  0  0  0  0  0
    8.5421   13.5348   31.0575 C   0  0  0  0  0  0  0  0  0  0  0  0
    9.0792   14.1351   29.7532 C   0  0  0  0  0  0  0  0  0  0  0  0
   10.4206   14.8203   30.0547 C   0  0  0  0  0  0  0  0  0  0  0  0
   11.0438   15.2843   28.8046 C   0  0  0  0  0  0  0  0  0  0  0  0
   12.3697   15.8384   29.1464 N   0  0  0  0  0  0  0  0  0  0  0  0
   13.0457   16.4039   27.8921 C   0  0  0  0  0  0  0  0  0  0  0  0
   14.3067   17.1799   28.2912 C   0  0  0  0  0  0  0  0  0  0  0  0
   13.9423   18.2977   29.1829 C   0  0  0  0  0  0  0  0  0  0  0  0
   13.0099   19.2083   28.4844 N   0  0  0  0  0  0  0  0  0  0  0  0
  1  2  1  0  0  0  0
  2  3  1  0  0  0  0
  3  4  1  0  0  0  0
  4  5  1  0  0  0  0
  5  6  1  0  0  0  0
  6  7  1  0  0  0  0
  7  8  1  0  0  0  0
  8  9  1  0  0  0  0
  9 10  1  0  0  0  0
 10 11  1  0  0  0  0
 11 12  1  0  0  0  0
 12 13  1  0  0  0  0
 13 14  1  0  0  0  0
M  END
>  <CHROM.1>
179.84994180,102.10490272,-75.85513113,140.67319788,-52.59125372,173.88035207
-175.75978299,-177.23849138,170.63759071,-60.43260492,-59.97396136,10.96939318
15.45910115,30.61610454,-2.89708427,-0.90476587,-2.12865095

>  <Name>
ligand

>  <RI>
0

>  <Rbt.Current_Directory>
/home/itssahil/PROJECTS/Mol_Feturizer/New_Systems/rnas/2O3Y

>  <Rbt.Executable>
rbdock ($Id: //depot/dev/client3/rdock/2013.1/src/exe/rbdock.cxx#4 $)

>  <Rbt.Library>
libRbt.so (2013.1, Build901 2013/11/27)

>  <Rbt.Parameter_File>
/export/apps/rDock/src/rDock_2013.1_src/data/scripts/dock_solv.prm

>  <Rbt.Receptor>
prm/blind_docking_40.prm

>  <SCORE>
0.122635

>  <SCORE.INTER>
5.82729

>  <SCORE.INTER.CONST>
1

>  <SCORE.INTER.POLAR>
0

>  <SCORE.INTER.ROT>
11

>  <SCORE.INTER.SOLV>
8.52113

>  <SCORE.INTER.VDW>
-9.88885

>  <SCORE.INTER.norm>
0.416235

>  <SCORE.INTRA>
-5.83971

>  <SCORE.INTRA.DIHEDRAL>
-18.1456

>  <SCORE.INTRA.DIHEDRAL.0>
24.1231

>  <SCORE.INTRA.POLAR>
0

>  <SCORE.INTRA.POLAR.0>
0

>  <SCORE.INTRA.REPUL>
0

>  <SCORE.INTRA.REPUL.0>
0

>  <SCORE.INTRA.SOLV>
2.47438

>  <SCORE.INTRA.SOLV.lig_0>
-48.2216

>  <SCORE.INTRA.VDW>
1.99593

>  <SCORE.INTRA.VDW.0>
-1.3967

>  <SCORE.INTRA.norm>
-0.417122

>  <SCORE.RESTR>
0.135048

>  <SCORE.RESTR.CAVITY>
0.135048

>  <SCORE.RESTR.norm>
0.00964631

>  <SCORE.SYSTEM>
0

>  <SCORE.SYSTEM.CONST>
0

>  <SCORE.SYSTEM.DIHEDRAL>
0

>  <SCORE.SYSTEM.SOLV>
0

>  <SCORE.SYSTEM.norm>
0

>  <SCORE.heavy>
14

>  <SCORE.norm>
0.00875964

>  <RMSD>
19.311

$$$$
ligand
 OpenBabel11021811463D
libRbt.so/2013.1/901 2013/11/27
 14 13  0  0  0  0  0  0  0  0999 V2000
   10.2654   16.6302   32.7098 N   0  0  0  0  0  0  0  0  0  0  0  0
    9.7771   16.2438   34.0404 C   0  0  0  0  0  0  0  0  0  0  0  0
    8.8791   15.0177   33.9120 C   0  0  0  0  0  0  0  0  0  0  0  0
    9.7562   13.7818   33.7963 C   0  0  0  0  0  0  0  0  0  0  0  0
   10.5804   13.8934   32.5875 N   0  0  0  0  0  0  0  0  0  0  0  0
    9.7835   13.3536   31.4721 C   0  0  0  0  0  0  0  0  0  0  0  0
   10.5467   13.4884   30.1495 C   0  0  0  0  0  0  0  0  0  0  0  0
   10.9455   14.9611   29.9714 C   0  0  0  0  0  0  0  0  0  0  0  0
   11.6253   15.1483   28.6793 C   0  0  0  0  0  0  0  0  0  0  0  0
   12.3350   16.4426   28.7324 N   0  0  0  0  0  0  0  0  0  0  0  0
   13.4047   16.5045   27.6361 C   0  0  0  0  0  0  0  0  0  0  0  0
   14.5131   17.4793   28.0515 C   0  0  0  0  0  0  0  0  0  0  0  0
   13.9888   18.8586   28.0524 C   0  0  0  0  0  0  0  0  0  0  0  0
   13.0357   19.0283   29.1701 N   0  0  0  0  0  0  0  0  0  0  0  0
  1  2  1  0  0  0  0
  2  3  1  0  0  0  0
  3  4  1  0  0  0  0
  4  5  1  0  0  0  0
  5  6  1  0  0  0  0
  6  7  1  0  0  0  0
  7  8  1  0  0  0  0
  8  9  1  0  0  0  0
  9 10  1  0  0  0  0
 10 11  1  0  0  0  0
 11 12  1  0  0  0  0
 12 13  1  0  0  0  0
 13 14  1  0  0  0  0
M  END
>  <CHROM.1>
80.15205187,-61.56219038,-86.73509062,177.45809163,-54.65566588,-177.24918300
-163.17215964,161.99915200,-154.53596817,-68.54708740,70.08501464,11.38825728
15.77338329,30.63999947,-3.08464533,-0.98822550,-2.51047160

>  <Name>
ligand

>  <RI>
0

>  <Rbt.Current_Directory>
/home/itssahil/PROJECTS/Mol_Feturizer/New_Systems/rnas/2O3Y

>  <Rbt.Executable>
rbdock ($Id: //depot/dev/client3/rdock/2013.1/src/exe/rbdock.cxx#4 $)

>  <Rbt.Library>
libRbt.so (2013.1, Build901 2013/11/27)

>  <Rbt.Parameter_File>
/export/apps/rDock/src/rDock_2013.1_src/data/scripts/dock_solv.prm

>  <Rbt.Receptor>
prm/blind_docking_40.prm

>  <SCORE>
-0.770409

>  <SCORE.INTER>
4.11297

>  <SCORE.INTER.CONST>
1

>  <SCORE.INTER.POLAR>
0

>  <SCORE.INTER.ROT>
11

>  <SCORE.INTER.SOLV>
9.15508

>  <SCORE.INTER.VDW>
-11.243

>  <SCORE.INTER.norm>
0.293783

>  <SCORE.INTRA>
-4.90883

>  <SCORE.INTRA.DIHEDRAL>
-19.7148

>  <SCORE.INTRA.DIHEDRAL.0>
24.1231

>  <SCORE.INTRA.POLAR>
0

>  <SCORE.INTRA.POLAR.0>
0

>  <SCORE.INTRA.REPUL>
0.00773372

>  <SCORE.INTRA.REPUL.0>
0

>  <SCORE.INTRA.SOLV>
7.4621

>  <SCORE.INTRA.SOLV.lig_0>
-48.2216

>  <SCORE.INTRA.VDW>
1.17885

>  <SCORE.INTRA.VDW.0>
-1.3967

>  <SCORE.INTRA.norm>
-0.35063

>  <SCORE.RESTR>
0.0254504

>  <SCORE.RESTR.CAVITY>
0.0254504

>  <SCORE.RESTR.norm>
0.00181788

>  <SCORE.SYSTEM>
0

>  <SCORE.SYSTEM.CONST>
0

>  <SCORE.SYSTEM.DIHEDRAL>
0

>  <SCORE.SYSTEM.SOLV>
0

>  <SCORE.SYSTEM.norm>
0

>  <SCORE.heavy>
14

>  <SCORE.norm>
-0.0550292

>  <RMSD>
19.318

$$$$
ligand
 OpenBabel11021811463D
libRbt.so/2013.1/901 2013/11/27
 14 13  0  0  0  0  0  0  0  0999 V2000
    8.0015   15.7525   33.0111 N   0  0  0  0  0  0  0  0  0  0  0  0
    9.1395   16.1222   33.8634 C   0  0  0  0  0  0  0  0  0  0  0  0
   10.4121   15.4912   33.3079 C   0  0  0  0  0  0  0  0  0  0  0  0
   10.2687   13.9790   33.3608 C   0  0  0  0  0  0  0  0  0  0  0  0
    9.4023   13.5432   32.2598 N   0  0  0  0  0  0  0  0  0  0  0  0
   10.2438   12.7692   31.3306 C   0  0  0  0  0  0  0  0  0  0  0  0
   10.3782   13.4993   29.9894 C   0  0  0  0  0  0  0  0  0  0  0  0
   11.3144   14.7010   30.1867 C   0  0  0  0  0  0  0  0  0  0  0  0
   11.4830   15.4249   28.9161 C   0  0  0  0  0  0  0  0  0  0  0  0
   12.5131   16.4621   29.1273 N   0  0  0  0  0  0  0  0  0  0  0  0
   13.3775   16.6125   27.8703 C   0  0  0  0  0  0  0  0  0  0  0  0
   14.5659   17.5345   28.1688 C   0  0  0  0  0  0  0  0  0  0  0  0
   14.0889   18.9191   28.3501 C   0  0  0  0  0  0  0  0  0  0  0  0
   13.2575   19.0036   29.5700 N   0  0  0  0  0  0  0  0  0  0  0  0
  1  2  1  0  0  0  0
  2  3  1  0  0  0  0
  3  4  1  0  0  0  0
  4  5  1  0  0  0  0
  5  6  1  0  0  0  0
  6  7  1  0  0  0  0
  7  8  1  0  0  0  0
  8  9  1  0  0  0  0
  9 10  1  0  0  0  0
 10 11  1  0  0  0  0
 11 12  1  0  0  0  0
 12 13  1  0  0  0  0
 13 14  1  0  0  0  0
M  END
>  <CHROM.1>
-62.75774946,77.05879376,112.90309379,-113.75533488,73.38577144,179.42295485
-173.25468334,143.19786216,-171.63557148,-69.90798012,66.42709889,11.31782458
15.70082143,30.66503014,3.01669791,-0.90281150,-2.64686023

>  <Name>
ligand

>  <RI>
0

>  <Rbt.Current_Directory>
/home/itssahil/PROJECTS/Mol_Feturizer/New_Systems/rnas/2O3Y

>  <Rbt.Executable>
rbdock ($Id: //depot/dev/client3/rdock/2013.1/src/exe/rbdock.cxx#4 $)

>  <Rbt.Library>
libRbt.so (2013.1, Build901 2013/11/27)

>  <Rbt.Parameter_File>
/export/apps/rDock/src/rDock_2013.1_src/data/scripts/dock_solv.prm

>  <Rbt.Receptor>
prm/blind_docking_40.prm

>  <SCORE>
-1.32311

>  <SCORE.INTER>
3.72652

>  <SCORE.INTER.CONST>
1

>  <SCORE.INTER.POLAR>
0

>  <SCORE.INTER.ROT>
11

>  <SCORE.INTER.SOLV>
7.6834

>  <SCORE.INTER.VDW>
-11.0101

>  <SCORE.INTER.norm>
0.26618

>  <SCORE.INTRA>
-5.55724

>  <SCORE.INTRA.DIHEDRAL>
-18.5313

>  <SCORE.INTRA.DIHEDRAL.0>
24.1231

>  <SCORE.INTRA.POLAR>
0

>  <SCORE.INTRA.POLAR.0>
0

>  <SCORE.INTRA.REPUL>
0

>  <SCORE.INTRA.REPUL.0>
0

>  <SCORE.INTRA.SOLV>
6.00731

>  <SCORE.INTRA.SOLV.lig_0>
-48.2216

>  <SCORE.INTRA.VDW>
0.704748

>  <SCORE.INTRA.VDW.0>
-1.3967

>  <SCORE.INTRA.norm>
-0.396946

>  <SCORE.RESTR>
0.507617

>  <SCORE.RESTR.CAVITY>
0.507617

>  <SCORE.RESTR.norm>
0.0362584

>  <SCORE.SYSTEM>
0

>  <SCORE.SYSTEM.CONST>
0

>  <SCORE.SYSTEM.DIHEDRAL>
0

>  <SCORE.SYSTEM.SOLV>
0

>  <SCORE.SYSTEM.norm>
0

>  <SCORE.heavy>
14

>  <SCORE.norm>
-0.0945077

>  <RMSD>
19.325

$$$$
ligand
 OpenBabel11021811463D
libRbt.so/2013.1/901 2013/11/27
 14 13  0  0  0  0  0  0  0  0999 V2000
    9.9999   17.0828   33.0138 N   0  0  0  0  0  0  0  0  0  0  0  0
    9.5375   16.1718   34.0695 C   0  0  0  0  0  0  0  0  0  0  0  0
    9.0476   14.8734   33.4367 C   0  0  0  0  0  0  0  0  0  0  0  0
   10.2401   14.1400   32.8450 C   0  0  0  0  0  0  0  0  0  0  0  0
    9.7682   13.2344   31.7914 N   0  0  0  0  0  0  0  0  0  0  0  0
   10.8404   13.1502   30.7844 C   0  0  0  0  0  0  0  0  0  0  0  0
   10.5031   14.0148   29.5643 C   0  0  0  0  0  0  0  0  0  0  0  0
   10.6660   15.4902   29.9596 C   0  0  0  0  0  0  0  0  0  0  0  0
   12.0900   15.8625   29.9489 C   0  0  0  0  0  0  0  0  0  0  0  0
   12.3604   16.5542   28.6721 N   0  0  0  0  0  0  0  0  0  0  0  0
   13.8685   16.5922   28.4004 C   0  0  0  0  0  0  0  0  0  0  0  0
   14.2531   17.9566   27.8155 C   0  0  0  0  0  0  0  0  0  0  0  0
   14.2478   18.9754   28.8830 C   0  0  0  0  0  0  0  0  0  0  0  0
   12.8982   19.0634   29.4807 N   0  0  0  0  0  0  0  0  0  0  0  0
  1  2  1  0  0  0  0
  2  3  1  0  0  0  0
  3  4  1  0  0  0  0
  4  5  1  0  0  0  0
  5  6  1  0  0  0  0
  6  7  1  0  0  0  0
  7  8  1  0  0  0  0
  8  9  1  0  0  0  0
  9 10  1  0  0  0  0
 10 11  1  0  0  0  0
 11 12  1  0  0  0  0
 12 13  1  0  0  0  0
 13 14  1  0  0  0  0
M  END
>  <CHROM.1>
68.09787322,-156.65167145,148.32186077,-102.34976848,72.73141253,78.86667326
99.19524159,-162.89632674,-139.90704534,75.08557501,-59.95354876,11.45156361
15.93991398,30.61889900,3.02650765,-0.92413983,-2.60220056

>  <Name>
ligand

>  <RI>
0

>  <Rbt.Current_Directory>
/home/itssahil/PROJECTS/Mol_Feturizer/New_Systems/rnas/2O3Y

>  <Rbt.Executable>
rbdock ($Id: //depot/dev/client3/rdock/2013.1/src/exe/rbdock.cxx#4 $)

>  <Rbt.Library>
libRbt.so (2013.1, Build901 2013/11/27)

>  <Rbt.Parameter_File>
/export/apps/rDock/src/rDock_2013.1_src/data/scripts/dock_solv.prm

>  <Rbt.Receptor>
prm/blind_docking_40.prm

>  <SCORE>
2.03589

>  <SCORE.INTER>
4.0539

>  <SCORE.INTER.CONST>
1

>  <SCORE.INTER.POLAR>
0

>  <SCORE.INTER.ROT>
11

>  <SCORE.INTER.SOLV>
8.37237

>  <SCORE.INTER.VDW>
-11.0215

>  <SCORE.INTER.norm>
0.289564

>  <SCORE.INTRA>
-2.07693

>  <SCORE.INTRA.DIHEDRAL>
-12.4974

>  <SCORE.INTRA.DIHEDRAL.0>
24.1231

>  <SCORE.INTRA.POLAR>
0

>  <SCORE.INTRA.POLAR.0>
0

>  <SCORE.INTRA.REPUL>
0

>  <SCORE.INTRA.REPUL.0>
0

>  <SCORE.INTRA.SOLV>
6.5283

>  <SCORE.INTRA.SOLV.lig_0>
-48.2216

>  <SCORE.INTRA.VDW>
0.907616

>  <SCORE.INTRA.VDW.0>
-1.3967

>  <SCORE.INTRA.norm>
-0.148352

>  <SCORE.RESTR>
0.0589115

>  <SCORE.RESTR.CAVITY>
0.0589115

>  <SCORE.RESTR.norm>
0.00420797

>  <SCORE.SYSTEM>
0

>  <SCORE.SYSTEM.CONST>
0

>  <SCORE.SYSTEM.DIHEDRAL>
0

>  <SCORE.SYSTEM.SOLV>
0

>  <SCORE.SYSTEM.norm>
0

>  <SCORE.heavy>
14

>  <SCORE.norm>
0.14542

>  <RMSD>
19.334

$$$$
ligand
 OpenBabel11021811463D
libRbt.so/2013.1/901 2013/11/27
 14 13  0  0  0  0  0  0  0  0999 V2000
    9.9989   17.0503   32.9548 N   0  0  0  0  0  0  0  0  0  0  0  0
    9.4984   16.3343   34.1359 C   0  0  0  0  0  0  0  0  0  0  0  0
    8.9626   14.9712   33.7102 C   0  0  0  0  0  0  0  0  0  0  0  0
   10.1117   14.1504   33.1482 C   0  0  0  0  0  0  0  0  0  0  0  0
    9.5642   13.0104   32.4042 N   0  0  0  0  0  0  0  0  0  0  0  0
   10.3338   12.9041   31.1524 C   0  0  0  0  0  0  0  0  0  0  0  0
    9.8116   13.9018   30.1122 C   0  0  0  0  0  0  0  0  0  0  0  0
   10.7059   13.8113   28.8665 C   0  0  0  0  0  0  0  0  0  0  0  0
   11.3106   15.1228   28.5817 C   0  0  0  0  0  0  0  0  0  0  0  0
   12.1362   15.4958   29.7482 N   0  0  0  0  0  0  0  0  0  0  0  0
   12.5879   16.9559   29.6311 C   0  0  0  0  0  0  0  0  0  0  0  0
   13.9104   17.0263   28.8579 C   0  0  0  0  0  0  0  0  0  0  0  0
   14.3843   18.4228   28.8078 C   0  0  0  0  0  0  0  0  0  0  0  0
   13.4739   19.2278   27.9654 N   0  0  0  0  0  0  0  0  0  0  0  0
  1  2  1  0  0  0  0
  2  3  1  0  0  0  0
  3  4  1  0  0  0  0
  4  5  1  0  0  0  0
  5  6  1  0  0  0  0
  6  7  1  0  0  0  0
  7  8  1  0  0  0  0
  8  9  1  0  0  0  0
  9 10  1  0  0  0  0
 10 11  1  0  0  0  0
 11 12  1  0  0  0  0
 12 13  1  0  0  0  0
 13 14  1  0  0  0  0
M  END
>  <CHROM.1>
63.58701542,-164.39204020,136.23326023,-81.18576276,176.33964506,-121.31387193
61.02928784,-169.68340238,-88.66670321,-176.92723906,-67.97372502,11.19927047
15.59870365,30.71971824,-3.10213200,-0.94229018,-2.41317830

>  <Name>
ligand

>  <RI>
0

>  <Rbt.Current_Directory>
/home/itssahil/PROJECTS/Mol_Feturizer/New_Systems/rnas/2O3Y

>  <Rbt.Executable>
rbdock ($Id: //depot/dev/client3/rdock/2013.1/src/exe/rbdock.cxx#4 $)

>  <Rbt.Library>
libRbt.so (2013.1, Build901 2013/11/27)

>  <Rbt.Parameter_File>
/export/apps/rDock/src/rDock_2013.1_src/data/scripts/dock_solv.prm

>  <Rbt.Receptor>
prm/blind_docking_40.prm

>  <SCORE>
0.140024

>  <SCORE.INTER>
4.66908

>  <SCORE.INTER.CONST>
1

>  <SCORE.INTER.POLAR>
0

>  <SCORE.INTER.ROT>
11

>  <SCORE.INTER.SOLV>
8.94775

>  <SCORE.INTER.VDW>
-10.8032

>  <SCORE.INTER.norm>
0.333505

>  <SCORE.INTRA>
-4.74018

>  <SCORE.INTRA.DIHEDRAL>
-14.7907

>  <SCORE.INTRA.DIHEDRAL.0>
24.1231

>  <SCORE.INTRA.POLAR>
0

>  <SCORE.INTRA.POLAR.0>
0

>  <SCORE.INTRA.REPUL>
0

>  <SCORE.INTRA.REPUL.0>
0

>  <SCORE.INTRA.SOLV>
2.81152

>  <SCORE.INTRA.SOLV.lig_0>
-48.2216

>  <SCORE.INTRA.VDW>
1.2494

>  <SCORE.INTRA.VDW.0>
-1.3967

>  <SCORE.INTRA.norm>
-0.338584

>  <SCORE.RESTR>
0.211123

>  <SCORE.RESTR.CAVITY>
0.211123

>  <SCORE.RESTR.norm>
0.0150802

>  <SCORE.SYSTEM>
0

>  <SCORE.SYSTEM.CONST>
0

>  <SCORE.SYSTEM.DIHEDRAL>
0

>  <SCORE.SYSTEM.SOLV>
0

>  <SCORE.SYSTEM.norm>
0

>  <SCORE.heavy>
14

>  <SCORE.norm>
0.0100017

>  <RMSD>
19.366

$$$$
ligand
 OpenBabel11021811463D
libRbt.so/2013.1/901 2013/11/27
 14 13  0  0  0  0  0  0  0  0999 V2000
   14.6124   19.2132   29.6235 N   0  0  0  0  0  0  0  0  0  0  0  0
   13.5556   18.3031   29.1619 C   0  0  0  0  0  0  0  0  0  0  0  0
   14.1798   17.1814   28.3383 C   0  0  0  0  0  0  0  0  0  0  0  0
   13.0671   16.3047   27.7875 C   0  0  0  0  0  0  0  0  0  0  0  0
   12.3730   15.6563   28.9058 N   0  0  0  0  0  0  0  0  0  0  0  0
   11.1102   15.1156   28.3730 C   0  0  0  0  0  0  0  0  0  0  0  0
   10.7300   13.8198   29.0984 C   0  0  0  0  0  0  0  0  0  0  0  0
   10.8642   14.0567   30.6102 C   0  0  0  0  0  0  0  0  0  0  0  0
   10.3904   12.8764   31.3512 C   0  0  0  0  0  0  0  0  0  0  0  0
   10.6023   13.1384   32.7893 N   0  0  0  0  0  0  0  0  0  0  0  0
    9.5829   14.1652   33.2955 C   0  0  0  0  0  0  0  0  0  0  0  0
   10.1952   15.5701   33.2407 C   0  0  0  0  0  0  0  0  0  0  0  0
    9.1370   16.5821   33.4238 C   0  0  0  0  0  0  0  0  0  0  0  0
    8.4934   16.3967   34.7421 N   0  0  0  0  0  0  0  0  0  0  0  0
  1  2  1  0  0  0  0
  2  3  1  0  0  0  0
  3  4  1  0  0  0  0
  4  5  1  0  0  0  0
  5  6  1  0  0  0  0
  6  7  1  0  0  0  0
  7  8  1  0  0  0  0
  8  9  1  0  0  0  0
  9 10  1  0  0  0  0
 10 11  1  0  0  0  0
 11 12  1  0  0  0  0
 12 13  1  0  0  0  0
 13 14  1  0  0  0  0
M  END
>  <CHROM.1>
-176.08065766,-64.59918056,165.39597584,146.76517163,47.75230669,174.83206106
177.40613717,73.04676768,-94.47359830,166.99830140,60.66903350,11.34946340
15.59834184,30.76692560,-0.13397218,0.91454577,0.66375900

>  <Name>
ligand

>  <RI>
0

>  <Rbt.Current_Directory>
/home/itssahil/PROJECTS/Mol_Feturizer/New_Systems/rnas/2O3Y

>  <Rbt.Executable>
rbdock ($Id: //depot/dev/client3/rdock/2013.1/src/exe/rbdock.cxx#4 $)

>  <Rbt.Library>
libRbt.so (2013.1, Build901 2013/11/27)

>  <Rbt.Parameter_File>
/export/apps/rDock/src/rDock_2013.1_src/data/scripts/dock_solv.prm

>  <Rbt.Receptor>
prm/blind_docking_40.prm

>  <SCORE>
-1.64829

>  <SCORE.INTER>
4.53344

>  <SCORE.INTER.CONST>
1

>  <SCORE.INTER.POLAR>
0

>  <SCORE.INTER.ROT>
11

>  <SCORE.INTER.SOLV>
13.9075

>  <SCORE.INTER.VDW>
-12.5469

>  <SCORE.INTER.norm>
0.323817

>  <SCORE.INTRA>
-7.34291

>  <SCORE.INTRA.DIHEDRAL>
-20.9415

>  <SCORE.INTRA.DIHEDRAL.0>
24.1231

>  <SCORE.INTRA.POLAR>
0

>  <SCORE.INTRA.POLAR.0>
0

>  <SCORE.INTRA.REPUL>
0

>  <SCORE.INTRA.REPUL.0>
0

>  <SCORE.INTRA.SOLV>
0.828975

>  <SCORE.INTRA.SOLV.lig_0>
-48.2216

>  <SCORE.INTRA.VDW>
2.71333

>  <SCORE.INTRA.VDW.0>
-1.3967

>  <SCORE.INTRA.norm>
-0.524494

>  <SCORE.RESTR>
1.16119

>  <SCORE.RESTR.CAVITY>
1.16119

>  <SCORE.RESTR.norm>
0.0829418

>  <SCORE.SYSTEM>
0

>  <SCORE.SYSTEM.CONST>
0

>  <SCORE.SYSTEM.DIHEDRAL>
0

>  <SCORE.SYSTEM.SOLV>
0

>  <SCORE.SYSTEM.norm>
0

>  <SCORE.heavy>
14

>  <SCORE.norm>
-0.117735

>  <RMSD>
19.371

$$$$
ligand
 OpenBabel11021811463D
libRbt.so/2013.1/901 2013/11/27
 14 13  0  0  0  0  0  0  0  0999 V2000
    9.9028   16.5917   32.6775 N   0  0  0  0  0  0  0  0  0  0  0  0
    8.8919   15.8100   33.4021 C   0  0  0  0  0  0  0  0  0  0  0  0
    9.5664   14.6287   34.0919 C   0  0  0  0  0  0  0  0  0  0  0  0
    9.8645   13.5624   33.0506 C   0  0  0  0  0  0  0  0  0  0  0  0
   10.8231   14.0999   32.0785 N   0  0  0  0  0  0  0  0  0  0  0  0
   10.7779   13.2196   30.8979 C   0  0  0  0  0  0  0  0  0  0  0  0
   10.2181   13.9723   29.6855 C   0  0  0  0  0  0  0  0  0  0  0  0
   11.3507   14.8108   29.0740 C   0  0  0  0  0  0  0  0  0  0  0  0
   11.6272   15.9821   29.9216 C   0  0  0  0  0  0  0  0  0  0  0  0
   12.6917   16.7669   29.2639 N   0  0  0  0  0  0  0  0  0  0  0  0
   12.9398   18.0697   30.0327 C   0  0  0  0  0  0  0  0  0  0  0  0
   12.9947   19.2459   29.0503 C   0  0  0  0  0  0  0  0  0  0  0  0
   14.1869   19.1209   28.1898 C   0  0  0  0  0  0  0  0  0  0  0  0
   14.0263   17.9655   27.2811 N   0  0  0  0  0  0  0  0  0  0  0  0
  1  2  1  0  0  0  0
  2  3  1  0  0  0  0
  3  4  1  0  0  0  0
  4  5  1  0  0  0  0
  5  6  1  0  0  0  0
  6  7  1  0  0  0  0
  7  8  1  0  0  0  0
  8  9  1  0  0  0  0
  9 10  1  0  0  0  0
 10 11  1  0  0  0  0
 11 12  1  0  0  0  0
 12 13  1  0  0  0  0
 13 14  1  0  0  0  0
M  END
>  <CHROM.1>
-76.70709789,63.58905145,-163.48892913,113.89098345,80.93427609,-74.31584254
-178.33254057,174.91452091,-132.97506448,-66.94319635,68.61245764,11.41852727
15.98888318,30.62136263,2.96749901,-0.99279288,-2.61160500

>  <Name>
ligand

>  <RI>
0

>  <Rbt.Current_Directory>
/home/itssahil/PROJECTS/Mol_Feturizer/New_Systems/rnas/2O3Y

>  <Rbt.Executable>
rbdock ($Id: //depot/dev/client3/rdock/2013.1/src/exe/rbdock.cxx#4 $)

>  <Rbt.Library>
libRbt.so (2013.1, Build901 2013/11/27)

>  <Rbt.Parameter_File>
/export/apps/rDock/src/rDock_2013.1_src/data/scripts/dock_solv.prm

>  <Rbt.Receptor>
prm/blind_docking_40.prm

>  <SCORE>
0.896559

>  <SCORE.INTER>
4.22832

>  <SCORE.INTER.CONST>
1

>  <SCORE.INTER.POLAR>
0

>  <SCORE.INTER.ROT>
11

>  <SCORE.INTER.SOLV>
8.26009

>  <SCORE.INTER.VDW>
-10.8678

>  <SCORE.INTER.norm>
0.302023

>  <SCORE.INTRA>
-3.66548

>  <SCORE.INTRA.DIHEDRAL>
-17.8306

>  <SCORE.INTRA.DIHEDRAL.0>
24.1231

>  <SCORE.INTRA.POLAR>
0

>  <SCORE.INTRA.POLAR.0>
0

>  <SCORE.INTRA.REPUL>
0

>  <SCORE.INTRA.REPUL.0>
0

>  <SCORE.INTRA.SOLV>
8.3769

>  <SCORE.INTRA.SOLV.lig_0>
-48.2216

>  <SCORE.INTRA.VDW>
1.06135

>  <SCORE.INTRA.VDW.0>
-1.3967

>  <SCORE.INTRA.norm>
-0.26182

>  <SCORE.RESTR>
0.333721

>  <SCORE.RESTR.CAVITY>
0.333721

>  <SCORE.RESTR.norm>
0.0238372

>  <SCORE.SYSTEM>
0

>  <SCORE.SYSTEM.CONST>
0

>  <SCORE.SYSTEM.DIHEDRAL>
0

>  <SCORE.SYSTEM.SOLV>
0

>  <SCORE.SYSTEM.norm>
0

>  <SCORE.heavy>
14

>  <SCORE.norm>
0.0640399

>  <RMSD>
19.386

$$$$
ligand
 OpenBabel11021811463D
libRbt.so/2013.1/901 2013/11/27
 14 13  0  0  0  0  0  0  0  0999 V2000
    9.9552   15.6428   35.7562 N   0  0  0  0  0  0  0  0  0  0  0  0
    9.0670   14.9767   34.7941 C   0  0  0  0  0  0  0  0  0  0  0  0
    9.8714   14.5659   33.5652 C   0  0  0  0  0  0  0  0  0  0  0  0
    9.4501   13.1648   33.1535 C   0  0  0  0  0  0  0  0  0  0  0  0
    9.9978   12.8734   31.8239 N   0  0  0  0  0  0  0  0  0  0  0  0
    8.9093   13.0862   30.8541 C   0  0  0  0  0  0  0  0  0  0  0  0
    8.8785   14.5470   30.3902 C   0  0  0  0  0  0  0  0  0  0  0  0
    9.1274   14.5765   28.8747 C   0  0  0  0  0  0  0  0  0  0  0  0
   10.5641   14.4207   28.5949 C   0  0  0  0  0  0  0  0  0  0  0  0
   11.2549   15.6094   29.1349 N   0  0  0  0  0  0  0  0  0  0  0  0
   12.3993   16.0245   28.2033 C   0  0  0  0  0  0  0  0  0  0  0  0
   13.1402   17.2270   28.8005 C   0  0  0  0  0  0  0  0  0  0  0  0
   14.2372   17.6331   27.9009 C   0  0  0  0  0  0  0  0  0  0  0  0
   14.5750   19.0531   28.1371 N   0  0  0  0  0  0  0  0  0  0  0  0
  1  2  1  0  0  0  0
  2  3  1  0  0  0  0
  3  4  1  0  0  0  0
  4  5  1  0  0  0  0
  5  6  1  0  0  0  0
  6  7  1  0  0  0  0
  7  8  1  0  0  0  0
  8  9  1  0  0  0  0
  9 10  1  0  0  0  0
 10 11  1  0  0  0  0
 11 12  1  0  0  0  0
 12 13  1  0  0  0  0
 13 14  1  0  0  0  0
M  END
>  <CHROM.1>
137.29672195,168.05143732,-99.86618620,88.39061314,118.35502938,-78.96560255
-65.36752467,-142.65708944,-177.93367550,-179.65995861,156.36698952,10.81598033
15.24271129,30.71290448,-2.45096825,-0.79473656,-1.74720760

>  <Name>
ligand

>  <RI>
0

>  <Rbt.Current_Directory>
/home/itssahil/PROJECTS/Mol_Feturizer/New_Systems/rnas/2O3Y

>  <Rbt.Executable>
rbdock ($Id: //depot/dev/client3/rdock/2013.1/src/exe/rbdock.cxx#4 $)

>  <Rbt.Library>
libRbt.so (2013.1, Build901 2013/11/27)

>  <Rbt.Parameter_File>
/export/apps/rDock/src/rDock_2013.1_src/data/scripts/dock_solv.prm

>  <Rbt.Receptor>
prm/blind_docking_40.prm

>  <SCORE>
5.48144

>  <SCORE.INTER>
6.03779

>  <SCORE.INTER.CONST>
1

>  <SCORE.INTER.POLAR>
0

>  <SCORE.INTER.ROT>
11

>  <SCORE.INTER.SOLV>
7.46488

>  <SCORE.INTER.VDW>
-9.39643

>  <SCORE.INTER.norm>
0.431271

>  <SCORE.INTRA>
-2.44476

>  <SCORE.INTRA.DIHEDRAL>
-7.99845

>  <SCORE.INTRA.DIHEDRAL.0>
24.1231

>  <SCORE.INTRA.POLAR>
0

>  <SCORE.INTRA.POLAR.0>
0

>  <SCORE.INTRA.REPUL>
0

>  <SCORE.INTRA.REPUL.0>
0

>  <SCORE.INTRA.SOLV>
0.477709

>  <SCORE.INTRA.SOLV.lig_0>
-48.2216

>  <SCORE.INTRA.VDW>
1.31561

>  <SCORE.INTRA.VDW.0>
-1.3967

>  <SCORE.INTRA.norm>
-0.174626

>  <SCORE.RESTR>
1.88841

>  <SCORE.RESTR.CAVITY>
1.88841

>  <SCORE.RESTR.norm>
0.134887

>  <SCORE.SYSTEM>
0

>  <SCORE.SYSTEM.CONST>
0

>  <SCORE.SYSTEM.DIHEDRAL>
0

>  <SCORE.SYSTEM.SOLV>
0

>  <SCORE.SYSTEM.norm>
0

>  <SCORE.heavy>
14

>  <SCORE.norm>
0.391532

>  <RMSD>
19.393

$$$$
ligand
 OpenBabel11021811463D
libRbt.so/2013.1/901 2013/11/27
 14 13  0  0  0  0  0  0  0  0999 V2000
   13.5356   18.9895   28.4980 N   0  0  0  0  0  0  0  0  0  0  0  0
   12.5059   18.0379   28.9366 C   0  0  0  0  0  0  0  0  0  0  0  0
   13.1638   16.7061   29.2822 C   0  0  0  0  0  0  0  0  0  0  0  0
   12.0854   15.7305   29.7242 C   0  0  0  0  0  0  0  0  0  0  0  0
   11.4607   15.1395   28.5353 N   0  0  0  0  0  0  0  0  0  0  0  0
   10.4016   14.2328   29.0117 C   0  0  0  0  0  0  0  0  0  0  0  0
    9.1043   15.0077   29.2697 C   0  0  0  0  0  0  0  0  0  0  0  0
    8.0111   14.0010   29.6583 C   0  0  0  0  0  0  0  0  0  0  0  0
    8.0295   13.7704   31.1120 C   0  0  0  0  0  0  0  0  0  0  0  0
    9.3662   13.2498   31.4639 N   0  0  0  0  0  0  0  0  0  0  0  0
    9.4560   13.0007   32.9738 C   0  0  0  0  0  0  0  0  0  0  0  0
    9.3614   14.3353   33.7231 C   0  0  0  0  0  0  0  0  0  0  0  0
   10.3825   15.2685   33.2094 C   0  0  0  0  0  0  0  0  0  0  0  0
   10.1959   16.5995   33.8258 N   0  0  0  0  0  0  0  0  0  0  0  0
  1  2  1  0  0  0  0
  2  3  1  0  0  0  0
  3  4  1  0  0  0  0
  4  5  1  0  0  0  0
  5  6  1  0  0  0  0
  6  7  1  0  0  0  0
  7  8  1  0  0  0  0
  8  9  1  0  0  0  0
  9 10  1  0  0  0  0
 10 11  1  0  0  0  0
 11 12  1  0  0  0  0
 12 13  1  0  0  0  0
 13 14  1  0  0  0  0
M  END
>  <CHROM.1>
-179.60309703,82.32276617,-178.48166295,84.72309804,175.72111045,87.98460552
-59.34092400,179.43517398,-65.81187497,-54.18976189,173.84515470,10.50402923
15.29037013,30.65889021,-0.51818725,0.80517632,1.46120696

>  <Name>
ligand

>  <RI>
0

>  <Rbt.Current_Directory>
/home/itssahil/PROJECTS/Mol_Feturizer/New_Systems/rnas/2O3Y

>  <Rbt.Executable>
rbdock ($Id: //depot/dev/client3/rdock/2013.1/src/exe/rbdock.cxx#4 $)

>  <Rbt.Library>
libRbt.so (2013.1, Build901 2013/11/27)

>  <Rbt.Parameter_File>
/export/apps/rDock/src/rDock_2013.1_src/data/scripts/dock_solv.prm

>  <Rbt.Receptor>
prm/blind_docking_40.prm

>  <SCORE>
1.98054

>  <SCORE.INTER>
8.2167

>  <SCORE.INTER.CONST>
1

>  <SCORE.INTER.POLAR>
0

>  <SCORE.INTER.ROT>
11

>  <SCORE.INTER.SOLV>
10.2878

>  <SCORE.INTER.VDW>
-8.88479

>  <SCORE.INTER.norm>
0.586907

>  <SCORE.INTRA>
-6.27783

>  <SCORE.INTRA.DIHEDRAL>
-18.8992

>  <SCORE.INTRA.DIHEDRAL.0>
24.1231

>  <SCORE.INTRA.POLAR>
0

>  <SCORE.INTRA.POLAR.0>
0

>  <SCORE.INTRA.REPUL>
0

>  <SCORE.INTRA.REPUL.0>
0

>  <SCORE.INTRA.SOLV>
1.5968

>  <SCORE.INTRA.SOLV.lig_0>
-48.2216

>  <SCORE.INTRA.VDW>
2.37335

>  <SCORE.INTRA.VDW.0>
-1.3967

>  <SCORE.INTRA.norm>
-0.448416

>  <SCORE.RESTR>
0.0416644

>  <SCORE.RESTR.CAVITY>
0.0416644

>  <SCORE.RESTR.norm>
0.00297603

>  <SCORE.SYSTEM>
0

>  <SCORE.SYSTEM.CONST>
0

>  <SCORE.SYSTEM.DIHEDRAL>
0

>  <SCORE.SYSTEM.SOLV>
0

>  <SCORE.SYSTEM.norm>
0

>  <SCORE.heavy>
14

>  <SCORE.norm>
0.141467

>  <RMSD>
19.400

$$$$
ligand
 OpenBabel11021811463D
libRbt.so/2013.1/901 2013/11/27
 14 13  0  0  0  0  0  0  0  0999 V2000
   13.7519   19.0332   27.9339 N   0  0  0  0  0  0  0  0  0  0  0  0
   12.9693   18.3107   28.9456 C   0  0  0  0  0  0  0  0  0  0  0  0
   13.2615   16.8176   28.8382 C   0  0  0  0  0  0  0  0  0  0  0  0
   12.4559   16.0863   29.8995 C   0  0  0  0  0  0  0  0  0  0  0  0
   11.0381   16.1095   29.5222 N   0  0  0  0  0  0  0  0  0  0  0  0
   10.7850   14.8961   28.7257 C   0  0  0  0  0  0  0  0  0  0  0  0
    9.2936   14.5419   28.7421 C   0  0  0  0  0  0  0  0  0  0  0  0
    8.8729   14.2958   30.1988 C   0  0  0  0  0  0  0  0  0  0  0  0
    9.6086   13.1464   30.7504 C   0  0  0  0  0  0  0  0  0  0  0  0
    8.9438   12.7546   32.0100 N   0  0  0  0  0  0  0  0  0  0  0  0
    9.9045   12.9302   33.1916 C   0  0  0  0  0  0  0  0  0  0  0  0
    9.5275   14.1904   33.9798 C   0  0  0  0  0  0  0  0  0  0  0  0
    9.8533   15.3907   33.1857 C   0  0  0  0  0  0  0  0  0  0  0  0
    9.5076   16.6055   33.9547 N   0  0  0  0  0  0  0  0  0  0  0  0
  1  2  1  0  0  0  0
  2  3  1  0  0  0  0
  3  4  1  0  0  0  0
  4  5  1  0  0  0  0
  5  6  1  0  0  0  0
  6  7  1  0  0  0  0
  7  8  1  0  0  0  0
  8  9  1  0  0  0  0
  9 10  1  0  0  0  0
 10 11  1  0  0  0  0
 11 12  1  0  0  0  0
 12 13  1  0  0  0  0
 13 14  1  0  0  0  0
M  END
>  <CHROM.1>
179.43576543,71.34710618,90.94300046,158.14374413,-60.03697664,-62.65635479
-166.53320769,-117.16330094,104.07444855,-70.44078508,-179.18237160,10.69806207
15.36462398,30.70552339,-0.44785143,0.92969380,1.28297049

>  <Name>
ligand

>  <RI>
0

>  <Rbt.Current_Directory>
/home/itssahil/PROJECTS/Mol_Feturizer/New_Systems/rnas/2O3Y

>  <Rbt.Executable>
rbdock ($Id: //depot/dev/client3/rdock/2013.1/src/exe/rbdock.cxx#4 $)

>  <Rbt.Library>
libRbt.so (2013.1, Build901 2013/11/27)

>  <Rbt.Parameter_File>
/export/apps/rDock/src/rDock_2013.1_src/data/scripts/dock_solv.prm

>  <Rbt.Receptor>
prm/blind_docking_40.prm

>  <SCORE>
-1.11039

>  <SCORE.INTER>
6.01915

>  <SCORE.INTER.CONST>
1

>  <SCORE.INTER.POLAR>
0

>  <SCORE.INTER.ROT>
11

>  <SCORE.INTER.SOLV>
7.21444

>  <SCORE.INTER.VDW>
-9.32538

>  <SCORE.INTER.norm>
0.429939

>  <SCORE.INTRA>
-7.14611

>  <SCORE.INTRA.DIHEDRAL>
-19.3784

>  <SCORE.INTRA.DIHEDRAL.0>
24.1231

>  <SCORE.INTRA.POLAR>
0

>  <SCORE.INTRA.POLAR.0>
0

>  <SCORE.INTRA.REPUL>
0

>  <SCORE.INTRA.REPUL.0>
0

>  <SCORE.INTRA.SOLV>
1.09829

>  <SCORE.INTRA.SOLV.lig_0>
-48.2216

>  <SCORE.INTRA.VDW>
1.99393

>  <SCORE.INTRA.VDW.0>
-1.3967

>  <SCORE.INTRA.norm>
-0.510437

>  <SCORE.RESTR>
0.0165768

>  <SCORE.RESTR.CAVITY>
0.0165768

>  <SCORE.RESTR.norm>
0.00118406

>  <SCORE.SYSTEM>
0

>  <SCORE.SYSTEM.CONST>
0

>  <SCORE.SYSTEM.DIHEDRAL>
0

>  <SCORE.SYSTEM.SOLV>
0

>  <SCORE.SYSTEM.norm>
0

>  <SCORE.heavy>
14

>  <SCORE.norm>
-0.0793133

>  <RMSD>
19.418

$$$$
ligand
 OpenBabel11021811463D
libRbt.so/2013.1/901 2013/11/27
 14 13  0  0  0  0  0  0  0  0999 V2000
   14.5179   19.0038   27.9340 N   0  0  0  0  0  0  0  0  0  0  0  0
   14.1785   19.0182   29.3633 C   0  0  0  0  0  0  0  0  0  0  0  0
   12.8669   18.2699   29.5781 C   0  0  0  0  0  0  0  0  0  0  0  0
   13.0507   16.8280   29.1339 C   0  0  0  0  0  0  0  0  0  0  0  0
   11.7353   16.1830   29.0520 N   0  0  0  0  0  0  0  0  0  0  0  0
   11.6995   15.1449   30.0970 C   0  0  0  0  0  0  0  0  0  0  0  0
   10.8145   13.9716   29.6610 C   0  0  0  0  0  0  0  0  0  0  0  0
    9.4134   14.5162   29.3452 C   0  0  0  0  0  0  0  0  0  0  0  0
    8.4084   13.8443   30.1851 C   0  0  0  0  0  0  0  0  0  0  0  0
    8.4602   14.4647   31.5245 N   0  0  0  0  0  0  0  0  0  0  0  0
    9.3511   13.6359   32.4569 C   0  0  0  0  0  0  0  0  0  0  0  0
    9.4267   14.3103   33.8321 C   0  0  0  0  0  0  0  0  0  0  0  0
   10.0198   15.6546   33.6956 C   0  0  0  0  0  0  0  0  0  0  0  0
    9.0022   16.5984   33.1855 N   0  0  0  0  0  0  0  0  0  0  0  0
  1  2  1  0  0  0  0
  2  3  1  0  0  0  0
  3  4  1  0  0  0  0
  4  5  1  0  0  0  0
  5  6  1  0  0  0  0
  6  7  1  0  0  0  0
  7  8  1  0  0  0  0
  8  9  1  0  0  0  0
  9 10  1  0  0  0  0
 10 11  1  0  0  0  0
 11 12  1  0  0  0  0
 12 13  1  0  0  0  0
 13 14  1  0  0  0  0
M  END
>  <CHROM.1>
61.43212878,-167.48309735,-113.68033644,-148.96671081,-57.03478861,-122.06716102
78.84411553,-95.96146387,178.48789919,-61.07549053,78.52549419,10.92464569
15.81710457,30.64609829,-0.21903670,0.81354385,1.13113283

>  <Name>
ligand

>  <RI>
0

>  <Rbt.Current_Directory>
/home/itssahil/PROJECTS/Mol_Feturizer/New_Systems/rnas/2O3Y

>  <Rbt.Executable>
rbdock ($Id: //depot/dev/client3/rdock/2013.1/src/exe/rbdock.cxx#4 $)

>  <Rbt.Library>
libRbt.so (2013.1, Build901 2013/11/27)

>  <Rbt.Parameter_File>
/export/apps/rDock/src/rDock_2013.1_src/data/scripts/dock_solv.prm

>  <Rbt.Receptor>
prm/blind_docking_40.prm

>  <SCORE>
2.3322

>  <SCORE.INTER>
5.14584

>  <SCORE.INTER.CONST>
1

>  <SCORE.INTER.POLAR>
0

>  <SCORE.INTER.ROT>
11

>  <SCORE.INTER.SOLV>
6.08761

>  <SCORE.INTER.VDW>
-9.53198

>  <SCORE.INTER.norm>
0.36756

>  <SCORE.INTRA>
-2.85252

>  <SCORE.INTRA.DIHEDRAL>
-12.3801

>  <SCORE.INTRA.DIHEDRAL.0>
24.1231

>  <SCORE.INTRA.POLAR>
0

>  <SCORE.INTRA.POLAR.0>
0

>  <SCORE.INTRA.REPUL>
0

>  <SCORE.INTRA.REPUL.0>
0

>  <SCORE.INTRA.SOLV>
4.65752

>  <SCORE.INTRA.SOLV.lig_0>
-48.2216

>  <SCORE.INTRA.VDW>
1.00877

>  <SCORE.INTRA.VDW.0>
-1.3967

>  <SCORE.INTRA.norm>
-0.203752

>  <SCORE.RESTR>
0.0388786

>  <SCORE.RESTR.CAVITY>
0.0388786

>  <SCORE.RESTR.norm>
0.00277704

>  <SCORE.SYSTEM>
0

>  <SCORE.SYSTEM.CONST>
0

>  <SCORE.SYSTEM.DIHEDRAL>
0

>  <SCORE.SYSTEM.SOLV>
0

>  <SCORE.SYSTEM.norm>
0

>  <SCORE.heavy>
14

>  <SCORE.norm>
0.166586

>  <RMSD>
19.420

$$$$
ligand
 OpenBabel11021811463D
libRbt.so/2013.1/901 2013/11/27
 14 13  0  0  0  0  0  0  0  0999 V2000
   13.5919   16.6135   27.9783 N   0  0  0  0  0  0  0  0  0  0  0  0
   13.0557   16.9907   29.2930 C   0  0  0  0  0  0  0  0  0  0  0  0
   12.2278   15.8373   29.8502 C   0  0  0  0  0  0  0  0  0  0  0  0
   11.0735   15.5631   28.9001 C   0  0  0  0  0  0  0  0  0  0  0  0
   10.2002   14.5437   29.4924 N   0  0  0  0  0  0  0  0  0  0  0  0
    8.8119   14.9596   29.2269 C   0  0  0  0  0  0  0  0  0  0  0  0
    7.8324   13.8444   29.6104 C   0  0  0  0  0  0  0  0  0  0  0  0
    8.0214   13.5291   31.1018 C   0  0  0  0  0  0  0  0  0  0  0  0
    9.1530   12.6055   31.2842 C   0  0  0  0  0  0  0  0  0  0  0  0
    9.7630   12.9016   32.5965 N   0  0  0  0  0  0  0  0  0  0  0  0
   10.8728   13.9473   32.4397 C   0  0  0  0  0  0  0  0  0  0  0  0
   10.5222   15.1977   33.2552 C   0  0  0  0  0  0  0  0  0  0  0  0
    9.3668   15.8829   32.6445 C   0  0  0  0  0  0  0  0  0  0  0  0
    8.9762   17.0399   33.4783 N   0  0  0  0  0  0  0  0  0  0  0  0
  1  2  1  0  0  0  0
  2  3  1  0  0  0  0
  3  4  1  0  0  0  0
  4  5  1  0  0  0  0
  5  6  1  0  0  0  0
  6  7  1  0  0  0  0
  7  8  1  0  0  0  0
  8  9  1  0  0  0  0
  9 10  1  0  0  0  0
 10 11  1  0  0  0  0
 11 12  1  0  0  0  0
 12 13  1  0  0  0  0
 13 14  1  0  0  0  0
M  END
>  <CHROM.1>
-60.91234219,-174.59930457,138.97609798,170.89412314,58.90251222,-82.81101448
149.13845775,-90.75870191,118.77108959,-68.74302823,176.46137107,10.24761754
14.96102844,30.79651609,0.49213709,-0.68783242,-1.82541854

>  <Name>
ligand

>  <RI>
0

>  <Rbt.Current_Directory>
/home/itssahil/PROJECTS/Mol_Feturizer/New_Systems/rnas/2O3Y

>  <Rbt.Executable>
rbdock ($Id: //depot/dev/client3/rdock/2013.1/src/exe/rbdock.cxx#4 $)

>  <Rbt.Library>
libRbt.so (2013.1, Build901 2013/11/27)

>  <Rbt.Parameter_File>
/export/apps/rDock/src/rDock_2013.1_src/data/scripts/dock_solv.prm

>  <Rbt.Receptor>
prm/blind_docking_40.prm

>  <SCORE>
2.3441

>  <SCORE.INTER>
7.35064

>  <SCORE.INTER.CONST>
1

>  <SCORE.INTER.POLAR>
0

>  <SCORE.INTER.ROT>
11

>  <SCORE.INTER.SOLV>
8.10978

>  <SCORE.INTER.VDW>
-8.73617

>  <SCORE.INTER.norm>
0.525046

>  <SCORE.INTRA>
-5.54729

>  <SCORE.INTRA.DIHEDRAL>
-16.0378

>  <SCORE.INTRA.DIHEDRAL.0>
24.1231

>  <SCORE.INTRA.POLAR>
0

>  <SCORE.INTRA.POLAR.0>
0

>  <SCORE.INTRA.REPUL>
0

>  <SCORE.INTRA.REPUL.0>
0

>  <SCORE.INTRA.SOLV>
3.4442

>  <SCORE.INTRA.SOLV.lig_0>
-48.2216

>  <SCORE.INTRA.VDW>
0.749516

>  <SCORE.INTRA.VDW.0>
-1.3967

>  <SCORE.INTRA.norm>
-0.396235

>  <SCORE.RESTR>
0.540749

>  <SCORE.RESTR.CAVITY>
0.540749

>  <SCORE.RESTR.norm>
0.0386249

>  <SCORE.SYSTEM>
0

>  <SCORE.SYSTEM.CONST>
0

>  <SCORE.SYSTEM.DIHEDRAL>
0

>  <SCORE.SYSTEM.SOLV>
0

>  <SCORE.SYSTEM.norm>
0

>  <SCORE.heavy>
14

>  <SCORE.norm>
0.167436

>  <RMSD>
19.474

$$$$
ligand
 OpenBabel11021811463D
libRbt.so/2013.1/901 2013/11/27
 14 13  0  0  0  0  0  0  0  0999 V2000
   14.5198   19.0773   28.0228 N   0  0  0  0  0  0  0  0  0  0  0  0
   14.1588   17.8965   28.8188 C   0  0  0  0  0  0  0  0  0  0  0  0
   12.6514   17.8860   29.0512 C   0  0  0  0  0  0  0  0  0  0  0  0
   12.2945   16.6602   29.8758 C   0  0  0  0  0  0  0  0  0  0  0  0
   10.8398   16.4713   29.8443 N   0  0  0  0  0  0  0  0  0  0  0  0
   10.5486   15.5588   28.7248 C   0  0  0  0  0  0  0  0  0  0  0  0
   10.6967   14.0985   29.1671 C   0  0  0  0  0  0  0  0  0  0  0  0
    9.7359   13.8505   30.3397 C   0  0  0  0  0  0  0  0  0  0  0  0
   10.1368   12.6398   31.0747 C   0  0  0  0  0  0  0  0  0  0  0  0
    9.2194   12.4911   32.2228 N   0  0  0  0  0  0  0  0  0  0  0  0
    9.9391   12.8584   33.5255 C   0  0  0  0  0  0  0  0  0  0  0  0
    9.4342   14.2162   34.0286 C   0  0  0  0  0  0  0  0  0  0  0  0
    9.9831   15.2954   33.1850 C   0  0  0  0  0  0  0  0  0  0  0  0
    9.5162   16.6057   33.6865 N   0  0  0  0  0  0  0  0  0  0  0  0
  1  2  1  0  0  0  0
  2  3  1  0  0  0  0
  3  4  1  0  0  0  0
  4  5  1  0  0  0  0
  5  6  1  0  0  0  0
  6  7  1  0  0  0  0
  7  8  1  0  0  0  0
  8  9  1  0  0  0  0
  9 10  1  0  0  0  0
 10 11  1  0  0  0  0
 11 12  1  0  0  0  0
 12 13  1  0  0  0  0
 13 14  1  0  0  0  0
M  END
>  <CHROM.1>
-179.97310293,-167.12571577,92.46081291,84.74331250,58.33377666,-161.59168699
177.32032333,-106.29570156,106.72075780,-73.65388493,-178.93649340,10.97670757
15.40010805,30.82621623,-0.14299202,1.00067213,0.97510042

>  <Name>
ligand

>  <RI>
0

>  <Rbt.Current_Directory>
/home/itssahil/PROJECTS/Mol_Feturizer/New_Systems/rnas/2O3Y

>  <Rbt.Executable>
rbdock ($Id: //depot/dev/client3/rdock/2013.1/src/exe/rbdock.cxx#4 $)

>  <Rbt.Library>
libRbt.so (2013.1, Build901 2013/11/27)

>  <Rbt.Parameter_File>
/export/apps/rDock/src/rDock_2013.1_src/data/scripts/dock_solv.prm

>  <Rbt.Receptor>
prm/blind_docking_40.prm

>  <SCORE>
-2.2431

>  <SCORE.INTER>
5.15663

>  <SCORE.INTER.CONST>
1

>  <SCORE.INTER.POLAR>
0

>  <SCORE.INTER.ROT>
11

>  <SCORE.INTER.SOLV>
8.69171

>  <SCORE.INTER.VDW>
-10.3928

>  <SCORE.INTER.norm>
0.368331

>  <SCORE.INTRA>
-7.62629

>  <SCORE.INTRA.DIHEDRAL>
-18.2602

>  <SCORE.INTRA.DIHEDRAL.0>
24.1231

>  <SCORE.INTRA.POLAR>
0

>  <SCORE.INTRA.POLAR.0>
0

>  <SCORE.INTRA.REPUL>
0

>  <SCORE.INTRA.REPUL.0>
0

>  <SCORE.INTRA.SOLV>
0.868385

>  <SCORE.INTRA.SOLV.lig_0>
-48.2216

>  <SCORE.INTRA.VDW>
1.06963

>  <SCORE.INTRA.VDW.0>
-1.3967

>  <SCORE.INTRA.norm>
-0.544735

>  <SCORE.RESTR>
0.226556

>  <SCORE.RESTR.CAVITY>
0.226556

>  <SCORE.RESTR.norm>
0.0161826

>  <SCORE.SYSTEM>
0

>  <SCORE.SYSTEM.CONST>
0

>  <SCORE.SYSTEM.DIHEDRAL>
0

>  <SCORE.SYSTEM.SOLV>
0

>  <SCORE.SYSTEM.norm>
0

>  <SCORE.heavy>
14

>  <SCORE.norm>
-0.160221

>  <RMSD>
19.491

$$$$
ligand
 OpenBabel11021811463D
libRbt.so/2013.1/901 2013/11/27
 14 13  0  0  0  0  0  0  0  0999 V2000
    9.6502   16.6007   32.0801 N   0  0  0  0  0  0  0  0  0  0  0  0
    9.8966   16.4805   33.5233 C   0  0  0  0  0  0  0  0  0  0  0  0
    8.9956   15.3935   34.1004 C   0  0  0  0  0  0  0  0  0  0  0  0
    9.5284   14.0381   33.6655 C   0  0  0  0  0  0  0  0  0  0  0  0
    9.1403   13.7982   32.2709 N   0  0  0  0  0  0  0  0  0  0  0  0
   10.1526   12.8981   31.6914 C   0  0  0  0  0  0  0  0  0  0  0  0
   11.0789   13.6680   30.7432 C   0  0  0  0  0  0  0  0  0  0  0  0
   10.2872   14.0166   29.4739 C   0  0  0  0  0  0  0  0  0  0  0  0
   11.1641   14.6838   28.4979 C   0  0  0  0  0  0  0  0  0  0  0  0
   11.4246   16.0505   28.9940 N   0  0  0  0  0  0  0  0  0  0  0  0
   12.8421   16.1426   29.5702 C   0  0  0  0  0  0  0  0  0  0  0  0
   13.5962   17.2989   28.9024 C   0  0  0  0  0  0  0  0  0  0  0  0
   13.1464   18.5829   29.4739 C   0  0  0  0  0  0  0  0  0  0  0  0
   13.9993   19.6794   28.9673 N   0  0  0  0  0  0  0  0  0  0  0  0
  1  2  1  0  0  0  0
  2  3  1  0  0  0  0
  3  4  1  0  0  0  0
  4  5  1  0  0  0  0
  5  6  1  0  0  0  0
  6  7  1  0  0  0  0
  7  8  1  0  0  0  0
  8  9  1  0  0  0  0
  9 10  1  0  0  0  0
 10 11  1  0  0  0  0
 11 12  1  0  0  0  0
 12 13  1  0  0  0  0
 13 14  1  0  0  0  0
M  END
>  <CHROM.1>
73.40409874,-77.69344686,152.63475000,-105.76811437,-71.77153283,-176.44185100
-72.97742988,104.55136602,126.20585568,77.12341362,172.29135384,11.06445649
15.66621453,30.85399485,3.07439991,-0.94794766,-2.47277177

>  <Name>
ligand

>  <RI>
0

>  <Rbt.Current_Directory>
/home/itssahil/PROJECTS/Mol_Feturizer/New_Systems/rnas/2O3Y

>  <Rbt.Executable>
rbdock ($Id: //depot/dev/client3/rdock/2013.1/src/exe/rbdock.cxx#4 $)

>  <Rbt.Library>
libRbt.so (2013.1, Build901 2013/11/27)

>  <Rbt.Parameter_File>
/export/apps/rDock/src/rDock_2013.1_src/data/scripts/dock_solv.prm

>  <Rbt.Receptor>
prm/blind_docking_40.prm

>  <SCORE>
-1.18979

>  <SCORE.INTER>
3.90207

>  <SCORE.INTER.CONST>
1

>  <SCORE.INTER.POLAR>
0

>  <SCORE.INTER.ROT>
11

>  <SCORE.INTER.SOLV>
7.27437

>  <SCORE.INTER.VDW>
-10.7567

>  <SCORE.INTER.norm>
0.278719

>  <SCORE.INTRA>
-5.22917

>  <SCORE.INTRA.DIHEDRAL>
-16.1949

>  <SCORE.INTRA.DIHEDRAL.0>
24.1231

>  <SCORE.INTRA.POLAR>
0

>  <SCORE.INTRA.POLAR.0>
0

>  <SCORE.INTRA.REPUL>
0

>  <SCORE.INTRA.REPUL.0>
0

>  <SCORE.INTRA.SOLV>
5.86829

>  <SCORE.INTRA.SOLV.lig_0>
-48.2216

>  <SCORE.INTRA.VDW>
-0.0658768

>  <SCORE.INTRA.VDW.0>
-1.3967

>  <SCORE.INTRA.norm>
-0.373512

>  <SCORE.RESTR>
0.137306

>  <SCORE.RESTR.CAVITY>
0.137306

>  <SCORE.RESTR.norm>
0.00980755

>  <SCORE.SYSTEM>
0

>  <SCORE.SYSTEM.CONST>
0

>  <SCORE.SYSTEM.DIHEDRAL>
0

>  <SCORE.SYSTEM.SOLV>
0

>  <SCORE.SYSTEM.norm>
0

>  <SCORE.heavy>
14

>  <SCORE.norm>
-0.0849851

>  <RMSD>
19.521

$$$$
ligand
 OpenBabel11021811463D
libRbt.so/2013.1/901 2013/11/27
 14 13  0  0  0  0  0  0  0  0999 V2000
   14.2054   17.4553   28.4325 N   0  0  0  0  0  0  0  0  0  0  0  0
   13.0267   17.2282   29.2794 C   0  0  0  0  0  0  0  0  0  0  0  0
   12.2849   15.9887   28.7900 C   0  0  0  0  0  0  0  0  0  0  0  0
   10.9906   15.8542   29.5754 C   0  0  0  0  0  0  0  0  0  0  0  0
   10.2375   14.7050   29.0606 N   0  0  0  0  0  0  0  0  0  0  0  0
    8.8222   15.1098   29.0012 C   0  0  0  0  0  0  0  0  0  0  0  0
    7.9100   13.9386   29.3836 C   0  0  0  0  0  0  0  0  0  0  0  0
    8.0711   13.6737   30.8881 C   0  0  0  0  0  0  0  0  0  0  0  0
    9.3422   12.9778   31.1459 C   0  0  0  0  0  0  0  0  0  0  0  0
    9.5009   12.8674   32.6103 N   0  0  0  0  0  0  0  0  0  0  0  0
   10.3974   13.9962   33.1316 C   0  0  0  0  0  0  0  0  0  0  0  0
    9.5944   14.8978   34.0770 C   0  0  0  0  0  0  0  0  0  0  0  0
    8.9576   15.9843   33.3079 C   0  0  0  0  0  0  0  0  0  0  0  0
    9.9754   16.9864   32.9253 N   0  0  0  0  0  0  0  0  0  0  0  0
  1  2  1  0  0  0  0
  2  3  1  0  0  0  0
  3  4  1  0  0  0  0
  4  5  1  0  0  0  0
  5  6  1  0  0  0  0
  6  7  1  0  0  0  0
  7  8  1  0  0  0  0
  8  9  1  0  0  0  0
  9 10  1  0  0  0  0
 10 11  1  0  0  0  0
 11 12  1  0  0  0  0
 12 13  1  0  0  0  0
 13 14  1  0  0  0  0
M  END
>  <CHROM.1>
-173.86777082,176.99197291,-138.55651300,-142.84762476,70.42068921,-75.93458989
174.67450544,-97.21456722,116.54412654,-89.93807633,-74.60902815,10.23657867
15.11864500,30.82923197,-0.58326477,0.69312932,1.43319575

>  <Name>
ligand

>  <RI>
0

>  <Rbt.Current_Directory>
/home/itssahil/PROJECTS/Mol_Feturizer/New_Systems/rnas/2O3Y

>  <Rbt.Executable>
rbdock ($Id: //depot/dev/client3/rdock/2013.1/src/exe/rbdock.cxx#4 $)

>  <Rbt.Library>
libRbt.so (2013.1, Build901 2013/11/27)

>  <Rbt.Parameter_File>
/export/apps/rDock/src/rDock_2013.1_src/data/scripts/dock_solv.prm

>  <Rbt.Receptor>
prm/blind_docking_40.prm

>  <SCORE>
3.66245

>  <SCORE.INTER>
9.41303

>  <SCORE.INTER.CONST>
1

>  <SCORE.INTER.POLAR>
0

>  <SCORE.INTER.ROT>
11

>  <SCORE.INTER.SOLV>
9.96627

>  <SCORE.INTER.VDW>
-7.98007

>  <SCORE.INTER.norm>
0.67236

>  <SCORE.INTRA>
-5.79301

>  <SCORE.INTRA.DIHEDRAL>
-15.1466

>  <SCORE.INTRA.DIHEDRAL.0>
24.1231

>  <SCORE.INTRA.POLAR>
0

>  <SCORE.INTRA.POLAR.0>
0

>  <SCORE.INTRA.REPUL>
0

>  <SCORE.INTRA.REPUL.0>
0

>  <SCORE.INTRA.SOLV>
3.07703

>  <SCORE.INTRA.SOLV.lig_0>
-48.2216

>  <SCORE.INTRA.VDW>
0.241777

>  <SCORE.INTRA.VDW.0>
-1.3967

>  <SCORE.INTRA.norm>
-0.413786

>  <SCORE.RESTR>
0.0424197

>  <SCORE.RESTR.CAVITY>
0.0424197

>  <SCORE.RESTR.norm>
0.00302998

>  <SCORE.SYSTEM>
0

>  <SCORE.SYSTEM.CONST>
0

>  <SCORE.SYSTEM.DIHEDRAL>
0

>  <SCORE.SYSTEM.SOLV>
0

>  <SCORE.SYSTEM.norm>
0

>  <SCORE.heavy>
14

>  <SCORE.norm>
0.261604

>  <RMSD>
19.535

$$$$
ligand
 OpenBabel11021811463D
libRbt.so/2013.1/901 2013/11/27
 14 13  0  0  0  0  0  0  0  0999 V2000
   10.0123   17.0003   32.8962 N   0  0  0  0  0  0  0  0  0  0  0  0
    9.3851   16.3976   34.0800 C   0  0  0  0  0  0  0  0  0  0  0  0
    9.6242   14.8913   34.0661 C   0  0  0  0  0  0  0  0  0  0  0  0
    8.9052   14.2953   32.8670 C   0  0  0  0  0  0  0  0  0  0  0  0
    9.4441   12.9560   32.6051 N   0  0  0  0  0  0  0  0  0  0  0  0
    9.4870   12.7881   31.1420 C   0  0  0  0  0  0  0  0  0  0  0  0
   10.7477   13.4390   30.5615 C   0  0  0  0  0  0  0  0  0  0  0  0
   10.4625   14.9327   30.3448 C   0  0  0  0  0  0  0  0  0  0  0  0
   11.7232   15.6635   30.1368 C   0  0  0  0  0  0  0  0  0  0  0  0
   12.2661   15.2518   28.8263 N   0  0  0  0  0  0  0  0  0  0  0  0
   12.4012   16.4688   27.9041 C   0  0  0  0  0  0  0  0  0  0  0  0
   13.7012   17.2166   28.2241 C   0  0  0  0  0  0  0  0  0  0  0  0
   13.4582   18.2021   29.2952 C   0  0  0  0  0  0  0  0  0  0  0  0
   14.6435   19.0726   29.4491 N   0  0  0  0  0  0  0  0  0  0  0  0
  1  2  1  0  0  0  0
  2  3  1  0  0  0  0
  3  4  1  0  0  0  0
  4  5  1  0  0  0  0
  5  6  1  0  0  0  0
  6  7  1  0  0  0  0
  7  8  1  0  0  0  0
  8  9  1  0  0  0  0
  9 10  1  0  0  0  0
 10 11  1  0  0  0  0
 11 12  1  0  0  0  0
 12 13  1  0  0  0  0
 13 14  1  0  0  0  0
M  END
>  <CHROM.1>
-64.92172156,162.96643381,-142.69805227,82.25818869,-84.41924265,164.88804155
69.20349217,120.22941204,81.83874662,-87.76759445,-170.70433335,11.16136287
15.61235504,30.88557011,-3.09917100,-0.90422485,-2.41446821

>  <Name>
ligand

>  <RI>
0

>  <Rbt.Current_Directory>
/home/itssahil/PROJECTS/Mol_Feturizer/New_Systems/rnas/2O3Y

>  <Rbt.Executable>
rbdock ($Id: //depot/dev/client3/rdock/2013.1/src/exe/rbdock.cxx#4 $)

>  <Rbt.Library>
libRbt.so (2013.1, Build901 2013/11/27)

>  <Rbt.Parameter_File>
/export/apps/rDock/src/rDock_2013.1_src/data/scripts/dock_solv.prm

>  <Rbt.Receptor>
prm/blind_docking_40.prm

>  <SCORE>
3.75292

>  <SCORE.INTER>
7.17698

>  <SCORE.INTER.CONST>
1

>  <SCORE.INTER.POLAR>
0

>  <SCORE.INTER.ROT>
11

>  <SCORE.INTER.SOLV>
12.626

>  <SCORE.INTER.VDW>
-10.3574

>  <SCORE.INTER.norm>
0.512642

>  <SCORE.INTRA>
-3.58429

>  <SCORE.INTRA.DIHEDRAL>
-14.3197

>  <SCORE.INTRA.DIHEDRAL.0>
24.1231

>  <SCORE.INTRA.POLAR>
0

>  <SCORE.INTRA.POLAR.0>
0

>  <SCORE.INTRA.REPUL>
0

>  <SCORE.INTRA.REPUL.0>
0

>  <SCORE.INTRA.SOLV>
3.39233

>  <SCORE.INTRA.SOLV.lig_0>
-48.2216

>  <SCORE.INTRA.VDW>
1.87941

>  <SCORE.INTRA.VDW.0>
-1.3967

>  <SCORE.INTRA.norm>
-0.256021

>  <SCORE.RESTR>
0.160224

>  <SCORE.RESTR.CAVITY>
0.160224

>  <SCORE.RESTR.norm>
0.0114445

>  <SCORE.SYSTEM>
0

>  <SCORE.SYSTEM.CONST>
0

>  <SCORE.SYSTEM.DIHEDRAL>
0

>  <SCORE.SYSTEM.SOLV>
0

>  <SCORE.SYSTEM.norm>
0

>  <SCORE.heavy>
14

>  <SCORE.norm>
0.268066

>  <RMSD>
19.536

$$$$
ligand
 OpenBabel11021811463D
libRbt.so/2013.1/901 2013/11/27
 14 13  0  0  0  0  0  0  0  0999 V2000
   10.1440   18.0222   32.9894 N   0  0  0  0  0  0  0  0  0  0  0  0
    9.8079   16.6300   32.6625 C   0  0  0  0  0  0  0  0  0  0  0  0
    9.3402   15.9138   33.9252 C   0  0  0  0  0  0  0  0  0  0  0  0
    8.9693   14.4845   33.5652 C   0  0  0  0  0  0  0  0  0  0  0  0
   10.1814   13.7660   33.1560 N   0  0  0  0  0  0  0  0  0  0  0  0
    9.7872   12.8306   32.0881 C   0  0  0  0  0  0  0  0  0  0  0  0
   10.7310   12.9554   30.8867 C   0  0  0  0  0  0  0  0  0  0  0  0
   10.4792   14.3137   30.2151 C   0  0  0  0  0  0  0  0  0  0  0  0
   11.7599   14.9585   29.8821 C   0  0  0  0  0  0  0  0  0  0  0  0
   11.4686   16.0840   28.9709 N   0  0  0  0  0  0  0  0  0  0  0  0
   12.4065   17.2599   29.2666 C   0  0  0  0  0  0  0  0  0  0  0  0
   13.3427   17.4857   28.0732 C   0  0  0  0  0  0  0  0  0  0  0  0
   13.8873   18.8563   28.1197 C   0  0  0  0  0  0  0  0  0  0  0  0
   14.6413   19.0502   29.3768 N   0  0  0  0  0  0  0  0  0  0  0  0
  1  2  1  0  0  0  0
  2  3  1  0  0  0  0
  3  4  1  0  0  0  0
  4  5  1  0  0  0  0
  5  6  1  0  0  0  0
  6  7  1  0  0  0  0
  7  8  1  0  0  0  0
  8  9  1  0  0  0  0
  9 10  1  0  0  0  0
 10 11  1  0  0  0  0
 11 12  1  0  0  0  0
 12 13  1  0  0  0  0
 13 14  1  0  0  0  0
M  END
>  <CHROM.1>
178.84459424,66.41565268,-144.80096340,130.77359164,-69.52043916,135.94835711
166.92341221,143.63205745,113.73923844,159.60563327,59.88883890,11.21031503
15.90043965,30.94118101,2.91186849,-0.94757738,-2.68998435

>  <Name>
ligand

>  <RI>
0

>  <Rbt.Current_Directory>
/home/itssahil/PROJECTS/Mol_Feturizer/New_Systems/rnas/2O3Y

>  <Rbt.Executable>
rbdock ($Id: //depot/dev/client3/rdock/2013.1/src/exe/rbdock.cxx#4 $)

>  <Rbt.Library>
libRbt.so (2013.1, Build901 2013/11/27)

>  <Rbt.Parameter_File>
/export/apps/rDock/src/rDock_2013.1_src/data/scripts/dock_solv.prm

>  <Rbt.Receptor>
prm/blind_docking_40.prm

>  <SCORE>
2.41269

>  <SCORE.INTER>
6.96278

>  <SCORE.INTER.CONST>
1

>  <SCORE.INTER.POLAR>
0

>  <SCORE.INTER.ROT>
11

>  <SCORE.INTER.SOLV>
11.6522

>  <SCORE.INTER.VDW>
-10.1755

>  <SCORE.INTER.norm>
0.497342

>  <SCORE.INTRA>
-5.5557

>  <SCORE.INTRA.DIHEDRAL>
-12.6297

>  <SCORE.INTRA.DIHEDRAL.0>
24.1231

>  <SCORE.INTRA.POLAR>
0

>  <SCORE.INTRA.POLAR.0>
0

>  <SCORE.INTRA.REPUL>
0

>  <SCORE.INTRA.REPUL.0>
0

>  <SCORE.INTRA.SOLV>
1.42993

>  <SCORE.INTRA.SOLV.lig_0>
-48.2216

>  <SCORE.INTRA.VDW>
0.0441859

>  <SCORE.INTRA.VDW.0>
-1.3967

>  <SCORE.INTRA.norm>
-0.396836

>  <SCORE.RESTR>
1.00561

>  <SCORE.RESTR.CAVITY>
1.00561

>  <SCORE.RESTR.norm>
0.0718289

>  <SCORE.SYSTEM>
0

>  <SCORE.SYSTEM.CONST>
0

>  <SCORE.SYSTEM.DIHEDRAL>
0

>  <SCORE.SYSTEM.SOLV>
0

>  <SCORE.SYSTEM.norm>
0

>  <SCORE.heavy>
14

>  <SCORE.norm>
0.172335

>  <RMSD>
19.633

$$$$
ligand
 OpenBabel11021811463D
libRbt.so/2013.1/901 2013/11/27
 14 13  0  0  0  0  0  0  0  0999 V2000
   10.0416   11.9420   31.9921 N   0  0  0  0  0  0  0  0  0  0  0  0
   10.3695   13.2762   32.5124 C   0  0  0  0  0  0  0  0  0  0  0  0
    9.4419   13.6056   33.6774 C   0  0  0  0  0  0  0  0  0  0  0  0
    9.5238   15.0970   33.9582 C   0  0  0  0  0  0  0  0  0  0  0  0
    9.0091   15.8300   32.7960 N   0  0  0  0  0  0  0  0  0  0  0  0
   10.1437   16.5708   32.2176 C   0  0  0  0  0  0  0  0  0  0  0  0
    9.9698   16.7262   30.7024 C   0  0  0  0  0  0  0  0  0  0  0  0
    9.7982   15.3274   30.0913 C   0  0  0  0  0  0  0  0  0  0  0  0
   10.4416   15.2709   28.7686 C   0  0  0  0  0  0  0  0  0  0  0  0
   11.9014   15.2079   28.9852 N   0  0  0  0  0  0  0  0  0  0  0  0
   12.6317   16.0096   27.9019 C   0  0  0  0  0  0  0  0  0  0  0  0
   13.6118   16.9896   28.5580 C   0  0  0  0  0  0  0  0  0  0  0  0
   12.8619   18.0392   29.2746 C   0  0  0  0  0  0  0  0  0  0  0  0
   13.7927   19.0952   29.7273 N   0  0  0  0  0  0  0  0  0  0  0  0
  1  2  1  0  0  0  0
  2  3  1  0  0  0  0
  3  4  1  0  0  0  0
  4  5  1  0  0  0  0
  5  6  1  0  0  0  0
  6  7  1  0  0  0  0
  7  8  1  0  0  0  0
  8  9  1  0  0  0  0
  9 10  1  0  0  0  0
 10 11  1  0  0  0  0
 11 12  1  0  0  0  0
 12 13  1  0  0  0  0
 13 14  1  0  0  0  0
M  END
>  <CHROM.1>
-164.79321324,64.34428890,-113.96838378,149.39160879,-55.93071600,-144.60340246
74.87198979,-143.48046519,128.57203606,-68.36173902,-171.27002380,10.96697223
15.64201643,30.79732217,-2.99214460,1.00022177,0.51312876

>  <Name>
ligand

>  <RI>
0

>  <Rbt.Current_Directory>
/home/itssahil/PROJECTS/Mol_Feturizer/New_Systems/rnas/2O3Y

>  <Rbt.Executable>
rbdock ($Id: //depot/dev/client3/rdock/2013.1/src/exe/rbdock.cxx#4 $)

>  <Rbt.Library>
libRbt.so (2013.1, Build901 2013/11/27)

>  <Rbt.Parameter_File>
/export/apps/rDock/src/rDock_2013.1_src/data/scripts/dock_solv.prm

>  <Rbt.Receptor>
prm/blind_docking_40.prm

>  <SCORE>
1.90428

>  <SCORE.INTER>
7.84618

>  <SCORE.INTER.CONST>
1

>  <SCORE.INTER.POLAR>
0

>  <SCORE.INTER.ROT>
11

>  <SCORE.INTER.SOLV>
12.6134

>  <SCORE.INTER.VDW>
-9.907

>  <SCORE.INTER.norm>
0.560442

>  <SCORE.INTRA>
-5.9419

>  <SCORE.INTRA.DIHEDRAL>
-14.1769

>  <SCORE.INTRA.DIHEDRAL.0>
24.1231

>  <SCORE.INTRA.POLAR>
0

>  <SCORE.INTRA.POLAR.0>
0

>  <SCORE.INTRA.REPUL>
0

>  <SCORE.INTRA.REPUL.0>
0

>  <SCORE.INTRA.SOLV>
1.94502

>  <SCORE.INTRA.SOLV.lig_0>
-48.2216

>  <SCORE.INTRA.VDW>
0.174031

>  <SCORE.INTRA.VDW.0>
-1.3967

>  <SCORE.INTRA.norm>
-0.424421

>  <SCORE.RESTR>
0

>  <SCORE.RESTR.CAVITY>
0

>  <SCORE.RESTR.norm>
0

>  <SCORE.SYSTEM>
0

>  <SCORE.SYSTEM.CONST>
0

>  <SCORE.SYSTEM.DIHEDRAL>
0

>  <SCORE.SYSTEM.SOLV>
0

>  <SCORE.SYSTEM.norm>
0

>  <SCORE.heavy>
14

>  <SCORE.norm>
0.13602

>  <RMSD>
19.641

$$$$
ligand
 OpenBabel11021811463D
libRbt.so/2013.1/901 2013/11/27
 14 13  0  0  0  0  0  0  0  0999 V2000
    8.8351   16.9738   33.0206 N   0  0  0  0  0  0  0  0  0  0  0  0
    8.7497   15.5109   32.9163 C   0  0  0  0  0  0  0  0  0  0  0  0
    9.4742   14.8775   34.0996 C   0  0  0  0  0  0  0  0  0  0  0  0
    9.5222   13.3726   33.8920 C   0  0  0  0  0  0  0  0  0  0  0  0
   10.5638   13.0600   32.9071 N   0  0  0  0  0  0  0  0  0  0  0  0
    9.9087   12.3381   31.8024 C   0  0  0  0  0  0  0  0  0  0  0  0
    9.5127   13.3088   30.6840 C   0  0  0  0  0  0  0  0  0  0  0  0
   10.7973   13.8628   30.0497 C   0  0  0  0  0  0  0  0  0  0  0  0
   11.2950   15.0065   30.8314 C   0  0  0  0  0  0  0  0  0  0  0  0
   12.4688   15.5544   30.1218 N   0  0  0  0  0  0  0  0  0  0  0  0
   12.0157   16.4628   28.9732 C   0  0  0  0  0  0  0  0  0  0  0  0
   13.1821   16.6892   28.0037 C   0  0  0  0  0  0  0  0  0  0  0  0
   14.1732   17.5926   28.6193 C   0  0  0  0  0  0  0  0  0  0  0  0
   13.5867   18.9405   28.7792 N   0  0  0  0  0  0  0  0  0  0  0  0
  1  2  1  0  0  0  0
  2  3  1  0  0  0  0
  3  4  1  0  0  0  0
  4  5  1  0  0  0  0
  5  6  1  0  0  0  0
  6  7  1  0  0  0  0
  7  8  1  0  0  0  0
  8  9  1  0  0  0  0
  9 10  1  0  0  0  0
 10 11  1  0  0  0  0
 11 12  1  0  0  0  0
 12 13  1  0  0  0  0
 13 14  1  0  0  0  0
M  END
>  <CHROM.1>
-173.28624215,77.15662761,-121.94447764,94.40543666,66.86345194,-84.16840306
-175.96892065,80.89667359,-163.36254130,-72.81683885,-66.79803011,11.00593380
15.25325286,31.04997683,2.76515668,-0.90943503,-2.93431402

>  <Name>
ligand

>  <RI>
0

>  <Rbt.Current_Directory>
/home/itssahil/PROJECTS/Mol_Feturizer/New_Systems/rnas/2O3Y

>  <Rbt.Executable>
rbdock ($Id: //depot/dev/client3/rdock/2013.1/src/exe/rbdock.cxx#4 $)

>  <Rbt.Library>
libRbt.so (2013.1, Build901 2013/11/27)

>  <Rbt.Parameter_File>
/export/apps/rDock/src/rDock_2013.1_src/data/scripts/dock_solv.prm

>  <Rbt.Receptor>
prm/blind_docking_40.prm

>  <SCORE>
-1.28006

>  <SCORE.INTER>
3.79827

>  <SCORE.INTER.CONST>
1

>  <SCORE.INTER.POLAR>
0

>  <SCORE.INTER.ROT>
11

>  <SCORE.INTER.SOLV>
10.362

>  <SCORE.INTER.VDW>
-11.8552

>  <SCORE.INTER.norm>
0.271305

>  <SCORE.INTRA>
-5.53067

>  <SCORE.INTRA.DIHEDRAL>
-17.292

>  <SCORE.INTRA.DIHEDRAL.0>
24.1231

>  <SCORE.INTRA.POLAR>
0

>  <SCORE.INTRA.POLAR.0>
0

>  <SCORE.INTRA.REPUL>
0

>  <SCORE.INTRA.REPUL.0>
0

>  <SCORE.INTRA.SOLV>
3.07734

>  <SCORE.INTRA.SOLV.lig_0>
-48.2216

>  <SCORE.INTRA.VDW>
1.57666

>  <SCORE.INTRA.VDW.0>
-1.3967

>  <SCORE.INTRA.norm>
-0.395048

>  <SCORE.RESTR>
0.452338

>  <SCORE.RESTR.CAVITY>
0.452338

>  <SCORE.RESTR.norm>
0.0323098

>  <SCORE.SYSTEM>
0

>  <SCORE.SYSTEM.CONST>
0

>  <SCORE.SYSTEM.DIHEDRAL>
0

>  <SCORE.SYSTEM.SOLV>
0

>  <SCORE.SYSTEM.norm>
0

>  <SCORE.heavy>
14

>  <SCORE.norm>
-0.091433

>  <RMSD>
19.644

$$$$
ligand
 OpenBabel11021811463D
libRbt.so/2013.1/901 2013/11/27
 14 13  0  0  0  0  0  0  0  0999 V2000
   13.5262   19.1037   28.0849 N   0  0  0  0  0  0  0  0  0  0  0  0
   13.4357   17.6639   27.8073 C   0  0  0  0  0  0  0  0  0  0  0  0
   13.6637   16.8855   29.0989 C   0  0  0  0  0  0  0  0  0  0  0  0
   12.4058   16.9714   29.9476 C   0  0  0  0  0  0  0  0  0  0  0  0
   11.4390   15.9767   29.4692 N   0  0  0  0  0  0  0  0  0  0  0  0
   11.4997   14.8357   30.3993 C   0  0  0  0  0  0  0  0  0  0  0  0
   10.3545   13.8545   30.1243 C   0  0  0  0  0  0  0  0  0  0  0  0
   10.5059   12.6583   31.0761 C   0  0  0  0  0  0  0  0  0  0  0  0
    9.7175   12.8818   32.2988 C   0  0  0  0  0  0  0  0  0  0  0  0
   10.4077   13.9203   33.0907 N   0  0  0  0  0  0  0  0  0  0  0  0
    9.3964   14.6927   33.9453 C   0  0  0  0  0  0  0  0  0  0  0  0
    8.4800   15.5215   33.0370 C   0  0  0  0  0  0  0  0  0  0  0  0
    9.2908   16.4473   32.2228 C   0  0  0  0  0  0  0  0  0  0  0  0
   10.0245   17.3770   33.1081 N   0  0  0  0  0  0  0  0  0  0  0  0
  1  2  1  0  0  0  0
  2  3  1  0  0  0  0
  3  4  1  0  0  0  0
  4  5  1  0  0  0  0
  5  6  1  0  0  0  0
  6  7  1  0  0  0  0
  7  8  1  0  0  0  0
  8  9  1  0  0  0  0
  9 10  1  0  0  0  0
 10 11  1  0  0  0  0
 11 12  1  0  0  0  0
 12 13  1  0  0  0  0
 13 14  1  0  0  0  0
M  END
>  <CHROM.1>
76.03056359,81.47593749,101.46104558,170.08481554,177.40667247,92.96846775
-72.24790432,151.83349437,-67.88243102,-58.17262821,-61.34590154,11.01037564
15.62748355,30.97932284,0.39833073,0.91714696,0.18434149

>  <Name>
ligand

>  <RI>
0

>  <Rbt.Current_Directory>
/home/itssahil/PROJECTS/Mol_Feturizer/New_Systems/rnas/2O3Y

>  <Rbt.Executable>
rbdock ($Id: //depot/dev/client3/rdock/2013.1/src/exe/rbdock.cxx#4 $)

>  <Rbt.Library>
libRbt.so (2013.1, Build901 2013/11/27)

>  <Rbt.Parameter_File>
/export/apps/rDock/src/rDock_2013.1_src/data/scripts/dock_solv.prm

>  <Rbt.Receptor>
prm/blind_docking_40.prm

>  <SCORE>
2.46643

>  <SCORE.INTER>
6.08037

>  <SCORE.INTER.CONST>
1

>  <SCORE.INTER.POLAR>
0

>  <SCORE.INTER.ROT>
11

>  <SCORE.INTER.SOLV>
8.23507

>  <SCORE.INTER.VDW>
-9.62477

>  <SCORE.INTER.norm>
0.434312

>  <SCORE.INTRA>
-4.06342

>  <SCORE.INTRA.DIHEDRAL>
-15.9003

>  <SCORE.INTRA.DIHEDRAL.0>
24.1231

>  <SCORE.INTRA.POLAR>
0

>  <SCORE.INTRA.POLAR.0>
0

>  <SCORE.INTRA.REPUL>
0

>  <SCORE.INTRA.REPUL.0>
0

>  <SCORE.INTRA.SOLV>
5.11575

>  <SCORE.INTRA.SOLV.lig_0>
-48.2216

>  <SCORE.INTRA.VDW>
1.32884

>  <SCORE.INTRA.VDW.0>
-1.3967

>  <SCORE.INTRA.norm>
-0.290244

>  <SCORE.RESTR>
0.449475

>  <SCORE.RESTR.CAVITY>
0.449475

>  <SCORE.RESTR.norm>
0.0321054

>  <SCORE.SYSTEM>
0

>  <SCORE.SYSTEM.CONST>
0

>  <SCORE.SYSTEM.DIHEDRAL>
0

>  <SCORE.SYSTEM.SOLV>
0

>  <SCORE.SYSTEM.norm>
0

>  <SCORE.heavy>
14

>  <SCORE.norm>
0.176173

>  <RMSD>
19.645

$$$$
ligand
 OpenBabel11021811463D
libRbt.so/2013.1/901 2013/11/27
 14 13  0  0  0  0  0  0  0  0999 V2000
   13.9994   19.5808   28.9876 N   0  0  0  0  0  0  0  0  0  0  0  0
   13.4320   18.3769   28.3657 C   0  0  0  0  0  0  0  0  0  0  0  0
   12.8635   17.4684   29.4510 C   0  0  0  0  0  0  0  0  0  0  0  0
   12.2814   16.2285   28.7922 C   0  0  0  0  0  0  0  0  0  0  0  0
   11.7031   15.3651   29.8281 N   0  0  0  0  0  0  0  0  0  0  0  0
   10.6392   14.5746   29.1846 C   0  0  0  0  0  0  0  0  0  0  0  0
    9.7510   13.9060   30.2401 C   0  0  0  0  0  0  0  0  0  0  0  0
   10.6010   12.8809   31.0057 C   0  0  0  0  0  0  0  0  0  0  0  0
    9.7914   12.2309   32.0492 C   0  0  0  0  0  0  0  0  0  0  0  0
   10.1105   12.8864   33.3338 N   0  0  0  0  0  0  0  0  0  0  0  0
    9.3950   14.2387   33.4295 C   0  0  0  0  0  0  0  0  0  0  0  0
   10.4028   15.3725   33.2050 C   0  0  0  0  0  0  0  0  0  0  0  0
    9.6862   16.6139   32.8547 C   0  0  0  0  0  0  0  0  0  0  0  0
    8.7858   16.9987   33.9628 N   0  0  0  0  0  0  0  0  0  0  0  0
  1  2  1  0  0  0  0
  2  3  1  0  0  0  0
  3  4  1  0  0  0  0
  4  5  1  0  0  0  0
  5  6  1  0  0  0  0
  6  7  1  0  0  0  0
  7  8  1  0  0  0  0
  8  9  1  0  0  0  0
  9 10  1  0  0  0  0
 10 11  1  0  0  0  0
 11 12  1  0  0  0  0
 12 13  1  0  0  0  0
 13 14  1  0  0  0  0
M  END
>  <CHROM.1>
-179.97955855,-178.62643613,153.38137682,-165.91289927,-65.44198707,178.95348391
-99.85054180,77.56809545,-104.86566064,161.47160651,60.89768126,10.96009542
15.47986564,31.04909608,0.29771374,0.99423040,0.47113723

>  <Name>
ligand

>  <RI>
0

>  <Rbt.Current_Directory>
/home/itssahil/PROJECTS/Mol_Feturizer/New_Systems/rnas/2O3Y

>  <Rbt.Executable>
rbdock ($Id: //depot/dev/client3/rdock/2013.1/src/exe/rbdock.cxx#4 $)

>  <Rbt.Library>
libRbt.so (2013.1, Build901 2013/11/27)

>  <Rbt.Parameter_File>
/export/apps/rDock/src/rDock_2013.1_src/data/scripts/dock_solv.prm

>  <Rbt.Receptor>
prm/blind_docking_40.prm

>  <SCORE>
-1.49637

>  <SCORE.INTER>
4.62734

>  <SCORE.INTER.CONST>
1

>  <SCORE.INTER.POLAR>
0

>  <SCORE.INTER.ROT>
11

>  <SCORE.INTER.SOLV>
9.45367

>  <SCORE.INTER.VDW>
-10.9997

>  <SCORE.INTER.norm>
0.330524

>  <SCORE.INTRA>
-6.78977

>  <SCORE.INTRA.DIHEDRAL>
-16.7677

>  <SCORE.INTRA.DIHEDRAL.0>
24.1231

>  <SCORE.INTRA.POLAR>
0

>  <SCORE.INTRA.POLAR.0>
0

>  <SCORE.INTRA.REPUL>
0

>  <SCORE.INTRA.REPUL.0>
0

>  <SCORE.INTRA.SOLV>
1.22671

>  <SCORE.INTRA.SOLV.lig_0>
-48.2216

>  <SCORE.INTRA.VDW>
0.980723

>  <SCORE.INTRA.VDW.0>
-1.3967

>  <SCORE.INTRA.norm>
-0.484984

>  <SCORE.RESTR>
0.666066

>  <SCORE.RESTR.CAVITY>
0.666066

>  <SCORE.RESTR.norm>
0.0475761

>  <SCORE.SYSTEM>
0

>  <SCORE.SYSTEM.CONST>
0

>  <SCORE.SYSTEM.DIHEDRAL>
0

>  <SCORE.SYSTEM.SOLV>
0

>  <SCORE.SYSTEM.norm>
0

>  <SCORE.heavy>
14

>  <SCORE.norm>
-0.106883

>  <RMSD>
19.680

$$$$
ligand
 OpenBabel11021811463D
libRbt.so/2013.1/901 2013/11/27
 14 13  0  0  0  0  0  0  0  0999 V2000
   14.1529   18.3449   27.8973 N   0  0  0  0  0  0  0  0  0  0  0  0
   13.8910   17.1906   28.7676 C   0  0  0  0  0  0  0  0  0  0  0  0
   12.4173   16.8097   28.6709 C   0  0  0  0  0  0  0  0  0  0  0  0
   12.1257   15.7283   29.6984 C   0  0  0  0  0  0  0  0  0  0  0  0
   10.7074   15.3617   29.6153 N   0  0  0  0  0  0  0  0  0  0  0  0
   10.5614   14.0546   30.2794 C   0  0  0  0  0  0  0  0  0  0  0  0
    9.0800   13.6959   30.4435 C   0  0  0  0  0  0  0  0  0  0  0  0
    8.9898   12.2950   31.0671 C   0  0  0  0  0  0  0  0  0  0  0  0
    8.6846   12.3993   32.5033 C   0  0  0  0  0  0  0  0  0  0  0  0
    9.9067   12.8711   33.1856 N   0  0  0  0  0  0  0  0  0  0  0  0
    9.6060   14.1403   33.9910 C   0  0  0  0  0  0  0  0  0  0  0  0
   10.0864   15.3711   33.2125 C   0  0  0  0  0  0  0  0  0  0  0  0
    9.6845   16.5992   33.9250 C   0  0  0  0  0  0  0  0  0  0  0  0
    9.9998   17.7820   33.0954 N   0  0  0  0  0  0  0  0  0  0  0  0
  1  2  1  0  0  0  0
  2  3  1  0  0  0  0
  3  4  1  0  0  0  0
  4  5  1  0  0  0  0
  5  6  1  0  0  0  0
  6  7  1  0  0  0  0
  7  8  1  0  0  0  0
  8  9  1  0  0  0  0
  9 10  1  0  0  0  0
 10 11  1  0  0  0  0
 11 12  1  0  0  0  0
 12 13  1  0  0  0  0
 13 14  1  0  0  0  0
M  END
>  <CHROM.1>
-173.20330746,179.72496639,161.95394792,170.79447282,176.88395023,101.67500371
-73.37865050,124.57897427,-100.76048981,174.68394586,-173.09443515,10.70648588
15.18847282,31.16812913,-0.05027556,0.95183411,0.78637420

>  <Name>
ligand

>  <RI>
0

>  <Rbt.Current_Directory>
/home/itssahil/PROJECTS/Mol_Feturizer/New_Systems/rnas/2O3Y

>  <Rbt.Executable>
rbdock ($Id: //depot/dev/client3/rdock/2013.1/src/exe/rbdock.cxx#4 $)

>  <Rbt.Library>
libRbt.so (2013.1, Build901 2013/11/27)

>  <Rbt.Parameter_File>
/export/apps/rDock/src/rDock_2013.1_src/data/scripts/dock_solv.prm

>  <Rbt.Receptor>
prm/blind_docking_40.prm

>  <SCORE>
-0.843352

>  <SCORE.INTER>
5.73127

>  <SCORE.INTER.CONST>
1

>  <SCORE.INTER.POLAR>
0

>  <SCORE.INTER.ROT>
11

>  <SCORE.INTER.SOLV>
8.43005

>  <SCORE.INTER.VDW>
-9.9225

>  <SCORE.INTER.norm>
0.409376

>  <SCORE.INTRA>
-7.88399

>  <SCORE.INTRA.DIHEDRAL>
-15.7422

>  <SCORE.INTRA.DIHEDRAL.0>
24.1231

>  <SCORE.INTRA.POLAR>
0

>  <SCORE.INTRA.POLAR.0>
0

>  <SCORE.INTRA.REPUL>
0

>  <SCORE.INTRA.REPUL.0>
0

>  <SCORE.INTRA.SOLV>
0.533512

>  <SCORE.INTRA.SOLV.lig_0>
-48.2216

>  <SCORE.INTRA.VDW>
-0.279634

>  <SCORE.INTRA.VDW.0>
-1.3967

>  <SCORE.INTRA.norm>
-0.563142

>  <SCORE.RESTR>
1.30937

>  <SCORE.RESTR.CAVITY>
1.30937

>  <SCORE.RESTR.norm>
0.0935265

>  <SCORE.SYSTEM>
0

>  <SCORE.SYSTEM.CONST>
0

>  <SCORE.SYSTEM.DIHEDRAL>
0

>  <SCORE.SYSTEM.SOLV>
0

>  <SCORE.SYSTEM.norm>
0

>  <SCORE.heavy>
14

>  <SCORE.norm>
-0.0602394

>  <RMSD>
19.779

$$$$
ligand
 OpenBabel11021811463D
libRbt.so/2013.1/901 2013/11/27
 14 13  0  0  0  0  0  0  0  0999 V2000
   10.5528   13.4442   29.5674 N   0  0  0  0  0  0  0  0  0  0  0  0
   10.8343   13.2678   30.9984 C   0  0  0  0  0  0  0  0  0  0  0  0
    9.6873   12.5003   31.6476 C   0  0  0  0  0  0  0  0  0  0  0  0
    9.5960   12.9059   33.1095 C   0  0  0  0  0  0  0  0  0  0  0  0
    8.9890   14.2388   33.1976 N   0  0  0  0  0  0  0  0  0  0  0  0
   10.0589   15.1739   33.5872 C   0  0  0  0  0  0  0  0  0  0  0  0
    9.9642   16.4702   32.7745 C   0  0  0  0  0  0  0  0  0  0  0  0
    9.7942   16.0991   31.2936 C   0  0  0  0  0  0  0  0  0  0  0  0
   10.4124   17.1270   30.4404 C   0  0  0  0  0  0  0  0  0  0  0  0
   11.8746   17.0467   30.6340 N   0  0  0  0  0  0  0  0  0  0  0  0
   12.5994   17.3431   29.3162 C   0  0  0  0  0  0  0  0  0  0  0  0
   13.4356   18.6200   29.4633 C   0  0  0  0  0  0  0  0  0  0  0  0
   14.1009   18.9300   28.1832 C   0  0  0  0  0  0  0  0  0  0  0  0
   14.9643   17.7980   27.7838 N   0  0  0  0  0  0  0  0  0  0  0  0
  1  2  1  0  0  0  0
  2  3  1  0  0  0  0
  3  4  1  0  0  0  0
  4  5  1  0  0  0  0
  5  6  1  0  0  0  0
  6  7  1  0  0  0  0
  7  8  1  0  0  0  0
  8  9  1  0  0  0  0
  9 10  1  0  0  0  0
 10 11  1  0  0  0  0
 11 12  1  0  0  0  0
 12 13  1  0  0  0  0
 13 14  1  0  0  0  0
M  END
>  <CHROM.1>
-151.73879220,75.48374764,-108.38085965,137.41834116,-47.64464503,-148.96945209
68.61622117,144.42125293,116.25969973,-178.25274721,-58.83219034,11.20440703
15.78327491,30.85713656,-2.71330308,0.88902145,0.33457602

>  <Name>
ligand

>  <RI>
0

>  <Rbt.Current_Directory>
/home/itssahil/PROJECTS/Mol_Feturizer/New_Systems/rnas/2O3Y

>  <Rbt.Executable>
rbdock ($Id: //depot/dev/client3/rdock/2013.1/src/exe/rbdock.cxx#4 $)

>  <Rbt.Library>
libRbt.so (2013.1, Build901 2013/11/27)

>  <Rbt.Parameter_File>
/export/apps/rDock/src/rDock_2013.1_src/data/scripts/dock_solv.prm

>  <Rbt.Receptor>
prm/blind_docking_40.prm

>  <SCORE>
6.64026

>  <SCORE.INTER>
8.878

>  <SCORE.INTER.CONST>
1

>  <SCORE.INTER.POLAR>
0

>  <SCORE.INTER.ROT>
11

>  <SCORE.INTER.SOLV>
13.9007

>  <SCORE.INTER.VDW>
-9.64823

>  <SCORE.INTER.norm>
0.634143

>  <SCORE.INTRA>
-2.44037

>  <SCORE.INTRA.DIHEDRAL>
-12.6591

>  <SCORE.INTRA.DIHEDRAL.0>
24.1231

>  <SCORE.INTRA.POLAR>
0

>  <SCORE.INTRA.POLAR.0>
0

>  <SCORE.INTRA.REPUL>
0

>  <SCORE.INTRA.REPUL.0>
0

>  <SCORE.INTRA.SOLV>
4.73731

>  <SCORE.INTRA.SOLV.lig_0>
-48.2216

>  <SCORE.INTRA.VDW>
1.52052

>  <SCORE.INTRA.VDW.0>
-1.3967

>  <SCORE.INTRA.norm>
-0.174312

>  <SCORE.RESTR>
0.202631

>  <SCORE.RESTR.CAVITY>
0.202631

>  <SCORE.RESTR.norm>
0.0144736

>  <SCORE.SYSTEM>
0

>  <SCORE.SYSTEM.CONST>
0

>  <SCORE.SYSTEM.DIHEDRAL>
0

>  <SCORE.SYSTEM.SOLV>
0

>  <SCORE.SYSTEM.norm>
0

>  <SCORE.heavy>
14

>  <SCORE.norm>
0.474304

>  <RMSD>
19.786

$$$$
ligand
 OpenBabel11021811463D
libRbt.so/2013.1/901 2013/11/27
 14 13  0  0  0  0  0  0  0  0999 V2000
   14.0487   18.0008   27.4600 N   0  0  0  0  0  0  0  0  0  0  0  0
   13.3757   17.0300   28.3334 C   0  0  0  0  0  0  0  0  0  0  0  0
   12.7182   17.7673   29.4954 C   0  0  0  0  0  0  0  0  0  0  0  0
   11.8050   16.8005   30.2311 C   0  0  0  0  0  0  0  0  0  0  0  0
   11.0041   17.5492   31.2062 N   0  0  0  0  0  0  0  0  0  0  0  0
    9.9645   16.6317   31.7043 C   0  0  0  0  0  0  0  0  0  0  0  0
    9.8629   16.7104   33.2318 C   0  0  0  0  0  0  0  0  0  0  0  0
    8.8894   15.6212   33.7067 C   0  0  0  0  0  0  0  0  0  0  0  0
    9.6337   14.4123   34.0958 C   0  0  0  0  0  0  0  0  0  0  0  0
   10.5017   14.0385   32.9607 N   0  0  0  0  0  0  0  0  0  0  0  0
    9.8584   12.9047   32.1542 C   0  0  0  0  0  0  0  0  0  0  0  0
   10.2897   13.0070   30.6861 C   0  0  0  0  0  0  0  0  0  0  0  0
    9.5503   14.0993   30.0246 C   0  0  0  0  0  0  0  0  0  0  0  0
   10.0398   14.2643   28.6391 N   0  0  0  0  0  0  0  0  0  0  0  0
  1  2  1  0  0  0  0
  2  3  1  0  0  0  0
  3  4  1  0  0  0  0
  4  5  1  0  0  0  0
  5  6  1  0  0  0  0
  6  7  1  0  0  0  0
  7  8  1  0  0  0  0
  8  9  1  0  0  0  0
  9 10  1  0  0  0  0
 10 11  1  0  0  0  0
 11 12  1  0  0  0  0
 12 13  1  0  0  0  0
 13 14  1  0  0  0  0
M  END
>  <CHROM.1>
168.96519661,-170.74677073,169.32938573,133.99801061,-173.38729263,95.14742842
-53.36335091,-99.78008096,150.33656089,-75.97513838,175.73281981,10.82419895
15.63108725,30.99534980,0.10580327,-0.99480702,-2.40887972

>  <Name>
ligand

>  <RI>
0

>  <Rbt.Current_Directory>
/home/itssahil/PROJECTS/Mol_Feturizer/New_Systems/rnas/2O3Y

>  <Rbt.Executable>
rbdock ($Id: //depot/dev/client3/rdock/2013.1/src/exe/rbdock.cxx#4 $)

>  <Rbt.Library>
libRbt.so (2013.1, Build901 2013/11/27)

>  <Rbt.Parameter_File>
/export/apps/rDock/src/rDock_2013.1_src/data/scripts/dock_solv.prm

>  <Rbt.Receptor>
prm/blind_docking_40.prm

>  <SCORE>
1.68935

>  <SCORE.INTER>
6.92494

>  <SCORE.INTER.CONST>
1

>  <SCORE.INTER.POLAR>
0

>  <SCORE.INTER.ROT>
11

>  <SCORE.INTER.SOLV>
10.6203

>  <SCORE.INTER.VDW>
-9.85682

>  <SCORE.INTER.norm>
0.494639

>  <SCORE.INTRA>
-5.46982

>  <SCORE.INTRA.DIHEDRAL>
-15.5542

>  <SCORE.INTRA.DIHEDRAL.0>
24.1231

>  <SCORE.INTRA.POLAR>
0

>  <SCORE.INTRA.POLAR.0>
0

>  <SCORE.INTRA.REPUL>
0

>  <SCORE.INTRA.REPUL.0>
0

>  <SCORE.INTRA.SOLV>
3.29559

>  <SCORE.INTRA.SOLV.lig_0>
-48.2216

>  <SCORE.INTRA.VDW>
0.659479

>  <SCORE.INTRA.VDW.0>
-1.3967

>  <SCORE.INTRA.norm>
-0.390701

>  <SCORE.RESTR>
0.234225

>  <SCORE.RESTR.CAVITY>
0.234225

>  <SCORE.RESTR.norm>
0.0167304

>  <SCORE.SYSTEM>
0

>  <SCORE.SYSTEM.CONST>
0

>  <SCORE.SYSTEM.DIHEDRAL>
0

>  <SCORE.SYSTEM.SOLV>
0

>  <SCORE.SYSTEM.norm>
0

>  <SCORE.heavy>
14

>  <SCORE.norm>
0.120668

>  <RMSD>
19.960

$$$$
