@<TRIPOS>MOLECULE
2O3Y_rdock.pdb
 619 690 0 0 0
SMALL
GASTEIGER

@<TRIPOS>ATOM
      1  P         22.8730   16.0370    1.8050 P.3     9  C9          0.1280
      2  C5'       21.5420   18.2410    1.4280 C.3     9  C9          0.1795
      3  O5'       21.5320   16.8360    1.5110 O.3     9  C9         -0.3259
      4  C4'       20.1780   18.7390    1.0350 C.3     9  C9          0.1772
      5  O4'       19.8280   18.2260   -0.2790 O.3     9  C9         -0.3307
      6  C3'       19.0170   18.2830    1.8910 C.3     9  C9          0.1860
      7  O3'       18.9580   19.0480    3.0870 O.3     9  C9         -0.3112
      8  C2'       17.8560   18.5910    0.9550 C.3     9  C9          0.2309
      9  O2'       17.6020   19.9800    0.8500 O.3     9  C9         -0.2156
     10  C1'       18.4230   18.1170   -0.3830 C.3     9  C9          0.2420
     11  N1        18.0830   16.7170   -0.6540 N.ar    9  C9         -0.2535
     12  C2        16.7840   16.4210   -1.0590 C.ar    9  C9          0.3532
     13  O2        15.9740   17.3550   -1.2080 O.2     9  C9         -0.2443
     14  N3        16.4370   15.1330   -1.2770 N.ar    9  C9         -0.1739
     15  C4        17.3340   14.1640   -1.1080 C.ar    9  C9          0.1759
     16  N4        16.9380   12.9060   -1.3180 N.pl3   9  C9         -0.1070
     17  C5        18.6730   14.4410   -0.7130 C.ar    9  C9          0.0566
     18  C6        19.0030   15.7200   -0.5010 C.ar    9  C9          0.0850
     19  OP1       23.5150   16.6570    2.9820 O.3     9  C9         -0.1955
     20  OP2       22.5370   14.5820    1.8280 O.co2   9  C9         -0.7863
     21  P         18.5210   18.3480    4.4750 P.3    10  U10         0.2141
     22  C5'       16.1750   19.4070    4.1110 C.3    10  U10         0.1812
     23  O5'       16.9440   18.2450    4.3510 O.3    10  U10        -0.3114
     24  C4'       14.8050   19.0220    3.6460 C.3    10  U10         0.1773
     25  O4'       14.8910   18.4010    2.3370 O.3    10  U10        -0.3307
     26  C3'       14.1060   17.9720    4.4920 C.3    10  U10         0.1860
     27  O3'       13.5250   18.5660    5.6560 O.3    10  U10        -0.3112
     28  C2'       13.0510   17.4800    3.5140 C.3    10  U10         0.2309
     29  O2'       12.0050   18.4240    3.4000 O.3    10  U10        -0.2156
     30  C1'       13.8470   17.4490    2.2030 C.3    10  U10         0.2420
     31  N1        14.4430   16.1310    1.9330 N.ar   10  U10        -0.2534
     32  C2        13.6340   15.1750    1.3500 C.ar   10  U10         0.3546
     33  O2        12.4900   15.4050    1.0000 O.2    10  U10        -0.2443
     34  N3        14.2180   13.9460    1.1840 N.ar   10  U10        -0.1530
     35  C4        15.5080   13.5900    1.5130 C.ar   10  U10         0.2846
     36  O4        15.8890   12.4420    1.2990 O.2    10  U10        -0.2650
     37  C5        16.2920   14.6370    2.0770 C.ar   10  U10         0.0814
     38  C6        15.7480   15.8430    2.2640 C.ar   10  U10         0.0870
     39  OP1       18.7940   19.3240    5.5470 O.3    10  U10        -0.4373
     40  OP2       19.0570   16.9670    4.5940 O.co2  10  U10        -0.5172
     41  P         13.4370   17.7310    7.0420 P.3    11  C11         0.2141
     42  C5'       10.8740   17.6180    6.4850 C.3    11  C11         0.1812
     43  O5'       12.0570   16.9440    6.9100 O.3    11  C11        -0.3114
     44  C4'        9.8890   16.6360    5.8870 C.3    11  C11         0.1773
     45  O4'       10.3880   16.1100    4.6260 O.3    11  C11        -0.3307
     46  C3'        9.6080   15.3880    6.7080 C.3    11  C11         0.1860
     47  O3'        8.6520   15.6370    7.7240 O.3    11  C11        -0.3112
     48  C2'        9.0360   14.4460    5.6600 C.3    11  C11         0.2309
     49  O2'        7.6670   14.6870    5.4060 O.3    11  C11        -0.2156
     50  C1'        9.8920   14.7910    4.4390 C.3    11  C11         0.2420
     51  N1        11.0310   13.8670    4.2990 N.ar   11  C11        -0.2535
     52  C2        10.7760   12.5650    3.8640 C.ar   11  C11         0.3532
     53  O2         9.6120   12.2520    3.5850 O.2    11  C11        -0.2443
     54  N3        11.8050   11.6870    3.7450 N.ar   11  C11        -0.1739
     55  C4        13.0490   12.0790    4.0260 C.ar   11  C11         0.1759
     56  N4        14.0280   11.1850    3.8980 N.pl3  11  C11        -0.1070
     57  C5        13.3420   13.4080    4.4560 C.ar   11  C11         0.0566
     58  C6        12.3110   14.2600    4.5860 C.ar   11  C11         0.0850
     59  OP1       13.3100   18.7540    8.1140 O.3    11  C11        -0.4373
     60  OP2       14.5300   16.7240    7.1170 O.co2  11  C11        -0.5172
     61  P          8.6820   14.7650    9.0720 P.3    12  C12         0.2141
     62  C5'        6.5510   13.4420    8.2930 C.3    12  C12         0.1812
     63  O5'        7.9200   13.4280    8.6680 O.3    12  C12        -0.3114
     64  C4'        6.1060   12.0510    7.9390 C.3    12  C12         0.1773
     65  O4'        6.7420   11.6140    6.7020 O.3    12  C12        -0.3307
     66  C3'        6.5050   10.9830    8.9350 C.3    12  C12         0.1860
     67  O3'        5.6320   10.9850   10.0510 O.3    12  C12        -0.3112
     68  C2'        6.3770    9.7280    8.0890 C.3    12  C12         0.2309
     69  O2'        5.0220    9.4040    7.8960 O.3    12  C12        -0.2156
     70  C1'        6.9630   10.2090    6.7570 C.3    12  C12         0.2420
     71  N1         8.4100    9.9560    6.6250 N.ar   12  C12        -0.2535
     72  C2         8.8530    8.6720    6.2700 C.ar   12  C12         0.3532
     73  O2         8.0190    7.7760    6.0940 O.2    12  C12        -0.2443
     74  N3        10.1780    8.4440    6.1370 N.ar   12  C12        -0.1739
     75  C4        11.0470    9.4370    6.3430 C.ar   12  C12         0.1759
     76  N4        12.3400    9.1830    6.1840 N.pl3  12  C12        -0.1070
     77  C5        10.6250   10.7430    6.7180 C.ar   12  C12         0.0566
     78  C6         9.3110   10.9560    6.8460 C.ar   12  C12         0.0850
     79  OP1        7.9130   15.5210   10.0980 O.3    12  C12        -0.4373
     80  OP2       10.0780   14.3630    9.3660 O.co2  12  C12        -0.5172
     81  P          6.1390   10.4180   11.4750 P.3    13  G13         0.2141
     82  C5'        5.2030    8.0150   11.0160 C.3    13  G13         0.1812
     83  O5'        6.3380    8.8550   11.2140 O.3    13  G13        -0.3114
     84  C4'        5.6260    6.5810   10.7700 C.3    13  G13         0.1773
     85  O4'        6.3680    6.4560    9.5130 O.3    13  G13        -0.3307
     86  C3'        6.5740    5.9750   11.7920 C.3    13  G13         0.1860
     87  O3'        5.9440    5.6170   13.0240 O.3    13  G13        -0.3112
     88  C2'        7.1110    4.7800   11.0150 C.3    13  G13         0.2309
     89  O2'        6.1930    3.7110   10.9020 O.3    13  G13        -0.2156
     90  C1'        7.3210    5.4030    9.6330 C.3    13  G13         0.2408
     91  N1        12.2160    4.3130    8.7920 N.ar   13  G13        -0.1709
     92  C2        11.1210    3.4830    8.8190 C.ar   13  G13         0.2606
     93  N2        11.3570    2.1790    8.6120 N.pl3  13  G13        -0.0859
     94  N3         9.8810    3.8980    9.0320 N.ar   13  G13        -0.1918
     95  C4         9.8160    5.2270    9.2100 C.ar   13  G13         0.1723
     96  C5        10.8370    6.1530    9.1930 C.ar   13  G13         0.1748
     97  C6        12.1810    5.6890    8.9790 C.ar   13  G13         0.3023
     98  O6        13.2400    6.3450    8.9600 O.2    13  G13        -0.2633
     99  N7        10.3530    7.4300    9.4180 N.ar   13  G13        -0.2173
    100  C8         9.0680    7.2630    9.5850 C.ar   13  G13         0.1817
    101  N9         8.6780    5.9520    9.4790 N.ar   13  G13        -0.2693
    102  OP1        4.9730   10.5470   12.3880 O.3    13  G13        -0.4373
    103  OP2        7.4390   11.0370   11.8550 O.co2  13  G13        -0.5172
    104  P          6.8100    5.6210   14.3830 P.3    14  G14         0.2141
    105  C5'        7.2750    3.0850   13.8880 C.3    14  G14         0.1812
    106  O5'        7.7970    4.3860   14.1650 O.3    14  G14        -0.3114
    107  C4'        8.3850    2.1120   13.5480 C.3    14  G14         0.1773
    108  O4'        9.0600    2.5230   12.3260 O.3    14  G14        -0.3307
    109  C3'        9.5340    1.9670   14.5280 C.3    14  G14         0.1860
    110  O3'        9.2020    1.1770   15.6570 O.3    14  G14        -0.3112
    111  C2'       10.5640    1.2780   13.6460 C.3    14  G14         0.2309
    112  O2'       10.2490   -0.0810   13.3960 O.3    14  G14        -0.2156
    113  C1'       10.3990    2.0610   12.3440 C.3    14  G14         0.2408
    114  N1        15.1700    3.7010   11.5490 N.ar   14  G14        -0.1709
    115  C2        14.6890    2.4190   11.5570 C.ar   14  G14         0.2606
    116  N2        15.5900    1.4590   11.3170 N.pl3  14  G14        -0.0859
    117  N3        13.4170    2.1030   11.7780 N.ar   14  G14        -0.1918
    118  C4        12.6510    3.2000   11.9980 C.ar   14  G14         0.1723
    119  C5        13.0360    4.5220   12.0130 C.ar   14  G14         0.1748
    120  C6        14.4070    4.8440   11.7630 C.ar   14  G14         0.3023
    121  O6        14.9440    5.9570   11.7100 O.2    14  G14        -0.2633
    122  N7        11.9540    5.3460   12.2870 N.ar   14  G14        -0.2173
    123  C8        10.9480    4.5290   12.4290 C.ar   14  G14         0.1817
    124  N9        11.2920    3.2150   12.2620 N.ar   14  G14        -0.2693
    125  OP1        5.9480    5.3290   15.5490 O.3    14  G14        -0.4373
    126  OP2        7.6080    6.8640   14.3780 O.co2  14  G14        -0.5172
    127  P         10.1330    1.2460   16.9680 P.3    15  A15         0.2141
    128  C5'       11.5480   -0.8630   16.3560 C.3    15  A15         0.1812
    129  O5'       11.4890    0.5410   16.5190 O.3    15  A15        -0.3114
    130  C4'       12.9790   -1.3080   16.1990 C.3    15  A15         0.1773
    131  O4'       13.5450   -0.7010   15.0080 O.3    15  A15        -0.3307
    132  C3'       13.9310   -0.9350   17.3240 C.3    15  A15         0.1860
    133  O3'       13.8330   -1.9310   18.3470 O.3    15  A15        -0.3112
    134  C2'       15.2740   -0.9740   16.6000 C.3    15  A15         0.2309
    135  O2'       15.7140   -2.3010   16.4090 O.3    15  A15        -0.2156
    136  C1'       14.9090   -0.4000   15.2240 C.3    15  A15         0.2408
    137  N1        18.1630    3.5110   14.3620 N.ar   15  A15        -0.2040
    138  C2        18.3470    2.1890   14.3940 C.ar   15  A15         0.2016
    139  N3        17.4610    1.2200   14.6170 N.ar   15  A15        -0.2048
    140  C4        16.2350    1.7330   14.8190 C.ar   15  A15         0.1692
    141  C5        15.8870    3.0720   14.8080 C.ar   15  A15         0.1518
    142  C6        16.9140    3.9940   14.5780 C.ar   15  A15         0.1919
    143  N6        16.7220    5.3140   14.5690 N.pl3  15  A15        -0.1054
    144  N7        14.5320    3.2320   15.0370 N.ar   15  A15        -0.2193
    145  C8        14.0940    2.0090   15.1930 C.ar   15  A15         0.1816
    146  N9        15.0730    1.0500   15.0820 N.ar   15  A15        -0.2693
    147  OP1        9.5230    0.4090   18.0380 O.3    15  A15        -0.4373
    148  OP2       10.4410    2.6750   17.2410 O.co2  15  A15        -0.5172
    149  P         14.5070   -1.6960   19.7960 P.3    16  A16         0.2141
    150  C5'       17.0300   -1.9110   20.6080 C.3    16  A16         0.1812
    151  O5'       16.0720   -1.9210   19.5320 O.3    16  A16        -0.3114
    152  C4'       18.3740   -2.4270   20.1240 C.3    16  A16         0.1773
    153  O4'       18.1990   -3.7770   19.6610 O.3    16  A16        -0.3307
    154  C3'       18.9440   -1.6830   18.9260 C.3    16  A16         0.1860
    155  O3'       19.8920   -0.6670   19.3000 O.3    16  A16        -0.3112
    156  C2'       19.7380   -2.7380   18.1450 C.3    16  A16         0.2309
    157  O2'       21.1460   -2.6380   18.3760 O.3    16  A16        -0.2156
    158  C1'       19.1610   -4.0560   18.6730 C.3    16  A16         0.2408
    159  N1        20.2870   -7.7760   15.3430 N.ar   16  A16        -0.2040
    160  C2        21.0390   -7.0570   16.1910 C.ar   16  A16         0.2016
    161  N3        20.6700   -6.0960   17.0380 N.ar   16  A16        -0.2048
    162  C4        19.3400   -5.8920   16.9760 C.ar   16  A16         0.1692
    163  C5        18.4340   -6.5630   16.1710 C.ar   16  A16         0.1518
    164  C6        18.9570   -7.5430   15.3040 C.ar   16  A16         0.1919
    165  N6        18.2190   -8.2350   14.4470 N.pl3  16  A16        -0.1054
    166  N7        17.1490   -6.1060   16.3960 N.ar   16  A16        -0.2193
    167  C8        17.2980   -5.1720   17.3070 C.ar   16  A16         0.1816
    168  N9        18.5980   -4.9870   17.6960 N.ar   16  A16        -0.2693
    169  OP1       14.0530   -2.7970   20.6870 O.3    16  A16        -0.4373
    170  OP2       14.2370   -0.2930   20.1840 O.co2  16  A16        -0.5172
    171  P         20.4740   -0.5500   20.8120 P.3    17  A17         0.2141
    172  C5'       22.4220    0.7540   19.6390 C.3    17  A17         0.1812
    173  O5'       21.3800    0.7410   20.6240 O.3    17  A17        -0.3114
    174  C4'       22.2460    1.9130   18.6830 C.3    17  A17         0.1773
    175  O4'       21.2980    1.6010   17.6290 O.3    17  A17        -0.3307
    176  C3'       21.7560    3.2150   19.2860 C.3    17  A17         0.1860
    177  O3'       22.8520    3.9020   19.8700 O.3    17  A17        -0.3112
    178  C2'       21.2210    3.9250   18.0510 C.3    17  A17         0.2309
    179  O2'       22.2790    4.3890   17.2520 O.3    17  A17        -0.2156
    180  C1'       20.5520    2.7650   17.3110 C.3    17  A17         0.2408
    181  N1        15.8960    4.8040   18.0870 N.ar   17  A17        -0.2040
    182  C2        17.0480    5.3390   17.6830 C.ar   17  A17         0.2016
    183  N3        18.2260    4.7570   17.5010 N.ar   17  A17        -0.2048
    184  C4        18.1550    3.4530   17.7860 C.ar   17  A17         0.1692
    185  C5        17.0360    2.7540   18.2150 C.ar   17  A17         0.1518
    186  C6        15.8570    3.4860   18.3630 C.ar   17  A17         0.1919
    187  N6        14.7180    2.9490   18.7510 N.pl3  17  A17        -0.1054
    188  N7        17.3300    1.4140   18.4070 N.ar   17  A17        -0.2193
    189  C8        18.5970    1.3330   18.0910 C.ar   17  A17         0.1816
    190  N9        19.1600    2.5280   17.7110 N.ar   17  A17        -0.2693
    191  OP1       21.4100   -1.6590   21.0960 O.2    17  A17        -0.5172
    192  OP2       19.4210   -0.2270   21.8030 O.co2  17  A17        -0.4373
    193  P         22.6000    4.9830   21.0270 P.3    18  A18         0.2141
    194  C5'       24.9730    4.4830   22.0180 C.3    18  A18         0.1812
    195  O5'       24.0780    5.4220   21.4260 O.3    18  A18        -0.3114
    196  C4'       26.3880    4.9960   21.9600 C.3    18  A18         0.1773
    197  O4'       26.6080    5.5350   20.6320 O.3    18  A18        -0.3307
    198  C3'       26.7440    6.1670   22.8630 C.3    18  A18         0.1860
    199  O3'       27.1210    5.7110   24.1540 O.3    18  A18        -0.3112
    200  C2'       27.9770    6.7280   22.1630 C.3    18  A18         0.2309
    201  O2'       29.1500    5.9880   22.4510 O.3    18  A18        -0.2156
    202  C1'       27.6240    6.5190   20.6910 C.3    18  A18         0.2408
    203  N1        28.8960   10.4150   17.6210 N.ar   18  A18        -0.2040
    204  C2        29.5840    9.3560   18.0720 C.ar   18  A18         0.2016
    205  N3        29.1860    8.3730   18.8780 N.ar   18  A18        -0.2048
    206  C4        27.8980    8.5440   19.2310 C.ar   18  A18         0.1692
    207  C5        27.0640    9.5770   18.8500 C.ar   18  A18         0.1518
    208  C6        27.6100   10.5630   18.0070 C.ar   18  A18         0.1919
    209  N6        26.9330   11.6310   17.5770 N.pl3  18  A18        -0.1054
    210  N7        25.8030    9.4200   19.4130 N.ar   18  A18        -0.2193
    211  C8        25.9060    8.3150   20.1110 C.ar   18  A18         0.1816
    212  N9        27.1470    7.7340   20.0440 N.ar   18  A18        -0.2693
    213  OP1       22.0250    4.2910   22.2040 O.3    18  A18        -0.4373
    214  OP2       21.8870    6.1470   20.4300 O.co2  18  A18        -0.5172
    215  P         26.1930    6.0400   25.4230 P.3    19  G19         0.2141
    216  C5'       27.0310    8.5250   25.4080 C.3    19  G19         0.1812
    217  O5'       25.9500    7.6120   25.3710 O.3    19  G19        -0.3114
    218  C4'       26.6950    9.7390   24.5820 C.3    19  G19         0.1773
    219  O4'       26.0270    9.2700   23.3800 O.3    19  G19        -0.3307
    220  C3'       25.6830   10.7090   25.1680 C.3    19  G19         0.1860
    221  O3'       26.2850   11.6430   26.0430 O.3    19  G19        -0.3112
    222  C2'       25.1800   11.3900   23.9120 C.3    19  G19         0.2309
    223  O2'       26.1420   12.2360   23.3280 O.3    19  G19        -0.2156
    224  C1'       24.9940   10.1760   23.0190 C.3    19  G19         0.2408
    225  N1        19.9990   10.8200   22.8820 N.ar   19  G19        -0.1709
    226  C2        21.0090   11.6760   22.5250 C.ar   19  G19         0.2606
    227  N2        20.6430   12.8740   22.0640 N.pl3  19  G19        -0.0859
    228  N3        22.2930   11.3800   22.6150 N.ar   19  G19        -0.1918
    229  C4        22.4900   10.1450   23.1040 C.ar   19  G19         0.1723
    230  C5        21.5610    9.2130   23.5010 C.ar   19  G19         0.1748
    231  C6        20.1820    9.5390   23.3900 C.ar   19  G19         0.3023
    232  O6        19.2040    8.8500   23.6740 O.2    19  G19        -0.2633
    233  N7        22.1820    8.0610   23.9610 N.ar   19  G19        -0.2173
    234  C8        23.4560    8.3110   23.8240 C.ar   19  G19         0.1817
    235  N9        23.7050    9.5580   23.3050 N.ar   19  G19        -0.2693
    236  OP1       27.0030    5.7510   26.6240 O.3    19  G19        -0.4373
    237  OP2       24.8710    5.3700   25.2480 O.co2  19  G19        -0.5172
    238  P         25.4720   12.1730   27.3220 P.3    20  U20         0.2141
    239  C5'       25.1930   14.4570   26.0480 C.3    20  U20         0.1812
    240  O5'       24.6000   13.3860   26.7740 O.3    20  U20        -0.3114
    241  C4'       24.1180   15.3970   25.5650 C.3    20  U20         0.1773
    242  O4'       23.2390   14.6600   24.6800 O.3    20  U20        -0.3307
    243  C3'       23.1830   15.9080   26.6490 C.3    20  U20         0.1860
    244  O3'       23.7440   17.0350   27.3280 O.3    20  U20        -0.3112
    245  C2'       21.9240   16.2510   25.8560 C.3    20  U20         0.2309
    246  O2'       21.9880   17.4950   25.2020 O.3    20  U20        -0.2156
    247  C1'       21.9120   15.1440   24.8050 C.3    20  U20         0.2420
    248  N1        21.0150   14.0200   25.1140 N.ar   20  U20        -0.2534
    249  C2        19.6560   14.2180   24.9200 C.ar   20  U20         0.3546
    250  O2        19.1980   15.2630   24.4990 O.2    20  U20        -0.2443
    251  N3        18.8560   13.1430   25.2310 N.ar   20  U20        -0.1530
    252  C4        19.2720   11.9150   25.6980 C.ar   20  U20         0.2846
    253  O4        18.4390   11.0430   25.9200 O.2    20  U20        -0.2650
    254  C5        20.6900   11.7830   25.8650 C.ar   20  U20         0.0814
    255  C6        21.4940   12.8150   25.5760 C.ar   20  U20         0.0870
    256  OP1       26.5160   12.6990   28.2320 O.3    20  U20        -0.4373
    257  OP2       24.5250   11.1230   27.7970 O.co2  20  U20        -0.5172
    258  P         23.6930   17.1140   28.9440 P.3    21  C21         0.2141
    259  C5'       21.6520   18.7460   28.6850 C.3    21  C21         0.1812
    260  O5'       22.2040   17.5760   29.2740 O.3    21  C21        -0.3114
    261  C4'       20.1630   18.5790   28.5110 C.3    21  C21         0.1773
    262  O4'       19.9200   17.4080   27.6840 O.3    21  C21        -0.3307
    263  C3'       19.3750   18.2520   29.7690 C.3    21  C21         0.1860
    264  O3'       19.1350   19.4040   30.5710 O.3    21  C21        -0.3112
    265  C2'       18.0980   17.6510   29.1880 C.3    21  C21         0.2309
    266  O2'       17.2050   18.6190   28.6720 O.3    21  C21        -0.2156
    267  C1'       18.6640   16.8350   28.0250 C.3    21  C21         0.2420
    268  N1        18.8430   15.4000   28.3300 N.ar   21  C21        -0.2535
    269  C2        17.7050   14.5980   28.3860 C.ar   21  C21         0.3532
    270  O2        16.6040   15.1260   28.2150 O.2    21  C21        -0.2443
    271  N3        17.8300   13.2760   28.6300 N.ar   21  C21        -0.1739
    272  C4        19.0370   12.7470   28.8220 C.ar   21  C21         0.1759
    273  N4        19.1070   11.4290   29.0430 N.pl3  21  C21        -0.1070
    274  C5        20.2240   13.5440   28.7910 C.ar   21  C21         0.0566
    275  C6        20.0810   14.8560   28.5440 C.ar   21  C21         0.0850
    276  OP1       24.6170   18.2030   29.3580 O.2    21  C21        -0.5172
    277  OP2       23.8600   15.7510   29.5190 O.co2  21  C21        -0.4373
    278  P         19.2860   19.3010   32.1690 P.3    22  G22         0.2141
    279  C5'       16.6880   19.4050   32.5020 C.3    22  G22         0.1812
    280  O5'       17.8990   18.6650   32.6430 O.3    22  G22        -0.3114
    281  C4'       15.4770   18.4960   32.5650 C.3    22  G22         0.1773
    282  O4'       15.5500   17.4970   31.5130 O.3    22  G22        -0.3307
    283  C3'       15.2790   17.6650   33.8230 C.3    22  G22         0.1860
    284  O3'       14.7270   18.4270   34.8970 O.3    22  G22        -0.3112
    285  C2'       14.3140   16.5870   33.3310 C.3    22  G22         0.2309
    286  O2'       12.9540   16.9790   33.2840 O.3    22  G22        -0.2156
    287  C1'       14.8340   16.3400   31.9150 C.3    22  G22         0.2408
    288  N1        15.1040   11.3260   32.3240 N.ar   22  G22        -0.1709
    289  C2        14.0140   12.1600   32.3700 C.ar   22  G22         0.2606
    290  N2        12.8240   11.5770   32.5620 N.pl3  22  G22        -0.0859
    291  N3        14.0820   13.4680   32.2370 N.ar   22  G22        -0.1918
    292  C4        15.3460   13.8920   32.0470 C.ar   22  G22         0.1723
    293  C5        16.5080   13.1490   31.9810 C.ar   22  G22         0.1748
    294  C6        16.4230   11.7360   32.1350 C.ar   22  G22         0.3023
    295  O6        17.3350   10.8960   32.1280 O.2    22  G22        -0.2633
    296  N7        17.6060   13.9730   31.7660 N.ar   22  G22        -0.2173
    297  C8        17.0960   15.1770   31.7120 C.ar   22  G22         0.1817
    298  N9        15.7300   15.1920   31.8840 N.ar   22  G22        -0.2693
    299  OP1       19.3510   20.7010   32.6590 O.3    22  G22        -0.4373
    300  OP2       20.3970   18.3590   32.4890 O.co2  22  G22        -0.5172
    301  P         14.9220   17.9230   36.4170 P.3    23  C23         0.2141
    302  C5'       12.5640   16.7520   36.2900 C.3    23  C23         0.1813
    303  O5'       13.9690   16.6430   36.5280 O.3    23  C23        -0.3114
    304  C4'       11.8860   15.3960   36.3860 C.3    23  C23         0.1801
    305  O4'       12.3290   14.5260   35.3100 O.3    23  C23        -0.3306
    306  C3'       12.1250   14.5640   37.6380 C.3    23  C23         0.2161
    307  O3'       11.4530   14.9960   38.8320 O.3    23  C23        -0.2175
    308  C2'       11.7060   13.1770   37.1650 C.3    23  C23         0.2338
    309  O2'       10.2990   13.0290   37.0970 O.3    23  C23        -0.2155
    310  C1'       12.2680   13.1690   35.7410 C.3    23  C23         0.2421
    311  N1        13.6220   12.5950   35.6510 N.ar   23  C23        -0.2535
    312  C2        13.7950   11.1950   35.7340 C.ar   23  C23         0.3532
    313  O2        12.8000   10.4630   35.8920 O.2    23  C23        -0.2443
    314  N3        15.0440   10.6820   35.6380 N.ar   23  C23        -0.1739
    315  C4        16.0910   11.5000   35.4660 C.ar   23  C23         0.1759
    316  N4        17.3080   10.9560   35.3670 N.pl3  23  C23        -0.1070
    317  C5        15.9400   12.9160   35.3850 C.ar   23  C23         0.0566
    318  C6        14.7030   13.4140   35.4830 C.ar   23  C23         0.0850
    319  OP1       14.4000   18.9970   37.3050 O.3    23  C23        -0.4373
    320  OP2       16.3280   17.4680   36.5760 O.co2  23  C23        -0.5172
    321  P         19.4200   -0.0420   33.6710 P.3    26  G26         0.1280
    322  C5'       16.8160    0.2890   33.1560 C.3    26  G26         0.1795
    323  O5'       17.8380   -0.2320   34.0310 O.3    26  G26        -0.3259
    324  C4'       15.6240    0.7660   33.9570 C.3    26  G26         0.1772
    325  O4'       16.0740    1.4910   35.1340 O.3    26  G26        -0.3307
    326  C3'       14.7150    1.7350   33.2140 C.3    26  G26         0.1860
    327  O3'       13.7520    1.0160   32.4430 O.3    26  G26        -0.3112
    328  C2'       14.0870    2.5450   34.3480 C.3    26  G26         0.2309
    329  O2'       12.9700    1.9200   34.9480 O.3    26  G26        -0.2156
    330  C1'       15.2360    2.6130   35.3590 C.3    26  G26         0.2408
    331  N1        15.5010    7.6980   35.7130 N.ar   26  G26        -0.1709
    332  C2        14.4240    6.8790   35.9310 C.ar   26  G26         0.2606
    333  N2        13.2810    7.4990   36.2830 N.pl3  26  G26        -0.0859
    334  N3        14.4640    5.5550   35.8130 N.ar   26  G26        -0.1918
    335  C4        15.6930    5.1170   35.4500 C.ar   26  G26         0.1723
    336  C5        16.8310    5.8590   35.2100 C.ar   26  G26         0.1748
    337  C6        16.7710    7.2690   35.3380 C.ar   26  G26         0.3023
    338  O6        17.6730    8.0960   35.1570 O.2    26  G26        -0.2633
    339  N7        17.8940    5.0360   34.8630 N.ar   26  G26        -0.2173
    340  C8        17.3950    3.8330   34.8930 C.ar   26  G26         0.1817
    341  N9        16.0660    3.8060   35.2410 N.ar   26  G26        -0.2693
    342  OP1       19.5730   -0.5460   32.2430 O.3    26  G26        -0.1955
    343  OP2       19.6930    1.4490   33.7960 O.co2  26  G26        -0.7863
    344  P         13.3590    1.5270   30.9660 P.3    27  C27         0.2141
    345  C5'       11.2360    2.8010   31.8440 C.3    27  C27         0.1812
    346  O5'       12.5240    2.8590   31.2360 O.3    27  C27        -0.3114
    347  C4'       10.6850    4.1920   32.0570 C.3    27  C27         0.1773
    348  O4'       11.4830    4.8870   33.0510 O.3    27  C27        -0.3307
    349  C3'       10.7130    5.1210   30.8530 C.3    27  C27         0.1860
    350  O3'        9.6210    4.8700   29.9710 O.3    27  C27        -0.3112
    351  C2'       10.6370    6.4970   31.5130 C.3    27  C27         0.2309
    352  O2'        9.3370    6.9040   31.8930 O.3    27  C27        -0.2156
    353  C1'       11.4860    6.2780   32.7670 C.3    27  C27         0.2420
    354  N1        12.8770    6.7140   32.5840 N.ar   27  C27        -0.2535
    355  C2        13.1920    8.0640   32.7930 C.ar   27  C27         0.3532
    356  O2        12.2830    8.8550   33.1140 O.2    27  C27        -0.2443
    357  N3        14.4740    8.4740   32.6400 N.ar   27  C27        -0.1739
    358  C4        15.4180    7.6000   32.2900 C.ar   27  C27         0.1759
    359  N4        16.6670    8.0540   32.1590 N.pl3  27  C27        -0.1070
    360  C5        15.1230    6.2220   32.0610 C.ar   27  C27         0.0566
    361  C6        13.8510    5.8270   32.2180 C.ar   27  C27         0.0850
    362  OP1       12.4340    0.5120   30.3880 O.3    27  C27        -0.4373
    363  OP2       14.5990    1.8880   30.2280 O.co2  27  C27        -0.5172
    364  P          9.8140    5.0590   28.3810 P.3    28  G28         0.2141
    365  C5'        8.5070    7.3270   28.5500 C.3    28  G28         0.1812
    366  O5'        9.6870    6.6320   28.1600 O.3    28  G28        -0.3114
    367  C4'        8.7750    8.8090   28.6510 C.3    28  G28         0.1773
    368  O4'        9.7620    9.0490   29.6870 O.3    28  G28        -0.3307
    369  C3'        9.3710    9.4680   27.4180 C.3    28  G28         0.1860
    370  O3'        8.3570    9.8210   26.4860 O.3    28  G28        -0.3112
    371  C2'       10.0130   10.7140   28.0090 C.3    28  G28         0.2309
    372  O2'        9.0700   11.7410   28.2300 O.3    28  G28        -0.2156
    373  C1'       10.5390   10.1850   29.3460 C.3    28  G28         0.2408
    374  N1        15.3420   11.7800   29.0170 N.ar   28  G28        -0.1709
    375  C2        14.1790   12.5080   29.0680 C.ar   28  G28         0.2606
    376  N2        14.3090   13.8380   29.0190 N.pl3  28  G28        -0.0859
    377  N3        12.9760   11.9730   29.1600 N.ar   28  G28        -0.1918
    378  C4        13.0240   10.6270   29.1970 C.ar   28  G28         0.1723
    379  C5        14.1280    9.8030   29.1530 C.ar   28  G28         0.1748
    380  C6        15.4200   10.3920   29.0540 C.ar   28  G28         0.3023
    381  O6        16.5310    9.8290   29.0000 O.2    28  G28        -0.2633
    382  N7        13.7490    8.4690   29.2170 N.ar   28  G28        -0.2173
    383  C8        12.4460    8.5070   29.2990 C.ar   28  G28         0.1817
    384  N9        11.9420    9.7850   29.2870 N.ar   28  G28        -0.2693
    385  OP1        8.6520    4.4060   27.7400 O.2    28  G28        -0.5172
    386  OP2       11.1890    4.6520   27.9880 O.co2  28  G28        -0.4373
    387  P          8.7180    9.9630   24.9250 P.3    29  U29         0.2141
    388  C5'        9.3810   12.5050   25.0160 C.3    29  U29         0.1812
    389  O5'        9.7890   11.1450   24.8790 O.3    29  U29        -0.3114
    390  C4'       10.5570   13.4420   24.8130 C.3    29  U29         0.1773
    391  O4'       11.5410   13.2260   25.8610 O.3    29  U29        -0.3307
    392  C3'       11.3540   13.2970   23.5240 C.3    29  U29         0.1860
    393  O3'       10.7400   13.9800   22.4300 O.3    29  U29        -0.3112
    394  C2'       12.6800   13.9480   23.9050 C.3    29  U29         0.2309
    395  O2'       12.6250   15.3610   23.8430 O.3    29  U29        -0.2156
    396  C1'       12.8420   13.4930   25.3600 C.3    29  U29         0.2420
    397  N1        13.6530   12.2740   25.5080 N.ar   29  U29        -0.2534
    398  C2        15.0360   12.3920   25.4540 C.ar   29  U29         0.3546
    399  O2        15.6170   13.4550   25.3120 O.2    29  U29        -0.2443
    400  N3        15.7190   11.2080   25.5730 N.ar   29  U29        -0.1530
    401  C4        15.1880    9.9500   25.7410 C.ar   29  U29         0.2846
    402  O4        15.9430    8.9810   25.8130 O.2    29  U29        -0.2650
    403  C5        13.7580    9.9100   25.8020 C.ar   29  U29         0.0814
    404  C6        13.0570   11.0440   25.6880 C.ar   29  U29         0.0870
    405  OP1        7.4810   10.4340   24.2430 O.2    29  U29        -0.5172
    406  OP2        9.3690    8.7040   24.4750 O.co2  29  U29        -0.4373
    407  P         10.8250   13.3510   20.9480 P.3    30  C30         0.2141
    408  C5'       12.2650   15.3960   20.1390 C.3    30  C30         0.1812
    409  O5'       12.1390   13.9880   20.3040 O.3    30  C30        -0.3114
    410  C4'       13.7160   15.8040   20.2250 C.3    30  C30         0.1773
    411  O4'       14.2810   15.3180   21.4730 O.3    30  C30        -0.3307
    412  C3'       14.6170   15.1970   19.1700 C.3    30  C30         0.1860
    413  O3'       14.5400   15.9570   17.9740 O.3    30  C30        -0.3112
    414  C2'       15.9920   15.2820   19.8240 C.3    30  C30         0.2309
    415  O2'       16.5920   16.5570   19.7200 O.3    30  C30        -0.2156
    416  C1'       15.6480   14.9820   21.2830 C.3    30  C30         0.2420
    417  N1        15.8430   13.5660   21.6390 N.ar   30  C30        -0.2535
    418  C2        17.1450   13.1000   21.8180 C.ar   30  C30         0.3532
    419  O2        18.0830   13.9010   21.7000 O.2    30  C30        -0.2443
    420  N3        17.3490   11.7930   22.1140 N.ar   30  C30        -0.1739
    421  C4        16.3100   10.9660   22.2370 C.ar   30  C30         0.1759
    422  N4        16.5610    9.6830   22.5070 N.pl3  30  C30        -0.1070
    423  C5        14.9670   11.4200   22.0810 C.ar   30  C30         0.0566
    424  C6        14.7810   12.7160   21.7840 C.ar   30  C30         0.0850
    425  OP1        9.6660   13.8460   20.1630 O.2    30  C30        -0.5172
    426  OP2       11.0400   11.8870   21.0890 O.co2  30  C30        -0.4373
    427  P         15.1550   15.3640   16.6180 P.3    31  G31         0.2141
    428  C5'       17.6590   14.8110   16.0640 C.3    31  G31         0.1812
    429  O5'       16.7240   15.5680   16.8140 O.3    31  G31        -0.3114
    430  C4'       19.0000   14.7640   16.7690 C.3    31  G31         0.1773
    431  O4'       18.8420   14.3380   18.1510 O.3    31  G31        -0.3307
    432  C3'       19.9480   13.7580   16.1430 C.3    31  G31         0.1860
    433  O3'       20.6740   14.3840   15.0910 O.3    31  G31        -0.3112
    434  C2'       20.8350   13.3550   17.3130 C.3    31  G31         0.2309
    435  O2'       21.8710   14.2890   17.5130 O.3    31  G31        -0.2156
    436  C1'       19.8540   13.4000   18.4890 C.3    31  G31         0.2408
    437  N1        20.2900    8.4910   19.9370 N.ar   31  G31        -0.1709
    438  C2        21.2820    9.4080   19.7450 C.ar   31  G31         0.2606
    439  N2        22.5180    8.9620   19.9580 N.pl3  31  G31        -0.0859
    440  N3        21.0710   10.6680   19.3720 N.ar   31  G31        -0.1918
    441  C4        19.7550   10.9290   19.2080 C.ar   31  G31         0.1723
    442  C5        18.6870   10.0710   19.3790 C.ar   31  G31         0.1748
    443  C6        18.9320    8.7350   19.7700 C.ar   31  G31         0.3023
    444  O6        18.1150    7.8270   19.9610 O.2    31  G31        -0.2633
    445  N7        17.4900   10.7110   19.1110 N.ar   31  G31        -0.2173
    446  C8        17.8340   11.9250   18.7810 C.ar   31  G31         0.1817
    447  N9        19.1890   12.1350   18.8130 N.ar   31  G31        -0.2693
    448  OP1       14.6870   16.2460   15.5180 O.2    31  G31        -0.5172
    449  OP2       14.8400   13.9090   16.5850 O.co2  31  G31        -0.4373
    450  P         20.7090   13.7130   13.6280 P.3    32  C32         0.2141
    451  C5'       23.2290   13.1300   14.0570 C.3    32  C32         0.1812
    452  O5'       21.9220   12.6880   13.7230 O.3    32  C32        -0.3114
    453  C4'       24.0620   11.9660   14.5330 C.3    32  C32         0.1773
    454  O4'       23.5690   11.5140   15.8230 O.3    32  C32        -0.3307
    455  C3'       24.0190   10.7140   13.6680 C.3    32  C32         0.1860
    456  O3'       24.8950   10.7770   12.5490 O.3    32  C32        -0.3112
    457  C2'       24.4600    9.6430   14.6540 C.3    32  C32         0.2309
    458  O2'       25.8560    9.6240   14.8330 O.3    32  C32        -0.2156
    459  C1'       23.7610   10.1090   15.9340 C.3    32  C32         0.2420
    460  N1        22.4470    9.4610   16.1240 N.ar   32  C32        -0.2535
    461  C2        22.4110    8.1110   16.4860 C.ar   32  C32         0.3532
    462  O2        23.4830    7.4990   16.6230 O.2    32  C32        -0.2443
    463  N3        21.2150    7.5060   16.6710 N.ar   32  C32        -0.1739
    464  C4        20.0910    8.1970   16.5050 C.ar   32  C32         0.1759
    465  N4        18.9370    7.5690   16.7090 N.pl3  32  C32        -0.1070
    466  C5        20.0990    9.5690   16.1250 C.ar   32  C32         0.0566
    467  C6        21.2860   10.1570   15.9500 C.ar   32  C32         0.0850
    468  OP1       21.0750   14.7740   12.6520 O.2    32  C32        -0.5172
    469  OP2       19.4710   12.9260   13.4140 O.co2  32  C32        -0.4373
    470  P         24.4850   10.0440   11.1770 P.3    33  U33         0.2141
    471  C5'       25.7650    7.8140   11.6940 C.3    33  U33         0.1812
    472  O5'       24.5230    8.4890   11.5230 O.3    33  U33        -0.3114
    473  C4'       25.5340    6.3450   11.9420 C.3    33  U33         0.1773
    474  O4'       24.8560    6.1440   13.2150 O.3    33  U33        -0.3307
    475  C3'       24.6440    5.6500   10.9300 C.3    33  U33         0.1860
    476  O3'       25.4120    5.2860    9.7940 O.3    33  U33        -0.3112
    477  C2'       24.1650    4.4410   11.7270 C.3    33  U33         0.2309
    478  O2'       25.1620    3.4460   11.8390 O.3    33  U33        -0.2156
    479  C1'       23.9450    5.0640   13.1090 C.3    33  U33         0.2420
    480  N1        22.5890    5.5980   13.3000 N.ar   33  U33        -0.2534
    481  C2        21.6060    4.7180   13.6880 C.ar   33  U33         0.3546
    482  O2        21.8230    3.5270   13.8580 O.2    33  U33        -0.2443
    483  N3        20.3590    5.2770   13.8560 N.ar   33  U33        -0.1530
    484  C4        20.0080    6.5950   13.6520 C.ar   33  U33         0.2846
    485  O4        18.8200    6.9280   13.7140 O.2    33  U33        -0.2650
    486  C5        21.0870    7.4390   13.2520 C.ar   33  U33         0.0814
    487  C6        22.3060    6.9280   13.0960 C.ar   33  U33         0.0870
    488  OP1       25.5540   10.2870   10.1700 O.2    33  U33        -0.5172
    489  OP2       23.0890   10.4420   10.8700 O.co2  33  U33        -0.4373
    490  P         24.6890    5.0840    8.3750 P.3    34  C34         0.2141
    491  C5'       24.0890    2.6000    8.9590 C.3    34  C34         0.1812
    492  O5'       23.6420    3.9210    8.6770 O.3    34  C34        -0.3114
    493  C4'       22.9230    1.7160    9.3040 C.3    34  C34         0.1773
    494  O4'       22.2740    2.2150   10.5010 O.3    34  C34        -0.3307
    495  C3'       21.7830    1.6650    8.3010 C.3    34  C34         0.1860
    496  O3'       22.0650    0.7750    7.2420 O.3    34  C34        -0.3112
    497  C2'       20.6690    1.0990    9.1610 C.3    34  C34         0.2309
    498  O2'       20.8590   -0.2820    9.3720 O.3    34  C34        -0.2156
    499  C1'       20.8970    1.8600   10.4660 C.3    34  C34         0.2420
    500  N1        20.0920    3.0890   10.5260 N.ar   34  C34        -0.2535
    501  C2        18.7920    3.0060   11.0260 C.ar   34  C34         0.3532
    502  O2        18.3550    1.8990   11.3490 O.2    34  C34        -0.2443
    503  N3        18.0470    4.1290   11.1370 N.ar   34  C34        -0.1739
    504  C4        18.5540    5.3020   10.7520 C.ar   34  C34         0.1759
    505  N4        17.7880    6.3920   10.8920 N.pl3  34  C34        -0.1070
    506  C5        19.8720    5.4110   10.2110 C.ar   34  C34         0.0566
    507  C6        20.5970    4.2910   10.1160 C.ar   34  C34         0.0850
    508  OP1       25.7150    4.5570    7.4310 O.2    34  C34        -0.5172
    509  OP2       23.9330    6.3080    8.0140 O.co2  34  C34        -0.4373
    510  P         21.3000    0.9360    5.8430 P.3    35  C35         0.2141
    511  C5'       19.6110   -0.9610    6.4520 C.3    35  C35         0.1812
    512  O5'       19.8340    0.4120    6.1640 O.3    35  C35        -0.3114
    513  C4'       18.1480   -1.2200    6.6960 C.3    35  C35         0.1773
    514  O4'       17.7080   -0.5550    7.9140 O.3    35  C35        -0.3307
    515  C3'       17.1720   -0.6910    5.6580 C.3    35  C35         0.1860
    516  O3'       17.1160   -1.5080    4.4980 O.3    35  C35        -0.3112
    517  C2'       15.8740   -0.7560    6.4440 C.3    35  C35         0.2309
    518  O2'       15.4770   -2.1010    6.6320 O.3    35  C35        -0.2156
    519  C1'       16.3370   -0.2010    7.7880 C.3    35  C35         0.2420
    520  N1        16.2160    1.2660    7.8710 N.ar   35  C35        -0.2535
    521  C2        14.9430    1.8230    8.0200 C.ar   35  C35         0.3532
    522  O2        13.9660    1.0740    7.9990 O.2    35  C35        -0.2443
    523  N3        14.8130    3.1600    8.1720 N.ar   35  C35        -0.1739
    524  C4        15.8900    3.9380    8.1530 C.ar   35  C35         0.1759
    525  N4        15.7150    5.2450    8.3150 N.pl3  35  C35        -0.1070
    526  C5        17.2020    3.4060    7.9650 C.ar   35  C35         0.0566
    527  C6        17.3190    2.0760    7.8280 C.ar   35  C35         0.0850
    528  OP1       21.9400   -0.0490    4.9330 O.2    35  C35        -0.5172
    529  OP2       21.2140    2.3660    5.4300 O.co2  35  C35        -0.4373
    530  P         16.8300   -0.8300    3.0690 P.3    36  G36         0.2141
    531  C5'       14.2850   -1.5340    3.2070 C.3    36  G36         0.1812
    532  O5'       15.2630   -0.5010    3.0860 O.3    36  G36        -0.3114
    533  C4'       12.9070   -0.9470    3.4600 C.3    36  G36         0.1773
    534  O4'       12.8730   -0.2420    4.7350 O.3    36  G36        -0.3307
    535  C3'       12.3930    0.1040    2.4860 C.3    36  G36         0.1860
    536  O3'       11.9140   -0.4560    1.2710 O.3    36  G36        -0.3112
    537  C2'       11.2570    0.7320    3.2880 C.3    36  G36         0.2309
    538  O2'       10.0790   -0.0550    3.3150 O.3    36  G36        -0.2156
    539  C1'       11.8770    0.7840    4.6850 C.3    36  G36         0.2408
    540  N1        11.1250    5.6850    5.7690 N.ar   36  G36        -0.1709
    541  C2        10.2270    4.6480    5.7690 C.ar   36  G36         0.2606
    542  N2         8.9560    4.9800    6.0500 N.pl3  36  G36        -0.0859
    543  N3        10.5540    3.3850    5.5140 N.ar   36  G36        -0.1918
    544  C4        11.8700    3.2510    5.2510 C.ar   36  G36         0.1723
    545  C5        12.8520    4.2220    5.2380 C.ar   36  G36         0.1748
    546  C6        12.4880    5.5660    5.5160 C.ar   36  G36         0.3023
    547  O6        13.2080    6.5670    5.5530 O.2    36  G36        -0.2633
    548  N7        14.0910    3.6700    4.9310 N.ar   36  G36        -0.2173
    549  C8        13.8420    2.4030    4.7470 C.ar   36  G36         0.1817
    550  N9        12.5090    2.0850    4.9000 N.ar   36  G36        -0.2693
    551  OP1       17.1350   -1.8860    2.0680 O.2    36  G36        -0.5172
    552  OP2       17.5530    0.4710    3.0060 O.co2  36  G36        -0.4373
    553  P         11.8590    0.4530   -0.0540 P.3    37  G37         0.2141
    554  C5'        9.4180    1.3030    0.3580 C.3    37  G37         0.1812
    555  O5'       10.8010    1.6000    0.2790 O.3    37  G37        -0.3114
    556  C4'        8.6320    2.5140    0.8090 C.3    37  G37         0.1773
    557  O4'        9.1290    2.9890    2.0960 O.3    37  G37        -0.3307
    558  C3'        8.6740    3.7690   -0.0510 C.3    37  G37         0.1860
    559  O3'        7.8430    3.6430   -1.2060 O.3    37  G37        -0.3112
    560  C2'        8.1260    4.7920    0.9430 C.3    37  G37         0.2309
    561  O2'        6.7370    4.6520    1.1860 O.3    37  G37        -0.2156
    562  C1'        8.8620    4.3810    2.2210 C.3    37  G37         0.2408
    563  N1        11.0770    8.9010    2.8560 N.ar   37  G37        -0.1709
    564  C2         9.7450    8.5740    2.8600 C.ar   37  G37         0.2606
    565  N2         8.8900    9.5870    3.0440 N.pl3  37  G37        -0.0859
    566  N3         9.2830    7.3420    2.6990 N.ar   37  G37        -0.1918
    567  C4        10.2810    6.4460    2.5370 C.ar   37  G37         0.1723
    568  C5        11.6420    6.6660    2.5230 C.ar   37  G37         0.1748
    569  C6        12.1210    8.0020    2.6900 C.ar   37  G37         0.3023
    570  O6        13.2880    8.4130    2.6990 O.2    37  G37        -0.2633
    571  N7        12.3330    5.4710    2.3470 N.ar   37  G37        -0.2173
    572  C8        11.3950    4.5680    2.2440 C.ar   37  G37         0.1817
    573  N9        10.1280    5.0930    2.3380 N.ar   37  G37        -0.2693
    574  OP1       11.2920   -0.4110   -1.1090 O.2    37  G37        -0.5172
    575  OP2       13.1800    1.1040   -0.2640 O.co2  37  G37        -0.4373
    576  P          8.3200    4.2520   -2.6270 P.3    38  A38         0.2141
    577  C5'        6.6700    6.2030   -2.1460 C.3    38  A38         0.1812
    578  O5'        7.9870    5.8030   -2.4980 O.3    38  A38        -0.3114
    579  C4'        6.6430    7.6400   -1.6850 C.3    38  A38         0.1773
    580  O4'        7.5300    7.8170   -0.5500 O.3    38  A38        -0.3307
    581  C3'        7.0940    8.6990   -2.6780 C.3    38  A38         0.1860
    582  O3'        6.0250    9.0090   -3.5790 O.3    38  A38        -0.3112
    583  C2'        7.4010    9.8710   -1.7450 C.3    38  A38         0.2309
    584  O2'        6.2250   10.5480   -1.3330 O.3    38  A38        -0.2156
    585  C1'        7.9990    9.1550   -0.5250 C.3    38  A38         0.2408
    586  N1        12.3140   11.8540    0.3850 N.ar   38  A38        -0.2040
    587  C2        11.0290   12.2200    0.2980 C.ar   38  A38         0.2016
    588  N3         9.9540   11.4790    0.0370 N.ar   38  A38        -0.2048
    589  C4        10.3000   10.1990   -0.1650 C.ar   38  A38         0.1692
    590  C5        11.5790    9.6730   -0.1210 C.ar   38  A38         0.1518
    591  C6        12.6280   10.5600    0.1840 C.ar   38  A38         0.1919
    592  N6        13.9080   10.1910    0.2980 N.pl3  38  A38        -0.1054
    593  N7        11.5590    8.3140   -0.3910 N.ar   38  A38        -0.2193
    594  C8        10.2900    8.0470   -0.5770 C.ar   38  A38         0.1816
    595  N9         9.4660    9.1370   -0.4370 N.ar   38  A38        -0.2693
    596  OP1        7.3770    3.6870   -3.6250 O.2    38  A38        -0.5172
    597  OP2        9.7860    4.0770   -2.8270 O.co2  38  A38        -0.4373
    598  P          6.3410    9.3900   -5.1170 P.3    39  A39         0.2141
    599  C5'        6.0480   11.9480   -4.5700 C.3    39  A39         0.1813
    600  O5'        6.8900   10.8860   -5.0250 O.3    39  A39        -0.3114
    601  C4'        6.8570   13.2080   -4.3330 C.3    39  A39         0.1801
    602  O4'        7.7590   13.0100   -3.2190 O.3    39  A39        -0.3306
    603  C3'        7.7460   13.6640   -5.4770 C.3    39  A39         0.2161
    604  O3'        6.9860   14.4820   -6.3600 O.3    39  A39        -0.2175
    605  C2'        8.7970   14.4960   -4.7540 C.3    39  A39         0.2337
    606  O2'        8.3340   15.8010   -4.4800 O.3    39  A39        -0.2155
    607  C1'        8.9540   13.7300   -3.4390 C.3    39  A39         0.2409
    608  N1        13.9650   12.9520   -2.4900 N.ar   39  A39        -0.2040
    609  C2        13.1990   14.0490   -2.4050 C.ar   39  A39         0.2016
    610  N3        11.9000   14.1940   -2.6710 N.ar   39  A39        -0.2048
    611  C4        11.3640   13.0240   -3.0700 C.ar   39  A39         0.1692
    612  C5        12.0250   11.8150   -3.2050 C.ar   39  A39         0.1518
    613  C6        13.3970   11.7970   -2.9010 C.ar   39  A39         0.1919
    614  N6        14.1560   10.7100   -3.0000 N.pl3  39  A39        -0.1054
    615  N7        11.1490   10.8220   -3.6320 N.ar   39  A39        -0.2193
    616  C8         9.9990   11.4420   -3.7420 C.ar   39  A39         0.1816
    617  N9        10.0550   12.7750   -3.4200 N.ar   39  A39        -0.2693
    618  OP1        5.0380    9.4280   -5.8410 O.2    39  A39        -0.5172
    619  OP2        7.4400    8.5320   -5.6400 O.co2  39  A39        -0.4373
@<TRIPOS>BOND
     1   604   603    1
     2   618   598    2
     3   619   598    1
     4   603   605    1
     5   603   601    1
     6   598   600    1
     7   598   582    1
     8   600   599    1
     9   605   606    1
    10   605   607    1
    11   599   601    1
    12   601   602    1
    13   616   615   ar
    14   616   617   ar
    15   615   612   ar
    16   596   576    2
    17   582   581    1
    18   607   617    1
    19   607   602    1
    20   617   611   ar
    21   612   611   ar
    22   612   613   ar
    23   611   610   ar
    24   614   613    1
    25   613   608   ar
    26   597   576    1
    27   581   583    1
    28   581   579    1
    29   610   609   ar
    30   576   578    1
    31   576   559    1
    32   578   577    1
    33   608   609   ar
    34   577   579    1
    35   583   584    1
    36   583   585    1
    37   579   580    1
    38    16    15    1
    39    14    15   ar
    40    14    12   ar
    41    13    12    2
    42   559   558    1
    43   574   553    2
    44    15    17   ar
    45    12    11   ar
    46    17    18   ar
    47    11    18   ar
    48    11    10    1
    49   594   595   ar
    50   594   593   ar
    51   580   585    1
    52   585   595    1
    53   595   589   ar
    54   593   590   ar
    55    10     5    1
    56    10     8    1
    57     5     4    1
    58   575   553    1
    59   589   590   ar
    60   589   588   ar
    61   590   591   ar
    62   553   555    1
    63   553   536    1
    64   558   556    1
    65   558   560    1
    66   588   587   ar
    67   591   592    1
    68   591   586   ar
    69   555   554    1
    70   587   586   ar
    71   554   556    1
    72   556   557    1
    73     9     8    1
    74   560   561    1
    75   560   562    1
    76     8     6    1
    77    33    32    2
    78     4     2    1
    79     4     6    1
    80    34    32   ar
    81    34    35   ar
    82   536   535    1
    83    36    35    2
    84    32    31   ar
    85     2     3    1
    86     3     1    1
    87    35    37   ar
    88     1    20    1
    89     1    19    1
    90     6     7    1
    91    31    30    1
    92    31    38   ar
    93   551   530    2
    94    37    38   ar
    95   557   562    1
    96    30    25    1
    97    30    28    1
    98   562   573    1
    99   572   573   ar
   100   572   571   ar
   101    25    24    1
   102   573   567   ar
   103   571   568   ar
   104   535   537    1
   105   535   533    1
   106   568   567   ar
   107   568   569   ar
   108   567   566   ar
   109   569   570    2
   110   569   563   ar
   111   566   564   ar
   112   563   564   ar
   113   564   565    1
   114   552   530    1
   115   530   532    1
   116   530   516    1
   117   532   531    1
   118     7    21    1
   119   531   533    1
   120   537   538    1
   121   537   539    1
   122    29    28    1
   123   533   534    1
   124    28    26    1
   125    53    52    2
   126    24    22    1
   127    24    26    1
   128    54    52   ar
   129    54    55   ar
   130    52    51   ar
   131    56    55    1
   132    55    57   ar
   133    22    23    1
   134    51    50    1
   135    51    58   ar
   136    23    21    1
   137    50    45    1
   138    50    48    1
   139    57    58   ar
   140    21    40    2
   141    21    39    1
   142    26    27    1
   143   516   515    1
   144    45    44    1
   145   539   534    1
   146   539   550    1
   147   549   550   ar
   148   549   548   ar
   149   550   544   ar
   150   548   545   ar
   151   528   510    2
   152   545   544   ar
   153   545   546   ar
   154   544   543   ar
   155    49    48    1
   156   529   510    1
   157   543   541   ar
   158   546   547    2
   159   546   540   ar
   160    27    41    1
   161   515   517    1
   162   515   513    1
   163    48    46    1
   164   540   541   ar
   165   541   542    1
   166   510   512    1
   167   510   496    1
   168    44    42    1
   169    44    46    1
   170    73    72    2
   171    74    72   ar
   172    74    75   ar
   173   512   511    1
   174    76    75    1
   175    72    71   ar
   176    75    77   ar
   177   517   518    1
   178   517   519    1
   179   511   513    1
   180    42    43    1
   181    71    70    1
   182    71    78   ar
   183   513   514    1
   184    65    70    1
   185    65    64    1
   186    46    47    1
   187    77    78   ar
   188    70    68    1
   189    43    41    1
   190    41    60    2
   191    41    59    1
   192   496   495    1
   193   508   490    2
   194    47    61    1
   195   519   520    1
   196   519   514    1
   197   527   520   ar
   198   527   526   ar
   199   520   521   ar
   200    69    68    1
   201    64    62    1
   202    64    66    1
   203   526   524   ar
   204   522   521    2
   205   509   490    1
   206   521   523   ar
   207    68    66    1
   208   524   523   ar
   209   524   525    1
   210    62    63    1
   211   495   497    1
   212   495   493    1
   213   490   492    1
   214   490   476    1
   215    93    92    1
   216    63    61    1
   217   492   491    1
   218    91    92   ar
   219    91    97   ar
   220    92    94   ar
   221    66    67    1
   222   491   493    1
   223    98    97    2
   224    97    96   ar
   225    94    95   ar
   226    61    80    2
   227    61    79    1
   228   497   498    1
   229   497   499    1
   230    96    95   ar
   231    96    99   ar
   232    95   101   ar
   233   493   494    1
   234    99   100   ar
   235   101   100   ar
   236   101    90    1
   237    85    90    1
   238    85    84    1
   239    90    88    1
   240   476   475    1
   241    67    81    1
   242   507   506   ar
   243   507   500   ar
   244   488   470    2
   245   506   504   ar
   246   499   494    1
   247   499   500    1
   248   500   501   ar
   249   504   505    1
   250   504   503   ar
   251    84    82    1
   252    84    86    1
   253   489   470    1
   254    89    88    1
   255   475   477    1
   256   475   473    1
   257    88    86    1
   258    82    83    1
   259   501   503   ar
   260   501   502    2
   261   470   472    1
   262   470   456    1
   263    83    81    1
   264   116   115    1
   265    81   103    2
   266    81   102    1
   267   472   471    1
   268   114   115   ar
   269   114   120   ar
   270   115   117   ar
   271   471   473    1
   272   121   120    2
   273   477   478    1
   274   477   479    1
   275   120   119   ar
   276   117   118   ar
   277    86    87    1
   278   473   474    1
   279   118   119   ar
   280   118   124   ar
   281   119   122   ar
   282   124   113    1
   283   124   123   ar
   284   122   123   ar
   285   108   113    1
   286   108   107    1
   287   113   111    1
   288   456   455    1
   289   468   450    2
   290    87   104    1
   291   487   486   ar
   292   487   480   ar
   293   479   474    1
   294   479   480    1
   295   486   484   ar
   296   480   481   ar
   297   112   111    1
   298   469   450    1
   299   107   105    1
   300   107   109    1
   301   450   452    1
   302   450   433    1
   303   111   109    1
   304   484   485    2
   305   484   483   ar
   306   455   453    1
   307   455   457    1
   308   481   483   ar
   309   481   482    2
   310   452   451    1
   311   105   106    1
   312   451   453    1
   313   106   104    1
   314   137   138   ar
   315   137   142   ar
   316   126   104    2
   317   104   125    1
   318   138   139   ar
   319   165   164    1
   320   109   110    1
   321   453   454    1
   322   143   142    1
   323   142   141   ar
   324   139   140   ar
   325   457   458    1
   326   457   459    1
   327   141   140   ar
   328   141   144   ar
   329   140   146   ar
   330   131   136    1
   331   131   130    1
   332   144   145   ar
   333   146   145   ar
   334   146   136    1
   335   433   432    1
   336   136   134    1
   337   164   159   ar
   338   164   163   ar
   339   159   160   ar
   340   448   427    2
   341   110   127    1
   342   454   459    1
   343   459   460    1
   344   467   460   ar
   345   467   466   ar
   346   428   430    1
   347   428   429    1
   348   460   461   ar
   349   466   464   ar
   350   432   430    1
   351   432   434    1
   352   163   166   ar
   353   163   162   ar
   354   160   161   ar
   355   130   128    1
   356   130   132    1
   357   128   129    1
   358   166   167   ar
   359   135   134    1
   360   461   462    2
   361   461   463   ar
   362   464   463   ar
   363   464   465    1
   364   129   127    1
   365   449   427    1
   366   134   132    1
   367   427   429    1
   368   427   413    1
   369   430   431    1
   370   127   148    2
   371   127   147    1
   372   162   161   ar
   373   162   168   ar
   374   179   178    1
   375   167   168   ar
   376   180   175    1
   377   180   190    1
   378   180   178    1
   379   434   435    1
   380   434   436    1
   381   132   133    1
   382   183   182   ar
   383   183   184   ar
   384   209   208    1
   385   203   208   ar
   386   203   204   ar
   387   175   174    1
   388   182   181   ar
   389   168   158    1
   390   190   184   ar
   391   190   189   ar
   392   184   185   ar
   393   413   412    1
   394   208   207   ar
   395   178   176    1
   396   204   205   ar
   397   181   186   ar
   398   189   188   ar
   399   156   157    1
   400   156   158    1
   401   156   154    1
   402   431   436    1
   403   185   186   ar
   404   185   188   ar
   405   133   149    1
   406   186   187    1
   407   436   447    1
   408   158   153    1
   409   174   176    1
   410   174   172    1
   411   446   447   ar
   412   446   445   ar
   413   447   441   ar
   414   207   206   ar
   415   207   210   ar
   416   205   206   ar
   417   154   155    1
   418   154   152    1
   419   445   442   ar
   420   412   414    1
   421   412   410    1
   422   441   440   ar
   423   441   442   ar
   424   206   212   ar
   425   176   177    1
   426   155   171    1
   427   440   438   ar
   428   442   443   ar
   429   210   211   ar
   430   151   149    1
   431   151   150    1
   432   172   173    1
   433   153   152    1
   434   415   414    1
   435   438   437   ar
   436   438   439    1
   437   443   437   ar
   438   443   444    2
   439   149   170    2
   440   149   169    1
   441   414   416    1
   442   177   193    1
   443   212   211   ar
   444   212   202    1
   445   152   150    1
   446   408   410    1
   447   408   409    1
   448   425   407    2
   449   410   411    1
   450   409   407    1
   451   214   193    2
   452   173   171    1
   453   197   202    1
   454   197   196    1
   455   202   200    1
   456   171   191    2
   457   171   192    1
   458   407   426    1
   459   407   393    1
   460   193   195    1
   461   193   213    1
   462   416   411    1
   463   416   417    1
   464   195   194    1
   465   417   424   ar
   466   417   418   ar
   467   419   418    2
   468   424   423   ar
   469   418   420   ar
   470   196   194    1
   471   196   198    1
   472   227   226    1
   473   423   421   ar
   474   420   421   ar
   475   200   201    1
   476   200   198    1
   477   421   422    1
   478   393   392    1
   479   226   228   ar
   480   226   225   ar
   481   228   229   ar
   482   198   199    1
   483   225   231   ar
   484   224   235    1
   485   224   219    1
   486   224   222    1
   487   229   235   ar
   488   229   230   ar
   489   235   234   ar
   490   223   222    1
   491   219   218    1
   492   231   230   ar
   493   231   232    2
   494   230   233   ar
   495   392   394    1
   496   392   390    1
   497   234   233   ar
   498   395   394    1
   499   394   396    1
   500   222   220    1
   501   199   215    1
   502   405   387    2
   503   406   387    1
   504   250   249    2
   505   218   220    1
   506   218   216    1
   507   242   247    1
   508   242   241    1
   509   247   248    1
   510   247   245    1
   511   390   388    1
   512   390   391    1
   513   389   387    1
   514   389   388    1
   515   249   248   ar
   516   249   251   ar
   517   387   370    1
   518   248   255   ar
   519   220   221    1
   520   246   245    1
   521   251   252   ar
   522   237   215    2
   523   399   398    2
   524   396   397    1
   525   396   391    1
   526   217   216    1
   527   217   215    1
   528   215   236    1
   529   398   397   ar
   530   398   400   ar
   531   397   404   ar
   532   241   239    1
   533   241   243    1
   534   400   401   ar
   535   255   254   ar
   536   404   403   ar
   537   252   254   ar
   538   252   253    2
   539   401   403   ar
   540   401   402    2
   541   245   243    1
   542   221   238    1
   543   239   240    1
   544   370   369    1
   545   243   244    1
   546   240   238    1
   547   238   257    2
   548   238   256    1
   549   244   258    1
   550   369   371    1
   551   369   367    1
   552   262   267    1
   553   262   261    1
   554   385   364    2
   555   386   364    1
   556   371   372    1
   557   371   373    1
   558   267   268    1
   559   267   265    1
   560   366   364    1
   561   366   365    1
   562   270   269    2
   563   268   269   ar
   564   268   275   ar
   565   364   350    1
   566   269   271   ar
   567   261   259    1
   568   261   263    1
   569   275   274   ar
   570   365   367    1
   571   271   272   ar
   572   367   368    1
   573   266   265    1
   574   259   260    1
   575   274   272   ar
   576   272   273    1
   577   258   260    1
   578   258   276    2
   579   258   277    1
   580   381   380    2
   581   374   380   ar
   582   374   375   ar
   583   376   375    1
   584   380   379   ar
   585   375   377   ar
   586   379   378   ar
   587   379   382   ar
   588   377   378   ar
   589   265   263    1
   590   378   384   ar
   591   382   383   ar
   592   384   383   ar
   593   384   373    1
   594   373   368    1
   595   263   264    1
   596   350   349    1
   597   363   344    2
   598   362   344    1
   599   264   278    1
   600   349   351    1
   601   349   347    1
   602   344   346    1
   603   344   327    1
   604   346   345    1
   605   282   287    1
   606   282   281    1
   607   351   352    1
   608   351   353    1
   609   297   296   ar
   610   297   298   ar
   611   296   293   ar
   612   345   347    1
   613   298   287    1
   614   298   292   ar
   615   287   285    1
   616   293   292   ar
   617   293   294   ar
   618   292   291   ar
   619   347   348    1
   620   360   361   ar
   621   360   358   ar
   622   295   294    2
   623   294   288   ar
   624   359   358    1
   625   278   300    2
   626   278   280    1
   627   278   299    1
   628   361   354   ar
   629   291   289   ar
   630   342   321    1
   631   358   357   ar
   632   288   289   ar
   633   289   290    1
   634   327   326    1
   635   279   281    1
   636   279   280    1
   637   281   283    1
   638   354   353    1
   639   354   355   ar
   640   357   355   ar
   641   353   348    1
   642   355   356    2
   643   322   324    1
   644   322   323    1
   645   326   324    1
   646   326   328    1
   647   286   285    1
   648   285   283    1
   649   321   343    1
   650   321   323    1
   651   283   284    1
   652   324   325    1
   653   328   329    1
   654   328   330    1
   655   339   340   ar
   656   339   336   ar
   657   340   341   ar
   658   284   301    1
   659   325   330    1
   660   338   337    2
   661   336   337   ar
   662   336   335   ar
   663   341   330    1
   664   341   335   ar
   665   305   310    1
   666   305   304    1
   667   337   331   ar
   668   316   315    1
   669   317   315   ar
   670   317   318   ar
   671   335   334   ar
   672   315   314   ar
   673   318   311   ar
   674   314   312   ar
   675   311   312   ar
   676   311   310    1
   677   331   332   ar
   678   312   313    2
   679   310   308    1
   680   334   332   ar
   681   332   333    1
   682   302   304    1
   683   302   303    1
   684   304   306    1
   685   301   303    1
   686   301   320    2
   687   301   319    1
   688   309   308    1
   689   308   306    1
   690   306   307    1
