
  MOE2003           3D

 94 97  0  0  1  0  0  0  0  0999 V2000
   -7.4710    3.9480    0.8680 C   0  0  3  0  0  0  0  0  0  0  0  0
   -6.5560    3.4340    1.8840 O   0  0  0  0  0  0  0  0  0  0  0  0
   -7.6160    5.5020    0.9570 C   0  0  3  0  0  0  0  0  0  0  0  0
   -6.5490    6.1040    1.7890 N   0  3  0  0  0  0  0  0  0  0  0  0
   -6.5980    5.7260    2.7230 H   0  0  0  0  0  0  0  0  0  0  0  0
   -9.0220    5.8930    1.5040 C   0  0  3  0  0  0  0  0  0  0  0  0
   -9.1460    7.3120    1.5710 O   0  0  0  0  0  0  0  0  0  0  0  0
  -10.1630    5.3410    0.6080 C   0  0  3  0  0  0  0  0  0  0  0  0
  -11.3970    5.4770    1.3040 O   0  0  0  0  0  0  0  0  0  0  0  0
   -9.9190    3.8420    0.2380 C   0  0  3  0  0  0  0  0  0  0  0  0
   -8.7880    3.3120    1.0030 O   0  0  0  0  0  0  0  0  0  0  0  0
   -9.5940    3.5940   -1.2530 C   0  0  0  0  0  0  0  0  0  0  0  0
   -2.4260    2.1850    1.9380 C   0  0  3  0  0  0  0  0  0  0  0  0
   -1.1650    1.4520    1.6870 N   0  3  0  0  0  0  0  0  0  0  0  0
   -0.8590    1.0070    2.5390 H   0  0  0  0  0  0  0  0  0  0  0  0
   -2.9060    2.9420    0.6720 C   0  0  3  0  0  0  0  0  0  0  0  0
   -4.3140    3.6140    0.8330 C   0  0  3  0  0  0  0  0  0  0  0  0
   -4.7870    3.9980   -0.4860 O   0  0  0  0  0  0  0  0  0  0  0  0
   -5.3920    2.6580    1.4640 C   0  0  3  0  0  0  0  0  0  0  0  0
   -4.8430    1.9020    2.7170 C   0  0  3  0  0  0  0  0  0  0  0  0
   -5.8000    0.8960    3.2210 N   0  3  0  0  0  0  0  0  0  0  0  0
   -6.6620    1.3520    3.4810 H   0  0  0  0  0  0  0  0  0  0  0  0
   -3.5040    1.1910    2.4180 C   0  0  0  0  0  0  0  0  0  0  0  0
   -4.5050    5.3360   -0.9890 C   0  0  3  0  0  0  0  0  0  0  0  0
   -3.3070    5.2590   -1.9280 C   0  0  3  0  0  0  0  0  0  0  0  0
   -3.9920    4.7600   -3.1930 C   0  0  3  0  0  0  0  0  0  0  0  0
   -5.2900    5.5800   -3.1870 C   0  0  3  0  0  0  0  0  0  0  0  0
   -5.6030    5.8010   -1.7910 O   0  0  0  0  0  0  0  0  0  0  0  0
   -6.4590    4.8620   -3.8850 C   0  0  0  0  0  0  0  0  0  0  0  0
   -3.1220    1.2190   -3.8950 C   0  0  3  0  0  0  0  0  0  0  0  0
   -3.8340    1.9630   -5.0590 C   0  0  3  0  0  0  0  0  0  0  0  0
   -2.9340    2.9950   -5.7980 C   0  0  3  0  0  0  0  0  0  0  0  0
   -2.2620    3.9820   -4.7900 C   0  0  3  0  0  0  0  0  0  0  0  0
   -3.1880    5.0270   -4.3780 O   0  0  0  0  0  0  0  0  0  0  0  0
   -1.6970    1.8030   -3.6530 C   0  0  3  0  0  0  0  0  0  0  0  0
   -1.7700    3.2650   -3.5910 O   0  0  0  0  0  0  0  0  0  0  0  0
   -1.0510    1.2680   -2.3490 C   0  0  0  0  0  0  0  0  0  0  0  0
  -10.7000    3.9010   -2.1770 N   0  3  0  0  0  0  0  0  0  0  0  0
  -11.4970    3.3260   -1.9500 H   0  0  0  0  0  0  0  0  0  0  0  0
   -2.7530    6.5620   -2.1120 O   0  0  0  0  0  0  0  0  0  0  0  0
   -4.2840    0.9930   -6.0040 O   0  0  0  0  0  0  0  0  0  0  0  0
   -3.9180    1.3580   -2.7160 O   0  0  0  0  0  0  0  0  0  0  0  0
   -6.7360    3.6210   -3.2590 O   0  0  0  0  0  0  0  0  0  0  0  0
   -1.9520    3.9550    0.3540 O   0  0  0  0  0  0  0  0  0  0  0  0
   -0.3010    2.3030   -1.6140 N   0  3  0  0  0  0  0  0  0  0  0  0
    0.4390    2.6610   -2.1990 H   0  0  0  0  0  0  0  0  0  0  0  0
   -3.6820    3.6960   -6.8710 N   0  3  0  0  0  0  0  0  0  0  0  0
   -4.0150    3.0220   -7.5440 H   0  0  0  0  0  0  0  0  0  0  0  0
   -7.0850    3.7040   -0.1380 H   0  0  0  0  0  0  0  0  0  0  0  0
   -7.5160    5.9090   -0.0670 H   0  0  0  0  0  0  0  0  0  0  0  0
   -5.6330    5.9480    1.3540 H   0  0  0  0  0  0  0  0  0  0  0  0
   -6.6670    7.1210    1.8310 H   0  0  0  0  0  0  0  0  0  0  0  0
   -9.1450    5.4830    2.5260 H   0  0  0  0  0  0  0  0  0  0  0  0
   -8.5210    7.6010    2.2390 H   0  0  0  0  0  0  0  0  0  0  0  0
  -10.2130    5.9400   -0.3210 H   0  0  0  0  0  0  0  0  0  0  0  0
  -12.0840    5.2500    0.6720 H   0  0  0  0  0  0  0  0  0  0  0  0
  -10.8210    3.2580    0.5040 H   0  0  0  0  0  0  0  0  0  0  0  0
   -9.3650    2.5130   -1.3820 H   0  0  0  0  0  0  0  0  0  0  0  0
   -8.6800    4.1380   -1.5590 H   0  0  0  0  0  0  0  0  0  0  0  0
   -2.2400    2.9190    2.7420 H   0  0  0  0  0  0  0  0  0  0  0  0
   -1.2960    0.7800    0.9220 H   0  0  0  0  0  0  0  0  0  0  0  0
   -0.4380    2.1010    1.3670 H   0  0  0  0  0  0  0  0  0  0  0  0
   -2.9570    2.2350   -0.1700 H   0  0  0  0  0  0  0  0  0  0  0  0
   -4.2210    4.5010    1.4940 H   0  0  0  0  0  0  0  0  0  0  0  0
   -5.6850    1.9070    0.7020 H   0  0  0  0  0  0  0  0  0  0  0  0
   -4.6680    2.6400    3.5200 H   0  0  0  0  0  0  0  0  0  0  0  0
   -5.9460    0.1640    2.5170 H   0  0  0  0  0  0  0  0  0  0  0  0
   -5.4110    0.4180    4.0420 H   0  0  0  0  0  0  0  0  0  0  0  0
   -3.1430    0.7150    3.3610 H   0  0  0  0  0  0  0  0  0  0  0  0
   -3.6450    0.3740    1.6800 H   0  0  0  0  0  0  0  0  0  0  0  0
   -4.3070    6.0500   -0.1670 H   0  0  0  0  0  0  0  0  0  0  0  0
   -2.5230    4.5660   -1.5720 H   0  0  0  0  0  0  0  0  0  0  0  0
   -4.2240    3.6830   -3.0710 H   0  0  0  0  0  0  0  0  0  0  0  0
   -5.1170    6.5580   -3.6720 H   0  0  0  0  0  0  0  0  0  0  0  0
   -6.1860    4.6570   -4.9460 H   0  0  0  0  0  0  0  0  0  0  0  0
   -7.3700    5.4900   -3.8960 H   0  0  0  0  0  0  0  0  0  0  0  0
   -3.0480    0.1420   -4.1340 H   0  0  0  0  0  0  0  0  0  0  0  0
   -4.7350    2.4650   -4.6680 H   0  0  0  0  0  0  0  0  0  0  0  0
   -2.1170    2.4260   -6.2870 H   0  0  0  0  0  0  0  0  0  0  0  0
   -1.4030    4.4620   -5.3000 H   0  0  0  0  0  0  0  0  0  0  0  0
   -1.0520    1.5030   -4.5040 H   0  0  0  0  0  0  0  0  0  0  0  0
   -0.3640    0.4340   -2.5820 H   0  0  0  0  0  0  0  0  0  0  0  0
   -1.8250    0.8470   -1.6830 H   0  0  0  0  0  0  0  0  0  0  0  0
  -10.9210    4.9030   -2.1410 H   0  0  0  0  0  0  0  0  0  0  0  0
  -10.4150    3.7140   -3.1440 H   0  0  0  0  0  0  0  0  0  0  0  0
   -2.1120    6.4790   -2.8220 H   0  0  0  0  0  0  0  0  0  0  0  0
   -5.2370    0.9460   -5.8990 H   0  0  0  0  0  0  0  0  0  0  0  0
   -3.7010    0.6060   -2.1610 H   0  0  0  0  0  0  0  0  0  0  0  0
   -6.8150    3.8090   -2.3200 H   0  0  0  0  0  0  0  0  0  0  0  0
   -1.1980    3.4980   -0.0250 H   0  0  0  0  0  0  0  0  0  0  0  0
   -0.9390    3.0420   -1.2980 H   0  0  0  0  0  0  0  0  0  0  0  0
    0.1070    1.9050   -0.7610 H   0  0  0  0  0  0  0  0  0  0  0  0
   -4.4450    4.2500   -6.4640 H   0  0  0  0  0  0  0  0  0  0  0  0
   -3.0700    4.3700   -7.3430 H   0  0  0  0  0  0  0  0  0  0  0  0
  1  2  1  0  0  0  0
  1  3  1  0  0  0  0
  1 11  1  0  0  0  0
  1 49  1  0  0  0  0
  2 19  1  0  0  0  0
  3  4  1  0  0  0  0
  3  6  1  0  0  0  0
  3 50  1  0  0  0  0
  4  5  1  0  0  0  0
  4 51  1  0  0  0  0
  4 52  1  0  0  0  0
  6  7  1  0  0  0  0
  6  8  1  0  0  0  0
  6 53  1  0  0  0  0
  7 54  1  0  0  0  0
  8  9  1  0  0  0  0
  8 10  1  0  0  0  0
  8 55  1  0  0  0  0
  9 56  1  0  0  0  0
 10 11  1  0  0  0  0
 10 12  1  0  0  0  0
 10 57  1  0  0  0  0
 12 38  1  0  0  0  0
 12 58  1  0  0  0  0
 12 59  1  0  0  0  0
 13 14  1  0  0  0  0
 13 16  1  0  0  0  0
 13 23  1  0  0  0  0
 13 60  1  0  0  0  0
 14 15  1  0  0  0  0
 14 61  1  0  0  0  0
 14 62  1  0  0  0  0
 16 17  1  0  0  0  0
 16 44  1  0  0  0  0
 16 63  1  0  0  0  0
 17 18  1  0  0  0  0
 17 19  1  0  0  0  0
 17 64  1  0  0  0  0
 18 24  1  0  0  0  0
 19 20  1  0  0  0  0
 19 65  1  0  0  0  0
 20 21  1  0  0  0  0
 20 23  1  0  0  0  0
 20 66  1  0  0  0  0
 21 22  1  0  0  0  0
 21 67  1  0  0  0  0
 21 68  1  0  0  0  0
 23 69  1  0  0  0  0
 23 70  1  0  0  0  0
 24 25  1  0  0  0  0
 24 28  1  0  0  0  0
 24 71  1  0  0  0  0
 25 26  1  0  0  0  0
 25 40  1  0  0  0  0
 25 72  1  0  0  0  0
 26 27  1  0  0  0  0
 26 34  1  0  0  0  0
 26 73  1  0  0  0  0
 27 28  1  0  0  0  0
 27 29  1  0  0  0  0
 27 74  1  0  0  0  0
 29 43  1  0  0  0  0
 29 75  1  0  0  0  0
 29 76  1  0  0  0  0
 30 31  1  0  0  0  0
 30 35  1  0  0  0  0
 30 42  1  0  0  0  0
 30 77  1  0  0  0  0
 31 32  1  0  0  0  0
 31 41  1  0  0  0  0
 31 78  1  0  0  0  0
 32 33  1  0  0  0  0
 32 47  1  0  0  0  0
 32 79  1  0  0  0  0
 33 34  1  0  0  0  0
 33 36  1  0  0  0  0
 33 80  1  0  0  0  0
 35 36  1  0  0  0  0
 35 37  1  0  0  0  0
 35 81  1  0  0  0  0
 37 45  1  0  0  0  0
 37 82  1  0  0  0  0
 37 83  1  0  0  0  0
 38 39  1  0  0  0  0
 38 84  1  0  0  0  0
 38 85  1  0  0  0  0
 40 86  1  0  0  0  0
 41 87  1  0  0  0  0
 42 88  1  0  0  0  0
 43 89  1  0  0  0  0
 44 90  1  0  0  0  0
 45 46  1  0  0  0  0
 45 91  1  0  0  0  0
 45 92  1  0  0  0  0
 47 48  1  0  0  0  0
 47 93  1  0  0  0  0
 47 94  1  0  0  0  0
M  CHG  1   4   1
M  CHG  1  14   1
M  CHG  1  21   1
M  CHG  1  38   1
M  CHG  1  45   1
M  CHG  1  47   1
M  END
