
 OpenBabel11021811393D
libRbt.so/2013.1/901 2013/11/27
 42 45  0  0  0  0  0  0  0  0999 V2000
   -7.4760    4.8765    1.0856 C   0  0  2  0  0  0  0  0  0  0  0  0
   -6.3578    4.6774    2.0042 O   0  0  0  0  0  0  0  0  0  0  0  0
   -8.1232    6.2883    1.2640 C   0  0  2  0  0  0  0  0  0  0  0  0
   -7.2507    7.1951    2.0448 N   0  3  0  0  0  0  0  0  0  0  0  0
   -9.5262    6.1700    1.9320 C   0  0  1  0  0  0  0  0  0  0  0  0
  -10.1105    7.4624    2.0800 O   0  0  0  0  0  0  0  0  0  0  0  0
  -10.4904    5.2869    1.0954 C   0  0  2  0  0  0  0  0  0  0  0  0
  -11.6340    4.9831    1.8862 O   0  0  0  0  0  0  0  0  0  0  0  0
   -9.7929    3.9667    0.6327 C   0  0  2  0  0  0  0  0  0  0  0  0
   -8.4883    3.8311    1.2845 O   0  0  0  0  0  0  0  0  0  0  0  0
   -9.5337    3.8774   -0.8889 C   0  0  0  0  0  0  0  0  0  0  0  0
   -2.4839    2.7836    2.1646 C   0  0  1  0  0  0  0  0  0  0  0  0
   -1.3720    1.8188    2.0117 N   0  3  0  0  0  0  0  0  0  0  0  0
   -2.9060    3.3866    0.7991 C   0  0  1  0  0  0  0  0  0  0  0  0
   -4.1774    4.3015    0.8780 C   0  0  1  0  0  0  0  0  0  0  0  0
   -4.6551    4.5321   -0.4746 O   0  0  0  0  0  0  0  0  0  0  0  0
   -5.3578    3.6586    1.6951 C   0  0  1  0  0  0  0  0  0  0  0  0
   -4.8682    3.0429    3.0457 C   0  0  1  0  0  0  0  0  0  0  0  0
   -5.9443    2.3098    3.7432 N   0  3  0  0  0  0  0  0  0  0  0  0
   -3.6786    2.0784    2.8396 C   0  0  0  0  0  0  0  0  0  0  0  0
   -4.2659    5.7481   -1.1765 C   0  0  1  0  0  0  0  0  0  0  0  0
   -3.2173    5.3899   -2.2230 C   0  0  1  0  0  0  0  0  0  0  0  0
   -4.1169    4.8548   -3.3288 C   0  0  1  0  0  0  0  0  0  0  0  0
   -5.2846    5.8508   -3.2881 C   0  0  2  0  0  0  0  0  0  0  0  0
   -5.3861    6.2736   -1.9073 O   0  0  0  0  0  0  0  0  0  0  0  0
   -6.6168    5.2362   -3.7536 C   0  0  0  0  0  0  0  0  0  0  0  0
   -3.4899    1.0267   -4.7261 C   0  0  1  0  0  0  0  0  0  0  0  0
   -3.7499    1.9608   -5.9407 C   0  0  1  0  0  0  0  0  0  0  0  0
   -2.6622    3.0545   -6.1453 C   0  0  2  0  0  0  0  0  0  0  0  0
   -2.4123    3.8557   -4.8272 C   0  0  1  0  0  0  0  0  0  0  0  0
   -3.4417    4.8640   -4.6195 O   0  0  0  0  0  0  0  0  0  0  0  0
   -2.2561    1.5130   -3.9067 C   0  0  1  0  0  0  0  0  0  0  0  0
   -2.3707    2.9518   -3.6547 O   0  0  0  0  0  0  0  0  0  0  0  0
   -2.1113    0.7675   -2.5550 C   0  0  0  0  0  0  0  0  0  0  0  0
  -10.7535    3.8719   -1.7155 N   0  3  0  0  0  0  0  0  0  0  0  0
   -2.5248    6.5683   -2.6358 O   0  0  0  0  0  0  0  0  0  0  0  0
   -3.8154    1.1584   -7.1190 O   0  0  0  0  0  0  0  0  0  0  0  0
   -4.6576    1.0217   -3.9019 O   0  0  0  0  0  0  0  0  0  0  0  0
   -7.1624    4.3948   -2.7520 O   0  0  0  0  0  0  0  0  0  0  0  0
   -1.8214    4.1581    0.2835 O   0  0  0  0  0  0  0  0  0  0  0  0
   -0.8029    0.9919   -1.9135 N   0  3  0  0  0  0  0  0  0  0  0  0
   -2.9877    3.9341   -7.2953 N   0  3  0  0  0  0  0  0  0  0  0  0
  1  2  1  1  0  0  0
  1  3  1  0  0  0  0
  1 10  1  0  0  0  0
  3  4  1  1  0  0  0
  3  5  1  0  0  0  0
  5  6  1  6  0  0  0
  5  7  1  0  0  0  0
  7  8  1  1  0  0  0
  7  9  1  0  0  0  0
  9 10  1  0  0  0  0
  9 11  1  6  0  0  0
 11 35  1  0  0  0  0
 12 13  1  6  0  0  0
 12 14  1  0  0  0  0
 12 20  1  0  0  0  0
 14 15  1  0  0  0  0
 14 40  1  1  0  0  0
 15 16  1  6  0  0  0
 15 17  1  0  0  0  0
 17  2  1  1  0  0  0
 17 18  1  0  0  0  0
 18 19  1  6  0  0  0
 18 20  1  0  0  0  0
 21 16  1  6  0  0  0
 21 22  1  0  0  0  0
 21 25  1  0  0  0  0
 22 23  1  0  0  0  0
 22 36  1  6  0  0  0
 23 24  1  0  0  0  0
 23 31  1  6  0  0  0
 24 25  1  0  0  0  0
 24 26  1  1  0  0  0
 26 39  1  0  0  0  0
 27 28  1  0  0  0  0
 27 32  1  0  0  0  0
 27 38  1  1  0  0  0
 28 29  1  0  0  0  0
 28 37  1  6  0  0  0
 29 30  1  0  0  0  0
 29 42  1  6  0  0  0
 30 31  1  1  0  0  0
 30 33  1  0  0  0  0
 32 33  1  0  0  0  0
 32 34  1  1  0  0  0
 34 41  1  0  0  0  0
M  CHG  6   4   1  13   1  19   1  35   1  41   1  42   1
M  END
>  <CHROM.1>
-158.98721824,91.91378473,59.59823769,60.06538678,175.93930687,-63.33451518
58.73749695,179.73597221,161.56246157,-96.39586533,105.37456798,-175.52747413
-43.43495932,73.49532246,75.65310901,-56.83901488,-55.56991414,-60.77172372
-79.79128479,127.52500739,167.11625952,-41.90536553,-5.25616069,3.95318711
-1.15060434,2.39324905,-0.38842457,1.57865218

>  <Name>


>  <RI>
0

>  <Rbt.Current_Directory>
/home/itssahil/PROJECTS/Mol_Feturizer/New_Systems/rnas/1ei2

>  <Rbt.Executable>
rbdock ($Id: //depot/dev/client3/rdock/2013.1/src/exe/rbdock.cxx#4 $)

>  <Rbt.Library>
libRbt.so (2013.1, Build901 2013/11/27)

>  <Rbt.Parameter_File>
/export/apps/rDock/src/rDock_2013.1_src/data/scripts/dock_solv.prm

>  <Rbt.Receptor>
prm/pocket_docking_2.prm

>  <SCORE>
-46.5783

>  <SCORE.INTER>
-33.7033

>  <SCORE.INTER.CONST>
1

>  <SCORE.INTER.POLAR>
-4.79115

>  <SCORE.INTER.ROT>
9

>  <SCORE.INTER.SOLV>
37.9676

>  <SCORE.INTER.VDW>
-28.7542

>  <SCORE.INTER.norm>
-0.802458

>  <SCORE.INTRA>
-13.4201

>  <SCORE.INTRA.DIHEDRAL>
-9.42192

>  <SCORE.INTRA.DIHEDRAL.0>
40.8761

>  <SCORE.INTRA.POLAR>
0.0266147

>  <SCORE.INTRA.POLAR.0>
-0.0268208

>  <SCORE.INTRA.REPUL>
-0.632535

>  <SCORE.INTRA.REPUL.0>
0.641615

>  <SCORE.INTRA.SOLV>
-10.1771

>  <SCORE.INTRA.SOLV.lig_0>
-162.567

>  <SCORE.INTRA.VDW>
-0.548422

>  <SCORE.INTRA.VDW.0>
-4.80338

>  <SCORE.INTRA.norm>
-0.319527

>  <SCORE.RESTR>
0.5451

>  <SCORE.RESTR.CAVITY>
0.5451

>  <SCORE.RESTR.norm>
0.0129786

>  <SCORE.SYSTEM>
0

>  <SCORE.SYSTEM.CONST>
0

>  <SCORE.SYSTEM.DIHEDRAL>
0

>  <SCORE.SYSTEM.SOLV>
0

>  <SCORE.SYSTEM.norm>
0

>  <SCORE.heavy>
42

>  <SCORE.norm>
-1.10901

>  <RMSD>
0.839

$$$$

 OpenBabel11021811393D
libRbt.so/2013.1/901 2013/11/27
 42 45  0  0  0  0  0  0  0  0999 V2000
   -7.8346    4.0266    1.1178 C   0  0  2  0  0  0  0  0  0  0  0  0
   -6.9475    3.4142    2.1036 O   0  0  0  0  0  0  0  0  0  0  0  0
   -8.2620    5.4684    1.5449 C   0  0  2  0  0  0  0  0  0  0  0  0
   -7.4065    5.9921    2.6344 N   0  3  0  0  0  0  0  0  0  0  0  0
   -9.7621    5.4954    1.9665 C   0  0  1  0  0  0  0  0  0  0  0  0
  -10.1427    6.8169    2.3439 O   0  0  0  0  0  0  0  0  0  0  0  0
  -10.6926    5.0247    0.8166 C   0  0  2  0  0  0  0  0  0  0  0  0
  -11.9936    4.7959    1.3463 O   0  0  0  0  0  0  0  0  0  0  0  0
  -10.1503    3.7212    0.1457 C   0  0  2  0  0  0  0  0  0  0  0  0
   -9.0242    3.1890    0.9163 O   0  0  0  0  0  0  0  0  0  0  0  0
   -9.6409    3.9089   -1.3019 C   0  0  0  0  0  0  0  0  0  0  0  0
   -2.6734    2.8214    2.1220 C   0  0  1  0  0  0  0  0  0  0  0  0
   -1.3147    2.3023    1.8482 N   0  3  0  0  0  0  0  0  0  0  0  0
   -3.2698    3.5373    0.8819 C   0  0  1  0  0  0  0  0  0  0  0  0
   -4.7646    3.9763    1.0633 C   0  0  1  0  0  0  0  0  0  0  0  0
   -5.2962    4.3269   -0.2426 O   0  0  0  0  0  0  0  0  0  0  0  0
   -5.6786    2.8434    1.6593 C   0  0  1  0  0  0  0  0  0  0  0  0
   -5.0142    2.1396    2.8866 C   0  0  1  0  0  0  0  0  0  0  0  0
   -5.8014    0.9804    3.3541 N   0  3  0  0  0  0  0  0  0  0  0  0
   -3.5821    1.6561    2.5657 C   0  0  0  0  0  0  0  0  0  0  0  0
   -4.8220    5.5311   -0.9117 C   0  0  1  0  0  0  0  0  0  0  0  0
   -3.7376    5.1378   -1.9078 C   0  0  1  0  0  0  0  0  0  0  0  0
   -4.6015    4.6498   -3.0628 C   0  0  1  0  0  0  0  0  0  0  0  0
   -5.7275    5.6935   -3.0706 C   0  0  2  0  0  0  0  0  0  0  0  0
   -5.8811    6.1090   -1.6924 O   0  0  0  0  0  0  0  0  0  0  0  0
   -7.0588    5.1390   -3.6084 C   0  0  0  0  0  0  0  0  0  0  0  0
   -3.7582    0.8436   -4.8712 C   0  0  1  0  0  0  0  0  0  0  0  0
   -3.8085    1.9128   -5.9980 C   0  0  1  0  0  0  0  0  0  0  0  0
   -2.7396    3.0348   -5.8572 C   0  0  2  0  0  0  0  0  0  0  0  0
   -2.7784    3.6760   -4.4327 C   0  0  1  0  0  0  0  0  0  0  0  0
   -3.8622    4.6411   -4.3179 O   0  0  0  0  0  0  0  0  0  0  0  0
   -2.7246    1.2421   -3.7743 C   0  0  1  0  0  0  0  0  0  0  0  0
   -2.9350    2.6392   -3.3865 O   0  0  0  0  0  0  0  0  0  0  0  0
   -2.8204    0.3425   -2.5152 C   0  0  0  0  0  0  0  0  0  0  0  0
   -9.2990    2.6544   -1.9951 N   0  3  0  0  0  0  0  0  0  0  0  0
   -2.9769    6.2894   -2.2735 O   0  0  0  0  0  0  0  0  0  0  0  0
   -3.6162    1.2559   -7.2501 O   0  0  0  0  0  0  0  0  0  0  0  0
   -5.0631    0.7278   -4.2996 O   0  0  0  0  0  0  0  0  0  0  0  0
   -6.9083    4.6606   -4.9340 O   0  0  0  0  0  0  0  0  0  0  0  0
   -2.4860    4.6966    0.6005 O   0  0  0  0  0  0  0  0  0  0  0  0
   -1.9466    0.7969   -1.4179 N   0  3  0  0  0  0  0  0  0  0  0  0
   -2.8649    4.0416   -6.9402 N   0  3  0  0  0  0  0  0  0  0  0  0
  1  2  1  1  0  0  0
  1  3  1  0  0  0  0
  1 10  1  0  0  0  0
  3  4  1  1  0  0  0
  3  5  1  0  0  0  0
  5  6  1  6  0  0  0
  5  7  1  0  0  0  0
  7  8  1  1  0  0  0
  7  9  1  0  0  0  0
  9 10  1  0  0  0  0
  9 11  1  6  0  0  0
 11 35  1  0  0  0  0
 12 13  1  6  0  0  0
 12 14  1  0  0  0  0
 12 20  1  0  0  0  0
 14 15  1  0  0  0  0
 14 40  1  1  0  0  0
 15 16  1  6  0  0  0
 15 17  1  0  0  0  0
 17  2  1  1  0  0  0
 17 18  1  0  0  0  0
 18 19  1  6  0  0  0
 18 20  1  0  0  0  0
 21 16  1  6  0  0  0
 21 22  1  0  0  0  0
 21 25  1  0  0  0  0
 22 23  1  0  0  0  0
 22 36  1  6  0  0  0
 23 24  1  0  0  0  0
 23 31  1  6  0  0  0
 24 25  1  0  0  0  0
 24 26  1  1  0  0  0
 26 39  1  0  0  0  0
 27 28  1  0  0  0  0
 27 32  1  0  0  0  0
 27 38  1  1  0  0  0
 28 29  1  0  0  0  0
 28 37  1  6  0  0  0
 29 30  1  0  0  0  0
 29 42  1  6  0  0  0
 30 31  1  6  0  0  0
 30 33  1  0  0  0  0
 32 33  1  0  0  0  0
 32 34  1  1  0  0  0
 34 41  1  0  0  0  0
M  CHG  6   4   1  13   1  19   1  35   1  41   1  42   1
M  END
>  <CHROM.1>
-128.15880545,63.30695867,-164.58652548,52.36161758,175.91828469,-172.23498461
-52.20788643,-172.51426371,59.06862216,-69.75386899,97.50979301,-70.07651862
-41.79667174,67.68837230,-59.05682593,67.53174544,58.16885700,-99.98335254
164.77012511,139.97792313,-174.00460109,12.30559955,-5.51785246,3.62089760
-1.16253757,2.33658289,-0.37630853,1.61359915

>  <Name>


>  <RI>
0

>  <Rbt.Current_Directory>
/home/itssahil/PROJECTS/Mol_Feturizer/New_Systems/rnas/1ei2

>  <Rbt.Executable>
rbdock ($Id: //depot/dev/client3/rdock/2013.1/src/exe/rbdock.cxx#4 $)

>  <Rbt.Library>
libRbt.so (2013.1, Build901 2013/11/27)

>  <Rbt.Parameter_File>
/export/apps/rDock/src/rDock_2013.1_src/data/scripts/dock_solv.prm

>  <Rbt.Receptor>
prm/pocket_docking_2.prm

>  <SCORE>
-44.7687

>  <SCORE.INTER>
-33.7652

>  <SCORE.INTER.CONST>
1

>  <SCORE.INTER.POLAR>
-5.01705

>  <SCORE.INTER.ROT>
9

>  <SCORE.INTER.SOLV>
31.827

>  <SCORE.INTER.VDW>
-25.9956

>  <SCORE.INTER.norm>
-0.803934

>  <SCORE.INTRA>
-11.6993

>  <SCORE.INTRA.DIHEDRAL>
-9.53074

>  <SCORE.INTRA.DIHEDRAL.0>
40.8761

>  <SCORE.INTRA.POLAR>
-0.118595

>  <SCORE.INTRA.POLAR.0>
-0.0268208

>  <SCORE.INTRA.REPUL>
-0.641615

>  <SCORE.INTRA.REPUL.0>
0.641615

>  <SCORE.INTRA.SOLV>
-6.73614

>  <SCORE.INTRA.SOLV.lig_0>
-162.567

>  <SCORE.INTRA.VDW>
0.0454548

>  <SCORE.INTRA.VDW.0>
-4.80338

>  <SCORE.INTRA.norm>
-0.278554

>  <SCORE.RESTR>
0.695838

>  <SCORE.RESTR.CAVITY>
0.695838

>  <SCORE.RESTR.norm>
0.0165676

>  <SCORE.SYSTEM>
0

>  <SCORE.SYSTEM.CONST>
0

>  <SCORE.SYSTEM.DIHEDRAL>
0

>  <SCORE.SYSTEM.SOLV>
0

>  <SCORE.SYSTEM.norm>
0

>  <SCORE.heavy>
42

>  <SCORE.norm>
-1.06592

>  <RMSD>
1.012

$$$$

 OpenBabel11021811393D
libRbt.so/2013.1/901 2013/11/27
 42 45  0  0  0  0  0  0  0  0999 V2000
   -8.0593    3.8681    0.4020 C   0  0  2  0  0  0  0  0  0  0  0  0
   -7.2589    3.0494    1.3090 O   0  0  0  0  0  0  0  0  0  0  0  0
   -8.5879    5.1595    1.1070 C   0  0  2  0  0  0  0  0  0  0  0  0
   -7.8759    5.4182    2.3795 N   0  3  0  0  0  0  0  0  0  0  0  0
  -10.1244    5.0642    1.3497 C   0  0  1  0  0  0  0  0  0  0  0  0
  -10.5963    6.2512    1.9835 O   0  0  0  0  0  0  0  0  0  0  0  0
  -10.9066    4.8703    0.0231 C   0  0  2  0  0  0  0  0  0  0  0  0
  -12.2466    4.5034    0.3321 O   0  0  0  0  0  0  0  0  0  0  0  0
  -10.2434    3.7733   -0.8714 C   0  0  2  0  0  0  0  0  0  0  0  0
   -9.1857    3.0872   -0.1259 O   0  0  0  0  0  0  0  0  0  0  0  0
   -9.5899    4.3096   -2.1658 C   0  0  0  0  0  0  0  0  0  0  0  0
   -2.9673    3.0500    1.7586 C   0  0  1  0  0  0  0  0  0  0  0  0
   -1.5251    2.7681    1.5824 N   0  3  0  0  0  0  0  0  0  0  0  0
   -3.5403    3.8544    0.5623 C   0  0  1  0  0  0  0  0  0  0  0  0
   -5.0950    4.0531    0.6208 C   0  0  1  0  0  0  0  0  0  0  0  0
   -5.5422    4.5182   -0.6809 O   0  0  0  0  0  0  0  0  0  0  0  0
   -5.8802    2.7299    0.9475 C   0  0  1  0  0  0  0  0  0  0  0  0
   -5.2410    1.9487    2.1408 C   0  0  1  0  0  0  0  0  0  0  0  0
   -5.8848    0.6362    2.3528 N   0  3  0  0  0  0  0  0  0  0  0  0
   -3.7273    1.7185    1.9318 C   0  0  0  0  0  0  0  0  0  0  0  0
   -5.0055    5.7591   -1.2239 C   0  0  1  0  0  0  0  0  0  0  0  0
   -3.7764    5.4302   -2.0629 C   0  0  1  0  0  0  0  0  0  0  0  0
   -4.4477    4.9758   -3.3518 C   0  0  1  0  0  0  0  0  0  0  0  0
   -5.5866    5.9969   -3.4850 C   0  0  2  0  0  0  0  0  0  0  0  0
   -5.9523    6.3494   -2.1294 O   0  0  0  0  0  0  0  0  0  0  0  0
   -6.8094    5.4403   -4.2361 C   0  0  0  0  0  0  0  0  0  0  0  0
   -3.6179    1.2271   -4.0072 C   0  0  1  0  0  0  0  0  0  0  0  0
   -3.8988    1.9706   -5.3427 C   0  0  1  0  0  0  0  0  0  0  0  0
   -2.8063    3.0068   -5.7348 C   0  0  2  0  0  0  0  0  0  0  0  0
   -2.5169    3.9944   -4.5589 C   0  0  1  0  0  0  0  0  0  0  0  0
   -3.5314    5.0356   -4.4825 O   0  0  0  0  0  0  0  0  0  0  0  0
   -2.3599    1.8155   -3.2989 C   0  0  1  0  0  0  0  0  0  0  0  0
   -2.4549    3.2771   -3.2645 O   0  0  0  0  0  0  0  0  0  0  0  0
   -2.1890    1.2805   -1.8538 C   0  0  0  0  0  0  0  0  0  0  0  0
  -10.5366    4.9064   -3.1243 N   0  3  0  0  0  0  0  0  0  0  0  0
   -2.9997    6.6111   -2.2655 O   0  0  0  0  0  0  0  0  0  0  0  0
   -4.0005    1.0007   -6.3844 O   0  0  0  0  0  0  0  0  0  0  0  0
   -4.7651    1.3615   -3.1652 O   0  0  0  0  0  0  0  0  0  0  0  0
   -6.4370    4.9439   -5.5103 O   0  0  0  0  0  0  0  0  0  0  0  0
   -2.9182    5.1387    0.5331 O   0  0  0  0  0  0  0  0  0  0  0  0
   -2.5243   -0.1498   -1.7283 N   0  3  0  0  0  0  0  0  0  0  0  0
   -3.1516    3.7071   -6.9968 N   0  3  0  0  0  0  0  0  0  0  0  0
  1  2  1  1  0  0  0
  1  3  1  0  0  0  0
  1 10  1  0  0  0  0
  3  4  1  1  0  0  0
  3  5  1  0  0  0  0
  5  6  1  6  0  0  0
  5  7  1  0  0  0  0
  7  8  1  1  0  0  0
  7  9  1  0  0  0  0
  9 10  1  0  0  0  0
  9 11  1  6  0  0  0
 11 35  1  0  0  0  0
 12 13  1  6  0  0  0
 12 14  1  0  0  0  0
 12 20  1  0  0  0  0
 14 15  1  0  0  0  0
 14 40  1  1  0  0  0
 15 16  1  6  0  0  0
 15 17  1  0  0  0  0
 17  2  1  1  0  0  0
 17 18  1  0  0  0  0
 18 19  1  6  0  0  0
 18 20  1  0  0  0  0
 21 16  1  6  0  0  0
 21 22  1  0  0  0  0
 21 25  1  0  0  0  0
 22 23  1  0  0  0  0
 22 36  1  6  0  0  0
 23 24  1  0  0  0  0
 23 31  1  6  0  0  0
 24 25  1  0  0  0  0
 24 26  1  1  0  0  0
 26 39  1  0  0  0  0
 27 28  1  0  0  0  0
 27 32  1  0  0  0  0
 27 38  1  1  0  0  0
 28 29  1  0  0  0  0
 28 37  1  6  0  0  0
 29 30  1  0  0  0  0
 29 42  1  6  0  0  0
 30 31  1  1  0  0  0
 30 33  1  0  0  0  0
 32 33  1  0  0  0  0
 32 34  1  1  0  0  0
 34 41  1  0  0  0  0
M  CHG  6   4   1  13   1  19   1  35   1  41   1  42   1
M  END
>  <CHROM.1>
-122.15209816,53.28999972,174.21222642,-175.58406934,178.99280332,-64.53617105
50.35938502,-175.39063735,-59.08568802,-59.03859067,91.31017749,-50.13955672
53.11758067,75.02033819,-55.31557585,-49.87733673,-61.30393743,-57.82197992
151.09356400,109.56022839,39.21346434,17.37108543,-5.64325469,3.75436363
-1.45759618,-2.57666277,0.36208486,-1.40647104

>  <Name>


>  <RI>
0

>  <Rbt.Current_Directory>
/home/itssahil/PROJECTS/Mol_Feturizer/New_Systems/rnas/1ei2

>  <Rbt.Executable>
rbdock ($Id: //depot/dev/client3/rdock/2013.1/src/exe/rbdock.cxx#4 $)

>  <Rbt.Library>
libRbt.so (2013.1, Build901 2013/11/27)

>  <Rbt.Parameter_File>
/export/apps/rDock/src/rDock_2013.1_src/data/scripts/dock_solv.prm

>  <Rbt.Receptor>
prm/pocket_docking_2.prm

>  <SCORE>
-54.9776

>  <SCORE.INTER>
-41.3387

>  <SCORE.INTER.CONST>
1

>  <SCORE.INTER.POLAR>
-6.27845

>  <SCORE.INTER.ROT>
9

>  <SCORE.INTER.SOLV>
35.2294

>  <SCORE.INTER.VDW>
-27.9741

>  <SCORE.INTER.norm>
-0.984254

>  <SCORE.INTRA>
-14.4002

>  <SCORE.INTRA.DIHEDRAL>
-13.793

>  <SCORE.INTRA.DIHEDRAL.0>
40.8761

>  <SCORE.INTRA.POLAR>
0.0268208

>  <SCORE.INTRA.POLAR.0>
-0.0268208

>  <SCORE.INTRA.REPUL>
-0.641615

>  <SCORE.INTRA.REPUL.0>
0.641615

>  <SCORE.INTRA.SOLV>
-8.32471

>  <SCORE.INTRA.SOLV.lig_0>
-162.567

>  <SCORE.INTRA.VDW>
-0.224477

>  <SCORE.INTRA.VDW.0>
-4.80338

>  <SCORE.INTRA.norm>
-0.342863

>  <SCORE.RESTR>
0.761291

>  <SCORE.RESTR.CAVITY>
0.761291

>  <SCORE.RESTR.norm>
0.018126

>  <SCORE.SYSTEM>
0

>  <SCORE.SYSTEM.CONST>
0

>  <SCORE.SYSTEM.DIHEDRAL>
0

>  <SCORE.SYSTEM.SOLV>
0

>  <SCORE.SYSTEM.norm>
0

>  <SCORE.heavy>
42

>  <SCORE.norm>
-1.30899

>  <RMSD>
1.157

$$$$

 OpenBabel11021811393D
libRbt.so/2013.1/901 2013/11/27
 42 45  0  0  0  0  0  0  0  0999 V2000
   -7.5552    3.9794    1.2299 C   0  0  2  0  0  0  0  0  0  0  0  0
   -6.7020    3.3808    2.2534 O   0  0  0  0  0  0  0  0  0  0  0  0
   -7.9375    5.4522    1.5883 C   0  0  2  0  0  0  0  0  0  0  0  0
   -7.0780    5.9935    2.6659 N   0  3  0  0  0  0  0  0  0  0  0  0
   -9.4409    5.5487    1.9876 C   0  0  1  0  0  0  0  0  0  0  0  0
   -9.7801    6.8976    2.3022 O   0  0  0  0  0  0  0  0  0  0  0  0
  -10.3729    5.0602    0.8464 C   0  0  2  0  0  0  0  0  0  0  0  0
  -11.6875    4.8991    1.3674 O   0  0  0  0  0  0  0  0  0  0  0  0
   -9.8679    3.7109    0.2400 C   0  0  2  0  0  0  0  0  0  0  0  0
   -8.7704    3.1748    1.0484 O   0  0  0  0  0  0  0  0  0  0  0  0
   -9.3344    3.8177   -1.2071 C   0  0  0  0  0  0  0  0  0  0  0  0
   -2.4820    2.4982    2.4319 C   0  0  1  0  0  0  0  0  0  0  0  0
   -1.1512    1.8922    2.2032 N   0  3  0  0  0  0  0  0  0  0  0  0
   -2.9772    3.2725    1.1823 C   0  0  1  0  0  0  0  0  0  0  0  0
   -4.4452    3.8093    1.3119 C   0  0  1  0  0  0  0  0  0  0  0  0
   -4.8978    4.2158   -0.0075 O   0  0  0  0  0  0  0  0  0  0  0  0
   -5.4572    2.7320    1.8498 C   0  0  1  0  0  0  0  0  0  0  0  0
   -4.8929    1.9654    3.0895 C   0  0  1  0  0  0  0  0  0  0  0  0
   -5.7750    0.8553    3.5036 N   0  3  0  0  0  0  0  0  0  0  0  0
   -3.4846    1.3906    2.8173 C   0  0  0  0  0  0  0  0  0  0  0  0
   -4.2521    5.3389   -0.6742 C   0  0  1  0  0  0  0  0  0  0  0  0
   -3.3706    4.7975   -1.7934 C   0  0  1  0  0  0  0  0  0  0  0  0
   -4.4215    4.5627   -2.8699 C   0  0  1  0  0  0  0  0  0  0  0  0
   -5.3051    5.8091   -2.7180 C   0  0  2  0  0  0  0  0  0  0  0  0
   -5.2392    6.1630   -1.3158 O   0  0  0  0  0  0  0  0  0  0  0  0
   -6.7666    5.5655   -3.1350 C   0  0  0  0  0  0  0  0  0  0  0  0
   -3.8006    0.6976   -4.8397 C   0  0  1  0  0  0  0  0  0  0  0  0
   -3.8770    1.7940   -5.9386 C   0  0  1  0  0  0  0  0  0  0  0  0
   -2.7854    2.8958   -5.8135 C   0  0  2  0  0  0  0  0  0  0  0  0
   -2.7590    3.5034   -4.3741 C   0  0  1  0  0  0  0  0  0  0  0  0
   -3.8217    4.4821   -4.1949 O   0  0  0  0  0  0  0  0  0  0  0  0
   -2.7193    1.0541   -3.7749 C   0  0  1  0  0  0  0  0  0  0  0  0
   -2.8919    2.4446   -3.3469 O   0  0  0  0  0  0  0  0  0  0  0  0
   -2.7811    0.1263   -2.5341 C   0  0  0  0  0  0  0  0  0  0  0  0
  -10.3784    4.0127   -2.2286 N   0  3  0  0  0  0  0  0  0  0  0  0
   -2.4279    5.7935   -2.1905 O   0  0  0  0  0  0  0  0  0  0  0  0
   -3.7435    1.1641   -7.2121 O   0  0  0  0  0  0  0  0  0  0  0  0
   -5.0843    0.5882   -4.2207 O   0  0  0  0  0  0  0  0  0  0  0  0
   -7.6475    6.3959   -2.3980 O   0  0  0  0  0  0  0  0  0  0  0  0
   -2.1061    4.3800    0.9540 O   0  0  0  0  0  0  0  0  0  0  0  0
   -4.0869    0.1686   -1.8508 N   0  3  0  0  0  0  0  0  0  0  0  0
   -2.9359    3.9298   -6.8672 N   0  3  0  0  0  0  0  0  0  0  0  0
  1  2  1  1  0  0  0
  1  3  1  0  0  0  0
  1 10  1  0  0  0  0
  3  4  1  1  0  0  0
  3  5  1  0  0  0  0
  5  6  1  6  0  0  0
  5  7  1  0  0  0  0
  7  8  1  1  0  0  0
  7  9  1  0  0  0  0
  9 10  1  0  0  0  0
  9 11  1  6  0  0  0
 11 35  1  0  0  0  0
 12 13  1  6  0  0  0
 12 14  1  0  0  0  0
 12 20  1  0  0  0  0
 14 15  1  0  0  0  0
 14 40  1  1  0  0  0
 15 16  1  6  0  0  0
 15 17  1  0  0  0  0
 17  2  1  1  0  0  0
 17 18  1  0  0  0  0
 18 19  1  6  0  0  0
 18 20  1  0  0  0  0
 21 16  1  6  0  0  0
 21 22  1  0  0  0  0
 21 25  1  0  0  0  0
 22 23  1  0  0  0  0
 22 36  1  6  0  0  0
 23 24  1  0  0  0  0
 23 31  1  6  0  0  0
 24 25  1  0  0  0  0
 24 26  1  1  0  0  0
 26 39  1  0  0  0  0
 27 28  1  0  0  0  0
 27 32  1  0  0  0  0
 27 38  1  1  0  0  0
 28 29  1  0  0  0  0
 28 37  1  6  0  0  0
 29 30  1  0  0  0  0
 29 42  1  6  0  0  0
 30 31  1  6  0  0  0
 30 33  1  0  0  0  0
 32 33  1  0  0  0  0
 32 34  1  1  0  0  0
 34 41  1  0  0  0  0
M  CHG  6   4   1  13   1  19   1  35   1  41   1  42   1
M  END
>  <CHROM.1>
-128.99619935,67.91891702,-69.81366733,-59.23469261,-59.61159078,-72.74402498
60.97572190,-66.28797211,-58.93058088,-65.49924661,106.21382630,48.70874068
57.70404120,54.82918030,150.08903978,50.08086943,55.74415517,62.33873658
-77.20159805,145.91700958,-58.89380109,-79.28066205,-5.43605353,3.58634790
-0.97185829,2.34008582,-0.43657194,1.61363569

>  <Name>


>  <RI>
0

>  <Rbt.Current_Directory>
/home/itssahil/PROJECTS/Mol_Feturizer/New_Systems/rnas/1ei2

>  <Rbt.Executable>
rbdock ($Id: //depot/dev/client3/rdock/2013.1/src/exe/rbdock.cxx#4 $)

>  <Rbt.Library>
libRbt.so (2013.1, Build901 2013/11/27)

>  <Rbt.Parameter_File>
/export/apps/rDock/src/rDock_2013.1_src/data/scripts/dock_solv.prm

>  <Rbt.Receptor>
prm/pocket_docking_2.prm

>  <SCORE>
-43.9443

>  <SCORE.INTER>
-26.89

>  <SCORE.INTER.CONST>
1

>  <SCORE.INTER.POLAR>
-3.5502

>  <SCORE.INTER.ROT>
9

>  <SCORE.INTER.SOLV>
32.1029

>  <SCORE.INTER.VDW>
-26.3937

>  <SCORE.INTER.norm>
-0.640239

>  <SCORE.INTRA>
-18.394

>  <SCORE.INTRA.DIHEDRAL>
-16.4166

>  <SCORE.INTRA.DIHEDRAL.0>
40.8761

>  <SCORE.INTRA.POLAR>
-0.835849

>  <SCORE.INTRA.POLAR.0>
-0.0268208

>  <SCORE.INTRA.REPUL>
-0.641615

>  <SCORE.INTRA.REPUL.0>
0.641615

>  <SCORE.INTRA.SOLV>
-8.1517

>  <SCORE.INTRA.SOLV.lig_0>
-162.567

>  <SCORE.INTRA.VDW>
-0.0598604

>  <SCORE.INTRA.VDW.0>
-4.80338

>  <SCORE.INTRA.norm>
-0.437952

>  <SCORE.RESTR>
1.33968

>  <SCORE.RESTR.CAVITY>
1.33968

>  <SCORE.RESTR.norm>
0.0318972

>  <SCORE.SYSTEM>
0

>  <SCORE.SYSTEM.CONST>
0

>  <SCORE.SYSTEM.DIHEDRAL>
0

>  <SCORE.SYSTEM.SOLV>
0

>  <SCORE.SYSTEM.norm>
0

>  <SCORE.heavy>
42

>  <SCORE.norm>
-1.04629

>  <RMSD>
1.167

$$$$

 OpenBabel11021811393D
libRbt.so/2013.1/901 2013/11/27
 42 45  0  0  0  0  0  0  0  0999 V2000
   -7.2645    4.4073    1.2240 C   0  0  2  0  0  0  0  0  0  0  0  0
   -6.2034    3.9891    2.1367 O   0  0  0  0  0  0  0  0  0  0  0  0
   -7.8974    5.7680    1.6620 C   0  0  2  0  0  0  0  0  0  0  0  0
   -7.0557    6.4664    2.6604 N   0  3  0  0  0  0  0  0  0  0  0  0
   -9.3377    5.5517    2.2166 C   0  0  1  0  0  0  0  0  0  0  0  0
   -9.9082    6.8002    2.6030 O   0  0  0  0  0  0  0  0  0  0  0  0
  -10.2674    4.8906    1.1639 C   0  0  2  0  0  0  0  0  0  0  0  0
  -11.4588    4.4600    1.8127 O   0  0  0  0  0  0  0  0  0  0  0  0
   -9.5667    3.6776    0.4703 C   0  0  2  0  0  0  0  0  0  0  0  0
   -8.3034    3.3721    1.1456 O   0  0  0  0  0  0  0  0  0  0  0  0
   -9.2235    3.9017   -1.0204 C   0  0  0  0  0  0  0  0  0  0  0  0
   -1.9527    3.3804    1.7109 C   0  0  1  0  0  0  0  0  0  0  0  0
   -0.6320    2.8403    1.3180 N   0  3  0  0  0  0  0  0  0  0  0  0
   -2.6863    4.0237    0.5050 C   0  0  1  0  0  0  0  0  0  0  0  0
   -4.1523    4.4790    0.8264 C   0  0  1  0  0  0  0  0  0  0  0  0
   -4.8281    4.7534   -0.4302 O   0  0  0  0  0  0  0  0  0  0  0  0
   -4.9909    3.3875    1.5877 C   0  0  1  0  0  0  0  0  0  0  0  0
   -4.1912    2.7553    2.7726 C   0  0  1  0  0  0  0  0  0  0  0  0
   -4.9181    1.6294    3.3939 N   0  3  0  0  0  0  0  0  0  0  0  0
   -2.8029    2.2475    2.3226 C   0  0  0  0  0  0  0  0  0  0  0  0
   -4.4163    5.8977   -1.2325 C   0  0  1  0  0  0  0  0  0  0  0  0
   -3.3971    5.4263   -2.2630 C   0  0  1  0  0  0  0  0  0  0  0  0
   -4.3311    4.8329   -3.3089 C   0  0  1  0  0  0  0  0  0  0  0  0
   -5.4686    5.8639   -3.3298 C   0  0  2  0  0  0  0  0  0  0  0  0
   -5.5335    6.3974   -1.9856 O   0  0  0  0  0  0  0  0  0  0  0  0
   -6.8260    5.2550   -3.7244 C   0  0  0  0  0  0  0  0  0  0  0  0
   -3.7232    0.8998   -4.9879 C   0  0  1  0  0  0  0  0  0  0  0  0
   -3.7949    1.9188   -6.1592 C   0  0  1  0  0  0  0  0  0  0  0  0
   -2.6851    3.0088   -6.1216 C   0  0  2  0  0  0  0  0  0  0  0  0
   -2.6333    3.7139   -4.7281 C   0  0  1  0  0  0  0  0  0  0  0  0
   -3.6788    4.7196   -4.6065 O   0  0  0  0  0  0  0  0  0  0  0  0
   -2.6248    1.3115   -3.9612 C   0  0  1  0  0  0  0  0  0  0  0  0
   -2.7711    2.7309   -3.6288 O   0  0  0  0  0  0  0  0  0  0  0  0
   -2.6870    0.4727   -2.6586 C   0  0  0  0  0  0  0  0  0  0  0  0
   -8.7207    2.7043   -1.7166 N   0  3  0  0  0  0  0  0  0  0  0  0
   -2.6781    6.5468   -2.7789 O   0  0  0  0  0  0  0  0  0  0  0  0
   -3.6854    1.2004   -7.3873 O   0  0  0  0  0  0  0  0  0  0  0  0
   -5.0015    0.8542   -4.3499 O   0  0  0  0  0  0  0  0  0  0  0  0
   -7.6919    6.2472   -4.2482 O   0  0  0  0  0  0  0  0  0  0  0  0
   -1.9419    5.1608    0.0687 O   0  0  0  0  0  0  0  0  0  0  0  0
   -1.8253    1.0093   -1.5893 N   0  3  0  0  0  0  0  0  0  0  0  0
   -2.8314    3.9699   -7.2428 N   0  3  0  0  0  0  0  0  0  0  0  0
  1  2  1  1  0  0  0
  1  3  1  0  0  0  0
  1 10  1  0  0  0  0
  3  4  1  1  0  0  0
  3  5  1  0  0  0  0
  5  6  1  6  0  0  0
  5  7  1  0  0  0  0
  7  8  1  1  0  0  0
  7  9  1  0  0  0  0
  9 10  1  0  0  0  0
  9 11  1  6  0  0  0
 11 35  1  0  0  0  0
 12 13  1  6  0  0  0
 12 14  1  0  0  0  0
 12 20  1  0  0  0  0
 14 15  1  0  0  0  0
 14 40  1  1  0  0  0
 15 16  1  6  0  0  0
 15 17  1  0  0  0  0
 17  2  1  1  0  0  0
 17 18  1  0  0  0  0
 18 19  1  6  0  0  0
 18 20  1  0  0  0  0
 21 16  1  1  0  0  0
 21 22  1  0  0  0  0
 21 25  1  0  0  0  0
 22 23  1  0  0  0  0
 22 36  1  6  0  0  0
 23 24  1  0  0  0  0
 23 31  1  6  0  0  0
 24 25  1  0  0  0  0
 24 26  1  1  0  0  0
 26 39  1  0  0  0  0
 27 28  1  0  0  0  0
 27 32  1  0  0  0  0
 27 38  1  1  0  0  0
 28 29  1  0  0  0  0
 28 37  1  6  0  0  0
 29 30  1  0  0  0  0
 29 42  1  6  0  0  0
 30 31  1  6  0  0  0
 30 33  1  0  0  0  0
 32 33  1  0  0  0  0
 32 34  1  1  0  0  0
 34 41  1  0  0  0  0
M  CHG  6   4   1  13   1  19   1  35   1  41   1  42   1
M  END
>  <CHROM.1>
-139.83197048,70.20544447,-58.65172216,58.87748088,86.75532498,-172.64509371
-41.10661720,-177.07197946,65.39832911,-68.48931790,94.05878407,-174.42717586
-33.96153882,70.35928586,-156.46442131,66.34710404,174.11980638,-99.03028516
160.70273525,141.51474786,-169.44782533,-117.84825126,-5.16405277,3.88415225
-1.24601099,2.26744755,-0.34279856,1.54588532

>  <Name>


>  <RI>
0

>  <Rbt.Current_Directory>
/home/itssahil/PROJECTS/Mol_Feturizer/New_Systems/rnas/1ei2

>  <Rbt.Executable>
rbdock ($Id: //depot/dev/client3/rdock/2013.1/src/exe/rbdock.cxx#4 $)

>  <Rbt.Library>
libRbt.so (2013.1, Build901 2013/11/27)

>  <Rbt.Parameter_File>
/export/apps/rDock/src/rDock_2013.1_src/data/scripts/dock_solv.prm

>  <Rbt.Receptor>
prm/pocket_docking_2.prm

>  <SCORE>
-42.2216

>  <SCORE.INTER>
-34.4418

>  <SCORE.INTER.CONST>
1

>  <SCORE.INTER.POLAR>
-5.21651

>  <SCORE.INTER.ROT>
9

>  <SCORE.INTER.SOLV>
28.5881

>  <SCORE.INTER.VDW>
-24.7022

>  <SCORE.INTER.norm>
-0.820044

>  <SCORE.INTRA>
-9.12608

>  <SCORE.INTRA.DIHEDRAL>
-4.84334

>  <SCORE.INTRA.DIHEDRAL.0>
40.8761

>  <SCORE.INTRA.POLAR>
-0.0355467

>  <SCORE.INTRA.POLAR.0>
-0.0268208

>  <SCORE.INTRA.REPUL>
-0.641615

>  <SCORE.INTRA.REPUL.0>
0.641615

>  <SCORE.INTRA.SOLV>
-7.66032

>  <SCORE.INTRA.SOLV.lig_0>
-162.567

>  <SCORE.INTRA.VDW>
0.454679

>  <SCORE.INTRA.VDW.0>
-4.80338

>  <SCORE.INTRA.norm>
-0.217288

>  <SCORE.RESTR>
1.34633

>  <SCORE.RESTR.CAVITY>
1.34633

>  <SCORE.RESTR.norm>
0.0320555

>  <SCORE.SYSTEM>
0

>  <SCORE.SYSTEM.CONST>
0

>  <SCORE.SYSTEM.DIHEDRAL>
0

>  <SCORE.SYSTEM.SOLV>
0

>  <SCORE.SYSTEM.norm>
0

>  <SCORE.heavy>
42

>  <SCORE.norm>
-1.00528

>  <RMSD>
1.176

$$$$

 OpenBabel11021811393D
libRbt.so/2013.1/901 2013/11/27
 42 45  0  0  0  0  0  0  0  0999 V2000
   -7.9471    5.0665    0.4018 C   0  0  2  0  0  0  0  0  0  0  0  0
   -6.6317    5.1449    1.0320 O   0  0  0  0  0  0  0  0  0  0  0  0
   -8.6864    6.4434    0.4391 C   0  0  2  0  0  0  0  0  0  0  0  0
   -7.7619    7.5516    0.7710 N   0  3  0  0  0  0  0  0  0  0  0  0
   -9.8750    6.4026    1.4465 C   0  0  1  0  0  0  0  0  0  0  0  0
  -10.5474    7.6599    1.4642 O   0  0  0  0  0  0  0  0  0  0  0  0
  -10.9036    5.2994    1.0799 C   0  0  2  0  0  0  0  0  0  0  0  0
  -11.7925    5.1208    2.1770 O   0  0  0  0  0  0  0  0  0  0  0  0
  -10.1915    3.9495    0.7420 C   0  0  2  0  0  0  0  0  0  0  0  0
   -8.7647    4.0392    1.0602 O   0  0  0  0  0  0  0  0  0  0  0  0
  -10.2836    3.5299   -0.7431 C   0  0  0  0  0  0  0  0  0  0  0  0
   -2.9414    2.9792    1.5895 C   0  0  1  0  0  0  0  0  0  0  0  0
   -1.9246    1.9052    1.6464 N   0  3  0  0  0  0  0  0  0  0  0  0
   -3.3377    3.3108    0.1269 C   0  0  1  0  0  0  0  0  0  0  0  0
   -4.5196    4.3351    0.0089 C   0  0  1  0  0  0  0  0  0  0  0  0
   -5.0046    4.3125   -1.3605 O   0  0  0  0  0  0  0  0  0  0  0  0
   -5.7346    3.9953    0.9483 C   0  0  1  0  0  0  0  0  0  0  0  0
   -5.2725    3.6419    2.3991 C   0  0  1  0  0  0  0  0  0  0  0  0
   -6.3945    3.1791    3.2410 N   0  3  0  0  0  0  0  0  0  0  0  0
   -4.1795    2.5496    2.4038 C   0  0  0  0  0  0  0  0  0  0  0  0
   -4.6897    5.4206   -2.2525 C   0  0  1  0  0  0  0  0  0  0  0  0
   -3.3991    5.0947   -2.9946 C   0  0  1  0  0  0  0  0  0  0  0  0
   -3.9410    4.1731   -4.0789 C   0  0  1  0  0  0  0  0  0  0  0  0
   -5.2435    4.8859   -4.4694 C   0  0  2  0  0  0  0  0  0  0  0  0
   -5.7040    5.5411   -3.2634 O   0  0  0  0  0  0  0  0  0  0  0  0
   -6.3231    3.9225   -4.9943 C   0  0  0  0  0  0  0  0  0  0  0  0
   -3.3284    0.5801   -3.6364 C   0  0  1  0  0  0  0  0  0  0  0  0
   -3.9742    1.0199   -4.9799 C   0  0  1  0  0  0  0  0  0  0  0  0
   -2.9834    1.6997   -5.9684 C   0  0  2  0  0  0  0  0  0  0  0  0
   -2.2072    2.8663   -5.2768 C   0  0  1  0  0  0  0  0  0  0  0  0
   -3.0210    4.0712   -5.2037 O   0  0  0  0  0  0  0  0  0  0  0  0
   -1.8502    1.0671   -3.5461 C   0  0  1  0  0  0  0  0  0  0  0  0
   -1.7773    2.4839   -3.9120 O   0  0  0  0  0  0  0  0  0  0  0  0
   -1.2480    0.8734   -2.1305 C   0  0  0  0  0  0  0  0  0  0  0  0
  -11.6412    3.5961   -1.3120 N   0  3  0  0  0  0  0  0  0  0  0  0
   -2.8467    6.2883   -3.5502 O   0  0  0  0  0  0  0  0  0  0  0  0
   -4.5272   -0.1340   -5.6118 O   0  0  0  0  0  0  0  0  0  0  0  0
   -4.0953    1.1326   -2.5642 O   0  0  0  0  0  0  0  0  0  0  0  0
   -7.3849    3.7979   -4.0639 O   0  0  0  0  0  0  0  0  0  0  0  0
   -2.1998    3.8494   -0.5458 O   0  0  0  0  0  0  0  0  0  0  0  0
   -0.2554    1.9069   -1.7832 N   0  3  0  0  0  0  0  0  0  0  0  0
   -3.6684    2.1285   -7.2131 N   0  3  0  0  0  0  0  0  0  0  0  0
  1  2  1  1  0  0  0
  1  3  1  0  0  0  0
  1 10  1  0  0  0  0
  3  4  1  1  0  0  0
  3  5  1  0  0  0  0
  5  6  1  6  0  0  0
  5  7  1  0  0  0  0
  7  8  1  1  0  0  0
  7  9  1  0  0  0  0
  9 10  1  0  0  0  0
  9 11  1  6  0  0  0
 11 35  1  0  0  0  0
 12 13  1  6  0  0  0
 12 14  1  0  0  0  0
 12 20  1  0  0  0  0
 14 15  1  0  0  0  0
 14 40  1  6  0  0  0
 15 16  1  6  0  0  0
 15 17  1  0  0  0  0
 17  2  1  1  0  0  0
 17 18  1  0  0  0  0
 18 19  1  1  0  0  0
 18 20  1  0  0  0  0
 21 16  1  1  0  0  0
 21 22  1  0  0  0  0
 21 25  1  0  0  0  0
 22 23  1  0  0  0  0
 22 36  1  6  0  0  0
 23 24  1  0  0  0  0
 23 31  1  6  0  0  0
 24 25  1  0  0  0  0
 24 26  1  1  0  0  0
 26 39  1  0  0  0  0
 27 28  1  0  0  0  0
 27 32  1  0  0  0  0
 27 38  1  1  0  0  0
 28 29  1  0  0  0  0
 28 37  1  6  0  0  0
 29 30  1  0  0  0  0
 29 42  1  6  0  0  0
 30 31  1  1  0  0  0
 30 33  1  0  0  0  0
 32 33  1  0  0  0  0
 32 34  1  1  0  0  0
 34 41  1  0  0  0  0
M  CHG  6   4   1  13   1  19   1  35   1  41   1  42   1
M  END
>  <CHROM.1>
-172.78982505,110.27170613,-145.92291309,69.95577901,-179.75294857,-48.70983658
167.79380939,-58.29478593,-59.39439421,-105.86752471,91.56591691,96.69989315
66.07352155,101.97994232,109.59724855,-162.60900798,-49.19640043,176.49633686
-171.03085545,84.30120207,-148.04410981,-164.78491933,-5.47379999,3.73942684
-1.48884652,2.49470711,-0.34741769,1.46523659

>  <Name>


>  <RI>
0

>  <Rbt.Current_Directory>
/home/itssahil/PROJECTS/Mol_Feturizer/New_Systems/rnas/1ei2

>  <Rbt.Executable>
rbdock ($Id: //depot/dev/client3/rdock/2013.1/src/exe/rbdock.cxx#4 $)

>  <Rbt.Library>
libRbt.so (2013.1, Build901 2013/11/27)

>  <Rbt.Parameter_File>
/export/apps/rDock/src/rDock_2013.1_src/data/scripts/dock_solv.prm

>  <Rbt.Receptor>
prm/pocket_docking_2.prm

>  <SCORE>
-37.4636

>  <SCORE.INTER>
-28.6332

>  <SCORE.INTER.CONST>
1

>  <SCORE.INTER.POLAR>
-4.47356

>  <SCORE.INTER.ROT>
9

>  <SCORE.INTER.SOLV>
32.2728

>  <SCORE.INTER.VDW>
-24.5346

>  <SCORE.INTER.norm>
-0.681744

>  <SCORE.INTRA>
-9.19789

>  <SCORE.INTRA.DIHEDRAL>
1.89423

>  <SCORE.INTRA.DIHEDRAL.0>
40.8761

>  <SCORE.INTRA.POLAR>
-1.85939

>  <SCORE.INTRA.POLAR.0>
-0.0268208

>  <SCORE.INTRA.REPUL>
0.0507069

>  <SCORE.INTRA.REPUL.0>
0.641615

>  <SCORE.INTRA.SOLV>
-4.43025

>  <SCORE.INTRA.SOLV.lig_0>
-162.567

>  <SCORE.INTRA.VDW>
-1.8615

>  <SCORE.INTRA.VDW.0>
-4.80338

>  <SCORE.INTRA.norm>
-0.218997

>  <SCORE.RESTR>
0.367495

>  <SCORE.RESTR.CAVITY>
0.367495

>  <SCORE.RESTR.norm>
0.00874989

>  <SCORE.SYSTEM>
0

>  <SCORE.SYSTEM.CONST>
0

>  <SCORE.SYSTEM.DIHEDRAL>
0

>  <SCORE.SYSTEM.SOLV>
0

>  <SCORE.SYSTEM.norm>
0

>  <SCORE.heavy>
42

>  <SCORE.norm>
-0.891991

>  <RMSD>
1.245

$$$$

 OpenBabel11021811393D
libRbt.so/2013.1/901 2013/11/27
 42 45  0  0  0  0  0  0  0  0999 V2000
   -7.2655    4.4862    1.7152 C   0  0  2  0  0  0  0  0  0  0  0  0
   -6.4241    3.8425    2.7208 O   0  0  0  0  0  0  0  0  0  0  0  0
   -7.9244    5.7923    2.2662 C   0  0  2  0  0  0  0  0  0  0  0  0
   -7.2752    6.2465    3.5174 N   0  3  0  0  0  0  0  0  0  0  0  0
   -9.4534    5.5863    2.4872 C   0  0  1  0  0  0  0  0  0  0  0  0
  -10.0448    6.7867    2.9799 O   0  0  0  0  0  0  0  0  0  0  0  0
  -10.1766    5.1844    1.1738 C   0  0  2  0  0  0  0  0  0  0  0  0
  -11.4882    4.7339    1.4939 O   0  0  0  0  0  0  0  0  0  0  0  0
   -9.3948    4.0627    0.4162 C   0  0  2  0  0  0  0  0  0  0  0  0
   -8.3039    3.5564    1.2521 O   0  0  0  0  0  0  0  0  0  0  0  0
   -8.7526    4.5156   -0.9152 C   0  0  0  0  0  0  0  0  0  0  0  0
   -2.2736    2.6620    2.7280 C   0  0  1  0  0  0  0  0  0  0  0  0
   -1.0035    1.9501    2.4625 N   0  3  0  0  0  0  0  0  0  0  0  0
   -2.7802    3.4113    1.4678 C   0  0  1  0  0  0  0  0  0  0  0  0
   -4.1973    4.0599    1.6448 C   0  0  1  0  0  0  0  0  0  0  0  0
   -4.6913    4.4363    0.3314 O   0  0  0  0  0  0  0  0  0  0  0  0
   -5.2522    3.0860    2.2875 C   0  0  1  0  0  0  0  0  0  0  0  0
   -4.6767    2.3389    3.5339 C   0  0  1  0  0  0  0  0  0  0  0  0
   -5.6112    1.3170    4.0481 N   0  3  0  0  0  0  0  0  0  0  0  0
   -3.3295    1.6502    3.2196 C   0  0  0  0  0  0  0  0  0  0  0  0
   -4.1436    5.6120   -0.3324 C   0  0  1  0  0  0  0  0  0  0  0  0
   -3.0769    5.1579   -1.3217 C   0  0  1  0  0  0  0  0  0  0  0  0
   -3.9595    4.7221   -2.4834 C   0  0  1  0  0  0  0  0  0  0  0  0
   -5.0231    5.8292   -2.4972 C   0  0  2  0  0  0  0  0  0  0  0  0
   -5.1621    6.2511   -1.1194 O   0  0  0  0  0  0  0  0  0  0  0  0
   -6.3805    5.3533   -3.0452 C   0  0  0  0  0  0  0  0  0  0  0  0
   -4.0643    0.9363   -3.9703 C   0  0  1  0  0  0  0  0  0  0  0  0
   -4.1115    1.9434   -5.1530 C   0  0  1  0  0  0  0  0  0  0  0  0
   -2.8167    2.7904   -5.3181 C   0  0  2  0  0  0  0  0  0  0  0  0
   -2.4164    3.4778   -3.9731 C   0  0  1  0  0  0  0  0  0  0  0  0
   -3.2131    4.6723   -3.7334 O   0  0  0  0  0  0  0  0  0  0  0  0
   -2.7634    1.1256   -3.1323 C   0  0  1  0  0  0  0  0  0  0  0  0
   -2.5760    2.5472   -2.8318 O   0  0  0  0  0  0  0  0  0  0  0  0
   -2.7906    0.3224   -1.8064 C   0  0  0  0  0  0  0  0  0  0  0  0
   -9.7184    4.9352   -1.9460 N   0  3  0  0  0  0  0  0  0  0  0  0
   -2.2483    6.2640   -1.6801 O   0  0  0  0  0  0  0  0  0  0  0  0
   -4.3331    1.2118   -6.3579 O   0  0  0  0  0  0  0  0  0  0  0  0
   -5.2146    1.1496   -3.1490 O   0  0  0  0  0  0  0  0  0  0  0  0
   -6.2773    5.0005   -4.4140 O   0  0  0  0  0  0  0  0  0  0  0  0
   -1.8468    4.4401    1.1395 O   0  0  0  0  0  0  0  0  0  0  0  0
   -3.2263   -1.0741   -1.9906 N   0  3  0  0  0  0  0  0  0  0  0  0
   -2.9400    3.7560   -6.4383 N   0  3  0  0  0  0  0  0  0  0  0  0
  1  2  1  1  0  0  0
  1  3  1  0  0  0  0
  1 10  1  0  0  0  0
  3  4  1  1  0  0  0
  3  5  1  0  0  0  0
  5  6  1  6  0  0  0
  5  7  1  0  0  0  0
  7  8  1  1  0  0  0
  7  9  1  0  0  0  0
  9 10  1  0  0  0  0
  9 11  1  6  0  0  0
 11 35  1  0  0  0  0
 12 13  1  6  0  0  0
 12 14  1  0  0  0  0
 12 20  1  0  0  0  0
 14 15  1  0  0  0  0
 14 40  1  1  0  0  0
 15 16  1  6  0  0  0
 15 17  1  0  0  0  0
 17  2  1  1  0  0  0
 17 18  1  0  0  0  0
 18 19  1  6  0  0  0
 18 20  1  0  0  0  0
 21 16  1  6  0  0  0
 21 22  1  0  0  0  0
 21 25  1  0  0  0  0
 22 23  1  0  0  0  0
 22 36  1  6  0  0  0
 23 24  1  0  0  0  0
 23 31  1  6  0  0  0
 24 25  1  0  0  0  0
 24 26  1  1  0  0  0
 26 39  1  0  0  0  0
 27 28  1  0  0  0  0
 27 32  1  0  0  0  0
 27 38  1  1  0  0  0
 28 29  1  0  0  0  0
 28 37  1  6  0  0  0
 29 30  1  0  0  0  0
 29 42  1  6  0  0  0
 30 31  1  1  0  0  0
 30 33  1  0  0  0  0
 32 33  1  0  0  0  0
 32 34  1  1  0  0  0
 34 41  1  0  0  0  0
M  CHG  6   4   1  13   1  19   1  35   1  41   1  42   1
M  END
>  <CHROM.1>
-149.00737561,66.15787691,61.91604748,-175.71077223,177.83845017,-63.88728243
-55.09176963,-174.32074817,72.56289200,-75.17717194,97.98439103,-167.88544840
61.75371452,81.54965414,-65.19265488,-46.43205585,63.51222797,63.53163297
147.01490431,123.49213141,47.29543092,-63.82318118,-5.22740217,3.71405343
-0.60817876,2.31799174,-0.44999482,1.59355008

>  <Name>


>  <RI>
0

>  <Rbt.Current_Directory>
/home/itssahil/PROJECTS/Mol_Feturizer/New_Systems/rnas/1ei2

>  <Rbt.Executable>
rbdock ($Id: //depot/dev/client3/rdock/2013.1/src/exe/rbdock.cxx#4 $)

>  <Rbt.Library>
libRbt.so (2013.1, Build901 2013/11/27)

>  <Rbt.Parameter_File>
/export/apps/rDock/src/rDock_2013.1_src/data/scripts/dock_solv.prm

>  <Rbt.Receptor>
prm/pocket_docking_3.prm

>  <SCORE>
-46.44

>  <SCORE.INTER>
-29.2231

>  <SCORE.INTER.CONST>
1

>  <SCORE.INTER.POLAR>
-3.99381

>  <SCORE.INTER.ROT>
9

>  <SCORE.INTER.SOLV>
29.3167

>  <SCORE.INTER.VDW>
-25.5416

>  <SCORE.INTER.norm>
-0.695788

>  <SCORE.INTRA>
-17.4025

>  <SCORE.INTRA.DIHEDRAL>
-15.7041

>  <SCORE.INTRA.DIHEDRAL.0>
40.8761

>  <SCORE.INTRA.POLAR>
0.0190542

>  <SCORE.INTRA.POLAR.0>
-0.0268208

>  <SCORE.INTRA.REPUL>
-0.641615

>  <SCORE.INTRA.REPUL.0>
0.641615

>  <SCORE.INTRA.SOLV>
-10.795

>  <SCORE.INTRA.SOLV.lig_0>
-162.567

>  <SCORE.INTRA.VDW>
-1.00967

>  <SCORE.INTRA.VDW.0>
-4.80338

>  <SCORE.INTRA.norm>
-0.414346

>  <SCORE.RESTR>
0.185656

>  <SCORE.RESTR.CAVITY>
0.185656

>  <SCORE.RESTR.norm>
0.00442039

>  <SCORE.SYSTEM>
0

>  <SCORE.SYSTEM.CONST>
0

>  <SCORE.SYSTEM.DIHEDRAL>
0

>  <SCORE.SYSTEM.SOLV>
0

>  <SCORE.SYSTEM.norm>
0

>  <SCORE.heavy>
42

>  <SCORE.norm>
-1.10571

>  <RMSD>
1.267

$$$$

 OpenBabel11021811393D
libRbt.so/2013.1/901 2013/11/27
 42 45  0  0  0  0  0  0  0  0999 V2000
   -7.5306    4.9481    0.6642 C   0  0  2  0  0  0  0  0  0  0  0  0
   -6.2146    5.1138    1.2761 O   0  0  0  0  0  0  0  0  0  0  0  0
   -8.3218    6.2958    0.6261 C   0  0  2  0  0  0  0  0  0  0  0  0
   -7.4380    7.4561    0.8823 N   0  3  0  0  0  0  0  0  0  0  0  0
   -9.5005    6.2709    1.6453 C   0  0  1  0  0  0  0  0  0  0  0  0
  -10.2204    7.5007    1.5943 O   0  0  0  0  0  0  0  0  0  0  0  0
  -10.4889    5.1096    1.3552 C   0  0  2  0  0  0  0  0  0  0  0  0
  -11.3623    4.9639    2.4695 O   0  0  0  0  0  0  0  0  0  0  0  0
   -9.7282    3.7697    1.0920 C   0  0  2  0  0  0  0  0  0  0  0  0
   -8.3035    3.9321    1.3907 O   0  0  0  0  0  0  0  0  0  0  0  0
   -9.8149    3.2583   -0.3645 C   0  0  0  0  0  0  0  0  0  0  0  0
   -2.5437    3.0351    2.1831 C   0  0  1  0  0  0  0  0  0  0  0  0
   -1.5066    1.9886    2.3237 N   0  3  0  0  0  0  0  0  0  0  0  0
   -2.7850    3.4010    0.6952 C   0  0  1  0  0  0  0  0  0  0  0  0
   -3.9777    4.3953    0.4740 C   0  0  1  0  0  0  0  0  0  0  0  0
   -4.3064    4.4020   -0.9412 O   0  0  0  0  0  0  0  0  0  0  0  0
   -5.2785    3.9927    1.2615 C   0  0  1  0  0  0  0  0  0  0  0  0
   -4.9699    3.6072    2.7444 C   0  0  1  0  0  0  0  0  0  0  0  0
   -6.1636    3.0874    3.4421 N   0  3  0  0  0  0  0  0  0  0  0  0
   -3.8507    2.5461    2.8412 C   0  0  0  0  0  0  0  0  0  0  0  0
   -3.9914    5.5747   -1.7464 C   0  0  1  0  0  0  0  0  0  0  0  0
   -2.7805    5.2559   -2.6152 C   0  0  1  0  0  0  0  0  0  0  0  0
   -3.4548    4.4761   -3.7358 C   0  0  1  0  0  0  0  0  0  0  0  0
   -4.7371    5.2919   -3.9535 C   0  0  2  0  0  0  0  0  0  0  0  0
   -5.0677    5.8481   -2.6585 O   0  0  0  0  0  0  0  0  0  0  0  0
   -5.9083    4.4436   -4.4806 C   0  0  0  0  0  0  0  0  0  0  0  0
   -4.2503    0.9705   -4.6420 C   0  0  1  0  0  0  0  0  0  0  0  0
   -4.5834    2.0275   -5.7315 C   0  0  1  0  0  0  0  0  0  0  0  0
   -3.3354    2.6010   -6.4627 C   0  0  2  0  0  0  0  0  0  0  0  0
   -2.2721    3.1201   -5.4420 C   0  0  1  0  0  0  0  0  0  0  0  0
   -2.6274    4.4373   -4.9341 O   0  0  0  0  0  0  0  0  0  0  0  0
   -2.7092    0.8464   -4.4424 C   0  0  1  0  0  0  0  0  0  0  0  0
   -2.1232    2.1823   -4.3054 O   0  0  0  0  0  0  0  0  0  0  0  0
   -2.3392   -0.0037   -3.1997 C   0  0  0  0  0  0  0  0  0  0  0  0
   -9.9339    4.3216   -1.3776 N   0  3  0  0  0  0  0  0  0  0  0  0
   -2.1992    6.4677   -3.0971 O   0  0  0  0  0  0  0  0  0  0  0  0
   -5.4389    1.4212   -6.6995 O   0  0  0  0  0  0  0  0  0  0  0  0
   -4.8747    1.3693   -3.4197 O   0  0  0  0  0  0  0  0  0  0  0  0
   -6.8755    5.2590   -5.1197 O   0  0  0  0  0  0  0  0  0  0  0  0
   -1.5967    3.9917    0.1695 O   0  0  0  0  0  0  0  0  0  0  0  0
   -1.9509    0.8173   -2.0382 N   0  3  0  0  0  0  0  0  0  0  0  0
   -3.7177    3.6295   -7.4618 N   0  3  0  0  0  0  0  0  0  0  0  0
  1  2  1  1  0  0  0
  1  3  1  0  0  0  0
  1 10  1  0  0  0  0
  3  4  1  1  0  0  0
  3  5  1  0  0  0  0
  5  6  1  6  0  0  0
  5  7  1  0  0  0  0
  7  8  1  1  0  0  0
  7  9  1  0  0  0  0
  9 10  1  0  0  0  0
  9 11  1  6  0  0  0
 11 35  1  0  0  0  0
 12 13  1  6  0  0  0
 12 14  1  0  0  0  0
 12 20  1  0  0  0  0
 14 15  1  0  0  0  0
 14 40  1  1  0  0  0
 15 16  1  6  0  0  0
 15 17  1  0  0  0  0
 17  2  1  1  0  0  0
 17 18  1  0  0  0  0
 18 19  1  6  0  0  0
 18 20  1  0  0  0  0
 21 16  1  1  0  0  0
 21 22  1  0  0  0  0
 21 25  1  0  0  0  0
 22 23  1  0  0  0  0
 22 36  1  6  0  0  0
 23 24  1  0  0  0  0
 23 31  1  6  0  0  0
 24 25  1  0  0  0  0
 24 26  1  1  0  0  0
 26 39  1  0  0  0  0
 27 28  1  0  0  0  0
 27 32  1  0  0  0  0
 27 38  1  1  0  0  0
 28 29  1  0  0  0  0
 28 37  1  6  0  0  0
 29 30  1  0  0  0  0
 29 42  1  6  0  0  0
 30 31  1  1  0  0  0
 30 33  1  0  0  0  0
 32 33  1  0  0  0  0
 32 34  1  1  0  0  0
 34 41  1  0  0  0  0
M  CHG  6   4   1  13   1  19   1  35   1  41   1  42   1
M  END
>  <CHROM.1>
-173.23547157,119.08963107,-140.65446377,58.22057431,66.65563391,30.51469289
65.16842319,-173.02604449,169.91969908,-109.05214758,105.29231789,89.77933805
-143.57234864,122.54057592,-158.52171518,47.53427935,47.90084513,68.12377169
-163.68330851,89.76940335,-101.39956524,-42.71027468,-5.28464145,3.91075065
-1.43303935,2.31061668,-0.38012042,1.53603970

>  <Name>


>  <RI>
0

>  <Rbt.Current_Directory>
/home/itssahil/PROJECTS/Mol_Feturizer/New_Systems/rnas/1ei2

>  <Rbt.Executable>
rbdock ($Id: //depot/dev/client3/rdock/2013.1/src/exe/rbdock.cxx#4 $)

>  <Rbt.Library>
libRbt.so (2013.1, Build901 2013/11/27)

>  <Rbt.Parameter_File>
/export/apps/rDock/src/rDock_2013.1_src/data/scripts/dock_solv.prm

>  <Rbt.Receptor>
prm/pocket_docking_2.prm

>  <SCORE>
-29.1663

>  <SCORE.INTER>
-23.7141

>  <SCORE.INTER.CONST>
1

>  <SCORE.INTER.POLAR>
-3.12434

>  <SCORE.INTER.ROT>
9

>  <SCORE.INTER.SOLV>
25.3971

>  <SCORE.INTER.VDW>
-23.4606

>  <SCORE.INTER.norm>
-0.564622

>  <SCORE.INTRA>
-5.74161

>  <SCORE.INTRA.DIHEDRAL>
11.8104

>  <SCORE.INTRA.DIHEDRAL.0>
40.8761

>  <SCORE.INTRA.POLAR>
-1.95575

>  <SCORE.INTRA.POLAR.0>
-0.0268208

>  <SCORE.INTRA.REPUL>
-0.350062

>  <SCORE.INTRA.REPUL.0>
0.641615

>  <SCORE.INTRA.SOLV>
-4.17246

>  <SCORE.INTRA.SOLV.lig_0>
-162.567

>  <SCORE.INTRA.VDW>
-1.16074

>  <SCORE.INTRA.VDW.0>
-4.80338

>  <SCORE.INTRA.norm>
-0.136705

>  <SCORE.RESTR>
0.289444

>  <SCORE.RESTR.CAVITY>
0.289444

>  <SCORE.RESTR.norm>
0.00689151

>  <SCORE.SYSTEM>
0

>  <SCORE.SYSTEM.CONST>
0

>  <SCORE.SYSTEM.DIHEDRAL>
0

>  <SCORE.SYSTEM.SOLV>
0

>  <SCORE.SYSTEM.norm>
0

>  <SCORE.heavy>
42

>  <SCORE.norm>
-0.694436

>  <RMSD>
1.271

$$$$

 OpenBabel11021811393D
libRbt.so/2013.1/901 2013/11/27
 42 45  0  0  0  0  0  0  0  0999 V2000
   -7.5524    4.9227    0.5633 C   0  0  2  0  0  0  0  0  0  0  0  0
   -6.4726    4.8912    1.5465 O   0  0  0  0  0  0  0  0  0  0  0  0
   -8.9364    5.1968    1.2366 C   0  0  2  0  0  0  0  0  0  0  0  0
   -8.7809    5.7017    2.6201 N   0  3  0  0  0  0  0  0  0  0  0  0
   -9.8206    3.9136    1.2190 C   0  0  1  0  0  0  0  0  0  0  0  0
  -11.0833    4.1786    1.8263 O   0  0  0  0  0  0  0  0  0  0  0  0
  -10.0669    3.4031   -0.2261 C   0  0  2  0  0  0  0  0  0  0  0  0
  -10.6208    2.0938   -0.1600 O   0  0  0  0  0  0  0  0  0  0  0  0
   -8.7413    3.3829   -1.0542 C   0  0  2  0  0  0  0  0  0  0  0  0
   -7.5977    3.6575   -0.1812 O   0  0  0  0  0  0  0  0  0  0  0  0
   -8.6816    4.4246   -2.1950 C   0  0  0  0  0  0  0  0  0  0  0  0
   -2.4538    3.3987    2.0382 C   0  0  1  0  0  0  0  0  0  0  0  0
   -1.2472    2.5425    2.0029 N   0  3  0  0  0  0  0  0  0  0  0  0
   -2.8420    3.8939    0.6203 C   0  0  1  0  0  0  0  0  0  0  0  0
   -4.1977    4.6814    0.5748 C   0  0  1  0  0  0  0  0  0  0  0  0
   -4.6063    4.8014   -0.8143 O   0  0  0  0  0  0  0  0  0  0  0  0
   -5.3617    3.9631    1.3516 C   0  0  1  0  0  0  0  0  0  0  0  0
   -4.9043    3.4613    2.7594 C   0  0  1  0  0  0  0  0  0  0  0  0
   -5.9484    2.6583    3.4279 N   0  3  0  0  0  0  0  0  0  0  0  0
   -3.6170    2.6106    2.6757 C   0  0  0  0  0  0  0  0  0  0  0  0
   -4.1830    5.9596   -1.5902 C   0  0  1  0  0  0  0  0  0  0  0  0
   -3.0549    5.5334   -2.5223 C   0  0  1  0  0  0  0  0  0  0  0  0
   -3.8626    4.8864   -3.6392 C   0  0  1  0  0  0  0  0  0  0  0  0
   -5.0437    5.8585   -3.7710 C   0  0  2  0  0  0  0  0  0  0  0  0
   -5.2531    6.3971   -2.4437 O   0  0  0  0  0  0  0  0  0  0  0  0
   -6.3292    5.1790   -4.2761 C   0  0  0  0  0  0  0  0  0  0  0  0
   -2.7018    1.4259   -3.0797 C   0  0  1  0  0  0  0  0  0  0  0  0
   -3.5257    1.6613   -4.3763 C   0  0  1  0  0  0  0  0  0  0  0  0
   -2.7472    2.4097   -5.4965 C   0  0  2  0  0  0  0  0  0  0  0  0
   -2.1084    3.7291   -4.9552 C   0  0  1  0  0  0  0  0  0  0  0  0
   -3.0939    4.7975   -4.8733 O   0  0  0  0  0  0  0  0  0  0  0  0
   -1.3179    2.1384   -3.1650 C   0  0  1  0  0  0  0  0  0  0  0  0
   -1.5040    3.5188   -3.6195 O   0  0  0  0  0  0  0  0  0  0  0  0
   -0.5697    2.1441   -1.8071 C   0  0  0  0  0  0  0  0  0  0  0  0
   -9.9166    4.5267   -2.9922 N   0  3  0  0  0  0  0  0  0  0  0  0
   -2.3500    6.6853   -2.9857 O   0  0  0  0  0  0  0  0  0  0  0  0
   -3.9418    0.3930   -4.8810 O   0  0  0  0  0  0  0  0  0  0  0  0
   -3.4490    1.9323   -1.9714 O   0  0  0  0  0  0  0  0  0  0  0  0
   -6.0513    4.3211   -5.3695 O   0  0  0  0  0  0  0  0  0  0  0  0
   -1.8051    4.7443    0.1316 O   0  0  0  0  0  0  0  0  0  0  0  0
   -0.9992    1.0549   -0.9110 N   0  3  0  0  0  0  0  0  0  0  0  0
   -3.5991    2.6356   -6.6904 N   0  3  0  0  0  0  0  0  0  0  0  0
  1  2  1  1  0  0  0
  1  3  1  0  0  0  0
  1 10  1  0  0  0  0
  3  4  1  1  0  0  0
  3  5  1  0  0  0  0
  5  6  1  6  0  0  0
  5  7  1  0  0  0  0
  7  8  1  1  0  0  0
  7  9  1  0  0  0  0
  9 10  1  0  0  0  0
  9 11  1  6  0  0  0
 11 35  1  0  0  0  0
 12 13  1  6  0  0  0
 12 14  1  0  0  0  0
 12 20  1  0  0  0  0
 14 15  1  0  0  0  0
 14 40  1  1  0  0  0
 15 16  1  6  0  0  0
 15 17  1  0  0  0  0
 17  2  1  1  0  0  0
 17 18  1  0  0  0  0
 18 19  1  6  0  0  0
 18 20  1  0  0  0  0
 21 16  1  6  0  0  0
 21 22  1  0  0  0  0
 21 25  1  0  0  0  0
 22 23  1  0  0  0  0
 22 36  1  6  0  0  0
 23 24  1  0  0  0  0
 23 31  1  6  0  0  0
 24 25  1  0  0  0  0
 24 26  1  1  0  0  0
 26 39  1  0  0  0  0
 27 28  1  0  0  0  0
 27 32  1  0  0  0  0
 27 38  1  1  0  0  0
 28 29  1  0  0  0  0
 28 37  1  6  0  0  0
 29 30  1  0  0  0  0
 29 42  1  6  0  0  0
 30 31  1  1  0  0  0
 30 33  1  0  0  0  0
 32 33  1  0  0  0  0
 32 34  1  1  0  0  0
 34 41  1  0  0  0  0
M  CHG  6   4   1  13   1  19   1  35   1  41   1  42   1
M  END
>  <CHROM.1>
144.71132476,92.80190474,153.95088909,-64.17886099,176.73560441,-43.92914169
91.28740636,43.75218803,71.02503922,-90.65539857,103.77570531,177.80539259
-159.71079189,78.10081756,-45.06081880,-49.22245574,60.56553170,-56.25202927
81.51298595,87.67899944,23.92284351,-58.33386977,-5.04175848,3.78312757,-1.32647318
2.52311065,-0.17683188,1.59847644

>  <Name>


>  <RI>
0

>  <Rbt.Current_Directory>
/home/itssahil/PROJECTS/Mol_Feturizer/New_Systems/rnas/1ei2

>  <Rbt.Executable>
rbdock ($Id: //depot/dev/client3/rdock/2013.1/src/exe/rbdock.cxx#4 $)

>  <Rbt.Library>
libRbt.so (2013.1, Build901 2013/11/27)

>  <Rbt.Parameter_File>
/export/apps/rDock/src/rDock_2013.1_src/data/scripts/dock_solv.prm

>  <Rbt.Receptor>
prm/pocket_docking_2.prm

>  <SCORE>
-35.0446

>  <SCORE.INTER>
-27.8561

>  <SCORE.INTER.CONST>
1

>  <SCORE.INTER.POLAR>
-3.32947

>  <SCORE.INTER.ROT>
9

>  <SCORE.INTER.SOLV>
28.4545

>  <SCORE.INTER.VDW>
-26.5573

>  <SCORE.INTER.norm>
-0.66324

>  <SCORE.INTRA>
-8.63424

>  <SCORE.INTRA.DIHEDRAL>
-3.99356

>  <SCORE.INTRA.DIHEDRAL.0>
40.8761

>  <SCORE.INTRA.POLAR>
-0.705088

>  <SCORE.INTRA.POLAR.0>
-0.0268208

>  <SCORE.INTRA.REPUL>
-0.382348

>  <SCORE.INTRA.REPUL.0>
0.641615

>  <SCORE.INTRA.SOLV>
1.92326

>  <SCORE.INTRA.SOLV.lig_0>
-162.567

>  <SCORE.INTRA.VDW>
-3.29005

>  <SCORE.INTRA.VDW.0>
-4.80338

>  <SCORE.INTRA.norm>
-0.205577

>  <SCORE.RESTR>
1.4457

>  <SCORE.RESTR.CAVITY>
1.4457

>  <SCORE.RESTR.norm>
0.0344215

>  <SCORE.SYSTEM>
0

>  <SCORE.SYSTEM.CONST>
0

>  <SCORE.SYSTEM.DIHEDRAL>
0

>  <SCORE.SYSTEM.SOLV>
0

>  <SCORE.SYSTEM.norm>
0

>  <SCORE.heavy>
42

>  <SCORE.norm>
-0.834396

>  <RMSD>
1.500

$$$$

 OpenBabel11021811393D
libRbt.so/2013.1/901 2013/11/27
 42 45  0  0  0  0  0  0  0  0999 V2000
   -7.5032    4.8189    0.4543 C   0  0  2  0  0  0  0  0  0  0  0  0
   -6.1658    5.0176    1.0070 O   0  0  0  0  0  0  0  0  0  0  0  0
   -8.3573    6.1261    0.5296 C   0  0  2  0  0  0  0  0  0  0  0  0
   -7.5162    7.3139    0.8034 N   0  3  0  0  0  0  0  0  0  0  0  0
   -9.4778    5.9902    1.6042 C   0  0  1  0  0  0  0  0  0  0  0  0
  -10.2560    7.1840    1.6564 O   0  0  0  0  0  0  0  0  0  0  0  0
  -10.4249    4.7982    1.3017 C   0  0  2  0  0  0  0  0  0  0  0  0
  -11.2303    4.5519    2.4491 O   0  0  0  0  0  0  0  0  0  0  0  0
   -9.6176    3.5129    0.9279 C   0  0  2  0  0  0  0  0  0  0  0  0
   -8.1882    3.7298    1.1626 O   0  0  0  0  0  0  0  0  0  0  0  0
   -9.7576    3.0740   -0.5479 C   0  0  0  0  0  0  0  0  0  0  0  0
   -2.5583    2.9255    2.1157 C   0  0  1  0  0  0  0  0  0  0  0  0
   -1.5425    1.8710    2.3315 N   0  3  0  0  0  0  0  0  0  0  0  0
   -2.7457    3.2352    0.6073 C   0  0  1  0  0  0  0  0  0  0  0  0
   -3.9152    4.2365    0.3081 C   0  0  1  0  0  0  0  0  0  0  0  0
   -4.1978    4.1914   -1.1164 O   0  0  0  0  0  0  0  0  0  0  0  0
   -5.2469    3.8838    1.0674 C   0  0  1  0  0  0  0  0  0  0  0  0
   -4.9924    3.5534    2.5737 C   0  0  1  0  0  0  0  0  0  0  0  0
   -6.2159    3.0785    3.2515 N   0  3  0  0  0  0  0  0  0  0  0  0
   -3.8933    2.4814    2.7490 C   0  0  0  0  0  0  0  0  0  0  0  0
   -4.7428    5.3694   -1.7784 C   0  0  1  0  0  0  0  0  0  0  0  0
   -4.3030    5.3532   -3.2375 C   0  0  1  0  0  0  0  0  0  0  0  0
   -5.3166    4.3718   -3.8101 C   0  0  1  0  0  0  0  0  0  0  0  0
   -6.6034    4.7993   -3.0899 C   0  0  2  0  0  0  0  0  0  0  0  0
   -6.1780    5.3009   -1.8003 O   0  0  0  0  0  0  0  0  0  0  0  0
   -7.6027    3.6432   -2.9056 C   0  0  0  0  0  0  0  0  0  0  0  0
   -3.4838    1.2749   -4.5564 C   0  0  1  0  0  0  0  0  0  0  0  0
   -4.9584    1.3448   -5.0422 C   0  0  1  0  0  0  0  0  0  0  0  0
   -5.1747    2.2529   -6.2870 C   0  0  2  0  0  0  0  0  0  0  0  0
   -4.5585    3.6716   -6.0648 C   0  0  1  0  0  0  0  0  0  0  0  0
   -5.4346    4.5066   -5.2558 O   0  0  0  0  0  0  0  0  0  0  0  0
   -2.5875    2.2647   -5.3607 C   0  0  1  0  0  0  0  0  0  0  0  0
   -3.2321    3.5794   -5.4121 O   0  0  0  0  0  0  0  0  0  0  0  0
   -1.1713    2.4138   -4.7474 C   0  0  0  0  0  0  0  0  0  0  0  0
  -11.0193    3.4846   -1.1887 N   0  3  0  0  0  0  0  0  0  0  0  0
   -4.4576    6.6550   -3.8031 O   0  0  0  0  0  0  0  0  0  0  0  0
   -5.3892    0.0228   -5.3633 O   0  0  0  0  0  0  0  0  0  0  0  0
   -3.4507    1.5999   -3.1649 O   0  0  0  0  0  0  0  0  0  0  0  0
   -6.9583    2.4980   -2.3747 O   0  0  0  0  0  0  0  0  0  0  0  0
   -1.5321    3.7879    0.0984 O   0  0  0  0  0  0  0  0  0  0  0  0
   -0.8478    1.3450   -3.7846 N   0  3  0  0  0  0  0  0  0  0  0  0
   -6.6056    2.3065   -6.6767 N   0  3  0  0  0  0  0  0  0  0  0  0
  1  2  1  1  0  0  0
  1  3  1  0  0  0  0
  1 10  1  0  0  0  0
  3  4  1  1  0  0  0
  3  5  1  0  0  0  0
  5  6  1  6  0  0  0
  5  7  1  0  0  0  0
  7  8  1  1  0  0  0
  7  9  1  0  0  0  0
  9 10  1  0  0  0  0
  9 11  1  6  0  0  0
 11 35  1  0  0  0  0
 12 13  1  6  0  0  0
 12 14  1  0  0  0  0
 12 20  1  0  0  0  0
 14 15  1  0  0  0  0
 14 40  1  1  0  0  0
 15 16  1  6  0  0  0
 15 17  1  0  0  0  0
 17  2  1  1  0  0  0
 17 18  1  0  0  0  0
 18 19  1  6  0  0  0
 18 20  1  0  0  0  0
 21 16  1  1  0  0  0
 21 22  1  0  0  0  0
 21 25  1  0  0  0  0
 22 23  1  0  0  0  0
 22 36  1  6  0  0  0
 23 24  1  0  0  0  0
 23 31  1  6  0  0  0
 24 25  1  0  0  0  0
 24 26  1  1  0  0  0
 26 39  1  0  0  0  0
 27 28  1  0  0  0  0
 27 32  1  0  0  0  0
 27 38  1  1  0  0  0
 28 29  1  0  0  0  0
 28 37  1  6  0  0  0
 29 30  1  0  0  0  0
 29 42  1  1  0  0  0
 30 31  1  1  0  0  0
 30 33  1  0  0  0  0
 32 33  1  0  0  0  0
 32 34  1  1  0  0  0
 34 41  1  0  0  0  0
M  CHG  6   4   1  13   1  19   1  35   1  41   1  42   1
M  END
>  <CHROM.1>
177.56925573,123.87723844,-35.27392533,177.12470484,-64.36799367,-26.87670752
60.33638003,-173.28478389,-63.83387889,-151.71232534,151.65952222,-166.15126795
54.16450108,90.87978178,48.48829630,173.67392129,40.02994935,56.17379250
59.45333201,84.90378675,15.66728322,58.20285517,-5.71794137,3.73933804,-1.42424714
2.27753809,-0.27801244,1.42659083

>  <Name>


>  <RI>
0

>  <Rbt.Current_Directory>
/home/itssahil/PROJECTS/Mol_Feturizer/New_Systems/rnas/1ei2

>  <Rbt.Executable>
rbdock ($Id: //depot/dev/client3/rdock/2013.1/src/exe/rbdock.cxx#4 $)

>  <Rbt.Library>
libRbt.so (2013.1, Build901 2013/11/27)

>  <Rbt.Parameter_File>
/export/apps/rDock/src/rDock_2013.1_src/data/scripts/dock_solv.prm

>  <Rbt.Receptor>
prm/pocket_docking_2.prm

>  <SCORE>
-32.9347

>  <SCORE.INTER>
-19.7628

>  <SCORE.INTER.CONST>
1

>  <SCORE.INTER.POLAR>
-3.12567

>  <SCORE.INTER.ROT>
9

>  <SCORE.INTER.SOLV>
26.8184

>  <SCORE.INTER.VDW>
-21.2958

>  <SCORE.INTER.norm>
-0.470544

>  <SCORE.INTRA>
-14.5732

>  <SCORE.INTRA.DIHEDRAL>
-7.56401

>  <SCORE.INTRA.DIHEDRAL.0>
40.8761

>  <SCORE.INTRA.POLAR>
-1.57358

>  <SCORE.INTRA.POLAR.0>
-0.0268208

>  <SCORE.INTRA.REPUL>
-0.223922

>  <SCORE.INTRA.REPUL.0>
0.641615

>  <SCORE.INTRA.SOLV>
-4.40585

>  <SCORE.INTRA.SOLV.lig_0>
-162.567

>  <SCORE.INTRA.VDW>
-2.11846

>  <SCORE.INTRA.VDW.0>
-4.80338

>  <SCORE.INTRA.norm>
-0.346981

>  <SCORE.RESTR>
1.40136

>  <SCORE.RESTR.CAVITY>
1.40136

>  <SCORE.RESTR.norm>
0.0333657

>  <SCORE.SYSTEM>
0

>  <SCORE.SYSTEM.CONST>
0

>  <SCORE.SYSTEM.DIHEDRAL>
0

>  <SCORE.SYSTEM.SOLV>
0

>  <SCORE.SYSTEM.norm>
0

>  <SCORE.heavy>
42

>  <SCORE.norm>
-0.784159

>  <RMSD>
1.609

$$$$

 OpenBabel11021811393D
libRbt.so/2013.1/901 2013/11/27
 42 45  0  0  0  0  0  0  0  0999 V2000
   -8.0303    3.5453    0.8499 C   0  0  2  0  0  0  0  0  0  0  0  0
   -7.1804    2.5503    0.2008 O   0  0  0  0  0  0  0  0  0  0  0  0
   -9.4939    3.4974    0.3027 C   0  0  2  0  0  0  0  0  0  0  0  0
   -9.7522    2.2544   -0.4598 N   0  3  0  0  0  0  0  0  0  0  0  0
   -9.7944    4.7497   -0.5751 C   0  0  1  0  0  0  0  0  0  0  0  0
  -11.1345    4.6999   -1.0598 O   0  0  0  0  0  0  0  0  0  0  0  0
   -9.6075    6.0694    0.2204 C   0  0  2  0  0  0  0  0  0  0  0  0
   -9.6098    7.1591   -0.6951 O   0  0  0  0  0  0  0  0  0  0  0  0
   -8.2733    6.0568    1.0348 C   0  0  2  0  0  0  0  0  0  0  0  0
   -7.4688    4.8899    0.6656 O   0  0  0  0  0  0  0  0  0  0  0  0
   -8.4585    5.9937    2.5684 C   0  0  0  0  0  0  0  0  0  0  0  0
   -3.5562    3.7939    2.1854 C   0  0  1  0  0  0  0  0  0  0  0  0
   -2.1551    3.8737    2.6554 N   0  3  0  0  0  0  0  0  0  0  0  0
   -3.6695    4.1260    0.6744 C   0  0  1  0  0  0  0  0  0  0  0  0
   -5.1075    3.9118    0.0861 C   0  0  1  0  0  0  0  0  0  0  0  0
   -5.0129    3.9357   -1.3636 O   0  0  0  0  0  0  0  0  0  0  0  0
   -5.7502    2.5363    0.4971 C   0  0  1  0  0  0  0  0  0  0  0  0
   -5.5801    2.2428    2.0228 C   0  0  1  0  0  0  0  0  0  0  0  0
   -6.0491    0.8891    2.3827 N   0  3  0  0  0  0  0  0  0  0  0  0
   -4.1090    2.3827    2.4743 C   0  0  0  0  0  0  0  0  0  0  0  0
   -4.6454    5.1731   -2.0393 C   0  0  1  0  0  0  0  0  0  0  0  0
   -3.5315    4.8702   -3.0345 C   0  0  1  0  0  0  0  0  0  0  0  0
   -4.3505    4.3032   -4.1861 C   0  0  1  0  0  0  0  0  0  0  0  0
   -5.5628    5.2452   -4.1980 C   0  0  2  0  0  0  0  0  0  0  0  0
   -5.7511    5.6528   -2.8218 O   0  0  0  0  0  0  0  0  0  0  0  0
   -6.8413    4.5745   -4.7317 C   0  0  0  0  0  0  0  0  0  0  0  0
   -3.4708    0.6595   -4.4017 C   0  0  1  0  0  0  0  0  0  0  0  0
   -4.1789    1.2063   -5.6726 C   0  0  1  0  0  0  0  0  0  0  0  0
   -3.2895    2.1404   -6.5430 C   0  0  2  0  0  0  0  0  0  0  0  0
   -2.6576    3.2813   -5.6823 C   0  0  1  0  0  0  0  0  0  0  0  0
   -3.6139    4.3522   -5.4419 O   0  0  0  0  0  0  0  0  0  0  0  0
   -2.0638    1.3079   -4.2286 C   0  0  1  0  0  0  0  0  0  0  0  0
   -2.1707    2.7609   -4.3839 O   0  0  0  0  0  0  0  0  0  0  0  0
   -1.4288    0.9868   -2.8510 C   0  0  0  0  0  0  0  0  0  0  0  0
   -9.4270    6.9655    3.1058 N   0  3  0  0  0  0  0  0  0  0  0  0
   -2.8738    6.0816   -3.4067 O   0  0  0  0  0  0  0  0  0  0  0  0
   -4.5904    0.0970   -6.4704 O   0  0  0  0  0  0  0  0  0  0  0  0
   -4.2903    0.9507   -3.2674 O   0  0  0  0  0  0  0  0  0  0  0  0
   -7.0764    3.3405   -4.0754 O   0  0  0  0  0  0  0  0  0  0  0  0
   -3.2946    5.4888    0.4749 O   0  0  0  0  0  0  0  0  0  0  0  0
   -2.2013   -0.0051   -2.0807 N   0  3  0  0  0  0  0  0  0  0  0  0
   -4.0342    2.6572   -7.7180 N   0  3  0  0  0  0  0  0  0  0  0  0
  1  2  1  6  0  0  0
  1  3  1  0  0  0  0
  1 10  1  0  0  0  0
  3  4  1  6  0  0  0
  3  5  1  0  0  0  0
  5  6  1  1  0  0  0
  5  7  1  0  0  0  0
  7  8  1  6  0  0  0
  7  9  1  0  0  0  0
  9 10  1  0  0  0  0
  9 11  1  1  0  0  0
 11 35  1  0  0  0  0
 12 13  1  6  0  0  0
 12 14  1  0  0  0  0
 12 20  1  0  0  0  0
 14 15  1  0  0  0  0
 14 40  1  1  0  0  0
 15 16  1  6  0  0  0
 15 17  1  0  0  0  0
 17  2  1  1  0  0  0
 17 18  1  0  0  0  0
 18 19  1  6  0  0  0
 18 20  1  0  0  0  0
 21 16  1  6  0  0  0
 21 22  1  0  0  0  0
 21 25  1  0  0  0  0
 22 23  1  0  0  0  0
 22 36  1  6  0  0  0
 23 24  1  0  0  0  0
 23 31  1  6  0  0  0
 24 25  1  0  0  0  0
 24 26  1  1  0  0  0
 26 39  1  0  0  0  0
 27 28  1  0  0  0  0
 27 32  1  0  0  0  0
 27 38  1  1  0  0  0
 28 29  1  0  0  0  0
 28 37  1  6  0  0  0
 29 30  1  0  0  0  0
 29 42  1  6  0  0  0
 30 31  1  1  0  0  0
 30 33  1  0  0  0  0
 32 33  1  0  0  0  0
 32 34  1  1  0  0  0
 34 41  1  0  0  0  0
M  CHG  6   4   1  13   1  19   1  35   1  41   1  42   1
M  END
>  <CHROM.1>
174.26576830,-60.37490619,-32.40127551,-173.19718578,66.35076812,-48.59718777
-47.80273595,-66.05888645,-55.72765829,-66.66751635,130.79614833,-60.69211818
68.46790852,81.71136792,50.54901093,174.45446847,-61.65508749,-61.02525185
-152.22990685,95.70659062,7.86775176,-77.98596613,-5.52850716,3.59772729
-1.64636716,2.28888943,-0.44777283,1.52872754

>  <Name>


>  <RI>
0

>  <Rbt.Current_Directory>
/home/itssahil/PROJECTS/Mol_Feturizer/New_Systems/rnas/1ei2

>  <Rbt.Executable>
rbdock ($Id: //depot/dev/client3/rdock/2013.1/src/exe/rbdock.cxx#4 $)

>  <Rbt.Library>
libRbt.so (2013.1, Build901 2013/11/27)

>  <Rbt.Parameter_File>
/export/apps/rDock/src/rDock_2013.1_src/data/scripts/dock_solv.prm

>  <Rbt.Receptor>
prm/pocket_docking_2.prm

>  <SCORE>
-31.6554

>  <SCORE.INTER>
-18.4777

>  <SCORE.INTER.CONST>
1

>  <SCORE.INTER.POLAR>
-2.63661

>  <SCORE.INTER.ROT>
9

>  <SCORE.INTER.SOLV>
22.0639

>  <SCORE.INTER.VDW>
-20.4844

>  <SCORE.INTER.norm>
-0.439945

>  <SCORE.INTRA>
-15.2006

>  <SCORE.INTRA.DIHEDRAL>
-15.0997

>  <SCORE.INTRA.DIHEDRAL.0>
40.8761

>  <SCORE.INTRA.POLAR>
-0.442794

>  <SCORE.INTRA.POLAR.0>
-0.0268208

>  <SCORE.INTRA.REPUL>
-0.461439

>  <SCORE.INTRA.REPUL.0>
0.641615

>  <SCORE.INTRA.SOLV>
-9.45607

>  <SCORE.INTRA.SOLV.lig_0>
-162.567

>  <SCORE.INTRA.VDW>
0.889982

>  <SCORE.INTRA.VDW.0>
-4.80338

>  <SCORE.INTRA.norm>
-0.36192

>  <SCORE.RESTR>
2.02293

>  <SCORE.RESTR.CAVITY>
2.02293

>  <SCORE.RESTR.norm>
0.0481651

>  <SCORE.SYSTEM>
0

>  <SCORE.SYSTEM.CONST>
0

>  <SCORE.SYSTEM.DIHEDRAL>
0

>  <SCORE.SYSTEM.SOLV>
0

>  <SCORE.SYSTEM.norm>
0

>  <SCORE.heavy>
42

>  <SCORE.norm>
-0.753699

>  <RMSD>
2.219

$$$$

 OpenBabel11021811393D
libRbt.so/2013.1/901 2013/11/27
 42 45  0  0  0  0  0  0  0  0999 V2000
   -7.5991    3.7060    1.2664 C   0  0  2  0  0  0  0  0  0  0  0  0
   -7.0792    2.6349    0.4201 O   0  0  0  0  0  0  0  0  0  0  0  0
   -9.1344    3.9120    1.0564 C   0  0  2  0  0  0  0  0  0  0  0  0
   -9.7463    2.7700    0.3390 N   0  3  0  0  0  0  0  0  0  0  0  0
   -9.4122    5.2455    0.2991 C   0  0  1  0  0  0  0  0  0  0  0  0
  -10.8154    5.4272    0.1225 O   0  0  0  0  0  0  0  0  0  0  0  0
   -8.8497    6.4720    1.0663 C   0  0  2  0  0  0  0  0  0  0  0  0
   -8.8743    7.6024    0.2019 O   0  0  0  0  0  0  0  0  0  0  0  0
   -7.3913    6.2098    1.5640 C   0  0  2  0  0  0  0  0  0  0  0  0
   -6.8824    4.9592    0.9962 O   0  0  0  0  0  0  0  0  0  0  0  0
   -7.2500    6.0837    3.0984 C   0  0  0  0  0  0  0  0  0  0  0  0
   -2.9577    3.2165    1.5580 C   0  0  1  0  0  0  0  0  0  0  0  0
   -1.4920    3.0649    1.6960 N   0  3  0  0  0  0  0  0  0  0  0  0
   -3.3516    3.6600    0.1247 C   0  0  1  0  0  0  0  0  0  0  0  0
   -4.8998    3.6919   -0.1243 C   0  0  1  0  0  0  0  0  0  0  0  0
   -5.1272    3.7974   -1.5554 O   0  0  0  0  0  0  0  0  0  0  0  0
   -5.6385    2.3979    0.3796 C   0  0  1  0  0  0  0  0  0  0  0  0
   -5.1808    1.9835    1.8154 C   0  0  1  0  0  0  0  0  0  0  0  0
   -5.7603    0.6897    2.2303 N   0  3  0  0  0  0  0  0  0  0  0  0
   -3.6425    1.8825    1.9213 C   0  0  0  0  0  0  0  0  0  0  0  0
   -4.7487    5.0181   -2.2550 C   0  0  1  0  0  0  0  0  0  0  0  0
   -3.6547    4.6815   -3.2613 C   0  0  1  0  0  0  0  0  0  0  0  0
   -4.4997    4.1113   -4.3923 C   0  0  1  0  0  0  0  0  0  0  0  0
   -5.6961    5.0735   -4.4012 C   0  0  2  0  0  0  0  0  0  0  0  0
   -5.8575    5.5048   -3.0288 O   0  0  0  0  0  0  0  0  0  0  0  0
   -6.9933    4.4168   -4.9064 C   0  0  0  0  0  0  0  0  0  0  0  0
   -3.6824    0.4000   -4.7521 C   0  0  1  0  0  0  0  0  0  0  0  0
   -4.3022    0.9914   -6.0488 C   0  0  1  0  0  0  0  0  0  0  0  0
   -3.3606    1.9630   -6.8172 C   0  0  2  0  0  0  0  0  0  0  0  0
   -2.8010    3.0733   -5.8707 C   0  0  1  0  0  0  0  0  0  0  0  0
   -3.7807    4.1291   -5.6591 O   0  0  0  0  0  0  0  0  0  0  0  0
   -2.2966    1.0488   -4.4541 C   0  0  1  0  0  0  0  0  0  0  0  0
   -2.4039    2.5061   -4.5614 O   0  0  0  0  0  0  0  0  0  0  0  0
   -1.7591    0.6784   -3.0477 C   0  0  0  0  0  0  0  0  0  0  0  0
   -5.8673    5.8890    3.5691 N   0  3  0  0  0  0  0  0  0  0  0  0
   -2.9822    5.8758   -3.6612 O   0  0  0  0  0  0  0  0  0  0  0  0
   -4.6467   -0.0887   -6.9156 O   0  0  0  0  0  0  0  0  0  0  0  0
   -4.5831    0.6429   -3.6692 O   0  0  0  0  0  0  0  0  0  0  0  0
   -7.4097    3.3821   -4.0318 O   0  0  0  0  0  0  0  0  0  0  0  0
   -2.8255    4.9656   -0.1123 O   0  0  0  0  0  0  0  0  0  0  0  0
   -0.7794    1.6528   -2.5332 N   0  3  0  0  0  0  0  0  0  0  0  0
   -4.0236    2.5205   -8.0221 N   0  3  0  0  0  0  0  0  0  0  0  0
  1  2  1  6  0  0  0
  1  3  1  0  0  0  0
  1 10  1  0  0  0  0
  3  4  1  6  0  0  0
  3  5  1  0  0  0  0
  5  6  1  1  0  0  0
  5  7  1  0  0  0  0
  7  8  1  6  0  0  0
  7  9  1  0  0  0  0
  9 10  1  0  0  0  0
  9 11  1  1  0  0  0
 11 35  1  0  0  0  0
 12 13  1  6  0  0  0
 12 14  1  0  0  0  0
 12 20  1  0  0  0  0
 14 15  1  0  0  0  0
 14 40  1  1  0  0  0
 15 16  1  6  0  0  0
 15 17  1  0  0  0  0
 17  2  1  1  0  0  0
 17 18  1  0  0  0  0
 18 19  1  6  0  0  0
 18 20  1  0  0  0  0
 21 16  1  6  0  0  0
 21 22  1  0  0  0  0
 21 25  1  0  0  0  0
 22 23  1  0  0  0  0
 22 36  1  6  0  0  0
 23 24  1  0  0  0  0
 23 31  1  6  0  0  0
 24 25  1  0  0  0  0
 24 26  1  1  0  0  0
 26 39  1  0  0  0  0
 27 28  1  0  0  0  0
 27 32  1  0  0  0  0
 27 38  1  1  0  0  0
 28 29  1  0  0  0  0
 28 37  1  6  0  0  0
 29 30  1  0  0  0  0
 29 42  1  6  0  0  0
 30 31  1  1  0  0  0
 30 33  1  0  0  0  0
 32 33  1  0  0  0  0
 32 34  1  1  0  0  0
 34 41  1  0  0  0  0
M  CHG  6   4   1  13   1  19   1  35   1  41   1  42   1
M  END
>  <CHROM.1>
173.56472462,-59.67868847,-62.05011224,-174.11835957,-59.71805422,-177.73109637
-55.18229330,60.67295337,-62.21401671,-67.43512628,116.26590602,-57.06743217
-178.86226579,78.95253685,64.39228552,-64.73018859,178.66574407,171.41058196
-50.12938493,102.36804225,-157.02479240,56.65520905,-5.24172970,3.51985103
-1.68078466,2.15513637,-0.48021446,1.49090328

>  <Name>


>  <RI>
0

>  <Rbt.Current_Directory>
/home/itssahil/PROJECTS/Mol_Feturizer/New_Systems/rnas/1ei2

>  <Rbt.Executable>
rbdock ($Id: //depot/dev/client3/rdock/2013.1/src/exe/rbdock.cxx#4 $)

>  <Rbt.Library>
libRbt.so (2013.1, Build901 2013/11/27)

>  <Rbt.Parameter_File>
/export/apps/rDock/src/rDock_2013.1_src/data/scripts/dock_solv.prm

>  <Rbt.Receptor>
prm/pocket_docking_2.prm

>  <SCORE>
-38.8596

>  <SCORE.INTER>
-20.7957

>  <SCORE.INTER.CONST>
1

>  <SCORE.INTER.POLAR>
-3.27915

>  <SCORE.INTER.ROT>
9

>  <SCORE.INTER.SOLV>
25.0694

>  <SCORE.INTER.VDW>
-20.8897

>  <SCORE.INTER.norm>
-0.495135

>  <SCORE.INTRA>
-18.8801

>  <SCORE.INTRA.DIHEDRAL>
-22.2569

>  <SCORE.INTRA.DIHEDRAL.0>
40.8761

>  <SCORE.INTRA.POLAR>
0.0218644

>  <SCORE.INTRA.POLAR.0>
-0.0268208

>  <SCORE.INTRA.REPUL>
-0.513501

>  <SCORE.INTRA.REPUL.0>
0.641615

>  <SCORE.INTRA.SOLV>
-10.1758

>  <SCORE.INTRA.SOLV.lig_0>
-162.567

>  <SCORE.INTRA.VDW>
-0.170553

>  <SCORE.INTRA.VDW.0>
-4.80338

>  <SCORE.INTRA.norm>
-0.449526

>  <SCORE.RESTR>
0.816112

>  <SCORE.RESTR.CAVITY>
0.816112

>  <SCORE.RESTR.norm>
0.0194312

>  <SCORE.SYSTEM>
0

>  <SCORE.SYSTEM.CONST>
0

>  <SCORE.SYSTEM.DIHEDRAL>
0

>  <SCORE.SYSTEM.SOLV>
0

>  <SCORE.SYSTEM.norm>
0

>  <SCORE.heavy>
42

>  <SCORE.norm>
-0.925229

>  <RMSD>
2.298

$$$$

 OpenBabel11021811393D
libRbt.so/2013.1/901 2013/11/27
 42 45  0  0  0  0  0  0  0  0999 V2000
   -7.4396    4.2714   -0.5128 C   0  0  2  0  0  0  0  0  0  0  0  0
   -6.9533    4.8693    0.7280 O   0  0  0  0  0  0  0  0  0  0  0  0
   -8.2708    5.2919   -1.3565 C   0  0  2  0  0  0  0  0  0  0  0  0
   -8.0706    6.6817   -0.8859 N   0  3  0  0  0  0  0  0  0  0  0  0
   -9.7841    4.9199   -1.3351 C   0  0  1  0  0  0  0  0  0  0  0  0
  -10.5301    5.8512   -2.1158 O   0  0  0  0  0  0  0  0  0  0  0  0
  -10.0353    3.4946   -1.8963 C   0  0  2  0  0  0  0  0  0  0  0  0
  -11.3693    3.1092   -1.5842 O   0  0  0  0  0  0  0  0  0  0  0  0
   -9.0254    2.4629   -1.2970 C   0  0  2  0  0  0  0  0  0  0  0  0
   -8.2514    3.0832   -0.2193 O   0  0  0  0  0  0  0  0  0  0  0  0
   -7.9983    1.9077   -2.3105 C   0  0  0  0  0  0  0  0  0  0  0  0
   -3.1250    5.7698    2.5038 C   0  0  1  0  0  0  0  0  0  0  0  0
   -1.7592    5.6495    3.0609 N   0  3  0  0  0  0  0  0  0  0  0  0
   -3.1391    5.5218    0.9727 C   0  0  1  0  0  0  0  0  0  0  0  0
   -4.5786    5.4877    0.3509 C   0  0  1  0  0  0  0  0  0  0  0  0
   -4.4811    4.9347   -0.9891 O   0  0  0  0  0  0  0  0  0  0  0  0
   -5.5863    4.5923    1.1616 C   0  0  1  0  0  0  0  0  0  0  0  0
   -5.5068    4.8652    2.6985 C   0  0  1  0  0  0  0  0  0  0  0  0
   -6.3416    3.9242    3.4727 N   0  3  0  0  0  0  0  0  0  0  0  0
   -4.0566    4.7729    3.2242 C   0  0  0  0  0  0  0  0  0  0  0  0
   -4.2254    5.8224   -2.1158 C   0  0  1  0  0  0  0  0  0  0  0  0
   -3.3054    5.1072   -3.0981 C   0  0  1  0  0  0  0  0  0  0  0  0
   -4.3182    4.2292   -3.8204 C   0  0  1  0  0  0  0  0  0  0  0  0
   -5.5049    5.1904   -3.9787 C   0  0  2  0  0  0  0  0  0  0  0  0
   -5.4462    6.0717   -2.8318 O   0  0  0  0  0  0  0  0  0  0  0  0
   -6.8633    4.4677   -4.0227 C   0  0  0  0  0  0  0  0  0  0  0  0
   -3.2338    0.3167   -3.5499 C   0  0  1  0  0  0  0  0  0  0  0  0
   -3.8365    0.5760   -4.9588 C   0  0  1  0  0  0  0  0  0  0  0  0
   -2.9937    1.5402   -5.8426 C   0  0  2  0  0  0  0  0  0  0  0  0
   -2.6746    2.8683   -5.0834 C   0  0  1  0  0  0  0  0  0  0  0  0
   -3.8117    3.7769   -5.1091 O   0  0  0  0  0  0  0  0  0  0  0  0
   -1.9841    1.2165   -3.3072 C   0  0  1  0  0  0  0  0  0  0  0  0
   -2.2961    2.5995   -3.6769 O   0  0  0  0  0  0  0  0  0  0  0  0
   -1.5032    1.1777   -1.8337 C   0  0  0  0  0  0  0  0  0  0  0  0
   -7.0962    0.8795   -1.7625 N   0  3  0  0  0  0  0  0  0  0  0  0
   -2.7113    6.0574   -3.9828 O   0  0  0  0  0  0  0  0  0  0  0  0
   -3.9537   -0.6752   -5.6349 O   0  0  0  0  0  0  0  0  0  0  0  0
   -4.2377    0.5937   -2.5710 O   0  0  0  0  0  0  0  0  0  0  0  0
   -7.8991    5.3609   -4.3939 O   0  0  0  0  0  0  0  0  0  0  0  0
   -2.3918    6.5564    0.3336 O   0  0  0  0  0  0  0  0  0  0  0  0
   -0.3042    2.0033   -1.5998 N   0  3  0  0  0  0  0  0  0  0  0  0
   -3.6407    1.7753   -7.1572 N   0  3  0  0  0  0  0  0  0  0  0  0
  1  2  1  1  0  0  0
  1  3  1  0  0  0  0
  1 10  1  0  0  0  0
  3  4  1  1  0  0  0
  3  5  1  0  0  0  0
  5  6  1  6  0  0  0
  5  7  1  0  0  0  0
  7  8  1  1  0  0  0
  7  9  1  0  0  0  0
  9 10  1  0  0  0  0
  9 11  1  6  0  0  0
 11 35  1  0  0  0  0
 12 13  1  1  0  0  0
 12 14  1  0  0  0  0
 12 20  1  0  0  0  0
 14 15  1  0  0  0  0
 14 40  1  6  0  0  0
 15 16  1  6  0  0  0
 15 17  1  0  0  0  0
 17  2  1  6  0  0  0
 17 18  1  0  0  0  0
 18 19  1  1  0  0  0
 18 20  1  0  0  0  0
 21 16  1  1  0  0  0
 21 22  1  0  0  0  0
 21 25  1  0  0  0  0
 22 23  1  0  0  0  0
 22 36  1  6  0  0  0
 23 24  1  0  0  0  0
 23 31  1  6  0  0  0
 24 25  1  0  0  0  0
 24 26  1  1  0  0  0
 26 39  1  0  0  0  0
 27 28  1  0  0  0  0
 27 32  1  0  0  0  0
 27 38  1  1  0  0  0
 28 29  1  0  0  0  0
 28 37  1  6  0  0  0
 29 30  1  0  0  0  0
 29 42  1  6  0  0  0
 30 31  1  1  0  0  0
 30 33  1  0  0  0  0
 32 33  1  0  0  0  0
 32 34  1  1  0  0  0
 34 41  1  0  0  0  0
M  CHG  6   4   1  13   1  19   1  35   1  41   1  42   1
M  END
>  <CHROM.1>
-137.86987991,79.04931705,87.71759603,-177.72548583,80.22391038,-176.73052996
68.07680362,58.67422622,177.37293110,-88.49010110,142.75534351,-61.27630022
-56.71761732,66.34873691,-170.09619060,-174.59125999,-61.69958545,-53.59876721
-161.22066643,123.51977560,178.78433200,-152.36339073,-5.26301771,3.78496374
-1.82810287,2.24113019,-0.10756468,1.09432358

>  <Name>


>  <RI>
0

>  <Rbt.Current_Directory>
/home/itssahil/PROJECTS/Mol_Feturizer/New_Systems/rnas/1ei2

>  <Rbt.Executable>
rbdock ($Id: //depot/dev/client3/rdock/2013.1/src/exe/rbdock.cxx#4 $)

>  <Rbt.Library>
libRbt.so (2013.1, Build901 2013/11/27)

>  <Rbt.Parameter_File>
/export/apps/rDock/src/rDock_2013.1_src/data/scripts/dock_solv.prm

>  <Rbt.Receptor>
prm/pocket_docking_4.prm

>  <SCORE>
-53.3528

>  <SCORE.INTER>
-35.4087

>  <SCORE.INTER.CONST>
1

>  <SCORE.INTER.POLAR>
-5.36705

>  <SCORE.INTER.ROT>
9

>  <SCORE.INTER.SOLV>
23.549

>  <SCORE.INTER.VDW>
-23.1653

>  <SCORE.INTER.norm>
-0.843063

>  <SCORE.INTRA>
-18.0389

>  <SCORE.INTRA.DIHEDRAL>
-10.009

>  <SCORE.INTRA.DIHEDRAL.0>
40.8761

>  <SCORE.INTRA.POLAR>
-1.29469

>  <SCORE.INTRA.POLAR.0>
-0.0268208

>  <SCORE.INTRA.REPUL>
-0.597618

>  <SCORE.INTRA.REPUL.0>
0.641615

>  <SCORE.INTRA.SOLV>
-8.1019

>  <SCORE.INTRA.SOLV.lig_0>
-162.567

>  <SCORE.INTRA.VDW>
-1.59345

>  <SCORE.INTRA.VDW.0>
-4.80338

>  <SCORE.INTRA.norm>
-0.429498

>  <SCORE.RESTR>
0.0947412

>  <SCORE.RESTR.CAVITY>
0.0947412

>  <SCORE.RESTR.norm>
0.00225574

>  <SCORE.SYSTEM>
0

>  <SCORE.SYSTEM.CONST>
0

>  <SCORE.SYSTEM.DIHEDRAL>
0

>  <SCORE.SYSTEM.SOLV>
0

>  <SCORE.SYSTEM.norm>
0

>  <SCORE.heavy>
42

>  <SCORE.norm>
-1.27031

>  <RMSD>
2.342

$$$$

 OpenBabel11021811393D
libRbt.so/2013.1/901 2013/11/27
 42 45  0  0  0  0  0  0  0  0999 V2000
   -6.8911    4.0636    1.3293 C   0  0  2  0  0  0  0  0  0  0  0  0
   -6.4220    3.0058    0.4377 O   0  0  0  0  0  0  0  0  0  0  0  0
   -8.4323    4.2883    1.1951 C   0  0  2  0  0  0  0  0  0  0  0  0
   -9.0884    3.1675    0.4836 N   0  3  0  0  0  0  0  0  0  0  0  0
   -8.7310    5.6401    0.4793 C   0  0  1  0  0  0  0  0  0  0  0  0
  -10.1390    5.8386    0.3720 O   0  0  0  0  0  0  0  0  0  0  0  0
   -8.1210    6.8448    1.2448 C   0  0  2  0  0  0  0  0  0  0  0  0
   -8.1739    7.9934    0.4059 O   0  0  0  0  0  0  0  0  0  0  0  0
   -6.6438    6.5585    1.6685 C   0  0  2  0  0  0  0  0  0  0  0  0
   -6.1748    5.3155    1.0519 O   0  0  0  0  0  0  0  0  0  0  0  0
   -6.4330    6.3986    3.1917 C   0  0  0  0  0  0  0  0  0  0  0  0
   -2.5054    2.7009    2.2229 C   0  0  1  0  0  0  0  0  0  0  0  0
   -1.1219    2.2804    2.5383 N   0  3  0  0  0  0  0  0  0  0  0  0
   -2.5863    3.4023    0.8417 C   0  0  1  0  0  0  0  0  0  0  0  0
   -4.0497    3.7359    0.3867 C   0  0  1  0  0  0  0  0  0  0  0  0
   -4.0190    4.0786   -1.0249 O   0  0  0  0  0  0  0  0  0  0  0  0
   -5.0461    2.5314    0.5611 C   0  0  1  0  0  0  0  0  0  0  0  0
   -4.8991    1.8470    1.9586 C   0  0  1  0  0  0  0  0  0  0  0  0
   -5.7255    0.6277    2.0686 N   0  3  0  0  0  0  0  0  0  0  0  0
   -3.4319    1.4678    2.2612 C   0  0  0  0  0  0  0  0  0  0  0  0
   -4.9141    5.1095   -1.5335 C   0  0  1  0  0  0  0  0  0  0  0  0
   -4.5628    5.3810   -2.9915 C   0  0  1  0  0  0  0  0  0  0  0  0
   -5.2771    4.2137   -3.6592 C   0  0  1  0  0  0  0  0  0  0  0  0
   -6.5943    4.1648   -2.8720 C   0  0  2  0  0  0  0  0  0  0  0  0
   -6.2674    4.6262   -1.5393 O   0  0  0  0  0  0  0  0  0  0  0  0
   -7.2060    2.7537   -2.8090 C   0  0  0  0  0  0  0  0  0  0  0  0
   -3.4881    1.1985   -4.9314 C   0  0  1  0  0  0  0  0  0  0  0  0
   -4.9600    1.3235   -5.4143 C   0  0  1  0  0  0  0  0  0  0  0  0
   -5.1859    2.4313   -6.4834 C   0  0  2  0  0  0  0  0  0  0  0  0
   -4.6019    3.8010   -6.0092 C   0  0  1  0  0  0  0  0  0  0  0  0
   -5.5020    4.4638   -5.0765 O   0  0  0  0  0  0  0  0  0  0  0  0
   -2.6068    2.3315   -5.5397 C   0  0  1  0  0  0  0  0  0  0  0  0
   -3.2791    3.6219   -5.3675 O   0  0  0  0  0  0  0  0  0  0  0  0
   -1.1990    2.3986   -4.8935 C   0  0  0  0  0  0  0  0  0  0  0  0
   -7.6318    5.9651    3.9307 N   0  3  0  0  0  0  0  0  0  0  0  0
   -5.1157    6.6336   -3.3964 O   0  0  0  0  0  0  0  0  0  0  0  0
   -5.3598    0.0700   -5.9668 O   0  0  0  0  0  0  0  0  0  0  0  0
   -3.4728    1.2752   -3.5042 O   0  0  0  0  0  0  0  0  0  0  0  0
   -6.2477    1.8066   -2.3696 O   0  0  0  0  0  0  0  0  0  0  0  0
   -1.8396    4.6174    0.8998 O   0  0  0  0  0  0  0  0  0  0  0  0
   -0.9112    1.2429   -4.0243 N   0  3  0  0  0  0  0  0  0  0  0  0
   -6.6145    2.5242   -6.8740 N   0  3  0  0  0  0  0  0  0  0  0  0
  1  2  1  6  0  0  0
  1  3  1  0  0  0  0
  1 10  1  0  0  0  0
  3  4  1  6  0  0  0
  3  5  1  0  0  0  0
  5  6  1  1  0  0  0
  5  7  1  0  0  0  0
  7  8  1  6  0  0  0
  7  9  1  0  0  0  0
  9 10  1  0  0  0  0
  9 11  1  1  0  0  0
 11 35  1  0  0  0  0
 12 13  1  6  0  0  0
 12 14  1  0  0  0  0
 12 20  1  0  0  0  0
 14 15  1  0  0  0  0
 14 40  1  1  0  0  0
 15 16  1  6  0  0  0
 15 17  1  0  0  0  0
 17  2  1  1  0  0  0
 17 18  1  0  0  0  0
 18 19  1  6  0  0  0
 18 20  1  0  0  0  0
 21 16  1  6  0  0  0
 21 22  1  0  0  0  0
 21 25  1  0  0  0  0
 22 23  1  0  0  0  0
 22 36  1  6  0  0  0
 23 24  1  0  0  0  0
 23 31  1  6  0  0  0
 24 25  1  0  0  0  0
 24 26  1  1  0  0  0
 26 39  1  0  0  0  0
 27 28  1  0  0  0  0
 27 32  1  0  0  0  0
 27 38  1  1  0  0  0
 28 29  1  0  0  0  0
 28 37  1  6  0  0  0
 29 30  1  0  0  0  0
 29 42  1  1  0  0  0
 30 31  1  1  0  0  0
 30 33  1  0  0  0  0
 32 33  1  0  0  0  0
 32 34  1  1  0  0  0
 34 41  1  0  0  0  0
M  CHG  6   4   1  13   1  19   1  35   1  41   1  42   1
M  END
>  <CHROM.1>
-171.53169833,-56.98214437,-72.82893566,62.36566030,178.04811400,25.03748059
-179.15352573,175.95347157,179.62694998,-144.28233464,173.43965650,57.23429229
-160.96685614,102.13829739,51.14945991,175.73765863,9.61586015,66.39523818
177.75577324,92.72135893,10.16143725,62.95976640,-5.29267203,3.64462987,-1.34621529
2.00865340,-0.54865215,1.43343761

>  <Name>


>  <RI>
0

>  <Rbt.Current_Directory>
/home/itssahil/PROJECTS/Mol_Feturizer/New_Systems/rnas/1ei2

>  <Rbt.Executable>
rbdock ($Id: //depot/dev/client3/rdock/2013.1/src/exe/rbdock.cxx#4 $)

>  <Rbt.Library>
libRbt.so (2013.1, Build901 2013/11/27)

>  <Rbt.Parameter_File>
/export/apps/rDock/src/rDock_2013.1_src/data/scripts/dock_solv.prm

>  <Rbt.Receptor>
prm/pocket_docking_2.prm

>  <SCORE>
-39.7724

>  <SCORE.INTER>
-27.5122

>  <SCORE.INTER.CONST>
1

>  <SCORE.INTER.POLAR>
-4.55895

>  <SCORE.INTER.ROT>
9

>  <SCORE.INTER.SOLV>
24.5854

>  <SCORE.INTER.VDW>
-20.9401

>  <SCORE.INTER.norm>
-0.655052

>  <SCORE.INTRA>
-16.0859

>  <SCORE.INTRA.DIHEDRAL>
-7.63561

>  <SCORE.INTRA.DIHEDRAL.0>
40.8761

>  <SCORE.INTRA.POLAR>
-1.68685

>  <SCORE.INTRA.POLAR.0>
-0.0268208

>  <SCORE.INTRA.REPUL>
-0.572144

>  <SCORE.INTRA.REPUL.0>
0.641615

>  <SCORE.INTRA.SOLV>
-2.77522

>  <SCORE.INTRA.SOLV.lig_0>
-162.567

>  <SCORE.INTRA.VDW>
-2.28448

>  <SCORE.INTRA.VDW.0>
-4.80338

>  <SCORE.INTRA.norm>
-0.382997

>  <SCORE.RESTR>
3.82571

>  <SCORE.RESTR.CAVITY>
3.82571

>  <SCORE.RESTR.norm>
0.0910882

>  <SCORE.SYSTEM>
0

>  <SCORE.SYSTEM.CONST>
0

>  <SCORE.SYSTEM.DIHEDRAL>
0

>  <SCORE.SYSTEM.SOLV>
0

>  <SCORE.SYSTEM.norm>
0

>  <SCORE.heavy>
42

>  <SCORE.norm>
-0.946961

>  <RMSD>
2.524

$$$$

 OpenBabel11021811393D
libRbt.so/2013.1/901 2013/11/27
 42 45  0  0  0  0  0  0  0  0999 V2000
   -7.0302    7.1032    1.0903 C   0  0  2  0  0  0  0  0  0  0  0  0
   -5.7953    6.6616    1.7335 O   0  0  0  0  0  0  0  0  0  0  0  0
   -7.3572    8.5929    1.4334 C   0  0  2  0  0  0  0  0  0  0  0  0
   -6.1876    9.2891    2.0169 N   0  3  0  0  0  0  0  0  0  0  0  0
   -8.5810    8.6803    2.3945 C   0  0  1  0  0  0  0  0  0  0  0  0
   -8.8759   10.0434    2.6919 O   0  0  0  0  0  0  0  0  0  0  0  0
   -9.8463    8.0264    1.7774 C   0  0  2  0  0  0  0  0  0  0  0  0
  -10.8283    7.8795    2.7971 O   0  0  0  0  0  0  0  0  0  0  0  0
   -9.5157    6.6344    1.1475 C   0  0  2  0  0  0  0  0  0  0  0  0
   -8.1479    6.2385    1.4904 O   0  0  0  0  0  0  0  0  0  0  0  0
   -9.6111    6.5894   -0.3949 C   0  0  0  0  0  0  0  0  0  0  0  0
   -4.2572    3.3920    4.0922 C   0  0  1  0  0  0  0  0  0  0  0  0
   -4.0563    2.0598    4.7049 N   0  3  0  0  0  0  0  0  0  0  0  0
   -3.9091    3.3816    2.5807 C   0  0  1  0  0  0  0  0  0  0  0  0
   -4.2451    4.7256    1.8453 C   0  0  1  0  0  0  0  0  0  0  0  0
   -4.1855    4.4866    0.4134 O   0  0  0  0  0  0  0  0  0  0  0  0
   -5.6818    5.2741    2.1756 C   0  0  1  0  0  0  0  0  0  0  0  0
   -5.9865    5.2333    3.7080 C   0  0  1  0  0  0  0  0  0  0  0  0
   -7.3844    5.6066    4.0055 N   0  3  0  0  0  0  0  0  0  0  0  0
   -5.7188    3.8356    4.3101 C   0  0  0  0  0  0  0  0  0  0  0  0
   -4.7518    5.4677   -0.5029 C   0  0  1  0  0  0  0  0  0  0  0  0
   -4.1462    5.2478   -1.8842 C   0  0  1  0  0  0  0  0  0  0  0  0
   -4.9964    4.0795   -2.3646 C   0  0  1  0  0  0  0  0  0  0  0  0
   -6.3905    4.4841   -1.8646 C   0  0  2  0  0  0  0  0  0  0  0  0
   -6.1632    5.2428   -0.6528 O   0  0  0  0  0  0  0  0  0  0  0  0
   -7.2988    3.2765   -1.5712 C   0  0  0  0  0  0  0  0  0  0  0  0
   -2.8783    0.9359   -4.9685 C   0  0  1  0  0  0  0  0  0  0  0  0
   -3.9319    1.6823   -5.8335 C   0  0  1  0  0  0  0  0  0  0  0  0
   -3.7458    3.2267   -5.8689 C   0  0  2  0  0  0  0  0  0  0  0  0
   -3.6427    3.8161   -4.4254 C   0  0  1  0  0  0  0  0  0  0  0  0
   -4.9575    3.9501   -3.8150 O   0  0  0  0  0  0  0  0  0  0  0  0
   -1.9621    1.9476   -4.2153 C   0  0  1  0  0  0  0  0  0  0  0  0
   -2.7885    2.9668   -3.5635 O   0  0  0  0  0  0  0  0  0  0  0  0
   -1.0673    1.2591   -3.1526 C   0  0  0  0  0  0  0  0  0  0  0  0
  -10.9440    6.9139   -0.9327 N   0  3  0  0  0  0  0  0  0  0  0  0
   -4.3484    6.4087   -2.6905 O   0  0  0  0  0  0  0  0  0  0  0  0
   -3.8522    1.1839   -7.1683 O   0  0  0  0  0  0  0  0  0  0  0  0
   -3.5688    0.1054   -4.0323 O   0  0  0  0  0  0  0  0  0  0  0  0
   -8.6285    3.6947   -1.3149 O   0  0  0  0  0  0  0  0  0  0  0  0
   -2.5139    3.1187    2.4331 O   0  0  0  0  0  0  0  0  0  0  0  0
   -1.8210    0.8265   -1.9616 N   0  3  0  0  0  0  0  0  0  0  0  0
   -4.8029    3.8815   -6.6789 N   0  3  0  0  0  0  0  0  0  0  0  0
  1  2  1  1  0  0  0
  1  3  1  0  0  0  0
  1 10  1  0  0  0  0
  3  4  1  1  0  0  0
  3  5  1  0  0  0  0
  5  6  1  6  0  0  0
  5  7  1  0  0  0  0
  7  8  1  1  0  0  0
  7  9  1  0  0  0  0
  9 10  1  0  0  0  0
  9 11  1  6  0  0  0
 11 35  1  0  0  0  0
 12 13  1  6  0  0  0
 12 14  1  0  0  0  0
 12 20  1  0  0  0  0
 14 15  1  0  0  0  0
 14 40  1  1  0  0  0
 15 16  1  6  0  0  0
 15 17  1  0  0  0  0
 17  2  1  1  0  0  0
 17 18  1  0  0  0  0
 18 19  1  6  0  0  0
 18 20  1  0  0  0  0
 21 16  1  1  0  0  0
 21 22  1  0  0  0  0
 21 25  1  0  0  0  0
 22 23  1  0  0  0  0
 22 36  1  6  0  0  0
 23 24  1  0  0  0  0
 23 31  1  6  0  0  0
 24 25  1  0  0  0  0
 24 26  1  1  0  0  0
 26 39  1  0  0  0  0
 27 28  1  0  0  0  0
 27 32  1  0  0  0  0
 27 38  1  1  0  0  0
 28 29  1  0  0  0  0
 28 37  1  6  0  0  0
 29 30  1  0  0  0  0
 29 42  1  1  0  0  0
 30 31  1  1  0  0  0
 30 33  1  0  0  0  0
 32 33  1  0  0  0  0
 32 34  1  1  0  0  0
 34 41  1  0  0  0  0
M  CHG  6   4   1  13   1  19   1  35   1  41   1  42   1
M  END
>  <CHROM.1>
146.30688001,138.99925510,35.86206859,-65.96179420,58.52950517,-60.18014968
56.14124681,68.58398857,63.24251225,165.78100899,160.24288064,-143.43361316
64.35794672,55.82103880,-170.93036327,57.99028139,66.10684492,179.00472809
-71.70534876,161.31451993,-72.97379714,166.59552592,-5.65636408,4.70306016
-0.50129193,2.26795609,-0.71089755,1.43637299

>  <Name>


>  <RI>
0

>  <Rbt.Current_Directory>
/home/itssahil/PROJECTS/Mol_Feturizer/New_Systems/rnas/1ei2

>  <Rbt.Executable>
rbdock ($Id: //depot/dev/client3/rdock/2013.1/src/exe/rbdock.cxx#4 $)

>  <Rbt.Library>
libRbt.so (2013.1, Build901 2013/11/27)

>  <Rbt.Parameter_File>
/export/apps/rDock/src/rDock_2013.1_src/data/scripts/dock_solv.prm

>  <Rbt.Receptor>
prm/pocket_docking_4.prm

>  <SCORE>
-47.2225

>  <SCORE.INTER>
-25.8289

>  <SCORE.INTER.CONST>
1

>  <SCORE.INTER.POLAR>
-4.76842

>  <SCORE.INTER.ROT>
9

>  <SCORE.INTER.SOLV>
18.3457

>  <SCORE.INTER.VDW>
-17.0398

>  <SCORE.INTER.norm>
-0.614974

>  <SCORE.INTRA>
-21.3936

>  <SCORE.INTRA.DIHEDRAL>
-19.8961

>  <SCORE.INTRA.DIHEDRAL.0>
40.8761

>  <SCORE.INTRA.POLAR>
-1.88159

>  <SCORE.INTRA.POLAR.0>
-0.0268208

>  <SCORE.INTRA.REPUL>
-0.641615

>  <SCORE.INTRA.REPUL.0>
0.641615

>  <SCORE.INTRA.SOLV>
-5.83489

>  <SCORE.INTRA.SOLV.lig_0>
-162.567

>  <SCORE.INTRA.VDW>
1.07744

>  <SCORE.INTRA.VDW.0>
-4.80338

>  <SCORE.INTRA.norm>
-0.50937

>  <SCORE.RESTR>
0

>  <SCORE.RESTR.CAVITY>
0

>  <SCORE.RESTR.norm>
0

>  <SCORE.SYSTEM>
0

>  <SCORE.SYSTEM.CONST>
0

>  <SCORE.SYSTEM.DIHEDRAL>
0

>  <SCORE.SYSTEM.SOLV>
0

>  <SCORE.SYSTEM.norm>
0

>  <SCORE.heavy>
42

>  <SCORE.norm>
-1.12434

>  <RMSD>
2.525

$$$$

 OpenBabel11021811393D
libRbt.so/2013.1/901 2013/11/27
 42 45  0  0  0  0  0  0  0  0999 V2000
   -9.2466    2.9324    0.5876 C   0  0  2  0  0  0  0  0  0  0  0  0
   -7.9835    2.2495    0.3196 O   0  0  0  0  0  0  0  0  0  0  0  0
   -9.9868    3.3139   -0.7354 C   0  0  2  0  0  0  0  0  0  0  0  0
   -9.4255    2.5960   -1.9027 N   0  3  0  0  0  0  0  0  0  0  0  0
   -9.9408    4.8544   -0.9670 C   0  0  1  0  0  0  0  0  0  0  0  0
  -10.6275    5.1911   -2.1706 O   0  0  0  0  0  0  0  0  0  0  0  0
  -10.5933    5.6335    0.2063 C   0  0  2  0  0  0  0  0  0  0  0  0
  -10.2645    7.0123    0.0781 O   0  0  0  0  0  0  0  0  0  0  0  0
  -10.1035    5.0922    1.5885 C   0  0  2  0  0  0  0  0  0  0  0  0
   -9.0112    4.1355    1.3965 O   0  0  0  0  0  0  0  0  0  0  0  0
  -11.1881    4.3593    2.4112 C   0  0  0  0  0  0  0  0  0  0  0  0
   -5.4313    5.4517    1.6807 C   0  0  1  0  0  0  0  0  0  0  0  0
   -4.2495    6.2916    1.9777 N   0  3  0  0  0  0  0  0  0  0  0  0
   -5.7201    5.3935    0.1578 C   0  0  1  0  0  0  0  0  0  0  0  0
   -6.8688    4.3986   -0.2304 C   0  0  1  0  0  0  0  0  0  0  0  0
   -6.8226    4.1906   -1.6676 O   0  0  0  0  0  0  0  0  0  0  0  0
   -6.7324    2.9907    0.4576 C   0  0  1  0  0  0  0  0  0  0  0  0
   -6.4135    3.1123    1.9828 C   0  0  1  0  0  0  0  0  0  0  0  0
   -6.1384    1.7980    2.5983 N   0  3  0  0  0  0  0  0  0  0  0  0
   -5.2013    4.0341    2.2447 C   0  0  0  0  0  0  0  0  0  0  0  0
   -6.6575    5.3349   -2.5542 C   0  0  1  0  0  0  0  0  0  0  0  0
   -5.1674    5.5660   -2.7760 C   0  0  1  0  0  0  0  0  0  0  0  0
   -4.8889    4.5086   -3.8356 C   0  0  1  0  0  0  0  0  0  0  0  0
   -6.1308    4.6310   -4.7300 C   0  0  2  0  0  0  0  0  0  0  0  0
   -7.2053    5.0365   -3.8488 O   0  0  0  0  0  0  0  0  0  0  0  0
   -6.4949    3.3138   -5.4384 C   0  0  0  0  0  0  0  0  0  0  0  0
   -3.8727    0.9647   -4.4189 C   0  0  1  0  0  0  0  0  0  0  0  0
   -3.9861    1.8190   -5.7122 C   0  0  1  0  0  0  0  0  0  0  0  0
   -2.8373    2.8527   -5.8933 C   0  0  2  0  0  0  0  0  0  0  0  0
   -2.6657    3.7358   -4.6156 C   0  0  1  0  0  0  0  0  0  0  0  0
   -3.6631    4.7951   -4.5686 O   0  0  0  0  0  0  0  0  0  0  0  0
   -2.6931    1.4604   -3.5284 C   0  0  1  0  0  0  0  0  0  0  0  0
   -2.7647    2.9168   -3.3855 O   0  0  0  0  0  0  0  0  0  0  0  0
   -2.6977    0.8082   -2.1218 C   0  0  0  0  0  0  0  0  0  0  0  0
  -12.4390    5.1187    2.5837 N   0  3  0  0  0  0  0  0  0  0  0  0
   -4.9532    6.8836   -3.2825 O   0  0  0  0  0  0  0  0  0  0  0  0
   -3.9862    0.9377   -6.8346 O   0  0  0  0  0  0  0  0  0  0  0  0
   -5.1057    1.0634   -3.7026 O   0  0  0  0  0  0  0  0  0  0  0  0
   -7.6009    3.4954   -6.3058 O   0  0  0  0  0  0  0  0  0  0  0  0
   -6.0785    6.7000   -0.2914 O   0  0  0  0  0  0  0  0  0  0  0  0
   -1.5925    1.2797   -1.2674 N   0  3  0  0  0  0  0  0  0  0  0  0
   -3.0238    3.6599   -7.1246 N   0  3  0  0  0  0  0  0  0  0  0  0
  1  2  1  6  0  0  0
  1  3  1  0  0  0  0
  1 10  1  0  0  0  0
  3  4  1  6  0  0  0
  3  5  1  0  0  0  0
  5  6  1  6  0  0  0
  5  7  1  0  0  0  0
  7  8  1  6  0  0  0
  7  9  1  0  0  0  0
  9 10  1  0  0  0  0
  9 11  1  6  0  0  0
 11 35  1  0  0  0  0
 12 13  1  6  0  0  0
 12 14  1  0  0  0  0
 12 20  1  0  0  0  0
 14 15  1  0  0  0  0
 14 40  1  1  0  0  0
 15 16  1  6  0  0  0
 15 17  1  0  0  0  0
 17  2  1  1  0  0  0
 17 18  1  0  0  0  0
 18 19  1  6  0  0  0
 18 20  1  0  0  0  0
 21 16  1  1  0  0  0
 21 22  1  0  0  0  0
 21 25  1  0  0  0  0
 22 23  1  0  0  0  0
 22 36  1  6  0  0  0
 23 24  1  0  0  0  0
 23 31  1  6  0  0  0
 24 25  1  0  0  0  0
 24 26  1  1  0  0  0
 26 39  1  0  0  0  0
 27 28  1  0  0  0  0
 27 32  1  0  0  0  0
 27 38  1  1  0  0  0
 28 29  1  0  0  0  0
 28 37  1  6  0  0  0
 29 30  1  0  0  0  0
 29 42  1  6  0  0  0
 30 31  1  1  0  0  0
 30 33  1  0  0  0  0
 32 33  1  0  0  0  0
 32 34  1  1  0  0  0
 34 41  1  0  0  0  0
M  CHG  6   4   1  13   1  19   1  35   1  41   1  42   1
M  END
>  <CHROM.1>
102.98915537,-45.35576608,174.45192178,-174.42858209,-62.39866868,-51.78139062
-63.95714657,-70.34088258,-49.65993004,-44.98348877,89.74565826,-52.63602853
-179.22506578,125.96949826,-176.83164934,74.87750668,-61.76906698,-55.74028723
-81.11234156,93.08841924,-179.48707812,-132.12411485,-6.39701664,3.86824814
-1.77086870,2.36310738,-0.32978528,1.56157494

>  <Name>


>  <RI>
0

>  <Rbt.Current_Directory>
/home/itssahil/PROJECTS/Mol_Feturizer/New_Systems/rnas/1ei2

>  <Rbt.Executable>
rbdock ($Id: //depot/dev/client3/rdock/2013.1/src/exe/rbdock.cxx#4 $)

>  <Rbt.Library>
libRbt.so (2013.1, Build901 2013/11/27)

>  <Rbt.Parameter_File>
/export/apps/rDock/src/rDock_2013.1_src/data/scripts/dock_solv.prm

>  <Rbt.Receptor>
prm/pocket_docking_2.prm

>  <SCORE>
-38.0177

>  <SCORE.INTER>
-25.8587

>  <SCORE.INTER.CONST>
1

>  <SCORE.INTER.POLAR>
-4.38082

>  <SCORE.INTER.ROT>
9

>  <SCORE.INTER.SOLV>
28.6477

>  <SCORE.INTER.VDW>
-21.7856

>  <SCORE.INTER.norm>
-0.615684

>  <SCORE.INTRA>
-16.2178

>  <SCORE.INTRA.DIHEDRAL>
-10.9414

>  <SCORE.INTRA.DIHEDRAL.0>
40.8761

>  <SCORE.INTRA.POLAR>
-1.1325

>  <SCORE.INTRA.POLAR.0>
-0.0268208

>  <SCORE.INTRA.REPUL>
-0.575214

>  <SCORE.INTRA.REPUL.0>
0.641615

>  <SCORE.INTRA.SOLV>
-9.13019

>  <SCORE.INTRA.SOLV.lig_0>
-162.567

>  <SCORE.INTRA.VDW>
0.544626

>  <SCORE.INTRA.VDW.0>
-4.80338

>  <SCORE.INTRA.norm>
-0.386137

>  <SCORE.RESTR>
4.05879

>  <SCORE.RESTR.CAVITY>
4.05879

>  <SCORE.RESTR.norm>
0.096638

>  <SCORE.SYSTEM>
0

>  <SCORE.SYSTEM.CONST>
0

>  <SCORE.SYSTEM.DIHEDRAL>
0

>  <SCORE.SYSTEM.SOLV>
0

>  <SCORE.SYSTEM.norm>
0

>  <SCORE.heavy>
42

>  <SCORE.norm>
-0.905183

>  <RMSD>
2.780

$$$$

 OpenBabel11021811393D
libRbt.so/2013.1/901 2013/11/27
 42 45  0  0  0  0  0  0  0  0999 V2000
   -9.3591    3.0234    0.5974 C   0  0  2  0  0  0  0  0  0  0  0  0
   -8.1103    2.3487    0.2524 O   0  0  0  0  0  0  0  0  0  0  0  0
  -10.1488    3.4608   -0.6789 C   0  0  2  0  0  0  0  0  0  0  0  0
   -9.6366    2.7898   -1.8956 N   0  3  0  0  0  0  0  0  0  0  0  0
  -10.1053    5.0094   -0.8490 C   0  0  1  0  0  0  0  0  0  0  0  0
  -10.8370    5.3970   -2.0100 O   0  0  0  0  0  0  0  0  0  0  0  0
  -10.7081    5.7415    0.3798 C   0  0  2  0  0  0  0  0  0  0  0  0
  -10.3786    7.1235    0.2953 O   0  0  0  0  0  0  0  0  0  0  0  0
  -10.1670    5.1426    1.7185 C   0  0  2  0  0  0  0  0  0  0  0  0
   -9.0871    4.1917    1.4449 O   0  0  0  0  0  0  0  0  0  0  0  0
  -11.2218    4.3796    2.5525 C   0  0  0  0  0  0  0  0  0  0  0  0
   -5.4963    5.5064    1.5999 C   0  0  1  0  0  0  0  0  0  0  0  0
   -4.3011    6.3356    1.8722 N   0  3  0  0  0  0  0  0  0  0  0  0
   -5.8477    5.4931    0.0891 C   0  0  1  0  0  0  0  0  0  0  0  0
   -7.0139    4.5115   -0.2802 C   0  0  1  0  0  0  0  0  0  0  0  0
   -7.0275    4.3456   -1.7235 O   0  0  0  0  0  0  0  0  0  0  0  0
   -6.8528    3.0839    0.3602 C   0  0  1  0  0  0  0  0  0  0  0  0
   -6.4710    3.1604    1.8739 C   0  0  1  0  0  0  0  0  0  0  0  0
   -6.1741    1.8283    2.4388 N   0  3  0  0  0  0  0  0  0  0  0  0
   -5.2467    4.0726    2.1122 C   0  0  0  0  0  0  0  0  0  0  0  0
   -6.6467    5.4621   -2.5787 C   0  0  1  0  0  0  0  0  0  0  0  0
   -5.1420    5.4024   -2.8136 C   0  0  1  0  0  0  0  0  0  0  0  0
   -5.0852    4.3443   -3.9071 C   0  0  1  0  0  0  0  0  0  0  0  0
   -6.2852    4.7364   -4.7808 C   0  0  2  0  0  0  0  0  0  0  0  0
   -7.2522    5.3177   -3.8739 O   0  0  0  0  0  0  0  0  0  0  0  0
   -6.9068    3.5393   -5.5223 C   0  0  0  0  0  0  0  0  0  0  0  0
   -3.7927    1.1633   -2.5941 C   0  0  1  0  0  0  0  0  0  0  0  0
   -3.9969    1.2481   -4.1325 C   0  0  1  0  0  0  0  0  0  0  0  0
   -2.9219    2.0977   -4.8700 C   0  0  2  0  0  0  0  0  0  0  0  0
   -2.7711    3.5088   -4.2158 C   0  0  1  0  0  0  0  0  0  0  0  0
   -3.8324    4.4067   -4.6477 O   0  0  0  0  0  0  0  0  0  0  0  0
   -2.6225    2.0868   -2.1383 C   0  0  1  0  0  0  0  0  0  0  0  0
   -2.7828    3.4140   -2.7377 O   0  0  0  0  0  0  0  0  0  0  0  0
   -2.5458    2.2286   -0.5962 C   0  0  0  0  0  0  0  0  0  0  0  0
  -12.5231    5.0623    2.6610 N   0  3  0  0  0  0  0  0  0  0  0  0
   -4.6761    6.6672   -3.2844 O   0  0  0  0  0  0  0  0  0  0  0  0
   -3.9724   -0.0764   -4.6630 O   0  0  0  0  0  0  0  0  0  0  0  0
   -5.0088    1.5572   -1.9546 O   0  0  0  0  0  0  0  0  0  0  0  0
   -8.1100    3.9155   -6.1701 O   0  0  0  0  0  0  0  0  0  0  0  0
   -6.2211    6.8127   -0.3066 O   0  0  0  0  0  0  0  0  0  0  0  0
   -1.4394    3.0974   -0.1545 N   0  3  0  0  0  0  0  0  0  0  0  0
   -3.1942    2.1699   -6.3270 N   0  3  0  0  0  0  0  0  0  0  0  0
  1  2  1  6  0  0  0
  1  3  1  0  0  0  0
  1 10  1  0  0  0  0
  3  4  1  6  0  0  0
  3  5  1  0  0  0  0
  5  6  1  6  0  0  0
  5  7  1  0  0  0  0
  7  8  1  6  0  0  0
  7  9  1  0  0  0  0
  9 10  1  0  0  0  0
  9 11  1  6  0  0  0
 11 35  1  0  0  0  0
 12 13  1  6  0  0  0
 12 14  1  0  0  0  0
 12 20  1  0  0  0  0
 14 15  1  0  0  0  0
 14 40  1  1  0  0  0
 15 16  1  6  0  0  0
 15 17  1  0  0  0  0
 17  2  1  1  0  0  0
 17 18  1  0  0  0  0
 18 19  1  6  0  0  0
 18 20  1  0  0  0  0
 21 16  1  1  0  0  0
 21 22  1  0  0  0  0
 21 25  1  0  0  0  0
 22 23  1  0  0  0  0
 22 36  1  6  0  0  0
 23 24  1  0  0  0  0
 23 31  1  6  0  0  0
 24 25  1  0  0  0  0
 24 26  1  1  0  0  0
 26 39  1  0  0  0  0
 27 28  1  0  0  0  0
 27 32  1  0  0  0  0
 27 38  1  1  0  0  0
 28 29  1  0  0  0  0
 28 37  1  6  0  0  0
 29 30  1  0  0  0  0
 29 42  1  6  0  0  0
 30 31  1  6  0  0  0
 30 33  1  0  0  0  0
 32 33  1  0  0  0  0
 32 34  1  1  0  0  0
 34 41  1  0  0  0  0
M  CHG  6   4   1  13   1  19   1  35   1  41   1  42   1
M  END
>  <CHROM.1>
102.45853874,-45.60487402,-62.70513490,-176.54025806,69.15774344,-44.41877643
-176.05198030,168.71002817,-58.51042531,-33.43258560,89.39841076,-177.77110701
-177.46266579,95.35659263,172.22802200,-54.41707238,-62.17315711,171.91872352
-41.27063876,85.04701052,179.83589443,-61.74056701,-6.48566210,3.94610353
-1.43226565,-2.48525352,0.29296281,-1.61838170

>  <Name>


>  <RI>
0

>  <Rbt.Current_Directory>
/home/itssahil/PROJECTS/Mol_Feturizer/New_Systems/rnas/1ei2

>  <Rbt.Executable>
rbdock ($Id: //depot/dev/client3/rdock/2013.1/src/exe/rbdock.cxx#4 $)

>  <Rbt.Library>
libRbt.so (2013.1, Build901 2013/11/27)

>  <Rbt.Parameter_File>
/export/apps/rDock/src/rDock_2013.1_src/data/scripts/dock_solv.prm

>  <Rbt.Receptor>
prm/pocket_docking_2.prm

>  <SCORE>
-31.7702

>  <SCORE.INTER>
-15.1366

>  <SCORE.INTER.CONST>
1

>  <SCORE.INTER.POLAR>
-2.4065

>  <SCORE.INTER.ROT>
9

>  <SCORE.INTER.SOLV>
22.9127

>  <SCORE.INTER.VDW>
-19.307

>  <SCORE.INTER.norm>
-0.360395

>  <SCORE.INTRA>
-19.9596

>  <SCORE.INTRA.DIHEDRAL>
-16.4893

>  <SCORE.INTRA.DIHEDRAL.0>
40.8761

>  <SCORE.INTRA.POLAR>
-1.22148

>  <SCORE.INTRA.POLAR.0>
-0.0268208

>  <SCORE.INTRA.REPUL>
-0.635959

>  <SCORE.INTRA.REPUL.0>
0.641615

>  <SCORE.INTRA.SOLV>
-8.14609

>  <SCORE.INTRA.SOLV.lig_0>
-162.567

>  <SCORE.INTRA.VDW>
-0.309106

>  <SCORE.INTRA.VDW.0>
-4.80338

>  <SCORE.INTRA.norm>
-0.475229

>  <SCORE.RESTR>
3.326

>  <SCORE.RESTR.CAVITY>
3.326

>  <SCORE.RESTR.norm>
0.0791905

>  <SCORE.SYSTEM>
0

>  <SCORE.SYSTEM.CONST>
0

>  <SCORE.SYSTEM.DIHEDRAL>
0

>  <SCORE.SYSTEM.SOLV>
0

>  <SCORE.SYSTEM.norm>
0

>  <SCORE.heavy>
42

>  <SCORE.norm>
-0.756434

>  <RMSD>
2.887

$$$$

 OpenBabel11021811393D
libRbt.so/2013.1/901 2013/11/27
 42 45  0  0  0  0  0  0  0  0999 V2000
   -6.3008    4.4281    1.3000 C   0  0  2  0  0  0  0  0  0  0  0  0
   -5.1903    4.3433    2.2451 O   0  0  0  0  0  0  0  0  0  0  0  0
   -6.8063    5.8983    1.1361 C   0  0  2  0  0  0  0  0  0  0  0  0
   -5.8368    6.8742    1.6845 N   0  3  0  0  0  0  0  0  0  0  0  0
   -8.2018    6.0783    1.8062 C   0  0  1  0  0  0  0  0  0  0  0  0
   -8.6567    7.4196    1.6414 O   0  0  0  0  0  0  0  0  0  0  0  0
   -9.2613    5.1209    1.1975 C   0  0  2  0  0  0  0  0  0  0  0  0
  -10.4141    5.1252    2.0322 O   0  0  0  0  0  0  0  0  0  0  0  0
   -8.7021    3.6673    1.0638 C   0  0  2  0  0  0  0  0  0  0  0  0
   -7.4048    3.5629    1.7356 O   0  0  0  0  0  0  0  0  0  0  0  0
   -8.4806    3.1967   -0.3921 C   0  0  0  0  0  0  0  0  0  0  0  0
   -2.5700    1.5628    4.2509 C   0  0  1  0  0  0  0  0  0  0  0  0
   -1.9237    0.3212    4.7316 N   0  3  0  0  0  0  0  0  0  0  0  0
   -2.3167    1.7871    2.7370 C   0  0  1  0  0  0  0  0  0  0  0  0
   -3.1010    3.0063    2.1386 C   0  0  1  0  0  0  0  0  0  0  0  0
   -3.0440    2.9155    0.6896 O   0  0  0  0  0  0  0  0  0  0  0  0
   -4.6182    3.0350    2.5529 C   0  0  1  0  0  0  0  0  0  0  0  0
   -4.8130    2.7749    4.0817 C   0  0  1  0  0  0  0  0  0  0  0  0
   -6.2393    2.6535    4.4462 N   0  3  0  0  0  0  0  0  0  0  0  0
   -4.0832    1.4938    4.5441 C   0  0  0  0  0  0  0  0  0  0  0  0
   -1.8308    3.3200   -0.0084 C   0  0  1  0  0  0  0  0  0  0  0  0
   -1.6066    2.3724   -1.1809 C   0  0  1  0  0  0  0  0  0  0  0  0
   -2.5737    2.9693   -2.1942 C   0  0  1  0  0  0  0  0  0  0  0  0
   -2.3540    4.4742   -1.9835 C   0  0  2  0  0  0  0  0  0  0  0  0
   -2.0076    4.6239   -0.5859 O   0  0  0  0  0  0  0  0  0  0  0  0
   -3.5991    5.3166   -2.3141 C   0  0  0  0  0  0  0  0  0  0  0  0
   -5.3032    3.3004   -5.7535 C   0  0  1  0  0  0  0  0  0  0  0  0
   -3.8418    3.1659   -6.2649 C   0  0  1  0  0  0  0  0  0  0  0  0
   -3.1172    1.8751   -5.7853 C   0  0  2  0  0  0  0  0  0  0  0  0
   -3.2170    1.7149   -4.2341 C   0  0  1  0  0  0  0  0  0  0  0  0
   -2.2460    2.5590   -3.5530 O   0  0  0  0  0  0  0  0  0  0  0  0
   -5.6457    2.1601   -4.7472 C   0  0  1  0  0  0  0  0  0  0  0  0
   -4.5771    2.0475   -3.7511 O   0  0  0  0  0  0  0  0  0  0  0  0
   -6.9964    2.3949   -4.0230 C   0  0  0  0  0  0  0  0  0  0  0  0
   -9.3382    3.8660   -1.3860 N   0  3  0  0  0  0  0  0  0  0  0  0
   -0.2542    2.4690   -1.6282 O   0  0  0  0  0  0  0  0  0  0  0  0
   -3.8623    3.1725   -7.6917 O   0  0  0  0  0  0  0  0  0  0  0  0
   -5.4453    4.5744   -5.1213 O   0  0  0  0  0  0  0  0  0  0  0  0
   -4.6392    5.0676   -1.3840 O   0  0  0  0  0  0  0  0  0  0  0  0
   -0.9202    1.9995    2.5322 O   0  0  0  0  0  0  0  0  0  0  0  0
   -7.4439    1.2220   -3.2497 N   0  3  0  0  0  0  0  0  0  0  0  0
   -1.7175    1.8254   -6.2757 N   0  3  0  0  0  0  0  0  0  0  0  0
  1  2  1  1  0  0  0
  1  3  1  0  0  0  0
  1 10  1  0  0  0  0
  3  4  1  1  0  0  0
  3  5  1  0  0  0  0
  5  6  1  6  0  0  0
  5  7  1  0  0  0  0
  7  8  1  1  0  0  0
  7  9  1  0  0  0  0
  9 10  1  0  0  0  0
  9 11  1  6  0  0  0
 11 35  1  0  0  0  0
 12 13  1  6  0  0  0
 12 14  1  0  0  0  0
 12 20  1  0  0  0  0
 14 15  1  0  0  0  0
 14 40  1  1  0  0  0
 15 16  1  6  0  0  0
 15 17  1  0  0  0  0
 17  2  1  1  0  0  0
 17 18  1  0  0  0  0
 18 19  1  6  0  0  0
 18 20  1  0  0  0  0
 21 16  1  6  0  0  0
 21 22  1  0  0  0  0
 21 25  1  0  0  0  0
 22 23  1  0  0  0  0
 22 36  1  6  0  0  0
 23 24  1  0  0  0  0
 23 31  1  6  0  0  0
 24 25  1  0  0  0  0
 24 26  1  1  0  0  0
 26 39  1  0  0  0  0
 27 28  1  0  0  0  0
 27 32  1  0  0  0  0
 27 38  1  1  0  0  0
 28 29  1  0  0  0  0
 28 37  1  6  0  0  0
 29 30  1  0  0  0  0
 29 42  1  1  0  0  0
 30 31  1  1  0  0  0
 30 33  1  0  0  0  0
 32 33  1  0  0  0  0
 32 34  1  1  0  0  0
 34 41  1  0  0  0  0
M  CHG  6   4   1  13   1  19   1  35   1  41   1  42   1
M  END
>  <CHROM.1>
178.11334003,119.05392823,91.73330567,-76.42843933,-178.65696039,-26.02423826
61.96057082,59.28830050,67.05101791,-78.00013676,142.56193585,-28.40483939
-171.12863126,114.34224832,67.67632837,178.89835991,58.91511572,175.99461980
60.35174400,154.03706556,170.02459542,177.55509185,-4.78886481,3.38793375
-0.60633656,1.88419882,-0.38175485,1.56475351

>  <Name>


>  <RI>
0

>  <Rbt.Current_Directory>
/home/itssahil/PROJECTS/Mol_Feturizer/New_Systems/rnas/1ei2

>  <Rbt.Executable>
rbdock ($Id: //depot/dev/client3/rdock/2013.1/src/exe/rbdock.cxx#4 $)

>  <Rbt.Library>
libRbt.so (2013.1, Build901 2013/11/27)

>  <Rbt.Parameter_File>
/export/apps/rDock/src/rDock_2013.1_src/data/scripts/dock_solv.prm

>  <Rbt.Receptor>
prm/pocket_docking_2.prm

>  <SCORE>
-32.0724

>  <SCORE.INTER>
-24.1904

>  <SCORE.INTER.CONST>
1

>  <SCORE.INTER.POLAR>
-4.09512

>  <SCORE.INTER.ROT>
9

>  <SCORE.INTER.SOLV>
27.103

>  <SCORE.INTER.VDW>
-21.1109

>  <SCORE.INTER.norm>
-0.575961

>  <SCORE.INTRA>
-15.2986

>  <SCORE.INTRA.DIHEDRAL>
-7.00318

>  <SCORE.INTRA.DIHEDRAL.0>
40.8761

>  <SCORE.INTRA.POLAR>
-1.27025

>  <SCORE.INTRA.POLAR.0>
-0.0268208

>  <SCORE.INTRA.REPUL>
-0.582706

>  <SCORE.INTRA.REPUL.0>
0.641615

>  <SCORE.INTRA.SOLV>
-5.86245

>  <SCORE.INTRA.SOLV.lig_0>
-162.567

>  <SCORE.INTRA.VDW>
-1.63345

>  <SCORE.INTRA.VDW.0>
-4.80338

>  <SCORE.INTRA.norm>
-0.364254

>  <SCORE.RESTR>
7.41659

>  <SCORE.RESTR.CAVITY>
7.41659

>  <SCORE.RESTR.norm>
0.176585

>  <SCORE.SYSTEM>
0

>  <SCORE.SYSTEM.CONST>
0

>  <SCORE.SYSTEM.DIHEDRAL>
0

>  <SCORE.SYSTEM.SOLV>
0

>  <SCORE.SYSTEM.norm>
0

>  <SCORE.heavy>
42

>  <SCORE.norm>
-0.76363

>  <RMSD>
2.937

$$$$

 OpenBabel11021811393D
libRbt.so/2013.1/901 2013/11/27
 42 45  0  0  0  0  0  0  0  0999 V2000
   -6.3921    6.1538    3.1892 C   0  0  2  0  0  0  0  0  0  0  0  0
   -6.7180    4.7826    2.8054 O   0  0  0  0  0  0  0  0  0  0  0  0
   -7.5764    6.8363    3.9478 C   0  0  2  0  0  0  0  0  0  0  0  0
   -8.5795    5.8453    4.4003 N   0  3  0  0  0  0  0  0  0  0  0  0
   -8.2467    7.9247    3.0561 C   0  0  1  0  0  0  0  0  0  0  0  0
   -9.3182    8.5468    3.7620 O   0  0  0  0  0  0  0  0  0  0  0  0
   -7.2359    9.0224    2.6287 C   0  0  2  0  0  0  0  0  0  0  0  0
   -7.8240    9.8092    1.5988 O   0  0  0  0  0  0  0  0  0  0  0  0
   -5.8961    8.3946    2.1244 C   0  0  2  0  0  0  0  0  0  0  0  0
   -6.0353    6.9417    2.0021 O   0  0  0  0  0  0  0  0  0  0  0  0
   -4.6831    8.6420    3.0504 C   0  0  0  0  0  0  0  0  0  0  0  0
   -2.6642    3.3068    2.7163 C   0  0  1  0  0  0  0  0  0  0  0  0
   -1.4687    2.4643    2.4895 N   0  3  0  0  0  0  0  0  0  0  0  0
   -3.2304    3.8620    1.3832 C   0  0  1  0  0  0  0  0  0  0  0  0
   -4.5837    4.6382    1.5456 C   0  0  1  0  0  0  0  0  0  0  0  0
   -5.1653    4.8171    0.2263 O   0  0  0  0  0  0  0  0  0  0  0  0
   -5.6375    3.8747    2.4292 C   0  0  1  0  0  0  0  0  0  0  0  0
   -5.0038    3.3139    3.7433 C   0  0  1  0  0  0  0  0  0  0  0  0
   -5.9521    2.4718    4.5007 N   0  3  0  0  0  0  0  0  0  0  0  0
   -3.7345    2.4799    3.4587 C   0  0  0  0  0  0  0  0  0  0  0  0
   -4.7015    5.9075   -0.6215 C   0  0  1  0  0  0  0  0  0  0  0  0
   -3.7206    5.3445   -1.6431 C   0  0  1  0  0  0  0  0  0  0  0  0
   -4.6966    4.7648   -2.6579 C   0  0  1  0  0  0  0  0  0  0  0  0
   -5.7772    5.8544   -2.7064 C   0  0  2  0  0  0  0  0  0  0  0  0
   -5.7985    6.4392   -1.3823 O   0  0  0  0  0  0  0  0  0  0  0  0
   -7.1697    5.3058   -3.0660 C   0  0  0  0  0  0  0  0  0  0  0  0
   -4.0342    0.8018   -4.6937 C   0  0  1  0  0  0  0  0  0  0  0  0
   -3.9507    1.9257   -5.7639 C   0  0  1  0  0  0  0  0  0  0  0  0
   -2.8632    3.0000   -5.4732 C   0  0  2  0  0  0  0  0  0  0  0  0
   -3.0074    3.5722   -4.0263 C   0  0  1  0  0  0  0  0  0  0  0  0
   -4.0657    4.5692   -3.9562 O   0  0  0  0  0  0  0  0  0  0  0  0
   -3.0895    1.1088   -3.4923 C   0  0  1  0  0  0  0  0  0  0  0  0
   -3.2887    2.4921   -3.0526 O   0  0  0  0  0  0  0  0  0  0  0  0
   -3.3247    0.1530   -2.2943 C   0  0  0  0  0  0  0  0  0  0  0  0
   -4.9999    8.6177    4.4893 N   0  3  0  0  0  0  0  0  0  0  0  0
   -2.9482    6.4050   -2.2065 O   0  0  0  0  0  0  0  0  0  0  0  0
   -3.6694    1.3239   -7.0269 O   0  0  0  0  0  0  0  0  0  0  0  0
   -5.3876    0.7057   -4.2441 O   0  0  0  0  0  0  0  0  0  0  0  0
   -7.1486    4.6612   -4.3280 O   0  0  0  0  0  0  0  0  0  0  0  0
   -2.2667    4.7433    0.8071 O   0  0  0  0  0  0  0  0  0  0  0  0
   -2.4744    0.4700   -1.1322 N   0  3  0  0  0  0  0  0  0  0  0  0
   -2.8601    4.0621   -6.5096 N   0  3  0  0  0  0  0  0  0  0  0  0
  1  2  1  6  0  0  0
  1  3  1  0  0  0  0
  1 10  1  0  0  0  0
  3  4  1  6  0  0  0
  3  5  1  0  0  0  0
  5  6  1  1  0  0  0
  5  7  1  0  0  0  0
  7  8  1  6  0  0  0
  7  9  1  0  0  0  0
  9 10  1  0  0  0  0
  9 11  1  1  0  0  0
 11 35  1  0  0  0  0
 12 13  1  6  0  0  0
 12 14  1  0  0  0  0
 12 20  1  0  0  0  0
 14 15  1  0  0  0  0
 14 40  1  1  0  0  0
 15 16  1  6  0  0  0
 15 17  1  0  0  0  0
 17  2  1  1  0  0  0
 17 18  1  0  0  0  0
 18 19  1  6  0  0  0
 18 20  1  0  0  0  0
 21 16  1  1  0  0  0
 21 22  1  0  0  0  0
 21 25  1  0  0  0  0
 22 23  1  0  0  0  0
 22 36  1  6  0  0  0
 23 24  1  0  0  0  0
 23 31  1  6  0  0  0
 24 25  1  0  0  0  0
 24 26  1  1  0  0  0
 26 39  1  0  0  0  0
 27 28  1  0  0  0  0
 27 32  1  0  0  0  0
 27 38  1  1  0  0  0
 28 29  1  0  0  0  0
 28 37  1  6  0  0  0
 29 30  1  0  0  0  0
 29 42  1  6  0  0  0
 30 31  1  6  0  0  0
 30 33  1  0  0  0  0
 32 33  1  0  0  0  0
 32 34  1  1  0  0  0
 34 41  1  0  0  0  0
M  CHG  6   4   1  13   1  19   1  35   1  41   1  42   1
M  END
>  <CHROM.1>
-163.19496394,-40.83547712,-148.15930939,58.33479842,-61.76875216,36.68817128
69.01610391,170.13637999,-62.30261704,-81.75301443,100.37534480,68.62737114
-44.43421216,65.95393081,-58.86463634,62.81520245,65.78290104,-63.46111835
56.13313407,154.51287528,-177.65004015,148.51060595,-4.94261147,4.67523956
-0.24124121,-2.19495683,1.00543926,-1.55953610

>  <Name>


>  <RI>
0

>  <Rbt.Current_Directory>
/home/itssahil/PROJECTS/Mol_Feturizer/New_Systems/rnas/1ei2

>  <Rbt.Executable>
rbdock ($Id: //depot/dev/client3/rdock/2013.1/src/exe/rbdock.cxx#4 $)

>  <Rbt.Library>
libRbt.so (2013.1, Build901 2013/11/27)

>  <Rbt.Parameter_File>
/export/apps/rDock/src/rDock_2013.1_src/data/scripts/dock_solv.prm

>  <Rbt.Receptor>
prm/pocket_docking_4.prm

>  <SCORE>
-48.9027

>  <SCORE.INTER>
-31.8905

>  <SCORE.INTER.CONST>
1

>  <SCORE.INTER.POLAR>
-5.43405

>  <SCORE.INTER.ROT>
9

>  <SCORE.INTER.SOLV>
28.8693

>  <SCORE.INTER.VDW>
-22.3699

>  <SCORE.INTER.norm>
-0.759297

>  <SCORE.INTRA>
-17.0808

>  <SCORE.INTRA.DIHEDRAL>
-18.9562

>  <SCORE.INTRA.DIHEDRAL.0>
40.8761

>  <SCORE.INTRA.POLAR>
-0.343748

>  <SCORE.INTRA.POLAR.0>
-0.0268208

>  <SCORE.INTRA.REPUL>
-0.641615

>  <SCORE.INTRA.REPUL.0>
0.641615

>  <SCORE.INTRA.SOLV>
-7.98444

>  <SCORE.INTRA.SOLV.lig_0>
-162.567

>  <SCORE.INTRA.VDW>
0.766341

>  <SCORE.INTRA.VDW.0>
-4.80338

>  <SCORE.INTRA.norm>
-0.406686

>  <SCORE.RESTR>
0.0686413

>  <SCORE.RESTR.CAVITY>
0.0686413

>  <SCORE.RESTR.norm>
0.00163432

>  <SCORE.SYSTEM>
0

>  <SCORE.SYSTEM.CONST>
0

>  <SCORE.SYSTEM.DIHEDRAL>
0

>  <SCORE.SYSTEM.SOLV>
0

>  <SCORE.SYSTEM.norm>
0

>  <SCORE.heavy>
42

>  <SCORE.norm>
-1.16435

>  <RMSD>
3.075

$$$$

 OpenBabel11021811393D
libRbt.so/2013.1/901 2013/11/27
 42 45  0  0  0  0  0  0  0  0999 V2000
   -6.6732    3.3533   -0.6780 C   0  0  2  0  0  0  0  0  0  0  0  0
   -5.4116    2.6639   -0.9364 O   0  0  0  0  0  0  0  0  0  0  0  0
   -7.7513    2.3821   -0.0963 C   0  0  2  0  0  0  0  0  0  0  0  0
   -7.1476    1.1157    0.3778 N   0  3  0  0  0  0  0  0  0  0  0  0
   -8.8618    2.0970   -1.1519 C   0  0  1  0  0  0  0  0  0  0  0  0
   -9.8441    1.2187   -0.6068 O   0  0  0  0  0  0  0  0  0  0  0  0
   -9.5680    3.4004   -1.6120 C   0  0  2  0  0  0  0  0  0  0  0  0
  -10.3510    3.1132   -2.7653 O   0  0  0  0  0  0  0  0  0  0  0  0
   -8.5305    4.5241   -1.9351 C   0  0  2  0  0  0  0  0  0  0  0  0
   -7.1719    3.9774   -1.9104 O   0  0  0  0  0  0  0  0  0  0  0  0
   -8.5427    5.7121   -0.9459 C   0  0  0  0  0  0  0  0  0  0  0  0
   -2.0698    4.4872    1.0954 C   0  0  1  0  0  0  0  0  0  0  0  0
   -0.7843    5.1619    1.3827 N   0  3  0  0  0  0  0  0  0  0  0  0
   -3.0785    5.4500    0.4158 C   0  0  1  0  0  0  0  0  0  0  0  0
   -4.4042    4.7520   -0.0484 C   0  0  1  0  0  0  0  0  0  0  0  0
   -5.1063    5.6591   -0.9401 O   0  0  0  0  0  0  0  0  0  0  0  0
   -4.1603    3.4102   -0.8321 C   0  0  1  0  0  0  0  0  0  0  0  0
   -3.1151    2.4950   -0.1159 C   0  0  1  0  0  0  0  0  0  0  0  0
   -2.7741    1.3058   -0.9230 N   0  3  0  0  0  0  0  0  0  0  0  0
   -1.8085    3.2558    0.2033 C   0  0  0  0  0  0  0  0  0  0  0  0
   -4.3916    6.2681   -2.0541 C   0  0  1  0  0  0  0  0  0  0  0  0
   -3.8519    5.1587   -2.9490 C   0  0  1  0  0  0  0  0  0  0  0  0
   -5.1084    4.8193   -3.7392 C   0  0  1  0  0  0  0  0  0  0  0  0
   -5.6933    6.2136   -4.0059 C   0  0  2  0  0  0  0  0  0  0  0  0
   -5.3035    7.0218   -2.8699 O   0  0  0  0  0  0  0  0  0  0  0  0
   -7.2257    6.2062   -4.1501 C   0  0  0  0  0  0  0  0  0  0  0  0
   -4.5346    0.4921   -6.2070 C   0  0  1  0  0  0  0  0  0  0  0  0
   -4.1808    1.7509   -7.0471 C   0  0  1  0  0  0  0  0  0  0  0  0
   -3.2172    2.7415   -6.3320 C   0  0  2  0  0  0  0  0  0  0  0  0
   -3.7425    3.1110   -4.9075 C   0  0  1  0  0  0  0  0  0  0  0  0
   -4.7899    4.1197   -4.9766 O   0  0  0  0  0  0  0  0  0  0  0  0
   -3.9428    0.6009   -4.7689 C   0  0  1  0  0  0  0  0  0  0  0  0
   -4.2621    1.9150   -4.2051 O   0  0  0  0  0  0  0  0  0  0  0  0
   -4.4780   -0.5047   -3.8227 C   0  0  0  0  0  0  0  0  0  0  0  0
   -9.8425    6.3969   -0.8320 N   0  3  0  0  0  0  0  0  0  0  0  0
   -2.8255    5.6772   -3.7954 O   0  0  0  0  0  0  0  0  0  0  0  0
   -3.5715    1.3224   -8.2642 O   0  0  0  0  0  0  0  0  0  0  0  0
   -5.9578    0.3748   -6.1463 O   0  0  0  0  0  0  0  0  0  0  0  0
   -7.6387    5.2454   -5.1067 O   0  0  0  0  0  0  0  0  0  0  0  0
   -3.4098    6.4907    1.3348 O   0  0  0  0  0  0  0  0  0  0  0  0
   -3.4388   -1.4724   -3.4259 N   0  3  0  0  0  0  0  0  0  0  0  0
   -2.9494    3.9368   -7.1697 N   0  3  0  0  0  0  0  0  0  0  0  0
  1  2  1  6  0  0  0
  1  3  1  0  0  0  0
  1 10  1  0  0  0  0
  3  4  1  6  0  0  0
  3  5  1  0  0  0  0
  5  6  1  1  0  0  0
  5  7  1  0  0  0  0
  7  8  1  6  0  0  0
  7  9  1  0  0  0  0
  9 10  1  0  0  0  0
  9 11  1  1  0  0  0
 11 35  1  0  0  0  0
 12 13  1  6  0  0  0
 12 14  1  0  0  0  0
 12 20  1  0  0  0  0
 14 15  1  0  0  0  0
 14 40  1  1  0  0  0
 15 16  1  6  0  0  0
 15 17  1  0  0  0  0
 17  2  1  1  0  0  0
 17 18  1  0  0  0  0
 18 19  1  6  0  0  0
 18 20  1  0  0  0  0
 21 16  1  1  0  0  0
 21 22  1  0  0  0  0
 21 25  1  0  0  0  0
 22 23  1  0  0  0  0
 22 36  1  6  0  0  0
 23 24  1  0  0  0  0
 23 31  1  6  0  0  0
 24 25  1  0  0  0  0
 24 26  1  1  0  0  0
 26 39  1  0  0  0  0
 27 28  1  0  0  0  0
 27 32  1  0  0  0  0
 27 38  1  1  0  0  0
 28 29  1  0  0  0  0
 28 37  1  6  0  0  0
 29 30  1  0  0  0  0
 29 42  1  6  0  0  0
 30 31  1  6  0  0  0
 30 33  1  0  0  0  0
 32 33  1  0  0  0  0
 32 34  1  1  0  0  0
 34 41  1  0  0  0  0
M  CHG  6   4   1  13   1  19   1  35   1  41   1  42   1
M  END
>  <CHROM.1>
-149.85914952,16.29286964,151.92693972,-166.24747271,170.94169372,-58.00255704
-170.28615779,-106.53320746,174.01019097,50.25814780,59.20468551,62.36945933
164.47675278,40.76261550,-52.20855439,-176.26830639,65.83289433,-169.08474834
165.43408450,-163.56947558,112.18153152,67.22621193,-5.29096627,3.49508007
-2.58111533,1.91905994,0.00602437,1.06488098

>  <Name>


>  <RI>
0

>  <Rbt.Current_Directory>
/home/itssahil/PROJECTS/Mol_Feturizer/New_Systems/rnas/1ei2

>  <Rbt.Executable>
rbdock ($Id: //depot/dev/client3/rdock/2013.1/src/exe/rbdock.cxx#4 $)

>  <Rbt.Library>
libRbt.so (2013.1, Build901 2013/11/27)

>  <Rbt.Parameter_File>
/export/apps/rDock/src/rDock_2013.1_src/data/scripts/dock_solv.prm

>  <Rbt.Receptor>
prm/pocket_docking_3.prm

>  <SCORE>
-37.1699

>  <SCORE.INTER>
-26.9333

>  <SCORE.INTER.CONST>
1

>  <SCORE.INTER.POLAR>
-4.85891

>  <SCORE.INTER.ROT>
9

>  <SCORE.INTER.SOLV>
27.6948

>  <SCORE.INTER.VDW>
-20.5907

>  <SCORE.INTER.norm>
-0.641268

>  <SCORE.INTRA>
-10.6509

>  <SCORE.INTRA.DIHEDRAL>
-13.0573

>  <SCORE.INTRA.DIHEDRAL.0>
40.8761

>  <SCORE.INTRA.POLAR>
0.0268208

>  <SCORE.INTRA.POLAR.0>
-0.0268208

>  <SCORE.INTRA.REPUL>
-0.469306

>  <SCORE.INTRA.REPUL.0>
0.641615

>  <SCORE.INTRA.SOLV>
-7.33453

>  <SCORE.INTRA.SOLV.lig_0>
-162.567

>  <SCORE.INTRA.VDW>
1.80037

>  <SCORE.INTRA.VDW.0>
-4.80338

>  <SCORE.INTRA.norm>
-0.253592

>  <SCORE.RESTR>
0.414189

>  <SCORE.RESTR.CAVITY>
0.414189

>  <SCORE.RESTR.norm>
0.00986164

>  <SCORE.SYSTEM>
0

>  <SCORE.SYSTEM.CONST>
0

>  <SCORE.SYSTEM.DIHEDRAL>
0

>  <SCORE.SYSTEM.SOLV>
0

>  <SCORE.SYSTEM.norm>
0

>  <SCORE.heavy>
42

>  <SCORE.norm>
-0.884999

>  <RMSD>
3.101

$$$$

 OpenBabel11021811393D
libRbt.so/2013.1/901 2013/11/27
 42 45  0  0  0  0  0  0  0  0999 V2000
   -6.4920    2.7813    0.9013 C   0  0  2  0  0  0  0  0  0  0  0  0
   -6.0261    2.6070    2.2747 O   0  0  0  0  0  0  0  0  0  0  0  0
   -7.6000    3.8798    0.8043 C   0  0  2  0  0  0  0  0  0  0  0  0
   -7.6565    4.7093    2.0298 N   0  3  0  0  0  0  0  0  0  0  0  0
   -8.9895    3.2358    0.5155 C   0  0  1  0  0  0  0  0  0  0  0  0
   -9.9897    4.2476    0.4191 O   0  0  0  0  0  0  0  0  0  0  0  0
   -8.9840    2.4218   -0.8062 C   0  0  2  0  0  0  0  0  0  0  0  0
  -10.1680    1.6341   -0.8627 O   0  0  0  0  0  0  0  0  0  0  0  0
   -7.7236    1.5020   -0.9006 C   0  0  2  0  0  0  0  0  0  0  0  0
   -6.9988    1.5084    0.3721 O   0  0  0  0  0  0  0  0  0  0  0  0
   -6.7053    1.9186   -1.9868 C   0  0  0  0  0  0  0  0  0  0  0  0
   -2.1260    1.9343    3.9942 C   0  0  1  0  0  0  0  0  0  0  0  0
   -0.8457    1.3129    4.4004 N   0  3  0  0  0  0  0  0  0  0  0  0
   -2.1764    2.1860    2.4644 C   0  0  1  0  0  0  0  0  0  0  0  0
   -3.5661    2.7041    1.9543 C   0  0  1  0  0  0  0  0  0  0  0  0
   -3.5897    2.5889    0.5062 O   0  0  0  0  0  0  0  0  0  0  0  0
   -4.7825    1.8798    2.5158 C   0  0  1  0  0  0  0  0  0  0  0  0
   -4.6626    1.6330    4.0545 C   0  0  1  0  0  0  0  0  0  0  0  0
   -5.7230    0.7354    4.5564 N   0  3  0  0  0  0  0  0  0  0  0  0
   -3.2931    1.0261    4.4341 C   0  0  0  0  0  0  0  0  0  0  0  0
   -2.3728    2.8405   -0.2545 C   0  0  1  0  0  0  0  0  0  0  0  0
   -2.4920    2.1445   -1.6051 C   0  0  1  0  0  0  0  0  0  0  0  0
   -3.3517    3.1560   -2.3508 C   0  0  1  0  0  0  0  0  0  0  0  0
   -2.7388    4.4853   -1.8877 C   0  0  2  0  0  0  0  0  0  0  0  0
   -2.2558    4.2430   -0.5447 O   0  0  0  0  0  0  0  0  0  0  0  0
   -3.7496    5.6462   -1.8861 C   0  0  0  0  0  0  0  0  0  0  0  0
   -4.1584    2.1932   -7.4384 C   0  0  1  0  0  0  0  0  0  0  0  0
   -3.0085    1.5237   -6.6354 C   0  0  1  0  0  0  0  0  0  0  0  0
   -3.4416    0.9704   -5.2471 C   0  0  2  0  0  0  0  0  0  0  0  0
   -4.1875    2.0607   -4.4125 C   0  0  1  0  0  0  0  0  0  0  0  0
   -3.2487    2.9855   -3.7938 O   0  0  0  0  0  0  0  0  0  0  0  0
   -5.4572    2.2786   -6.5805 C   0  0  1  0  0  0  0  0  0  0  0  0
   -5.1367    2.8211   -5.2578 O   0  0  0  0  0  0  0  0  0  0  0  0
   -6.5481    3.1588   -7.2430 C   0  0  0  0  0  0  0  0  0  0  0  0
   -7.3133    2.4223   -3.2309 N   0  3  0  0  0  0  0  0  0  0  0  0
   -1.1996    2.0174   -2.1987 O   0  0  0  0  0  0  0  0  0  0  0  0
   -2.4861    0.4462   -7.4116 O   0  0  0  0  0  0  0  0  0  0  0  0
   -3.7365    3.5029   -7.8251 O   0  0  0  0  0  0  0  0  0  0  0  0
   -4.7766    5.4207   -0.9358 O   0  0  0  0  0  0  0  0  0  0  0  0
   -1.1792    3.1492    2.1249 O   0  0  0  0  0  0  0  0  0  0  0  0
   -6.5570    4.5421   -6.7328 N   0  3  0  0  0  0  0  0  0  0  0  0
   -2.2929    0.3789   -4.5171 N   0  3  0  0  0  0  0  0  0  0  0  0
  1  2  1  1  0  0  0
  1  3  1  0  0  0  0
  1 10  1  0  0  0  0
  3  4  1  1  0  0  0
  3  5  1  0  0  0  0
  5  6  1  6  0  0  0
  5  7  1  0  0  0  0
  7  8  1  1  0  0  0
  7  9  1  0  0  0  0
  9 10  1  0  0  0  0
  9 11  1  6  0  0  0
 11 35  1  0  0  0  0
 12 13  1  6  0  0  0
 12 14  1  0  0  0  0
 12 20  1  0  0  0  0
 14 15  1  0  0  0  0
 14 40  1  1  0  0  0
 15 16  1  6  0  0  0
 15 17  1  0  0  0  0
 17  2  1  1  0  0  0
 17 18  1  0  0  0  0
 18 19  1  6  0  0  0
 18 20  1  0  0  0  0
 21 16  1  1  0  0  0
 21 22  1  0  0  0  0
 21 25  1  0  0  0  0
 22 23  1  0  0  0  0
 22 36  1  6  0  0  0
 23 24  1  0  0  0  0
 23 31  1  6  0  0  0
 24 25  1  0  0  0  0
 24 26  1  1  0  0  0
 26 39  1  0  0  0  0
 27 28  1  0  0  0  0
 27 32  1  0  0  0  0
 27 38  1  1  0  0  0
 28 29  1  0  0  0  0
 28 37  1  6  0  0  0
 29 30  1  0  0  0  0
 29 42  1  1  0  0  0
 30 31  1  6  0  0  0
 30 33  1  0  0  0  0
 32 33  1  0  0  0  0
 32 34  1  6  0  0  0
 34 41  1  0  0  0  0
M  CHG  6   4   1  13   1  19   1  35   1  41   1  42   1
M  END
>  <CHROM.1>
-164.92823771,67.38791960,177.75554008,-62.65051321,-179.27591016,-37.81966840
173.14796729,145.08812696,-60.99132948,-36.15700605,157.83246779,-67.05890214
-51.14557001,88.96511647,64.93160865,-178.91650931,169.34938130,164.77009463
84.68355804,-125.34296897,-96.62497788,172.06749677,-4.76555047,2.60908272
-1.30611283,1.59396926,-0.13552649,1.59378462

>  <Name>


>  <RI>
0

>  <Rbt.Current_Directory>
/home/itssahil/PROJECTS/Mol_Feturizer/New_Systems/rnas/1ei2

>  <Rbt.Executable>
rbdock ($Id: //depot/dev/client3/rdock/2013.1/src/exe/rbdock.cxx#4 $)

>  <Rbt.Library>
libRbt.so (2013.1, Build901 2013/11/27)

>  <Rbt.Parameter_File>
/export/apps/rDock/src/rDock_2013.1_src/data/scripts/dock_solv.prm

>  <Rbt.Receptor>
prm/pocket_docking_3.prm

>  <SCORE>
-49.0415

>  <SCORE.INTER>
-31.2906

>  <SCORE.INTER.CONST>
1

>  <SCORE.INTER.POLAR>
-4.52144

>  <SCORE.INTER.ROT>
9

>  <SCORE.INTER.SOLV>
27.4067

>  <SCORE.INTER.VDW>
-24.5245

>  <SCORE.INTER.norm>
-0.745013

>  <SCORE.INTRA>
-18.3795

>  <SCORE.INTRA.DIHEDRAL>
-12.7505

>  <SCORE.INTRA.DIHEDRAL.0>
40.8761

>  <SCORE.INTRA.POLAR>
-2.27591

>  <SCORE.INTRA.POLAR.0>
-0.0268208

>  <SCORE.INTRA.REPUL>
-0.623021

>  <SCORE.INTRA.REPUL.0>
0.641615

>  <SCORE.INTRA.SOLV>
-2.30197

>  <SCORE.INTRA.SOLV.lig_0>
-162.567

>  <SCORE.INTRA.VDW>
-5.92542e-05

>  <SCORE.INTRA.VDW.0>
-4.80338

>  <SCORE.INTRA.norm>
-0.437607

>  <SCORE.RESTR>
0.628529

>  <SCORE.RESTR.CAVITY>
0.628529

>  <SCORE.RESTR.norm>
0.014965

>  <SCORE.SYSTEM>
0

>  <SCORE.SYSTEM.CONST>
0

>  <SCORE.SYSTEM.DIHEDRAL>
0

>  <SCORE.SYSTEM.SOLV>
0

>  <SCORE.SYSTEM.norm>
0

>  <SCORE.heavy>
42

>  <SCORE.norm>
-1.16766

>  <RMSD>
3.438

$$$$

 OpenBabel11021811393D
libRbt.so/2013.1/901 2013/11/27
 42 45  0  0  0  0  0  0  0  0999 V2000
   -7.3642    5.8289    1.6372 C   0  0  2  0  0  0  0  0  0  0  0  0
   -6.8601    4.5147    1.2468 O   0  0  0  0  0  0  0  0  0  0  0  0
   -8.9269    5.8722    1.6277 C   0  0  2  0  0  0  0  0  0  0  0  0
   -9.5113    4.5125    1.5769 N   0  3  0  0  0  0  0  0  0  0  0  0
   -9.4461    6.7353    0.4383 C   0  0  1  0  0  0  0  0  0  0  0  0
  -10.8715    6.7757    0.4461 O   0  0  0  0  0  0  0  0  0  0  0  0
   -8.9121    8.1911    0.5063 C   0  0  2  0  0  0  0  0  0  0  0  0
   -9.1761    8.8332   -0.7361 O   0  0  0  0  0  0  0  0  0  0  0  0
   -7.3787    8.2194    0.8088 C   0  0  2  0  0  0  0  0  0  0  0  0
   -6.8275    6.8639    0.7440 O   0  0  0  0  0  0  0  0  0  0  0  0
   -7.0101    8.7760    2.2033 C   0  0  0  0  0  0  0  0  0  0  0  0
   -2.7747    5.3273    2.3735 C   0  0  1  0  0  0  0  0  0  0  0  0
   -1.3381    5.1768    2.6956 N   0  3  0  0  0  0  0  0  0  0  0  0
   -3.0463    5.0994    0.8634 C   0  0  1  0  0  0  0  0  0  0  0  0
   -4.5692    5.0977    0.4881 C   0  0  1  0  0  0  0  0  0  0  0  0
   -4.7050    4.5606   -0.8550 O   0  0  0  0  0  0  0  0  0  0  0  0
   -5.4456    4.2091    1.4454 C   0  0  1  0  0  0  0  0  0  0  0  0
   -5.1081    4.4607    2.9507 C   0  0  1  0  0  0  0  0  0  0  0  0
   -5.8211    3.5239    3.8429 N   0  3  0  0  0  0  0  0  0  0  0  0
   -3.5930    4.3371    3.2281 C   0  0  0  0  0  0  0  0  0  0  0  0
   -5.9673    4.7143   -1.5661 C   0  0  1  0  0  0  0  0  0  0  0  0
   -5.6745    4.8159   -3.0583 C   0  0  1  0  0  0  0  0  0  0  0  0
   -5.4872    3.3426   -3.3937 C   0  0  1  0  0  0  0  0  0  0  0  0
   -6.6074    2.6919   -2.5697 C   0  0  2  0  0  0  0  0  0  0  0  0
   -6.7700    3.5336   -1.4032 O   0  0  0  0  0  0  0  0  0  0  0  0
   -6.2802    1.2501   -2.1414 C   0  0  0  0  0  0  0  0  0  0  0  0
   -4.0727    0.9599   -7.5950 C   0  0  1  0  0  0  0  0  0  0  0  0
   -5.1708    2.0388   -7.8078 C   0  0  1  0  0  0  0  0  0  0  0  0
   -4.8450    3.4139   -7.1566 C   0  0  2  0  0  0  0  0  0  0  0  0
   -4.4635    3.2490   -5.6503 C   0  0  1  0  0  0  0  0  0  0  0  0
   -5.6490    3.0934   -4.8198 O   0  0  0  0  0  0  0  0  0  0  0  0
   -2.9580    1.4842   -6.6396 C   0  0  1  0  0  0  0  0  0  0  0  0
   -3.5718    2.0832   -5.4517 O   0  0  0  0  0  0  0  0  0  0  0  0
   -1.9798    0.3646   -6.1996 C   0  0  0  0  0  0  0  0  0  0  0  0
   -5.6072    8.5553    2.5961 N   0  3  0  0  0  0  0  0  0  0  0  0
   -6.8040    5.3674   -3.7357 O   0  0  0  0  0  0  0  0  0  0  0  0
   -5.3470    2.2303   -9.2109 O   0  0  0  0  0  0  0  0  0  0  0  0
   -4.6864   -0.2067   -7.0423 O   0  0  0  0  0  0  0  0  0  0  0  0
   -7.4052    0.6344   -1.5383 O   0  0  0  0  0  0  0  0  0  0  0  0
   -2.3956    6.1295    0.1197 O   0  0  0  0  0  0  0  0  0  0  0  0
   -0.5713    0.8008   -6.2000 N   0  3  0  0  0  0  0  0  0  0  0  0
   -5.9469    4.3861   -7.3636 N   0  3  0  0  0  0  0  0  0  0  0  0
  1  2  1  6  0  0  0
  1  3  1  0  0  0  0
  1 10  1  0  0  0  0
  3  4  1  6  0  0  0
  3  5  1  0  0  0  0
  5  6  1  1  0  0  0
  5  7  1  0  0  0  0
  7  8  1  6  0  0  0
  7  9  1  0  0  0  0
  9 10  1  0  0  0  0
  9 11  1  1  0  0  0
 11 35  1  0  0  0  0
 12 13  1  6  0  0  0
 12 14  1  0  0  0  0
 12 20  1  0  0  0  0
 14 15  1  0  0  0  0
 14 40  1  6  0  0  0
 15 16  1  6  0  0  0
 15 17  1  0  0  0  0
 17  2  1  1  0  0  0
 17 18  1  0  0  0  0
 18 19  1  1  0  0  0
 18 20  1  0  0  0  0
 21 16  1  1  0  0  0
 21 22  1  0  0  0  0
 21 25  1  0  0  0  0
 22 23  1  0  0  0  0
 22 36  1  6  0  0  0
 23 24  1  0  0  0  0
 23 31  1  6  0  0  0
 24 25  1  0  0  0  0
 24 26  1  1  0  0  0
 26 39  1  0  0  0  0
 27 28  1  0  0  0  0
 27 32  1  0  0  0  0
 27 38  1  1  0  0  0
 28 29  1  0  0  0  0
 28 37  1  6  0  0  0
 29 30  1  0  0  0  0
 29 42  1  1  0  0  0
 30 31  1  1  0  0  0
 30 33  1  0  0  0  0
 32 33  1  0  0  0  0
 32 34  1  1  0  0  0
 34 41  1  0  0  0  0
M  CHG  6   4   1  13   1  19   1  35   1  41   1  42   1
M  END
>  <CHROM.1>
-168.29646633,-67.25235690,-28.44024578,174.45576315,-57.87534933,168.31446180
43.15707335,-162.26128458,-67.83198191,-166.58516257,148.81414054,57.19129385
-53.59504824,87.04487656,-172.37813801,-176.03639487,71.18183121,69.68472843
-56.22984048,-161.58432084,138.10658692,61.82149768,-5.65245099,4.31785774
-1.68873143,1.86171708,-0.44195161,1.20029429

>  <Name>


>  <RI>
0

>  <Rbt.Current_Directory>
/home/itssahil/PROJECTS/Mol_Feturizer/New_Systems/rnas/1ei2

>  <Rbt.Executable>
rbdock ($Id: //depot/dev/client3/rdock/2013.1/src/exe/rbdock.cxx#4 $)

>  <Rbt.Library>
libRbt.so (2013.1, Build901 2013/11/27)

>  <Rbt.Parameter_File>
/export/apps/rDock/src/rDock_2013.1_src/data/scripts/dock_solv.prm

>  <Rbt.Receptor>
prm/pocket_docking_4.prm

>  <SCORE>
-45.5093

>  <SCORE.INTER>
-25.009

>  <SCORE.INTER.CONST>
1

>  <SCORE.INTER.POLAR>
-4.66762

>  <SCORE.INTER.ROT>
9

>  <SCORE.INTER.SOLV>
24.4718

>  <SCORE.INTER.VDW>
-18.8712

>  <SCORE.INTER.norm>
-0.595451

>  <SCORE.INTRA>
-20.5023

>  <SCORE.INTRA.DIHEDRAL>
-19.8103

>  <SCORE.INTRA.DIHEDRAL.0>
40.8761

>  <SCORE.INTRA.POLAR>
-0.327033

>  <SCORE.INTRA.POLAR.0>
-0.0268208

>  <SCORE.INTRA.REPUL>
-0.5483

>  <SCORE.INTRA.REPUL.0>
0.641615

>  <SCORE.INTRA.SOLV>
-12.5366

>  <SCORE.INTRA.SOLV.lig_0>
-162.567

>  <SCORE.INTRA.VDW>
-0.475456

>  <SCORE.INTRA.VDW.0>
-4.80338

>  <SCORE.INTRA.norm>
-0.48815

>  <SCORE.RESTR>
0.00195566

>  <SCORE.RESTR.CAVITY>
0.00195566

>  <SCORE.RESTR.norm>
4.65633e-05

>  <SCORE.SYSTEM>
0

>  <SCORE.SYSTEM.CONST>
0

>  <SCORE.SYSTEM.DIHEDRAL>
0

>  <SCORE.SYSTEM.SOLV>
0

>  <SCORE.SYSTEM.norm>
0

>  <SCORE.heavy>
42

>  <SCORE.norm>
-1.08355

>  <RMSD>
3.465

$$$$

 OpenBabel11021811393D
libRbt.so/2013.1/901 2013/11/27
 42 45  0  0  0  0  0  0  0  0999 V2000
   -6.2898    3.9119   -0.1644 C   0  0  2  0  0  0  0  0  0  0  0  0
   -5.0557    4.2889    0.5199 O   0  0  0  0  0  0  0  0  0  0  0  0
   -6.7472    5.0132   -1.1752 C   0  0  2  0  0  0  0  0  0  0  0  0
   -5.6637    5.9834   -1.4541 N   0  3  0  0  0  0  0  0  0  0  0  0
   -8.0175    5.7481   -0.6507 C   0  0  1  0  0  0  0  0  0  0  0  0
   -8.4309    6.7427   -1.5852 O   0  0  0  0  0  0  0  0  0  0  0  0
   -9.1981    4.7666   -0.4220 C   0  0  2  0  0  0  0  0  0  0  0  0
  -10.2121    5.4362    0.3190 O   0  0  0  0  0  0  0  0  0  0  0  0
   -8.7314    3.4866    0.3442 C   0  0  2  0  0  0  0  0  0  0  0  0
   -7.3544    3.6549    0.8142 O   0  0  0  0  0  0  0  0  0  0  0  0
   -8.7511    2.1911   -0.4992 C   0  0  0  0  0  0  0  0  0  0  0  0
   -2.5898    3.2261    3.8978 C   0  0  1  0  0  0  0  0  0  0  0  0
   -1.9898    2.5024    5.0409 N   0  3  0  0  0  0  0  0  0  0  0  0
   -2.2534    2.5382    2.5488 C   0  0  1  0  0  0  0  0  0  0  0  0
   -2.9854    3.1732    1.3155 C   0  0  1  0  0  0  0  0  0  0  0  0
   -2.8535    2.2624    0.1912 O   0  0  0  0  0  0  0  0  0  0  0  0
   -4.5217    3.4097    1.5569 C   0  0  1  0  0  0  0  0  0  0  0  0
   -4.8010    4.0780    2.9419 C   0  0  1  0  0  0  0  0  0  0  0  0
   -6.2463    4.1648    3.2342 N   0  3  0  0  0  0  0  0  0  0  0  0
   -4.1173    3.3129    4.0973 C   0  0  0  0  0  0  0  0  0  0  0  0
   -1.6552    2.3112   -0.6361 C   0  0  1  0  0  0  0  0  0  0  0  0
   -1.7399    1.2027   -1.6788 C   0  0  1  0  0  0  0  0  0  0  0  0
   -2.6576    1.8651   -2.6974 C   0  0  1  0  0  0  0  0  0  0  0  0
   -2.1186    3.3026   -2.7120 C   0  0  2  0  0  0  0  0  0  0  0  0
   -1.6181    3.5431   -1.3751 O   0  0  0  0  0  0  0  0  0  0  0  0
   -3.1928    4.3448   -3.0712 C   0  0  0  0  0  0  0  0  0  0  0  0
   -4.4272    2.0048   -7.2641 C   0  0  1  0  0  0  0  0  0  0  0  0
   -3.2954    0.9511   -7.1093 C   0  0  1  0  0  0  0  0  0  0  0  0
   -3.5047   -0.0367   -5.9255 C   0  0  2  0  0  0  0  0  0  0  0  0
   -3.7836    0.7301   -4.5928 C   0  0  1  0  0  0  0  0  0  0  0  0
   -2.5501    1.2329   -4.0054 O   0  0  0  0  0  0  0  0  0  0  0  0
   -5.4424    1.9054   -6.0852 C   0  0  1  0  0  0  0  0  0  0  0  0
   -4.7152    1.8601   -4.8141 O   0  0  0  0  0  0  0  0  0  0  0  0
   -6.4402    3.0918   -6.0609 C   0  0  0  0  0  0  0  0  0  0  0  0
   -9.8790    1.2896   -0.2052 N   0  3  0  0  0  0  0  0  0  0  0  0
   -0.4445    0.9538   -2.2253 O   0  0  0  0  0  0  0  0  0  0  0  0
   -3.2122    0.1996   -8.3196 O   0  0  0  0  0  0  0  0  0  0  0  0
   -3.8334    3.3046   -7.2944 O   0  0  0  0  0  0  0  0  0  0  0  0
   -2.6271    5.6405   -3.1695 O   0  0  0  0  0  0  0  0  0  0  0  0
   -0.8448    2.6175    2.3322 O   0  0  0  0  0  0  0  0  0  0  0  0
   -5.8436    4.3323   -5.5326 N   0  3  0  0  0  0  0  0  0  0  0  0
   -2.3740   -0.9908   -5.8095 N   0  3  0  0  0  0  0  0  0  0  0  0
  1  2  1  1  0  0  0
  1  3  1  0  0  0  0
  1 10  1  0  0  0  0
  3  4  1  1  0  0  0
  3  5  1  0  0  0  0
  5  6  1  6  0  0  0
  5  7  1  0  0  0  0
  7  8  1  1  0  0  0
  7  9  1  0  0  0  0
  9 10  1  0  0  0  0
  9 11  1  6  0  0  0
 11 35  1  0  0  0  0
 12 13  1  1  0  0  0
 12 14  1  0  0  0  0
 12 20  1  0  0  0  0
 14 15  1  0  0  0  0
 14 40  1  6  0  0  0
 15 16  1  6  0  0  0
 15 17  1  0  0  0  0
 17  2  1  6  0  0  0
 17 18  1  0  0  0  0
 18 19  1  1  0  0  0
 18 20  1  0  0  0  0
 21 16  1  1  0  0  0
 21 22  1  0  0  0  0
 21 25  1  0  0  0  0
 22 23  1  0  0  0  0
 22 36  1  6  0  0  0
 23 24  1  0  0  0  0
 23 31  1  6  0  0  0
 24 25  1  0  0  0  0
 24 26  1  1  0  0  0
 26 39  1  0  0  0  0
 27 28  1  0  0  0  0
 27 32  1  0  0  0  0
 27 38  1  1  0  0  0
 28 29  1  0  0  0  0
 28 37  1  6  0  0  0
 29 30  1  0  0  0  0
 29 42  1  1  0  0  0
 30 31  1  6  0  0  0
 30 33  1  0  0  0  0
 32 33  1  0  0  0  0
 32 34  1  1  0  0  0
 34 41  1  0  0  0  0
M  CHG  6   4   1  13   1  19   1  35   1  41   1  42   1
M  END
>  <CHROM.1>
176.60003449,131.96846537,123.79042283,-69.76885735,178.48043511,-103.87734588
-58.77000782,53.70852673,176.90403375,-84.60076524,176.56987964,-155.89182913
-159.83938845,124.05100421,-175.63474133,-65.79774584,53.43143953,173.57768107
-64.61199288,-174.71180721,-76.76763681,-66.67865400,-4.59426048,3.00438428
-1.62216937,1.81584257,-0.37124724,1.38506710

>  <Name>


>  <RI>
0

>  <Rbt.Current_Directory>
/home/itssahil/PROJECTS/Mol_Feturizer/New_Systems/rnas/1ei2

>  <Rbt.Executable>
rbdock ($Id: //depot/dev/client3/rdock/2013.1/src/exe/rbdock.cxx#4 $)

>  <Rbt.Library>
libRbt.so (2013.1, Build901 2013/11/27)

>  <Rbt.Parameter_File>
/export/apps/rDock/src/rDock_2013.1_src/data/scripts/dock_solv.prm

>  <Rbt.Receptor>
prm/pocket_docking_3.prm

>  <SCORE>
-37.5325

>  <SCORE.INTER>
-18.1291

>  <SCORE.INTER.CONST>
1

>  <SCORE.INTER.POLAR>
-2.78951

>  <SCORE.INTER.ROT>
9

>  <SCORE.INTER.SOLV>
21.0986

>  <SCORE.INTER.VDW>
-19.4206

>  <SCORE.INTER.norm>
-0.431646

>  <SCORE.INTRA>
-20.3719

>  <SCORE.INTRA.DIHEDRAL>
-10.614

>  <SCORE.INTRA.DIHEDRAL.0>
40.8761

>  <SCORE.INTRA.POLAR>
-2.25105

>  <SCORE.INTRA.POLAR.0>
-0.0268208

>  <SCORE.INTRA.REPUL>
-0.641615

>  <SCORE.INTRA.REPUL.0>
0.641615

>  <SCORE.INTRA.SOLV>
-5.68895

>  <SCORE.INTRA.SOLV.lig_0>
-162.567

>  <SCORE.INTRA.VDW>
-1.35877

>  <SCORE.INTRA.VDW.0>
-4.80338

>  <SCORE.INTRA.norm>
-0.485045

>  <SCORE.RESTR>
0.9685

>  <SCORE.RESTR.CAVITY>
0.9685

>  <SCORE.RESTR.norm>
0.0230595

>  <SCORE.SYSTEM>
0

>  <SCORE.SYSTEM.CONST>
0

>  <SCORE.SYSTEM.DIHEDRAL>
0

>  <SCORE.SYSTEM.SOLV>
0

>  <SCORE.SYSTEM.norm>
0

>  <SCORE.heavy>
42

>  <SCORE.norm>
-0.893632

>  <RMSD>
3.523

$$$$

 OpenBabel11021811393D
libRbt.so/2013.1/901 2013/11/27
 42 45  0  0  0  0  0  0  0  0999 V2000
   -6.2631    6.0103    2.8059 C   0  0  2  0  0  0  0  0  0  0  0  0
   -5.5317    4.7567    2.9707 O   0  0  0  0  0  0  0  0  0  0  0  0
   -7.4680    6.1086    3.7970 C   0  0  2  0  0  0  0  0  0  0  0  0
   -7.3697    5.1019    4.8788 N   0  3  0  0  0  0  0  0  0  0  0  0
   -8.8201    5.9628    3.0357 C   0  0  1  0  0  0  0  0  0  0  0  0
   -9.9112    6.0643    3.9482 O   0  0  0  0  0  0  0  0  0  0  0  0
   -8.9878    7.0541    1.9447 C   0  0  2  0  0  0  0  0  0  0  0  0
  -10.0816    6.6981    1.1066 O   0  0  0  0  0  0  0  0  0  0  0  0
   -7.6871    7.2079    1.0915 C   0  0  2  0  0  0  0  0  0  0  0  0
   -6.7386    6.1420    1.4225 O   0  0  0  0  0  0  0  0  0  0  0  0
   -6.9364    8.5430    1.3015 C   0  0  0  0  0  0  0  0  0  0  0  0
   -1.7626    6.3344    1.5836 C   0  0  1  0  0  0  0  0  0  0  0  0
   -0.3274    6.4928    1.2589 N   0  3  0  0  0  0  0  0  0  0  0  0
   -2.4308    5.2515    0.6964 C   0  0  1  0  0  0  0  0  0  0  0  0
   -3.9136    4.9333    1.0961 C   0  0  1  0  0  0  0  0  0  0  0  0
   -4.3106    3.7062    0.4272 O   0  0  0  0  0  0  0  0  0  0  0  0
   -4.1092    4.7160    2.6417 C   0  0  1  0  0  0  0  0  0  0  0  0
   -3.3911    5.8194    3.4840 C   0  0  1  0  0  0  0  0  0  0  0  0
   -3.4472    5.5356    4.9325 N   0  3  0  0  0  0  0  0  0  0  0  0
   -1.9087    5.9786    3.0778 C   0  0  0  0  0  0  0  0  0  0  0  0
   -5.7179    3.4720    0.1314 C   0  0  1  0  0  0  0  0  0  0  0  0
   -6.1503    4.4372   -0.9661 C   0  0  1  0  0  0  0  0  0  0  0  0
   -5.6121    3.7075   -2.1894 C   0  0  1  0  0  0  0  0  0  0  0  0
   -5.9567    2.2488   -1.8570 C   0  0  2  0  0  0  0  0  0  0  0  0
   -5.8927    2.1540   -0.4139 O   0  0  0  0  0  0  0  0  0  0  0  0
   -4.9867    1.2399   -2.4979 C   0  0  0  0  0  0  0  0  0  0  0  0
   -5.5872    1.8944   -6.4385 C   0  0  1  0  0  0  0  0  0  0  0  0
   -6.7450    2.9256   -6.3317 C   0  0  1  0  0  0  0  0  0  0  0  0
   -6.2904    4.3482   -5.8951 C   0  0  2  0  0  0  0  0  0  0  0  0
   -5.4291    4.2906   -4.5925 C   0  0  1  0  0  0  0  0  0  0  0  0
   -6.2682    4.1544   -3.4108 O   0  0  0  0  0  0  0  0  0  0  0  0
   -4.2476    2.5103   -5.9321 C   0  0  1  0  0  0  0  0  0  0  0  0
   -4.4665    3.1660   -4.6403 O   0  0  0  0  0  0  0  0  0  0  0  0
   -3.1267    1.4495   -5.7831 C   0  0  0  0  0  0  0  0  0  0  0  0
   -7.7782    9.7442    1.1609 N   0  3  0  0  0  0  0  0  0  0  0  0
   -7.5748    4.5282   -0.9956 O   0  0  0  0  0  0  0  0  0  0  0  0
   -7.3800    3.0221   -7.6061 O   0  0  0  0  0  0  0  0  0  0  0  0
   -5.9293    0.7483   -5.6559 O   0  0  0  0  0  0  0  0  0  0  0  0
   -3.6908    1.3580   -1.9361 O   0  0  0  0  0  0  0  0  0  0  0  0
   -2.4101    5.6935   -0.6606 O   0  0  0  0  0  0  0  0  0  0  0  0
   -1.7815    2.0459   -5.6891 N   0  3  0  0  0  0  0  0  0  0  0  0
   -7.4446    5.2732   -5.7761 N   0  3  0  0  0  0  0  0  0  0  0  0
  1  2  1  6  0  0  0
  1  3  1  0  0  0  0
  1 10  1  0  0  0  0
  3  4  1  1  0  0  0
  3  5  1  0  0  0  0
  5  6  1  1  0  0  0
  5  7  1  0  0  0  0
  7  8  1  6  0  0  0
  7  9  1  0  0  0  0
  9 10  1  0  0  0  0
  9 11  1  1  0  0  0
 11 35  1  0  0  0  0
 12 13  1  6  0  0  0
 12 14  1  0  0  0  0
 12 20  1  0  0  0  0
 14 15  1  0  0  0  0
 14 40  1  6  0  0  0
 15 16  1  6  0  0  0
 15 17  1  0  0  0  0
 17  2  1  6  0  0  0
 17 18  1  0  0  0  0
 18 19  1  1  0  0  0
 18 20  1  0  0  0  0
 21 16  1  6  0  0  0
 21 22  1  0  0  0  0
 21 25  1  0  0  0  0
 22 23  1  0  0  0  0
 22 36  1  6  0  0  0
 23 24  1  0  0  0  0
 23 31  1  6  0  0  0
 24 25  1  0  0  0  0
 24 26  1  6  0  0  0
 26 39  1  0  0  0  0
 27 28  1  0  0  0  0
 27 32  1  0  0  0  0
 27 38  1  1  0  0  0
 28 29  1  0  0  0  0
 28 37  1  6  0  0  0
 29 30  1  0  0  0  0
 29 42  1  1  0  0  0
 30 31  1  1  0  0  0
 30 33  1  0  0  0  0
 32 33  1  0  0  0  0
 32 34  1  1  0  0  0
 34 41  1  0  0  0  0
M  CHG  6   4   1  13   1  19   1  35   1  41   1  42   1
M  END
>  <CHROM.1>
-151.82205364,-66.19676311,-114.50854365,61.42440768,67.05874723,-51.58852187
-179.72707158,-157.50542258,177.02844820,-153.56950467,69.94081099,166.47316831
177.39973335,141.02469726,66.85338428,-63.00177431,161.68045299,69.33593668
171.53372048,162.86413918,163.39598337,165.88573322,-5.53478538,4.59181865
-0.73279988,1.68448671,-0.25014359,1.18220489

>  <Name>


>  <RI>
0

>  <Rbt.Current_Directory>
/home/itssahil/PROJECTS/Mol_Feturizer/New_Systems/rnas/1ei2

>  <Rbt.Executable>
rbdock ($Id: //depot/dev/client3/rdock/2013.1/src/exe/rbdock.cxx#4 $)

>  <Rbt.Library>
libRbt.so (2013.1, Build901 2013/11/27)

>  <Rbt.Parameter_File>
/export/apps/rDock/src/rDock_2013.1_src/data/scripts/dock_solv.prm

>  <Rbt.Receptor>
prm/pocket_docking_4.prm

>  <SCORE>
-34.3242

>  <SCORE.INTER>
-15.9653

>  <SCORE.INTER.CONST>
1

>  <SCORE.INTER.POLAR>
-4.10538

>  <SCORE.INTER.ROT>
9

>  <SCORE.INTER.SOLV>
19.2971

>  <SCORE.INTER.VDW>
-12.9913

>  <SCORE.INTER.norm>
-0.380126

>  <SCORE.INTRA>
-19.7228

>  <SCORE.INTRA.DIHEDRAL>
-17.5393

>  <SCORE.INTRA.DIHEDRAL.0>
40.8761

>  <SCORE.INTRA.POLAR>
-0.279902

>  <SCORE.INTRA.POLAR.0>
-0.0268208

>  <SCORE.INTRA.REPUL>
-0.57201

>  <SCORE.INTRA.REPUL.0>
0.641615

>  <SCORE.INTRA.SOLV>
-10.7388

>  <SCORE.INTRA.SOLV.lig_0>
-162.567

>  <SCORE.INTRA.VDW>
-1.77206

>  <SCORE.INTRA.VDW.0>
-4.80338

>  <SCORE.INTRA.norm>
-0.469591

>  <SCORE.RESTR>
1.36391

>  <SCORE.RESTR.CAVITY>
1.36391

>  <SCORE.RESTR.norm>
0.032474

>  <SCORE.SYSTEM>
0

>  <SCORE.SYSTEM.CONST>
0

>  <SCORE.SYSTEM.DIHEDRAL>
0

>  <SCORE.SYSTEM.SOLV>
0

>  <SCORE.SYSTEM.norm>
0

>  <SCORE.heavy>
42

>  <SCORE.norm>
-0.817243

>  <RMSD>
3.731

$$$$

 OpenBabel11021811393D
libRbt.so/2013.1/901 2013/11/27
 42 45  0  0  0  0  0  0  0  0999 V2000
   -7.1784    3.7395    1.3971 C   0  0  2  0  0  0  0  0  0  0  0  0
   -6.4714    2.6488    0.7305 O   0  0  0  0  0  0  0  0  0  0  0  0
   -8.6152    3.9361    0.8133 C   0  0  2  0  0  0  0  0  0  0  0  0
   -9.0374    2.7749   -0.0030 N   0  3  0  0  0  0  0  0  0  0  0  0
   -8.6947    5.2495   -0.0221 C   0  0  1  0  0  0  0  0  0  0  0  0
  -10.0117    5.4231   -0.5406 O   0  0  0  0  0  0  0  0  0  0  0  0
   -8.3322    6.4963    0.8284 C   0  0  2  0  0  0  0  0  0  0  0  0
   -8.1408    7.6045   -0.0439 O   0  0  0  0  0  0  0  0  0  0  0  0
   -7.0405    6.2505    1.6736 C   0  0  2  0  0  0  0  0  0  0  0  0
   -6.4129    4.9874    1.2788 O   0  0  0  0  0  0  0  0  0  0  0  0
   -7.2787    6.1634    3.1987 C   0  0  0  0  0  0  0  0  0  0  0  0
   -2.7908    3.1951    2.9155 C   0  0  1  0  0  0  0  0  0  0  0  0
   -1.4316    3.0055    3.4696 N   0  3  0  0  0  0  0  0  0  0  0  0
   -2.7481    3.5021    1.3956 C   0  0  1  0  0  0  0  0  0  0  0  0
   -4.1637    3.5642    0.7232 C   0  0  1  0  0  0  0  0  0  0  0  0
   -3.9834    3.5294   -0.7181 O   0  0  0  0  0  0  0  0  0  0  0  0
   -5.0928    2.3568    1.1144 C   0  0  1  0  0  0  0  0  0  0  0  0
   -5.0730    2.0766    2.6520 C   0  0  1  0  0  0  0  0  0  0  0  0
   -5.8249    0.8545    3.0026 N   0  3  0  0  0  0  0  0  0  0  0  0
   -3.6322    1.9314    3.1911 C   0  0  0  0  0  0  0  0  0  0  0  0
   -3.0181    2.6057   -1.2992 C   0  0  1  0  0  0  0  0  0  0  0  0
   -3.7673    1.6078   -2.1743 C   0  0  1  0  0  0  0  0  0  0  0  0
   -3.9555    2.4454   -3.4318 C   0  0  1  0  0  0  0  0  0  0  0  0
   -2.5952    3.1485   -3.5428 C   0  0  2  0  0  0  0  0  0  0  0  0
   -2.1310    3.3127   -2.1815 O   0  0  0  0  0  0  0  0  0  0  0  0
   -2.6800    4.5169   -4.2425 C   0  0  0  0  0  0  0  0  0  0  0  0
   -7.4580    3.3369   -3.4338 C   0  0  1  0  0  0  0  0  0  0  0  0
   -6.4279    3.9385   -4.4300 C   0  0  1  0  0  0  0  0  0  0  0  0
   -6.0475    2.9879   -5.6016 C   0  0  2  0  0  0  0  0  0  0  0  0
   -5.6061    1.5861   -5.0708 C   0  0  1  0  0  0  0  0  0  0  0  0
   -4.2308    1.6115   -4.5941 O   0  0  0  0  0  0  0  0  0  0  0  0
   -7.7549    1.8454   -3.7765 C   0  0  1  0  0  0  0  0  0  0  0  0
   -6.4935    1.1276   -3.9771 O   0  0  0  0  0  0  0  0  0  0  0  0
   -8.5762    1.1353   -2.6696 C   0  0  0  0  0  0  0  0  0  0  0  0
   -6.0476    6.0789    4.0039 N   0  3  0  0  0  0  0  0  0  0  0  0
   -2.9428    0.4689   -2.4226 O   0  0  0  0  0  0  0  0  0  0  0  0
   -6.9778    5.1366   -4.9765 O   0  0  0  0  0  0  0  0  0  0  0  0
   -6.9231    3.4417   -2.1125 O   0  0  0  0  0  0  0  0  0  0  0  0
   -3.8151    5.2412   -3.8001 O   0  0  0  0  0  0  0  0  0  0  0  0
   -2.0956    4.7563    1.1992 O   0  0  0  0  0  0  0  0  0  0  0  0
   -8.2714   -0.3033   -2.5629 N   0  3  0  0  0  0  0  0  0  0  0  0
   -5.0349    3.6055   -6.4936 N   0  3  0  0  0  0  0  0  0  0  0  0
  1  2  1  6  0  0  0
  1  3  1  0  0  0  0
  1 10  1  0  0  0  0
  3  4  1  6  0  0  0
  3  5  1  0  0  0  0
  5  6  1  1  0  0  0
  5  7  1  0  0  0  0
  7  8  1  6  0  0  0
  7  9  1  0  0  0  0
  9 10  1  0  0  0  0
  9 11  1  1  0  0  0
 11 35  1  0  0  0  0
 12 13  1  6  0  0  0
 12 14  1  0  0  0  0
 12 20  1  0  0  0  0
 14 15  1  0  0  0  0
 14 40  1  1  0  0  0
 15 16  1  6  0  0  0
 15 17  1  0  0  0  0
 17  2  1  1  0  0  0
 17 18  1  0  0  0  0
 18 19  1  6  0  0  0
 18 20  1  0  0  0  0
 21 16  1  6  0  0  0
 21 22  1  0  0  0  0
 21 25  1  0  0  0  0
 22 23  1  0  0  0  0
 22 36  1  6  0  0  0
 23 24  1  0  0  0  0
 23 31  1  6  0  0  0
 24 25  1  0  0  0  0
 24 26  1  1  0  0  0
 26 39  1  0  0  0  0
 27 28  1  0  0  0  0
 27 32  1  0  0  0  0
 27 38  1  1  0  0  0
 28 29  1  0  0  0  0
 28 37  1  6  0  0  0
 29 30  1  0  0  0  0
 29 42  1  1  0  0  0
 30 31  1  1  0  0  0
 30 33  1  0  0  0  0
 32 33  1  0  0  0  0
 32 34  1  1  0  0  0
 34 41  1  0  0  0  0
M  CHG  6   4   1  13   1  19   1  35   1  41   1  42   1
M  END
>  <CHROM.1>
177.67381493,-65.69821276,-62.91571095,-64.51646910,-66.90072115,-173.67356699
-65.71608280,-176.67526151,-58.01397361,42.83169507,116.43610715,-170.45496666
-66.94619174,104.81124085,42.13910683,-169.55406038,-61.01480394,57.55845730
-29.74086772,64.97888813,-148.98365515,-62.99121769,-5.59159763,3.40971740
-0.97040750,1.58089044,-0.32735943,1.34820731

>  <Name>


>  <RI>
0

>  <Rbt.Current_Directory>
/home/itssahil/PROJECTS/Mol_Feturizer/New_Systems/rnas/1ei2

>  <Rbt.Executable>
rbdock ($Id: //depot/dev/client3/rdock/2013.1/src/exe/rbdock.cxx#4 $)

>  <Rbt.Library>
libRbt.so (2013.1, Build901 2013/11/27)

>  <Rbt.Parameter_File>
/export/apps/rDock/src/rDock_2013.1_src/data/scripts/dock_solv.prm

>  <Rbt.Receptor>
prm/pocket_docking_4.prm

>  <SCORE>
-42.3003

>  <SCORE.INTER>
-24.9693

>  <SCORE.INTER.CONST>
1

>  <SCORE.INTER.POLAR>
-4.28069

>  <SCORE.INTER.ROT>
9

>  <SCORE.INTER.SOLV>
18.8895

>  <SCORE.INTER.VDW>
-18.2738

>  <SCORE.INTER.norm>
-0.594508

>  <SCORE.INTRA>
-17.838

>  <SCORE.INTRA.DIHEDRAL>
-17.9886

>  <SCORE.INTRA.DIHEDRAL.0>
40.8761

>  <SCORE.INTRA.POLAR>
-1.18244

>  <SCORE.INTRA.POLAR.0>
-0.0268208

>  <SCORE.INTRA.REPUL>
-0.265872

>  <SCORE.INTRA.REPUL.0>
0.641615

>  <SCORE.INTRA.SOLV>
-2.86845

>  <SCORE.INTRA.SOLV.lig_0>
-162.567

>  <SCORE.INTRA.VDW>
-2.0599

>  <SCORE.INTRA.VDW.0>
-4.80338

>  <SCORE.INTRA.norm>
-0.424715

>  <SCORE.RESTR>
0.507093

>  <SCORE.RESTR.CAVITY>
0.507093

>  <SCORE.RESTR.norm>
0.0120736

>  <SCORE.SYSTEM>
0

>  <SCORE.SYSTEM.CONST>
0

>  <SCORE.SYSTEM.DIHEDRAL>
0

>  <SCORE.SYSTEM.SOLV>
0

>  <SCORE.SYSTEM.norm>
0

>  <SCORE.heavy>
42

>  <SCORE.norm>
-1.00715

>  <RMSD>
3.854

$$$$

 OpenBabel11021811393D
libRbt.so/2013.1/901 2013/11/27
 42 45  0  0  0  0  0  0  0  0999 V2000
   -6.9314    4.2033    1.3955 C   0  0  2  0  0  0  0  0  0  0  0  0
   -5.7927    3.2912    1.3260 O   0  0  0  0  0  0  0  0  0  0  0  0
   -8.1087    3.7250    0.4849 C   0  0  2  0  0  0  0  0  0  0  0  0
   -7.9346    2.3169    0.0607 N   0  3  0  0  0  0  0  0  0  0  0  0
   -8.2572    4.6556   -0.7564 C   0  0  1  0  0  0  0  0  0  0  0  0
   -9.3398    4.2157   -1.5736 O   0  0  0  0  0  0  0  0  0  0  0  0
   -8.5188    6.1291   -0.3442 C   0  0  2  0  0  0  0  0  0  0  0  0
   -8.3553    6.9596   -1.4884 O   0  0  0  0  0  0  0  0  0  0  0  0
   -7.5439    6.5823    0.7905 C   0  0  2  0  0  0  0  0  0  0  0  0
   -6.5189    5.5598    1.0122 O   0  0  0  0  0  0  0  0  0  0  0  0
   -8.2214    6.8272    2.1584 C   0  0  0  0  0  0  0  0  0  0  0  0
   -2.7972    6.3884    1.5589 C   0  0  1  0  0  0  0  0  0  0  0  0
   -1.5152    7.1086    1.7269 N   0  3  0  0  0  0  0  0  0  0  0  0
   -2.7966    5.5169    0.2757 C   0  0  1  0  0  0  0  0  0  0  0  0
   -4.0706    4.6148    0.1235 C   0  0  1  0  0  0  0  0  0  0  0  0
   -3.8086    3.6307   -0.9128 O   0  0  0  0  0  0  0  0  0  0  0  0
   -4.4409    3.8332    1.4373 C   0  0  1  0  0  0  0  0  0  0  0  0
   -4.3968    4.7544    2.6992 C   0  0  1  0  0  0  0  0  0  0  0  0
   -4.5975    3.9929    3.9489 N   0  3  0  0  0  0  0  0  0  0  0  0
   -3.0579    5.5184    2.8063 C   0  0  0  0  0  0  0  0  0  0  0  0
   -2.4464    3.1618   -1.1305 C   0  0  1  0  0  0  0  0  0  0  0  0
   -2.4977    1.6941   -1.5380 C   0  0  1  0  0  0  0  0  0  0  0  0
   -2.8481    1.8394   -3.0126 C   0  0  1  0  0  0  0  0  0  0  0  0
   -1.9697    3.0294   -3.4244 C   0  0  2  0  0  0  0  0  0  0  0  0
   -1.8589    3.8575   -2.2422 O   0  0  0  0  0  0  0  0  0  0  0  0
   -2.5649    3.8432   -4.5875 C   0  0  0  0  0  0  0  0  0  0  0  0
   -5.7321    1.9499   -5.3965 C   0  0  1  0  0  0  0  0  0  0  0  0
   -4.3430    1.8692   -6.0888 C   0  0  1  0  0  0  0  0  0  0  0  0
   -3.6556    0.4781   -5.9734 C   0  0  2  0  0  0  0  0  0  0  0  0
   -3.6038   -0.0046   -4.4881 C   0  0  1  0  0  0  0  0  0  0  0  0
   -2.5160    0.6358   -3.7629 O   0  0  0  0  0  0  0  0  0  0  0  0
   -6.0396    0.6361   -4.6156 C   0  0  1  0  0  0  0  0  0  0  0  0
   -4.8827    0.2715   -3.7939 O   0  0  0  0  0  0  0  0  0  0  0  0
   -7.2903    0.7650   -3.7084 C   0  0  0  0  0  0  0  0  0  0  0  0
   -9.2340    5.8217    2.5256 N   0  3  0  0  0  0  0  0  0  0  0  0
   -1.2120    1.0987   -1.3618 O   0  0  0  0  0  0  0  0  0  0  0  0
   -4.5111    2.1802   -7.4714 O   0  0  0  0  0  0  0  0  0  0  0  0
   -5.7271    3.0647   -4.5020 O   0  0  0  0  0  0  0  0  0  0  0  0
   -1.8164    5.0256   -4.8121 O   0  0  0  0  0  0  0  0  0  0  0  0
   -2.7083    6.3751   -0.8615 O   0  0  0  0  0  0  0  0  0  0  0  0
   -8.5557    0.6486   -4.4562 N   0  3  0  0  0  0  0  0  0  0  0  0
   -2.3203    0.4781   -6.6208 N   0  3  0  0  0  0  0  0  0  0  0  0
  1  2  1  6  0  0  0
  1  3  1  0  0  0  0
  1 10  1  0  0  0  0
  3  4  1  6  0  0  0
  3  5  1  0  0  0  0
  5  6  1  6  0  0  0
  5  7  1  0  0  0  0
  7  8  1  6  0  0  0
  7  9  1  0  0  0  0
  9 10  1  0  0  0  0
  9 11  1  1  0  0  0
 11 35  1  0  0  0  0
 12 13  1  1  0  0  0
 12 14  1  0  0  0  0
 12 20  1  0  0  0  0
 14 15  1  0  0  0  0
 14 40  1  6  0  0  0
 15 16  1  6  0  0  0
 15 17  1  0  0  0  0
 17  2  1  6  0  0  0
 17 18  1  0  0  0  0
 18 19  1  1  0  0  0
 18 20  1  0  0  0  0
 21 16  1  6  0  0  0
 21 22  1  0  0  0  0
 21 25  1  0  0  0  0
 22 23  1  0  0  0  0
 22 36  1  6  0  0  0
 23 24  1  0  0  0  0
 23 31  1  6  0  0  0
 24 25  1  0  0  0  0
 24 26  1  6  0  0  0
 26 39  1  0  0  0  0
 27 28  1  0  0  0  0
 27 32  1  0  0  0  0
 27 38  1  1  0  0  0
 28 29  1  0  0  0  0
 28 37  1  6  0  0  0
 29 30  1  0  0  0  0
 29 42  1  1  0  0  0
 30 31  1  1  0  0  0
 30 33  1  0  0  0  0
 32 33  1  0  0  0  0
 32 34  1  1  0  0  0
 34 41  1  0  0  0  0
M  CHG  6   4   1  13   1  19   1  35   1  41   1  42   1
M  END
>  <CHROM.1>
146.28504695,-72.18102223,-173.25666512,-71.76340014,-61.93442406,41.84400913
-41.49955848,-177.22838684,70.27762180,30.27102147,145.52690707,-56.55260614
164.07621045,122.56781765,172.15500524,168.52967336,-61.77835350,-62.03511550
-132.40225098,94.39398035,78.69619701,-150.64918471,-4.89678298,3.53728766
-1.56230081,1.86598202,0.01252048,1.01704735

>  <Name>


>  <RI>
0

>  <Rbt.Current_Directory>
/home/itssahil/PROJECTS/Mol_Feturizer/New_Systems/rnas/1ei2

>  <Rbt.Executable>
rbdock ($Id: //depot/dev/client3/rdock/2013.1/src/exe/rbdock.cxx#4 $)

>  <Rbt.Library>
libRbt.so (2013.1, Build901 2013/11/27)

>  <Rbt.Parameter_File>
/export/apps/rDock/src/rDock_2013.1_src/data/scripts/dock_solv.prm

>  <Rbt.Receptor>
prm/pocket_docking_4.prm

>  <SCORE>
-47.5316

>  <SCORE.INTER>
-39.1916

>  <SCORE.INTER.CONST>
1

>  <SCORE.INTER.POLAR>
-7.74413

>  <SCORE.INTER.ROT>
9

>  <SCORE.INTER.SOLV>
22.3525

>  <SCORE.INTER.VDW>
-17.3648

>  <SCORE.INTER.norm>
-0.933133

>  <SCORE.INTRA>
-8.56408

>  <SCORE.INTRA.DIHEDRAL>
-4.23417

>  <SCORE.INTRA.DIHEDRAL.0>
40.8761

>  <SCORE.INTRA.POLAR>
-0.0659185

>  <SCORE.INTRA.POLAR.0>
-0.0268208

>  <SCORE.INTRA.REPUL>
-0.641615

>  <SCORE.INTRA.REPUL.0>
0.641615

>  <SCORE.INTRA.SOLV>
-7.93357

>  <SCORE.INTRA.SOLV.lig_0>
-162.567

>  <SCORE.INTRA.VDW>
0.95199

>  <SCORE.INTRA.VDW.0>
-4.80338

>  <SCORE.INTRA.norm>
-0.203907

>  <SCORE.RESTR>
0.224049

>  <SCORE.RESTR.CAVITY>
0.224049

>  <SCORE.RESTR.norm>
0.00533451

>  <SCORE.SYSTEM>
0

>  <SCORE.SYSTEM.CONST>
0

>  <SCORE.SYSTEM.DIHEDRAL>
0

>  <SCORE.SYSTEM.SOLV>
0

>  <SCORE.SYSTEM.norm>
0

>  <SCORE.heavy>
42

>  <SCORE.norm>
-1.1317

>  <RMSD>
3.922

$$$$

 OpenBabel11021811393D
libRbt.so/2013.1/901 2013/11/27
 42 45  0  0  0  0  0  0  0  0999 V2000
   -6.0541    3.2951    2.7722 C   0  0  2  0  0  0  0  0  0  0  0  0
   -5.4317    2.1652    2.0868 O   0  0  0  0  0  0  0  0  0  0  0  0
   -7.0679    4.0426    1.8463 C   0  0  2  0  0  0  0  0  0  0  0  0
   -7.4140    3.2379    0.6523 N   0  3  0  0  0  0  0  0  0  0  0  0
   -6.5053    5.4333    1.4241 C   0  0  1  0  0  0  0  0  0  0  0  0
   -7.4425    6.1095    0.5887 O   0  0  0  0  0  0  0  0  0  0  0  0
   -6.2050    6.3312    2.6541 C   0  0  2  0  0  0  0  0  0  0  0  0
   -5.4357    7.4497    2.2265 O   0  0  0  0  0  0  0  0  0  0  0  0
   -5.4319    5.5402    3.7587 C   0  0  2  0  0  0  0  0  0  0  0  0
   -5.0253    4.2290    3.2480 O   0  0  0  0  0  0  0  0  0  0  0  0
   -6.2456    5.2756    5.0464 C   0  0  0  0  0  0  0  0  0  0  0  0
   -2.0456    1.8114    4.7380 C   0  0  1  0  0  0  0  0  0  0  0  0
   -0.9012    1.2773    5.5096 N   0  3  0  0  0  0  0  0  0  0  0  0
   -1.7362    1.8567    3.2187 C   0  0  1  0  0  0  0  0  0  0  0  0
   -2.9639    2.2723    2.3355 C   0  0  1  0  0  0  0  0  0  0  0  0
   -2.6510    1.9655    0.9503 O   0  0  0  0  0  0  0  0  0  0  0  0
   -4.2856    1.5036    2.7049 C   0  0  1  0  0  0  0  0  0  0  0  0
   -4.5295    1.4659    4.2483 C   0  0  1  0  0  0  0  0  0  0  0  0
   -5.6863    0.6200    4.6063 N   0  3  0  0  0  0  0  0  0  0  0  0
   -3.2920    0.9445    5.0130 C   0  0  0  0  0  0  0  0  0  0  0  0
   -1.5834    2.6931    0.2767 C   0  0  1  0  0  0  0  0  0  0  0  0
   -1.3338    2.0436   -1.0793 C   0  0  1  0  0  0  0  0  0  0  0  0
   -2.4711    2.6596   -1.8828 C   0  0  1  0  0  0  0  0  0  0  0  0
   -2.4582    4.1093   -1.3774 C   0  0  2  0  0  0  0  0  0  0  0  0
   -2.0062    4.0375   -0.0040 O   0  0  0  0  0  0  0  0  0  0  0  0
   -3.8405    4.7831   -1.4459 C   0  0  0  0  0  0  0  0  0  0  0  0
   -5.1993    3.2630   -5.6353 C   0  0  1  0  0  0  0  0  0  0  0  0
   -3.7083    3.2443   -6.0735 C   0  0  1  0  0  0  0  0  0  0  0  0
   -2.9301    1.9740   -5.6240 C   0  0  2  0  0  0  0  0  0  0  0  0
   -3.0981    1.7220   -4.0910 C   0  0  1  0  0  0  0  0  0  0  0  0
   -2.2172    2.5830   -3.3152 O   0  0  0  0  0  0  0  0  0  0  0  0
   -5.5207    2.0501   -4.7102 C   0  0  1  0  0  0  0  0  0  0  0  0
   -4.4989    1.9458   -3.6653 O   0  0  0  0  0  0  0  0  0  0  0  0
   -6.9183    2.1636   -4.0485 C   0  0  0  0  0  0  0  0  0  0  0  0
   -5.4881    4.6073    6.1193 N   0  3  0  0  0  0  0  0  0  0  0  0
   -0.0597    2.4475   -1.5811 O   0  0  0  0  0  0  0  0  0  0  0  0
   -3.6570    3.3291   -7.4971 O   0  0  0  0  0  0  0  0  0  0  0  0
   -5.4521    4.4891   -4.9456 O   0  0  0  0  0  0  0  0  0  0  0  0
   -4.8216    3.9906   -0.7992 O   0  0  0  0  0  0  0  0  0  0  0  0
   -0.6779    2.7877    2.9937 O   0  0  0  0  0  0  0  0  0  0  0  0
   -7.1965    1.0661   -3.1041 N   0  3  0  0  0  0  0  0  0  0  0  0
   -1.5069    2.0349   -6.0402 N   0  3  0  0  0  0  0  0  0  0  0  0
  1  2  1  6  0  0  0
  1  3  1  0  0  0  0
  1 10  1  0  0  0  0
  3  4  1  6  0  0  0
  3  5  1  0  0  0  0
  5  6  1  6  0  0  0
  5  7  1  0  0  0  0
  7  8  1  6  0  0  0
  7  9  1  0  0  0  0
  9 10  1  0  0  0  0
  9 11  1  1  0  0  0
 11 35  1  0  0  0  0
 12 13  1  1  0  0  0
 12 14  1  0  0  0  0
 12 20  1  0  0  0  0
 14 15  1  0  0  0  0
 14 40  1  1  0  0  0
 15 16  1  6  0  0  0
 15 17  1  0  0  0  0
 17  2  1  6  0  0  0
 17 18  1  0  0  0  0
 18 19  1  6  0  0  0
 18 20  1  0  0  0  0
 21 16  1  6  0  0  0
 21 22  1  0  0  0  0
 21 25  1  0  0  0  0
 22 23  1  0  0  0  0
 22 36  1  6  0  0  0
 23 24  1  0  0  0  0
 23 31  1  6  0  0  0
 24 25  1  0  0  0  0
 24 26  1  1  0  0  0
 26 39  1  0  0  0  0
 27 28  1  0  0  0  0
 27 32  1  0  0  0  0
 27 38  1  1  0  0  0
 28 29  1  0  0  0  0
 28 37  1  6  0  0  0
 29 30  1  0  0  0  0
 29 42  1  1  0  0  0
 30 31  1  1  0  0  0
 30 33  1  0  0  0  0
 32 33  1  0  0  0  0
 32 34  1  1  0  0  0
 34 41  1  0  0  0  0
M  CHG  6   4   1  13   1  19   1  35   1  41   1  42   1
M  END
>  <CHROM.1>
168.83244583,-84.81064647,-67.29947819,179.42113700,-178.68649278,-176.22271371
-171.62171553,66.44456202,66.80819407,-66.09332220,171.92283271,40.02002622
168.69905427,113.30434777,52.53500529,-176.41965464,63.98612879,65.21615810
78.40208214,167.24427155,-176.27214446,47.14417921,-4.12318359,3.12635914
0.04051790,1.64174895,-0.49664277,1.54713770

>  <Name>


>  <RI>
0

>  <Rbt.Current_Directory>
/home/itssahil/PROJECTS/Mol_Feturizer/New_Systems/rnas/1ei2

>  <Rbt.Executable>
rbdock ($Id: //depot/dev/client3/rdock/2013.1/src/exe/rbdock.cxx#4 $)

>  <Rbt.Library>
libRbt.so (2013.1, Build901 2013/11/27)

>  <Rbt.Parameter_File>
/export/apps/rDock/src/rDock_2013.1_src/data/scripts/dock_solv.prm

>  <Rbt.Receptor>
prm/pocket_docking_5.prm

>  <SCORE>
-65.7011

>  <SCORE.INTER>
-40.0144

>  <SCORE.INTER.CONST>
1

>  <SCORE.INTER.POLAR>
-6.11623

>  <SCORE.INTER.ROT>
9

>  <SCORE.INTER.SOLV>
30.2594

>  <SCORE.INTER.VDW>
-25.9753

>  <SCORE.INTER.norm>
-0.952724

>  <SCORE.INTRA>
-25.7043

>  <SCORE.INTRA.DIHEDRAL>
-24.9527

>  <SCORE.INTRA.DIHEDRAL.0>
40.8761

>  <SCORE.INTRA.POLAR>
-1.19698

>  <SCORE.INTRA.POLAR.0>
-0.0268208

>  <SCORE.INTRA.REPUL>
-0.63333

>  <SCORE.INTRA.REPUL.0>
0.641615

>  <SCORE.INTRA.SOLV>
-8.32999

>  <SCORE.INTRA.SOLV.lig_0>
-162.567

>  <SCORE.INTRA.VDW>
-1.82652

>  <SCORE.INTRA.VDW.0>
-4.80338

>  <SCORE.INTRA.norm>
-0.612006

>  <SCORE.RESTR>
0.0175107

>  <SCORE.RESTR.CAVITY>
0.0175107

>  <SCORE.RESTR.norm>
0.00041692

>  <SCORE.SYSTEM>
0

>  <SCORE.SYSTEM.CONST>
0

>  <SCORE.SYSTEM.DIHEDRAL>
0

>  <SCORE.SYSTEM.SOLV>
0

>  <SCORE.SYSTEM.norm>
0

>  <SCORE.heavy>
42

>  <SCORE.norm>
-1.56431

>  <RMSD>
4.003

$$$$

 OpenBabel11021811393D
libRbt.so/2013.1/901 2013/11/27
 42 45  0  0  0  0  0  0  0  0999 V2000
   -8.2822    3.6970   -0.9440 C   0  0  2  0  0  0  0  0  0  0  0  0
   -7.3275    4.6066   -0.3156 O   0  0  0  0  0  0  0  0  0  0  0  0
   -8.9771    4.3555   -2.1798 C   0  0  2  0  0  0  0  0  0  0  0  0
   -8.2635    5.5751   -2.6229 N   0  3  0  0  0  0  0  0  0  0  0  0
  -10.4688    4.6790   -1.8647 C   0  0  1  0  0  0  0  0  0  0  0  0
  -11.0944    5.2695   -3.0019 O   0  0  0  0  0  0  0  0  0  0  0  0
  -11.2641    3.4053   -1.4714 C   0  0  2  0  0  0  0  0  0  0  0  0
  -12.5166    3.7999   -0.9226 O   0  0  0  0  0  0  0  0  0  0  0  0
  -10.4743    2.5404   -0.4361 C   0  0  2  0  0  0  0  0  0  0  0  0
   -9.2930    3.2690    0.0319 O   0  0  0  0  0  0  0  0  0  0  0  0
   -9.9655    1.1879   -0.9856 C   0  0  0  0  0  0  0  0  0  0  0  0
   -5.1071    5.2931    3.3201 C   0  0  1  0  0  0  0  0  0  0  0  0
   -4.5428    5.1577    4.6816 N   0  3  0  0  0  0  0  0  0  0  0  0
   -4.5541    4.2040    2.3639 C   0  0  1  0  0  0  0  0  0  0  0  0
   -5.2287    4.2042    0.9479 C   0  0  1  0  0  0  0  0  0  0  0  0
   -4.8733    2.9661    0.2758 O   0  0  0  0  0  0  0  0  0  0  0  0
   -6.7988    4.2789    1.0060 C   0  0  1  0  0  0  0  0  0  0  0  0
   -7.2967    5.3724    2.0056 C   0  0  1  0  0  0  0  0  0  0  0  0
   -8.7640    5.3436    2.1731 N   0  3  0  0  0  0  0  0  0  0  0  0
   -6.6461    5.2166    3.3985 C   0  0  0  0  0  0  0  0  0  0  0  0
   -3.4908    2.7358   -0.1221 C   0  0  1  0  0  0  0  0  0  0  0  0
   -3.3666    1.3085   -0.6420 C   0  0  1  0  0  0  0  0  0  0  0  0
   -3.9050    1.4920   -2.0544 C   0  0  1  0  0  0  0  0  0  0  0  0
   -3.2710    2.8312   -2.4565 C   0  0  2  0  0  0  0  0  0  0  0  0
   -3.1494    3.5874   -1.2281 O   0  0  0  0  0  0  0  0  0  0  0  0
   -4.1144    3.6136   -3.4792 C   0  0  0  0  0  0  0  0  0  0  0  0
   -2.6341    0.5144   -6.6746 C   0  0  1  0  0  0  0  0  0  0  0  0
   -2.5012   -0.7350   -5.7599 C   0  0  1  0  0  0  0  0  0  0  0  0
   -3.7781   -1.0530   -4.9295 C   0  0  2  0  0  0  0  0  0  0  0  0
   -4.2677    0.2051   -4.1427 C   0  0  1  0  0  0  0  0  0  0  0  0
   -3.4847    0.4083   -2.9324 O   0  0  0  0  0  0  0  0  0  0  0  0
   -3.9891    1.2435   -6.4240 C   0  0  1  0  0  0  0  0  0  0  0  0
   -4.1912    1.4218   -4.9838 O   0  0  0  0  0  0  0  0  0  0  0  0
   -4.0569    2.6251   -7.1243 C   0  0  0  0  0  0  0  0  0  0  0  0
   -9.3858    0.2953    0.0335 N   0  3  0  0  0  0  0  0  0  0  0  0
   -1.9940    0.9157   -0.6520 O   0  0  0  0  0  0  0  0  0  0  0  0
   -2.1997   -1.8629   -6.5805 O   0  0  0  0  0  0  0  0  0  0  0  0
   -1.5426    1.3949   -6.3982 O   0  0  0  0  0  0  0  0  0  0  0  0
   -3.3973    4.7301   -3.9770 O   0  0  0  0  0  0  0  0  0  0  0  0
   -3.1509    4.4075    2.1994 O   0  0  0  0  0  0  0  0  0  0  0  0
   -3.9468    2.5304   -8.5916 N   0  3  0  0  0  0  0  0  0  0  0  0
   -3.5738   -2.2318   -4.0515 N   0  3  0  0  0  0  0  0  0  0  0  0
  1  2  1  1  0  0  0
  1  3  1  0  0  0  0
  1 10  1  0  0  0  0
  3  4  1  1  0  0  0
  3  5  1  0  0  0  0
  5  6  1  6  0  0  0
  5  7  1  0  0  0  0
  7  8  1  1  0  0  0
  7  9  1  0  0  0  0
  9 10  1  0  0  0  0
  9 11  1  6  0  0  0
 11 35  1  0  0  0  0
 12 13  1  1  0  0  0
 12 14  1  0  0  0  0
 12 20  1  0  0  0  0
 14 15  1  0  0  0  0
 14 40  1  6  0  0  0
 15 16  1  1  0  0  0
 15 17  1  0  0  0  0
 17  2  1  6  0  0  0
 17 18  1  0  0  0  0
 18 19  1  1  0  0  0
 18 20  1  0  0  0  0
 21 16  1  6  0  0  0
 21 22  1  0  0  0  0
 21 25  1  0  0  0  0
 22 23  1  0  0  0  0
 22 36  1  6  0  0  0
 23 24  1  0  0  0  0
 23 31  1  6  0  0  0
 24 25  1  0  0  0  0
 24 26  1  6  0  0  0
 26 39  1  0  0  0  0
 27 28  1  0  0  0  0
 27 32  1  0  0  0  0
 27 38  1  1  0  0  0
 28 29  1  0  0  0  0
 28 37  1  6  0  0  0
 29 30  1  0  0  0  0
 29 42  1  1  0  0  0
 30 31  1  1  0  0  0
 30 33  1  0  0  0  0
 32 33  1  0  0  0  0
 32 34  1  6  0  0  0
 34 41  1  0  0  0  0
M  CHG  6   4   1  13   1  19   1  35   1  41   1  42   1
M  END
>  <CHROM.1>
166.99952318,122.54098253,-156.93296688,77.02396968,178.00096570,-172.00250876
-128.89829797,66.59325799,65.96261579,-67.55098665,173.11539494,-144.68029917
63.30377813,159.74503293,-170.74110076,177.48230312,169.50963993,172.49466471
174.28853553,-175.52152720,61.70447916,-74.27561612,-5.73222678,2.73047259
-1.81661476,2.19585873,-0.21095620,1.18943647

>  <Name>


>  <RI>
0

>  <Rbt.Current_Directory>
/home/itssahil/PROJECTS/Mol_Feturizer/New_Systems/rnas/1ei2

>  <Rbt.Executable>
rbdock ($Id: //depot/dev/client3/rdock/2013.1/src/exe/rbdock.cxx#4 $)

>  <Rbt.Library>
libRbt.so (2013.1, Build901 2013/11/27)

>  <Rbt.Parameter_File>
/export/apps/rDock/src/rDock_2013.1_src/data/scripts/dock_solv.prm

>  <Rbt.Receptor>
prm/pocket_docking_5.prm

>  <SCORE>
-53.5437

>  <SCORE.INTER>
-31.3268

>  <SCORE.INTER.CONST>
1

>  <SCORE.INTER.POLAR>
-5.38746

>  <SCORE.INTER.ROT>
9

>  <SCORE.INTER.SOLV>
22.8137

>  <SCORE.INTER.VDW>
-20.1309

>  <SCORE.INTER.norm>
-0.745876

>  <SCORE.INTRA>
-22.2169

>  <SCORE.INTRA.DIHEDRAL>
-18.9902

>  <SCORE.INTRA.DIHEDRAL.0>
40.8761

>  <SCORE.INTRA.POLAR>
-1.38719

>  <SCORE.INTRA.POLAR.0>
-0.0268208

>  <SCORE.INTRA.REPUL>
-0.641615

>  <SCORE.INTRA.REPUL.0>
0.641615

>  <SCORE.INTRA.SOLV>
-11.5655

>  <SCORE.INTRA.SOLV.lig_0>
-162.567

>  <SCORE.INTRA.VDW>
0.985506

>  <SCORE.INTRA.VDW.0>
-4.80338

>  <SCORE.INTRA.norm>
-0.528973

>  <SCORE.RESTR>
0

>  <SCORE.RESTR.CAVITY>
0

>  <SCORE.RESTR.norm>
0

>  <SCORE.SYSTEM>
0

>  <SCORE.SYSTEM.CONST>
0

>  <SCORE.SYSTEM.DIHEDRAL>
0

>  <SCORE.SYSTEM.SOLV>
0

>  <SCORE.SYSTEM.norm>
0

>  <SCORE.heavy>
42

>  <SCORE.norm>
-1.27485

>  <RMSD>
4.009

$$$$

 OpenBabel11021811393D
libRbt.so/2013.1/901 2013/11/27
 42 45  0  0  0  0  0  0  0  0999 V2000
   -7.6287    4.1421    1.2621 C   0  0  2  0  0  0  0  0  0  0  0  0
   -6.8078    3.0803    0.6854 O   0  0  0  0  0  0  0  0  0  0  0  0
   -9.1311    3.9926    0.8569 C   0  0  2  0  0  0  0  0  0  0  0  0
   -9.4163    2.6505    0.2997 N   0  3  0  0  0  0  0  0  0  0  0  0
   -9.5409    5.1037   -0.1563 C   0  0  1  0  0  0  0  0  0  0  0  0
  -10.9151    4.9633   -0.5104 O   0  0  0  0  0  0  0  0  0  0  0  0
   -9.3262    6.5252    0.4291 C   0  0  2  0  0  0  0  0  0  0  0  0
   -9.4374    7.4750   -0.6250 O   0  0  0  0  0  0  0  0  0  0  0  0
   -7.9284    6.6501    1.1175 C   0  0  2  0  0  0  0  0  0  0  0  0
   -7.1241    5.4568    0.8447 O   0  0  0  0  0  0  0  0  0  0  0  0
   -7.9819    6.8001    2.6553 C   0  0  0  0  0  0  0  0  0  0  0  0
   -3.1646    5.3882    0.5414 C   0  0  1  0  0  0  0  0  0  0  0  0
   -1.7391    5.7816    0.4810 N   0  3  0  0  0  0  0  0  0  0  0  0
   -3.6363    4.7514   -0.7921 C   0  0  1  0  0  0  0  0  0  0  0  0
   -5.0953    4.1784   -0.7378 C   0  0  1  0  0  0  0  0  0  0  0  0
   -5.2965    3.3380   -1.9058 O   0  0  0  0  0  0  0  0  0  0  0  0
   -5.3710    3.2960    0.5349 C   0  0  1  0  0  0  0  0  0  0  0  0
   -4.8491    3.9747    1.8426 C   0  0  1  0  0  0  0  0  0  0  0  0
   -4.9720    3.0856    3.0157 N   0  3  0  0  0  0  0  0  0  0  0  0
   -3.3713    4.4078    1.7147 C   0  0  0  0  0  0  0  0  0  0  0  0
   -5.1962    1.8904   -1.7752 C   0  0  1  0  0  0  0  0  0  0  0  0
   -4.7479    1.3124   -3.1123 C   0  0  1  0  0  0  0  0  0  0  0  0
   -3.2511    1.5787   -3.0289 C   0  0  1  0  0  0  0  0  0  0  0  0
   -2.9548    1.2284   -1.5637 C   0  0  2  0  0  0  0  0  0  0  0  0
   -4.1632    1.5522   -0.8353 O   0  0  0  0  0  0  0  0  0  0  0  0
   -1.7621    2.0119   -0.9867 C   0  0  0  0  0  0  0  0  0  0  0  0
   -3.5510    3.9091   -5.8343 C   0  0  1  0  0  0  0  0  0  0  0  0
   -2.4689    3.8424   -4.7209 C   0  0  1  0  0  0  0  0  0  0  0  0
   -1.3991    2.7339   -4.9402 C   0  0  2  0  0  0  0  0  0  0  0  0
   -2.0691    1.3456   -5.1962 C   0  0  1  0  0  0  0  0  0  0  0  0
   -2.5047    0.7322   -3.9499 O   0  0  0  0  0  0  0  0  0  0  0  0
   -3.3818    2.7327   -6.8432 C   0  0  1  0  0  0  0  0  0  0  0  0
   -3.2288    1.4744   -6.1085 O   0  0  0  0  0  0  0  0  0  0  0  0
   -4.5805    2.6120   -7.8191 C   0  0  0  0  0  0  0  0  0  0  0  0
   -9.0879    6.0710    3.3006 N   0  3  0  0  0  0  0  0  0  0  0  0
   -5.0292   -0.0869   -3.1522 O   0  0  0  0  0  0  0  0  0  0  0  0
   -1.8085    5.1060   -4.6595 O   0  0  0  0  0  0  0  0  0  0  0  0
   -4.8388    3.8471   -5.2171 O   0  0  0  0  0  0  0  0  0  0  0  0
   -1.3545    1.4681    0.2571 O   0  0  0  0  0  0  0  0  0  0  0  0
   -3.5736    5.7399   -1.8199 O   0  0  0  0  0  0  0  0  0  0  0  0
   -4.2412    1.8871   -9.0574 N   0  3  0  0  0  0  0  0  0  0  0  0
   -0.4192    2.6985   -3.8264 N   0  3  0  0  0  0  0  0  0  0  0  0
  1  2  1  6  0  0  0
  1  3  1  0  0  0  0
  1 10  1  0  0  0  0
  3  4  1  6  0  0  0
  3  5  1  0  0  0  0
  5  6  1  1  0  0  0
  5  7  1  0  0  0  0
  7  8  1  6  0  0  0
  7  9  1  0  0  0  0
  9 10  1  0  0  0  0
  9 11  1  1  0  0  0
 11 35  1  0  0  0  0
 12 13  1  6  0  0  0
 12 14  1  0  0  0  0
 12 20  1  0  0  0  0
 14 15  1  0  0  0  0
 14 40  1  6  0  0  0
 15 16  1  6  0  0  0
 15 17  1  0  0  0  0
 17  2  1  1  0  0  0
 17 18  1  0  0  0  0
 18 19  1  1  0  0  0
 18 20  1  0  0  0  0
 21 16  1  6  0  0  0
 21 22  1  0  0  0  0
 21 25  1  0  0  0  0
 22 23  1  0  0  0  0
 22 36  1  1  0  0  0
 23 24  1  0  0  0  0
 23 31  1  6  0  0  0
 24 25  1  0  0  0  0
 24 26  1  1  0  0  0
 26 39  1  0  0  0  0
 27 28  1  0  0  0  0
 27 32  1  0  0  0  0
 27 38  1  1  0  0  0
 28 29  1  0  0  0  0
 28 37  1  6  0  0  0
 29 30  1  0  0  0  0
 29 42  1  1  0  0  0
 30 31  1  1  0  0  0
 30 33  1  0  0  0  0
 32 33  1  0  0  0  0
 32 34  1  6  0  0  0
 34 41  1  0  0  0  0
M  CHG  6   4   1  13   1  19   1  35   1  41   1  42   1
M  END
>  <CHROM.1>
158.08456749,-79.17632988,46.69684349,-50.81073401,69.31446625,33.67032956
-51.91877762,-171.27797438,-52.29970487,100.32233413,-151.81038070,-160.07535960
-50.63535143,100.80261224,-167.98996433,-174.71242785,87.92354456,-36.20817667
20.90695966,47.42720418,158.27423368,96.56363273,-4.96851957,3.58710235,-1.65270910
2.24467816,-0.29462568,1.37182170

>  <Name>


>  <RI>
0

>  <Rbt.Current_Directory>
/home/itssahil/PROJECTS/Mol_Feturizer/New_Systems/rnas/1ei2

>  <Rbt.Executable>
rbdock ($Id: //depot/dev/client3/rdock/2013.1/src/exe/rbdock.cxx#4 $)

>  <Rbt.Library>
libRbt.so (2013.1, Build901 2013/11/27)

>  <Rbt.Parameter_File>
/export/apps/rDock/src/rDock_2013.1_src/data/scripts/dock_solv.prm

>  <Rbt.Receptor>
prm/pocket_docking_2.prm

>  <SCORE>
-29.5755

>  <SCORE.INTER>
-31.4751

>  <SCORE.INTER.CONST>
1

>  <SCORE.INTER.POLAR>
-5.44036

>  <SCORE.INTER.ROT>
9

>  <SCORE.INTER.SOLV>
27.4137

>  <SCORE.INTER.VDW>
-21.5868

>  <SCORE.INTER.norm>
-0.749408

>  <SCORE.INTRA>
-4.4345

>  <SCORE.INTRA.DIHEDRAL>
-3.36743

>  <SCORE.INTRA.DIHEDRAL.0>
40.8761

>  <SCORE.INTRA.POLAR>
0.0268208

>  <SCORE.INTRA.POLAR.0>
-0.0268208

>  <SCORE.INTRA.REPUL>
-0.641615

>  <SCORE.INTRA.REPUL.0>
0.641615

>  <SCORE.INTRA.SOLV>
-5.75743

>  <SCORE.INTRA.SOLV.lig_0>
-162.567

>  <SCORE.INTRA.VDW>
3.24481

>  <SCORE.INTRA.VDW.0>
-4.80338

>  <SCORE.INTRA.norm>
-0.105583

>  <SCORE.RESTR>
6.33413

>  <SCORE.RESTR.CAVITY>
6.33413

>  <SCORE.RESTR.norm>
0.150813

>  <SCORE.SYSTEM>
0

>  <SCORE.SYSTEM.CONST>
0

>  <SCORE.SYSTEM.DIHEDRAL>
0

>  <SCORE.SYSTEM.SOLV>
0

>  <SCORE.SYSTEM.norm>
0

>  <SCORE.heavy>
42

>  <SCORE.norm>
-0.704179

>  <RMSD>
4.068

$$$$

 OpenBabel11021811393D
libRbt.so/2013.1/901 2013/11/27
 42 45  0  0  0  0  0  0  0  0999 V2000
   -7.6398    4.4768   -0.2403 C   0  0  2  0  0  0  0  0  0  0  0  0
   -6.9107    3.6445    0.7133 O   0  0  0  0  0  0  0  0  0  0  0  0
   -9.1699    4.1568   -0.2317 C   0  0  2  0  0  0  0  0  0  0  0  0
   -9.5564    3.3656    0.9590 N   0  3  0  0  0  0  0  0  0  0  0  0
   -9.5844    3.4158   -1.5387 C   0  0  1  0  0  0  0  0  0  0  0  0
  -10.9831    3.1385   -1.5238 O   0  0  0  0  0  0  0  0  0  0  0  0
   -9.2625    4.2553   -2.8040 C   0  0  2  0  0  0  0  0  0  0  0  0
   -9.3900    3.4213   -3.9503 O   0  0  0  0  0  0  0  0  0  0  0  0
   -7.8205    4.8547   -2.7354 C   0  0  2  0  0  0  0  0  0  0  0  0
   -7.0959    4.2944   -1.5924 O   0  0  0  0  0  0  0  0  0  0  0  0
   -7.7717    6.3916   -2.5743 C   0  0  0  0  0  0  0  0  0  0  0  0
   -3.2961    5.9988    0.6065 C   0  0  1  0  0  0  0  0  0  0  0  0
   -1.9298    6.5079    0.8606 N   0  3  0  0  0  0  0  0  0  0  0  0
   -3.2677    4.6481   -0.1556 C   0  0  1  0  0  0  0  0  0  0  0  0
   -4.6798    3.9858   -0.3212 C   0  0  1  0  0  0  0  0  0  0  0  0
   -4.4884    2.6091   -0.7445 O   0  0  0  0  0  0  0  0  0  0  0  0
   -5.5161    3.9608    1.0108 C   0  0  1  0  0  0  0  0  0  0  0  0
   -5.4844    5.3384    1.7484 C   0  0  1  0  0  0  0  0  0  0  0  0
   -6.1427    5.2754    3.0693 N   0  3  0  0  0  0  0  0  0  0  0  0
   -4.0399    5.8491    1.9499 C   0  0  0  0  0  0  0  0  0  0  0  0
   -5.6346    1.8295   -1.1931 C   0  0  1  0  0  0  0  0  0  0  0  0
   -5.5830    1.7208   -2.7124 C   0  0  1  0  0  0  0  0  0  0  0  0
   -4.5646    0.5991   -2.8645 C   0  0  1  0  0  0  0  0  0  0  0  0
   -4.9879   -0.3586   -1.7416 C   0  0  2  0  0  0  0  0  0  0  0  0
   -5.5367    0.4834   -0.6997 O   0  0  0  0  0  0  0  0  0  0  0  0
   -3.8181   -1.1921   -1.1881 C   0  0  0  0  0  0  0  0  0  0  0  0
   -1.2285    1.1765   -5.4221 C   0  0  1  0  0  0  0  0  0  0  0  0
   -1.8848   -0.1855   -5.7821 C   0  0  1  0  0  0  0  0  0  0  0  0
   -3.3482   -0.0688   -6.2979 C   0  0  2  0  0  0  0  0  0  0  0  0
   -4.2281    0.7691   -5.3153 C   0  0  1  0  0  0  0  0  0  0  0  0
   -4.6531   -0.0302   -4.1752 O   0  0  0  0  0  0  0  0  0  0  0  0
   -2.2642    2.3367   -5.5294 C   0  0  1  0  0  0  0  0  0  0  0  0
   -3.4956    1.9614   -4.8298 O   0  0  0  0  0  0  0  0  0  0  0  0
   -1.7272    3.6667   -4.9406 C   0  0  0  0  0  0  0  0  0  0  0  0
   -8.1519    7.1434   -3.7832 N   0  3  0  0  0  0  0  0  0  0  0  0
   -6.8637    1.3363   -3.2129 O   0  0  0  0  0  0  0  0  0  0  0  0
   -1.0952   -0.8121   -6.7922 O   0  0  0  0  0  0  0  0  0  0  0  0
   -0.7179    1.0938   -4.0897 O   0  0  0  0  0  0  0  0  0  0  0  0
   -2.9694   -0.3966   -0.3784 O   0  0  0  0  0  0  0  0  0  0  0  0
   -2.7118    4.8647   -1.4523 O   0  0  0  0  0  0  0  0  0  0  0  0
   -2.7978    4.6361   -4.6438 N   0  3  0  0  0  0  0  0  0  0  0  0
   -3.9287   -1.4035   -6.5877 N   0  3  0  0  0  0  0  0  0  0  0  0
  1  2  1  1  0  0  0
  1  3  1  0  0  0  0
  1 10  1  0  0  0  0
  3  4  1  1  0  0  0
  3  5  1  0  0  0  0
  5  6  1  1  0  0  0
  5  7  1  0  0  0  0
  7  8  1  6  0  0  0
  7  9  1  0  0  0  0
  9 10  1  0  0  0  0
  9 11  1  1  0  0  0
 11 35  1  0  0  0  0
 12 13  1  1  0  0  0
 12 14  1  0  0  0  0
 12 20  1  0  0  0  0
 14 15  1  0  0  0  0
 14 40  1  6  0  0  0
 15 16  1  1  0  0  0
 15 17  1  0  0  0  0
 17  2  1  6  0  0  0
 17 18  1  0  0  0  0
 18 19  1  1  0  0  0
 18 20  1  0  0  0  0
 21 16  1  1  0  0  0
 21 22  1  0  0  0  0
 21 25  1  0  0  0  0
 22 23  1  0  0  0  0
 22 36  1  1  0  0  0
 23 24  1  0  0  0  0
 23 31  1  6  0  0  0
 24 25  1  0  0  0  0
 24 26  1  1  0  0  0
 26 39  1  0  0  0  0
 27 28  1  0  0  0  0
 27 32  1  0  0  0  0
 27 38  1  1  0  0  0
 28 29  1  0  0  0  0
 28 37  1  6  0  0  0
 29 30  1  0  0  0  0
 29 42  1  1  0  0  0
 30 31  1  1  0  0  0
 30 33  1  0  0  0  0
 32 33  1  0  0  0  0
 32 34  1  1  0  0  0
 34 41  1  0  0  0  0
M  CHG  6   4   1  13   1  19   1  35   1  41   1  42   1
M  END
>  <CHROM.1>
-169.44850679,-55.89362873,-69.10148537,-67.04099847,172.46647178,-72.43334266
-58.44071971,73.42963163,-51.78560925,-169.53882700,104.43100447,-63.80413808
-57.94377403,69.10207845,74.01375686,-130.38457263,-70.25392495,177.00598402
155.96512886,136.14609334,-161.90233565,4.11783748,-5.15464316,2.82158548
-2.17749682,2.20161053,-0.06043896,0.90004771

>  <Name>


>  <RI>
0

>  <Rbt.Current_Directory>
/home/itssahil/PROJECTS/Mol_Feturizer/New_Systems/rnas/1ei2

>  <Rbt.Executable>
rbdock ($Id: //depot/dev/client3/rdock/2013.1/src/exe/rbdock.cxx#4 $)

>  <Rbt.Library>
libRbt.so (2013.1, Build901 2013/11/27)

>  <Rbt.Parameter_File>
/export/apps/rDock/src/rDock_2013.1_src/data/scripts/dock_solv.prm

>  <Rbt.Receptor>
prm/pocket_docking_5.prm

>  <SCORE>
-46.5028

>  <SCORE.INTER>
-29.3667

>  <SCORE.INTER.CONST>
1

>  <SCORE.INTER.POLAR>
-4.38527

>  <SCORE.INTER.ROT>
9

>  <SCORE.INTER.SOLV>
28.6155

>  <SCORE.INTER.VDW>
-24.0988

>  <SCORE.INTER.norm>
-0.699208

>  <SCORE.INTRA>
-17.1411

>  <SCORE.INTRA.DIHEDRAL>
-10.8011

>  <SCORE.INTRA.DIHEDRAL.0>
40.8761

>  <SCORE.INTRA.POLAR>
-1.04179

>  <SCORE.INTRA.POLAR.0>
-0.0268208

>  <SCORE.INTRA.REPUL>
-0.631915

>  <SCORE.INTRA.REPUL.0>
0.641615

>  <SCORE.INTRA.SOLV>
-9.59573

>  <SCORE.INTRA.SOLV.lig_0>
-162.567

>  <SCORE.INTRA.VDW>
-0.241007

>  <SCORE.INTRA.VDW.0>
-4.80338

>  <SCORE.INTRA.norm>
-0.408121

>  <SCORE.RESTR>
0.00502577

>  <SCORE.RESTR.CAVITY>
0.00502577

>  <SCORE.RESTR.norm>
0.000119661

>  <SCORE.SYSTEM>
0

>  <SCORE.SYSTEM.CONST>
0

>  <SCORE.SYSTEM.DIHEDRAL>
0

>  <SCORE.SYSTEM.SOLV>
0

>  <SCORE.SYSTEM.norm>
0

>  <SCORE.heavy>
42

>  <SCORE.norm>
-1.10721

>  <RMSD>
4.101

$$$$

 OpenBabel11021811393D
libRbt.so/2013.1/901 2013/11/27
 42 45  0  0  0  0  0  0  0  0999 V2000
   -7.9741    4.9386   -0.4146 C   0  0  2  0  0  0  0  0  0  0  0  0
   -7.6320    5.8309    0.6902 O   0  0  0  0  0  0  0  0  0  0  0  0
   -8.7815    5.6832   -1.5271 C   0  0  2  0  0  0  0  0  0  0  0  0
   -8.6988    7.1536   -1.3715 N   0  3  0  0  0  0  0  0  0  0  0  0
  -10.2685    5.2168   -1.5333 C   0  0  1  0  0  0  0  0  0  0  0  0
  -10.9920    5.8948   -2.5581 O   0  0  0  0  0  0  0  0  0  0  0  0
  -10.3922    3.6881   -1.7726 C   0  0  2  0  0  0  0  0  0  0  0  0
  -11.7258    3.2862   -1.4802 O   0  0  0  0  0  0  0  0  0  0  0  0
   -9.3849    2.8911   -0.8816 C   0  0  2  0  0  0  0  0  0  0  0  0
   -8.7435    3.7898    0.0808 O   0  0  0  0  0  0  0  0  0  0  0  0
   -8.2441    2.2004   -1.6637 C   0  0  0  0  0  0  0  0  0  0  0  0
   -4.1045    6.5383    3.0726 C   0  0  1  0  0  0  0  0  0  0  0  0
   -2.9732    6.3705    4.0121 N   0  3  0  0  0  0  0  0  0  0  0  0
   -3.9200    5.6721    1.7991 C   0  0  1  0  0  0  0  0  0  0  0  0
   -5.1574    5.6930    0.8356 C   0  0  1  0  0  0  0  0  0  0  0  0
   -5.0013    4.6159   -0.1270 O   0  0  0  0  0  0  0  0  0  0  0  0
   -6.5274    5.4726    1.5763 C   0  0  1  0  0  0  0  0  0  0  0  0
   -6.6441    6.3488    2.8653 C   0  0  1  0  0  0  0  0  0  0  0  0
   -7.8615    6.0349    3.6408 N   0  3  0  0  0  0  0  0  0  0  0  0
   -5.4199    6.1737    3.7918 C   0  0  0  0  0  0  0  0  0  0  0  0
   -4.9181    3.2392    0.3426 C   0  0  1  0  0  0  0  0  0  0  0  0
   -5.2001    2.3084   -0.8308 C   0  0  1  0  0  0  0  0  0  0  0  0
   -3.8392    2.3208   -1.5135 C   0  0  1  0  0  0  0  0  0  0  0  0
   -2.8878    2.2599   -0.3100 C   0  0  2  0  0  0  0  0  0  0  0  0
   -3.5763    2.9440    0.7640 O   0  0  0  0  0  0  0  0  0  0  0  0
   -1.5297    2.9316   -0.5816 C   0  0  0  0  0  0  0  0  0  0  0  0
   -3.2206    0.4655   -6.1411 C   0  0  1  0  0  0  0  0  0  0  0  0
   -3.3898   -0.6163   -5.0383 C   0  0  1  0  0  0  0  0  0  0  0  0
   -4.6096   -0.3826   -4.1009 C   0  0  2  0  0  0  0  0  0  0  0  0
   -4.5996    1.0647   -3.5116 C   0  0  1  0  0  0  0  0  0  0  0  0
   -3.6720    1.1732   -2.3949 O   0  0  0  0  0  0  0  0  0  0  0  0
   -4.2479    1.6217   -5.9460 C   0  0  1  0  0  0  0  0  0  0  0  0
   -4.2351    2.0585   -4.5476 O   0  0  0  0  0  0  0  0  0  0  0  0
   -3.9541    2.8366   -6.8634 C   0  0  0  0  0  0  0  0  0  0  0  0
   -8.6892    1.4351   -2.8416 N   0  3  0  0  0  0  0  0  0  0  0  0
   -5.5306    1.0067   -0.3460 O   0  0  0  0  0  0  0  0  0  0  0  0
   -3.5406   -1.8856   -5.6729 O   0  0  0  0  0  0  0  0  0  0  0  0
   -1.8869    0.9751   -6.0734 O   0  0  0  0  0  0  0  0  0  0  0  0
   -0.6319    2.7083    0.4921 O   0  0  0  0  0  0  0  0  0  0  0  0
   -2.7786    6.1448    1.0842 O   0  0  0  0  0  0  0  0  0  0  0  0
   -5.0754    3.7918   -6.9269 N   0  3  0  0  0  0  0  0  0  0  0  0
   -4.6932   -1.4267   -3.0497 N   0  3  0  0  0  0  0  0  0  0  0  0
  1  2  1  1  0  0  0
  1  3  1  0  0  0  0
  1 10  1  0  0  0  0
  3  4  1  1  0  0  0
  3  5  1  0  0  0  0
  5  6  1  6  0  0  0
  5  7  1  0  0  0  0
  7  8  1  1  0  0  0
  7  9  1  0  0  0  0
  9 10  1  0  0  0  0
  9 11  1  6  0  0  0
 11 35  1  0  0  0  0
 12 13  1  1  0  0  0
 12 14  1  0  0  0  0
 12 20  1  0  0  0  0
 14 15  1  0  0  0  0
 14 40  1  6  0  0  0
 15 16  1  6  0  0  0
 15 17  1  0  0  0  0
 17  2  1  6  0  0  0
 17 18  1  0  0  0  0
 18 19  1  1  0  0  0
 18 20  1  0  0  0  0
 21 16  1  6  0  0  0
 21 22  1  0  0  0  0
 21 25  1  0  0  0  0
 22 23  1  0  0  0  0
 22 36  1  1  0  0  0
 23 24  1  0  0  0  0
 23 31  1  6  0  0  0
 24 25  1  0  0  0  0
 24 26  1  6  0  0  0
 26 39  1  0  0  0  0
 27 28  1  0  0  0  0
 27 32  1  0  0  0  0
 27 38  1  1  0  0  0
 28 29  1  0  0  0  0
 28 37  1  6  0  0  0
 29 30  1  0  0  0  0
 29 42  1  1  0  0  0
 30 31  1  1  0  0  0
 30 33  1  0  0  0  0
 32 33  1  0  0  0  0
 32 34  1  6  0  0  0
 34 41  1  0  0  0  0
M  CHG  6   4   1  13   1  19   1  35   1  41   1  42   1
M  END
>  <CHROM.1>
-159.30322752,73.67200129,60.03886485,66.37727526,74.62286129,-47.74602626
64.28491439,68.14138872,-61.58058990,60.28651014,162.35849990,56.15655363
174.96854997,61.88605633,-172.84690710,60.80094804,-58.27931868,-80.65566594
60.64225314,-162.54693126,166.45401417,111.03522202,-5.65134223,3.33418738
-1.32515492,1.94463433,-0.24795022,0.98812674

>  <Name>


>  <RI>
0

>  <Rbt.Current_Directory>
/home/itssahil/PROJECTS/Mol_Feturizer/New_Systems/rnas/1ei2

>  <Rbt.Executable>
rbdock ($Id: //depot/dev/client3/rdock/2013.1/src/exe/rbdock.cxx#4 $)

>  <Rbt.Library>
libRbt.so (2013.1, Build901 2013/11/27)

>  <Rbt.Parameter_File>
/export/apps/rDock/src/rDock_2013.1_src/data/scripts/dock_solv.prm

>  <Rbt.Receptor>
prm/pocket_docking_3.prm

>  <SCORE>
-47.2591

>  <SCORE.INTER>
-26.476

>  <SCORE.INTER.CONST>
1

>  <SCORE.INTER.POLAR>
-4.7324

>  <SCORE.INTER.ROT>
9

>  <SCORE.INTER.SOLV>
16.6651

>  <SCORE.INTER.VDW>
-17.031

>  <SCORE.INTER.norm>
-0.630381

>  <SCORE.INTRA>
-23.321

>  <SCORE.INTRA.DIHEDRAL>
-25.9625

>  <SCORE.INTRA.DIHEDRAL.0>
40.8761

>  <SCORE.INTRA.POLAR>
0.0260717

>  <SCORE.INTRA.POLAR.0>
-0.0268208

>  <SCORE.INTRA.REPUL>
-0.623061

>  <SCORE.INTRA.REPUL.0>
0.641615

>  <SCORE.INTRA.SOLV>
-12.4457

>  <SCORE.INTRA.SOLV.lig_0>
-162.567

>  <SCORE.INTRA.VDW>
-1.09017

>  <SCORE.INTRA.VDW.0>
-4.80338

>  <SCORE.INTRA.norm>
-0.555261

>  <SCORE.RESTR>
2.5379

>  <SCORE.RESTR.CAVITY>
2.5379

>  <SCORE.RESTR.norm>
0.0604262

>  <SCORE.SYSTEM>
0

>  <SCORE.SYSTEM.CONST>
0

>  <SCORE.SYSTEM.DIHEDRAL>
0

>  <SCORE.SYSTEM.SOLV>
0

>  <SCORE.SYSTEM.norm>
0

>  <SCORE.heavy>
42

>  <SCORE.norm>
-1.12522

>  <RMSD>
4.137

$$$$

 OpenBabel11021811393D
libRbt.so/2013.1/901 2013/11/27
 42 45  0  0  0  0  0  0  0  0999 V2000
   -7.3347    4.1579    1.5793 C   0  0  2  0  0  0  0  0  0  0  0  0
   -6.4571    3.1640    0.9664 O   0  0  0  0  0  0  0  0  0  0  0  0
   -8.7805    4.0917    0.9886 C   0  0  2  0  0  0  0  0  0  0  0  0
   -9.0050    2.8390    0.2314 N   0  3  0  0  0  0  0  0  0  0  0  0
   -9.0649    5.3325    0.0894 C   0  0  1  0  0  0  0  0  0  0  0  0
  -10.3892    5.2661   -0.4351 O   0  0  0  0  0  0  0  0  0  0  0  0
   -8.9134    6.6617    0.8766 C   0  0  2  0  0  0  0  0  0  0  0  0
   -8.8972    7.7421   -0.0497 O   0  0  0  0  0  0  0  0  0  0  0  0
   -7.6045    6.6689    1.7311 C   0  0  2  0  0  0  0  0  0  0  0  0
   -6.7792    5.5055    1.3983 O   0  0  0  0  0  0  0  0  0  0  0  0
   -7.8355    6.6195    3.2590 C   0  0  0  0  0  0  0  0  0  0  0  0
   -3.4813    3.1990    4.0911 C   0  0  1  0  0  0  0  0  0  0  0  0
   -2.2505    2.9586    4.8770 N   0  3  0  0  0  0  0  0  0  0  0  0
   -3.2021    4.0954    2.8563 C   0  0  1  0  0  0  0  0  0  0  0  0
   -4.4368    4.2614    1.9034 C   0  0  1  0  0  0  0  0  0  0  0  0
   -3.9702    4.8314    0.6511 O   0  0  0  0  0  0  0  0  0  0  0  0
   -5.1524    2.9013    1.5683 C   0  0  1  0  0  0  0  0  0  0  0  0
   -5.3809    2.0294    2.8452 C   0  0  1  0  0  0  0  0  0  0  0  0
   -5.9156    0.6925    2.5153 N   0  3  0  0  0  0  0  0  0  0  0  0
   -4.0781    1.8446    3.6554 C   0  0  0  0  0  0  0  0  0  0  0  0
   -3.1536    4.0240   -0.2456 C   0  0  1  0  0  0  0  0  0  0  0  0
   -4.0773    3.2521   -1.1804 C   0  0  1  0  0  0  0  0  0  0  0  0
   -4.3950    4.3393   -2.1981 C   0  0  1  0  0  0  0  0  0  0  0  0
   -3.0261    5.0129   -2.3700 C   0  0  2  0  0  0  0  0  0  0  0  0
   -2.3627    4.8758   -1.0906 O   0  0  0  0  0  0  0  0  0  0  0  0
   -3.1307    6.4993   -2.7561 C   0  0  0  0  0  0  0  0  0  0  0  0
   -7.9733    4.4365   -5.6280 C   0  0  1  0  0  0  0  0  0  0  0  0
   -6.8646    3.3924   -5.9380 C   0  0  1  0  0  0  0  0  0  0  0  0
   -6.5374    2.4418   -4.7505 C   0  0  2  0  0  0  0  0  0  0  0  0
   -6.2396    3.2494   -3.4463 C   0  0  1  0  0  0  0  0  0  0  0  0
   -4.8821    3.7750   -3.4496 O   0  0  0  0  0  0  0  0  0  0  0  0
   -8.3932    4.3707   -4.1281 C   0  0  1  0  0  0  0  0  0  0  0  0
   -7.1962    4.3684   -3.2832 O   0  0  0  0  0  0  0  0  0  0  0  0
   -9.3069    5.5537   -3.7162 C   0  0  0  0  0  0  0  0  0  0  0  0
   -9.0351    5.8689    3.6699 N   0  3  0  0  0  0  0  0  0  0  0  0
   -3.3646    2.1685   -1.7773 O   0  0  0  0  0  0  0  0  0  0  0  0
   -7.2883    2.6033   -7.0489 O   0  0  0  0  0  0  0  0  0  0  0  0
   -7.4698    5.7369   -5.9419 O   0  0  0  0  0  0  0  0  0  0  0  0
   -4.3002    6.7421   -3.5190 O   0  0  0  0  0  0  0  0  0  0  0  0
   -2.7999    5.3879    3.3092 O   0  0  0  0  0  0  0  0  0  0  0  0
  -10.5603    5.6069   -4.4908 N   0  3  0  0  0  0  0  0  0  0  0  0
   -5.4479    1.4960   -5.0978 N   0  3  0  0  0  0  0  0  0  0  0  0
  1  2  1  6  0  0  0
  1  3  1  0  0  0  0
  1 10  1  0  0  0  0
  3  4  1  6  0  0  0
  3  5  1  0  0  0  0
  5  6  1  1  0  0  0
  5  7  1  0  0  0  0
  7  8  1  6  0  0  0
  7  9  1  0  0  0  0
  9 10  1  0  0  0  0
  9 11  1  1  0  0  0
 11 35  1  0  0  0  0
 12 13  1  6  0  0  0
 12 14  1  0  0  0  0
 12 20  1  0  0  0  0
 14 15  1  0  0  0  0
 14 40  1  1  0  0  0
 15 16  1  6  0  0  0
 15 17  1  0  0  0  0
 17  2  1  1  0  0  0
 17 18  1  0  0  0  0
 18 19  1  6  0  0  0
 18 20  1  0  0  0  0
 21 16  1  1  0  0  0
 21 22  1  0  0  0  0
 21 25  1  0  0  0  0
 22 23  1  0  0  0  0
 22 36  1  6  0  0  0
 23 24  1  0  0  0  0
 23 31  1  6  0  0  0
 24 25  1  0  0  0  0
 24 26  1  1  0  0  0
 26 39  1  0  0  0  0
 27 28  1  0  0  0  0
 27 32  1  0  0  0  0
 27 38  1  1  0  0  0
 28 29  1  0  0  0  0
 28 37  1  6  0  0  0
 29 30  1  0  0  0  0
 29 42  1  6  0  0  0
 30 31  1  6  0  0  0
 30 33  1  0  0  0  0
 32 33  1  0  0  0  0
 32 34  1  1  0  0  0
 34 41  1  0  0  0  0
M  CHG  6   4   1  13   1  19   1  35   1  41   1  42   1
M  END
>  <CHROM.1>
-168.16470736,-46.20529583,-178.23728051,55.97157885,62.68366046,31.90970376
-53.92138175,-55.54089763,-62.53563811,70.19831275,88.48871377,167.92244764
-179.71282235,73.92456654,-30.64599548,-71.30246180,-59.01108873,62.04536164
69.04818913,-169.30413560,59.92165659,-71.91474221,-6.13952118,4.28728090
-0.73129113,1.22072710,-0.35871115,1.49917292

>  <Name>


>  <RI>
0

>  <Rbt.Current_Directory>
/home/itssahil/PROJECTS/Mol_Feturizer/New_Systems/rnas/1ei2

>  <Rbt.Executable>
rbdock ($Id: //depot/dev/client3/rdock/2013.1/src/exe/rbdock.cxx#4 $)

>  <Rbt.Library>
libRbt.so (2013.1, Build901 2013/11/27)

>  <Rbt.Parameter_File>
/export/apps/rDock/src/rDock_2013.1_src/data/scripts/dock_solv.prm

>  <Rbt.Receptor>
prm/pocket_docking_6.prm

>  <SCORE>
-47.654

>  <SCORE.INTER>
-26.8099

>  <SCORE.INTER.CONST>
1

>  <SCORE.INTER.POLAR>
-4.70728

>  <SCORE.INTER.ROT>
9

>  <SCORE.INTER.SOLV>
24.3632

>  <SCORE.INTER.VDW>
-19.9034

>  <SCORE.INTER.norm>
-0.638331

>  <SCORE.INTRA>
-20.8441

>  <SCORE.INTRA.DIHEDRAL>
-26.453

>  <SCORE.INTRA.DIHEDRAL.0>
40.8761

>  <SCORE.INTRA.POLAR>
0.0268208

>  <SCORE.INTRA.POLAR.0>
-0.0268208

>  <SCORE.INTRA.REPUL>
-0.641615

>  <SCORE.INTRA.REPUL.0>
0.641615

>  <SCORE.INTRA.SOLV>
-8.30285

>  <SCORE.INTRA.SOLV.lig_0>
-162.567

>  <SCORE.INTRA.VDW>
-0.349267

>  <SCORE.INTRA.VDW.0>
-4.80338

>  <SCORE.INTRA.norm>
-0.496287

>  <SCORE.RESTR>
0

>  <SCORE.RESTR.CAVITY>
0

>  <SCORE.RESTR.norm>
0

>  <SCORE.SYSTEM>
0

>  <SCORE.SYSTEM.CONST>
0

>  <SCORE.SYSTEM.DIHEDRAL>
0

>  <SCORE.SYSTEM.SOLV>
0

>  <SCORE.SYSTEM.norm>
0

>  <SCORE.heavy>
42

>  <SCORE.norm>
-1.13462

>  <RMSD>
4.150

$$$$

 OpenBabel11021811393D
libRbt.so/2013.1/901 2013/11/27
 42 45  0  0  0  0  0  0  0  0999 V2000
  -10.0318    6.8838   -0.8629 C   0  0  2  0  0  0  0  0  0  0  0  0
   -9.7217    5.6996   -0.0660 O   0  0  0  0  0  0  0  0  0  0  0  0
  -10.0647    8.1766    0.0155 C   0  0  2  0  0  0  0  0  0  0  0  0
   -9.4388    7.9543    1.3392 N   0  3  0  0  0  0  0  0  0  0  0  0
  -11.5261    8.6921    0.1814 C   0  0  1  0  0  0  0  0  0  0  0  0
  -11.5421    9.8765    0.9754 O   0  0  0  0  0  0  0  0  0  0  0  0
  -12.1844    9.0088   -1.1882 C   0  0  2  0  0  0  0  0  0  0  0  0
  -13.5825    9.1899   -0.9921 O   0  0  0  0  0  0  0  0  0  0  0  0
  -11.9322    7.8602   -2.2180 C   0  0  2  0  0  0  0  0  0  0  0  0
  -11.3185    6.7104   -1.5498 O   0  0  0  0  0  0  0  0  0  0  0  0
  -10.9935    8.2405   -3.3860 C   0  0  0  0  0  0  0  0  0  0  0  0
   -9.4571    1.4047   -0.3885 C   0  0  1  0  0  0  0  0  0  0  0  0
   -9.3360    0.0297   -0.9222 N   0  3  0  0  0  0  0  0  0  0  0  0
   -8.1324    2.1959   -0.5478 C   0  0  1  0  0  0  0  0  0  0  0  0
   -8.2444    3.7056   -0.1374 C   0  0  1  0  0  0  0  0  0  0  0  0
   -7.0659    4.3982   -0.6298 O   0  0  0  0  0  0  0  0  0  0  0  0
   -9.5053    4.4241   -0.7441 C   0  0  1  0  0  0  0  0  0  0  0  0
  -10.8028    3.5684   -0.5800 C   0  0  1  0  0  0  0  0  0  0  0  0
  -11.9566    4.1711   -1.2782 N   0  3  0  0  0  0  0  0  0  0  0  0
  -10.6127    2.1292   -1.1097 C   0  0  0  0  0  0  0  0  0  0  0  0
   -7.0794    4.9783   -1.9662 C   0  0  1  0  0  0  0  0  0  0  0  0
   -5.6607    4.9489   -2.5224 C   0  0  1  0  0  0  0  0  0  0  0  0
   -5.5858    3.4999   -2.9841 C   0  0  1  0  0  0  0  0  0  0  0  0
   -6.9768    3.2989   -3.6021 C   0  0  2  0  0  0  0  0  0  0  0  0
   -7.8641    4.1600   -2.8492 O   0  0  0  0  0  0  0  0  0  0  0  0
   -7.4639    1.8407   -3.5273 C   0  0  0  0  0  0  0  0  0  0  0  0
   -1.6230    1.1361   -2.6909 C   0  0  1  0  0  0  0  0  0  0  0  0
   -1.9187    1.4525   -4.1835 C   0  0  1  0  0  0  0  0  0  0  0  0
   -2.1118    2.9666   -4.4857 C   0  0  2  0  0  0  0  0  0  0  0  0
   -3.1685    3.6034   -3.5267 C   0  0  1  0  0  0  0  0  0  0  0  0
   -4.5248    3.3041   -3.9628 O   0  0  0  0  0  0  0  0  0  0  0  0
   -1.7381    2.4226   -1.8180 C   0  0  1  0  0  0  0  0  0  0  0  0
   -2.9848    3.1225   -2.1379 O   0  0  0  0  0  0  0  0  0  0  0  0
   -1.7010    2.1133   -0.2991 C   0  0  0  0  0  0  0  0  0  0  0  0
  -10.8271    7.1864   -4.4021 N   0  3  0  0  0  0  0  0  0  0  0  0
   -5.5538    5.8545   -3.6211 O   0  0  0  0  0  0  0  0  0  0  0  0
   -0.8314    0.9668   -4.9699 O   0  0  0  0  0  0  0  0  0  0  0  0
   -2.5584    0.1522   -2.2437 O   0  0  0  0  0  0  0  0  0  0  0  0
   -8.5630    1.6298   -4.3970 O   0  0  0  0  0  0  0  0  0  0  0  0
   -7.1295    1.5784    0.2586 O   0  0  0  0  0  0  0  0  0  0  0  0
   -0.3777    2.3572    0.3037 N   0  3  0  0  0  0  0  0  0  0  0  0
   -2.4273    3.1975   -5.9172 N   0  3  0  0  0  0  0  0  0  0  0  0
  1  2  1  1  0  0  0
  1  3  1  0  0  0  0
  1 10  1  0  0  0  0
  3  4  1  1  0  0  0
  3  5  1  0  0  0  0
  5  6  1  1  0  0  0
  5  7  1  0  0  0  0
  7  8  1  1  0  0  0
  7  9  1  0  0  0  0
  9 10  1  0  0  0  0
  9 11  1  6  0  0  0
 11 35  1  0  0  0  0
 12 13  1  6  0  0  0
 12 14  1  0  0  0  0
 12 20  1  0  0  0  0
 14 15  1  0  0  0  0
 14 40  1  1  0  0  0
 15 16  1  6  0  0  0
 15 17  1  0  0  0  0
 17  2  1  1  0  0  0
 17 18  1  0  0  0  0
 18 19  1  6  0  0  0
 18 20  1  0  0  0  0
 21 16  1  1  0  0  0
 21 22  1  0  0  0  0
 21 25  1  0  0  0  0
 22 23  1  0  0  0  0
 22 36  1  6  0  0  0
 23 24  1  0  0  0  0
 23 31  1  6  0  0  0
 24 25  1  0  0  0  0
 24 26  1  1  0  0  0
 26 39  1  0  0  0  0
 27 28  1  0  0  0  0
 27 32  1  0  0  0  0
 27 38  1  1  0  0  0
 28 29  1  0  0  0  0
 28 37  1  6  0  0  0
 29 30  1  0  0  0  0
 29 42  1  6  0  0  0
 30 31  1  6  0  0  0
 30 33  1  0  0  0  0
 32 33  1  0  0  0  0
 32 34  1  1  0  0  0
 34 41  1  0  0  0  0
M  CHG  6   4   1  13   1  19   1  35   1  41   1  42   1
M  END
>  <CHROM.1>
-173.37475320,135.49162001,49.93542920,-179.40830373,-171.46199647,-176.18799502
156.26927147,78.57702494,60.11862912,89.29930219,-149.75981292,-40.49326305
-60.15501181,60.74850278,-164.75184183,-54.72315840,155.24591957,-60.93687638
169.80248114,163.14097395,100.18300680,65.63369803,-7.28746155,4.27848070
-1.90704624,-2.65820518,-0.32400297,2.96168374

>  <Name>


>  <RI>
0

>  <Rbt.Current_Directory>
/home/itssahil/PROJECTS/Mol_Feturizer/New_Systems/rnas/1ei2

>  <Rbt.Executable>
rbdock ($Id: //depot/dev/client3/rdock/2013.1/src/exe/rbdock.cxx#4 $)

>  <Rbt.Library>
libRbt.so (2013.1, Build901 2013/11/27)

>  <Rbt.Parameter_File>
/export/apps/rDock/src/rDock_2013.1_src/data/scripts/dock_solv.prm

>  <Rbt.Receptor>
prm/pocket_docking_5.prm

>  <SCORE>
-51.6586

>  <SCORE.INTER>
-33.642

>  <SCORE.INTER.CONST>
1

>  <SCORE.INTER.POLAR>
-5.72632

>  <SCORE.INTER.ROT>
9

>  <SCORE.INTER.SOLV>
28.7361

>  <SCORE.INTER.VDW>
-22.519

>  <SCORE.INTER.norm>
-0.801

>  <SCORE.INTRA>
-18.1065

>  <SCORE.INTRA.DIHEDRAL>
-13.9634

>  <SCORE.INTRA.DIHEDRAL.0>
40.8761

>  <SCORE.INTRA.POLAR>
-1.13985

>  <SCORE.INTRA.POLAR.0>
-0.0268208

>  <SCORE.INTRA.REPUL>
-0.641615

>  <SCORE.INTRA.REPUL.0>
0.641615

>  <SCORE.INTRA.SOLV>
-10.7067

>  <SCORE.INTRA.SOLV.lig_0>
-162.567

>  <SCORE.INTRA.VDW>
1.31215

>  <SCORE.INTRA.VDW.0>
-4.80338

>  <SCORE.INTRA.norm>
-0.431106

>  <SCORE.RESTR>
0.089889

>  <SCORE.RESTR.CAVITY>
0.089889

>  <SCORE.RESTR.norm>
0.00214022

>  <SCORE.SYSTEM>
0

>  <SCORE.SYSTEM.CONST>
0

>  <SCORE.SYSTEM.DIHEDRAL>
0

>  <SCORE.SYSTEM.SOLV>
0

>  <SCORE.SYSTEM.norm>
0

>  <SCORE.heavy>
42

>  <SCORE.norm>
-1.22997

>  <RMSD>
4.284

$$$$

 OpenBabel11021811393D
libRbt.so/2013.1/901 2013/11/27
 42 45  0  0  0  0  0  0  0  0999 V2000
   -6.3726    4.0451   -0.2877 C   0  0  2  0  0  0  0  0  0  0  0  0
   -5.2381    4.1300    0.6285 O   0  0  0  0  0  0  0  0  0  0  0  0
   -6.0787    4.7768   -1.6375 C   0  0  2  0  0  0  0  0  0  0  0  0
   -4.6349    5.0628   -1.8014 N   0  3  0  0  0  0  0  0  0  0  0  0
   -6.9118    6.0896   -1.7446 C   0  0  1  0  0  0  0  0  0  0  0  0
   -6.6431    6.7424   -2.9835 O   0  0  0  0  0  0  0  0  0  0  0  0
   -8.4366    5.8135   -1.6542 C   0  0  2  0  0  0  0  0  0  0  0  0
   -9.1146    7.0507   -1.4662 O   0  0  0  0  0  0  0  0  0  0  0  0
   -8.7677    4.8372   -0.4792 C   0  0  2  0  0  0  0  0  0  0  0  0
   -7.5743    4.6109    0.3392 O   0  0  0  0  0  0  0  0  0  0  0  0
   -9.2644    3.4426   -0.9247 C   0  0  0  0  0  0  0  0  0  0  0  0
   -3.6718    2.5719    4.3351 C   0  0  1  0  0  0  0  0  0  0  0  0
   -3.5163    1.8278    5.6049 N   0  3  0  0  0  0  0  0  0  0  0  0
   -3.6303    1.6216    3.1097 C   0  0  1  0  0  0  0  0  0  0  0  0
   -3.9400    2.3335    1.7468 C   0  0  1  0  0  0  0  0  0  0  0  0
   -4.1912    1.3097    0.7470 O   0  0  0  0  0  0  0  0  0  0  0  0
   -5.2077    3.2628    1.8034 C   0  0  1  0  0  0  0  0  0  0  0  0
   -5.2090    4.1755    3.0723 C   0  0  1  0  0  0  0  0  0  0  0  0
   -6.4664    4.9393    3.2047 N   0  3  0  0  0  0  0  0  0  0  0  0
   -4.9984    3.3591    4.3673 C   0  0  0  0  0  0  0  0  0  0  0  0
   -3.2352    0.2239    0.5745 C   0  0  1  0  0  0  0  0  0  0  0  0
   -3.6769   -0.6282   -0.6094 C   0  0  1  0  0  0  0  0  0  0  0  0
   -3.1536    0.2220   -1.7591 C   0  0  1  0  0  0  0  0  0  0  0  0
   -1.7877    0.6682   -1.2184 C   0  0  2  0  0  0  0  0  0  0  0  0
   -1.9482    0.7544    0.2177 O   0  0  0  0  0  0  0  0  0  0  0  0
   -1.3308    2.0253   -1.7830 C   0  0  0  0  0  0  0  0  0  0  0  0
   -2.0425    0.9778   -6.3639 C   0  0  1  0  0  0  0  0  0  0  0  0
   -2.1493   -0.5439   -6.0669 C   0  0  1  0  0  0  0  0  0  0  0  0
   -3.4882   -0.9680   -5.3973 C   0  0  2  0  0  0  0  0  0  0  0  0
   -3.7886   -0.0977   -4.1347 C   0  0  1  0  0  0  0  0  0  0  0  0
   -3.0236   -0.5558   -2.9839 O   0  0  0  0  0  0  0  0  0  0  0  0
   -3.2654    1.7448   -5.7753 C   0  0  1  0  0  0  0  0  0  0  0  0
   -3.4832    1.3295   -4.3873 O   0  0  0  0  0  0  0  0  0  0  0  0
   -3.0797    3.2833   -5.8251 C   0  0  0  0  0  0  0  0  0  0  0  0
   -9.8922    2.6486    0.1462 N   0  3  0  0  0  0  0  0  0  0  0  0
   -3.0267   -1.8984   -0.5596 O   0  0  0  0  0  0  0  0  0  0  0  0
   -2.0117   -1.2529   -7.2977 O   0  0  0  0  0  0  0  0  0  0  0  0
   -0.8299    1.4669   -5.7863 O   0  0  0  0  0  0  0  0  0  0  0  0
   -0.3367    2.6073   -0.9573 O   0  0  0  0  0  0  0  0  0  0  0  0
   -2.3330    1.0317    3.0305 O   0  0  0  0  0  0  0  0  0  0  0  0
   -3.1253    3.8224   -7.1966 N   0  3  0  0  0  0  0  0  0  0  0  0
   -3.5117   -2.4231   -5.1066 N   0  3  0  0  0  0  0  0  0  0  0  0
  1  2  1  1  0  0  0
  1  3  1  0  0  0  0
  1 10  1  0  0  0  0
  3  4  1  1  0  0  0
  3  5  1  0  0  0  0
  5  6  1  6  0  0  0
  5  7  1  0  0  0  0
  7  8  1  1  0  0  0
  7  9  1  0  0  0  0
  9 10  1  0  0  0  0
  9 11  1  6  0  0  0
 11 35  1  0  0  0  0
 12 13  1  1  0  0  0
 12 14  1  0  0  0  0
 12 20  1  0  0  0  0
 14 15  1  0  0  0  0
 14 40  1  6  0  0  0
 15 16  1  6  0  0  0
 15 17  1  0  0  0  0
 17  2  1  6  0  0  0
 17 18  1  0  0  0  0
 18 19  1  1  0  0  0
 18 20  1  0  0  0  0
 21 16  1  6  0  0  0
 21 22  1  0  0  0  0
 21 25  1  0  0  0  0
 22 23  1  0  0  0  0
 22 36  1  1  0  0  0
 23 24  1  0  0  0  0
 23 31  1  6  0  0  0
 24 25  1  0  0  0  0
 24 26  1  6  0  0  0
 26 39  1  0  0  0  0
 27 28  1  0  0  0  0
 27 32  1  0  0  0  0
 27 38  1  1  0  0  0
 28 29  1  0  0  0  0
 28 37  1  6  0  0  0
 29 30  1  0  0  0  0
 29 42  1  1  0  0  0
 30 31  1  1  0  0  0
 30 33  1  0  0  0  0
 32 33  1  0  0  0  0
 32 34  1  1  0  0  0
 34 41  1  0  0  0  0
M  CHG  6   4   1  13   1  19   1  35   1  41   1  42   1
M  END
>  <CHROM.1>
-166.35296849,119.46538895,-56.50609392,-154.37992328,-169.72225176,-165.34853799
160.89017869,159.86567409,75.11947290,-51.10721486,-175.06548674,-34.86721916
-65.17772326,120.91272485,160.20943302,65.76153053,61.08695160,-36.86029086
-33.43888770,176.51908565,69.67522151,80.50034434,-4.37635443,2.29978516
-1.28511703,2.22310206,-0.78560544,1.58570155

>  <Name>


>  <RI>
0

>  <Rbt.Current_Directory>
/home/itssahil/PROJECTS/Mol_Feturizer/New_Systems/rnas/1ei2

>  <Rbt.Executable>
rbdock ($Id: //depot/dev/client3/rdock/2013.1/src/exe/rbdock.cxx#4 $)

>  <Rbt.Library>
libRbt.so (2013.1, Build901 2013/11/27)

>  <Rbt.Parameter_File>
/export/apps/rDock/src/rDock_2013.1_src/data/scripts/dock_solv.prm

>  <Rbt.Receptor>
prm/pocket_docking_5.prm

>  <SCORE>
-61.0435

>  <SCORE.INTER>
-43.9019

>  <SCORE.INTER.CONST>
1

>  <SCORE.INTER.POLAR>
-7.81433

>  <SCORE.INTER.ROT>
9

>  <SCORE.INTER.SOLV>
35.7015

>  <SCORE.INTER.VDW>
-24.7207

>  <SCORE.INTER.norm>
-1.04528

>  <SCORE.INTRA>
-17.1416

>  <SCORE.INTRA.DIHEDRAL>
-9.51677

>  <SCORE.INTRA.DIHEDRAL.0>
40.8761

>  <SCORE.INTRA.POLAR>
-1.16329

>  <SCORE.INTRA.POLAR.0>
-0.0268208

>  <SCORE.INTRA.REPUL>
-0.590343

>  <SCORE.INTRA.REPUL.0>
0.641615

>  <SCORE.INTRA.SOLV>
-13.0976

>  <SCORE.INTRA.SOLV.lig_0>
-162.567

>  <SCORE.INTRA.VDW>
1.07252

>  <SCORE.INTRA.VDW.0>
-4.80338

>  <SCORE.INTRA.norm>
-0.408133

>  <SCORE.RESTR>
0

>  <SCORE.RESTR.CAVITY>
0

>  <SCORE.RESTR.norm>
0

>  <SCORE.SYSTEM>
0

>  <SCORE.SYSTEM.CONST>
0

>  <SCORE.SYSTEM.DIHEDRAL>
0

>  <SCORE.SYSTEM.SOLV>
0

>  <SCORE.SYSTEM.norm>
0

>  <SCORE.heavy>
42

>  <SCORE.norm>
-1.45342

>  <RMSD>
4.306

$$$$

 OpenBabel11021811393D
libRbt.so/2013.1/901 2013/11/27
 42 45  0  0  0  0  0  0  0  0999 V2000
   -7.0230    4.6262    1.2394 C   0  0  2  0  0  0  0  0  0  0  0  0
   -5.6955    4.5183    1.8392 O   0  0  0  0  0  0  0  0  0  0  0  0
   -7.1145    5.8392    0.2576 C   0  0  2  0  0  0  0  0  0  0  0  0
   -5.7735    6.3590   -0.0957 N   0  3  0  0  0  0  0  0  0  0  0  0
   -7.9978    6.9716    0.8629 C   0  0  1  0  0  0  0  0  0  0  0  0
   -8.0821    8.0677   -0.0454 O   0  0  0  0  0  0  0  0  0  0  0  0
   -9.4363    6.4773    1.1725 C   0  0  2  0  0  0  0  0  0  0  0  0
  -10.0911    7.4518    1.9770 O   0  0  0  0  0  0  0  0  0  0  0  0
   -9.4161    5.0994    1.9103 C   0  0  2  0  0  0  0  0  0  0  0  0
   -8.0446    4.7499    2.2874 O   0  0  0  0  0  0  0  0  0  0  0  0
   -9.9555    3.9161    1.0742 C   0  0  0  0  0  0  0  0  0  0  0  0
   -3.4594    2.2824    4.7752 C   0  0  1  0  0  0  0  0  0  0  0  0
   -3.0419    1.2568    5.7572 N   0  3  0  0  0  0  0  0  0  0  0  0
   -3.4679    1.7172    3.3307 C   0  0  1  0  0  0  0  0  0  0  0  0
   -4.0455    2.7130    2.2655 C   0  0  1  0  0  0  0  0  0  0  0  0
   -4.3020    1.9711    1.0429 O   0  0  0  0  0  0  0  0  0  0  0  0
   -5.3988    3.3819    2.7075 C   0  0  1  0  0  0  0  0  0  0  0  0
   -5.3402    3.9059    4.1788 C   0  0  1  0  0  0  0  0  0  0  0  0
   -6.6525    4.3987    4.6446 N   0  3  0  0  0  0  0  0  0  0  0  0
   -4.8563    2.8136    5.1589 C   0  0  0  0  0  0  0  0  0  0  0  0
   -5.4739    1.1096    0.9577 C   0  0  1  0  0  0  0  0  0  0  0  0
   -6.3628    1.6100   -0.1747 C   0  0  1  0  0  0  0  0  0  0  0  0
   -5.6387    1.0038   -1.3692 C   0  0  1  0  0  0  0  0  0  0  0  0
   -5.2745   -0.3894   -0.8368 C   0  0  2  0  0  0  0  0  0  0  0  0
   -5.0792   -0.2217    0.5878 O   0  0  0  0  0  0  0  0  0  0  0  0
   -4.0018   -0.9667   -1.4819 C   0  0  0  0  0  0  0  0  0  0  0  0
   -6.4635    3.9139   -4.9504 C   0  0  1  0  0  0  0  0  0  0  0  0
   -7.0635    2.5152   -5.2651 C   0  0  1  0  0  0  0  0  0  0  0  0
   -8.0485    1.9882   -4.1819 C   0  0  2  0  0  0  0  0  0  0  0  0
   -7.4071    2.0487   -2.7583 C   0  0  1  0  0  0  0  0  0  0  0  0
   -6.5048    0.9278   -2.5380 O   0  0  0  0  0  0  0  0  0  0  0  0
   -6.8901    4.3934   -3.5298 C   0  0  1  0  0  0  0  0  0  0  0  0
   -6.6676    3.3169   -2.5612 O   0  0  0  0  0  0  0  0  0  0  0  0
   -6.1173    5.6581   -3.0744 C   0  0  0  0  0  0  0  0  0  0  0  0
  -11.0422    4.2720    0.1448 N   0  3  0  0  0  0  0  0  0  0  0  0
   -7.6773    1.0714   -0.0310 O   0  0  0  0  0  0  0  0  0  0  0  0
   -7.7560    2.5928   -6.5104 O   0  0  0  0  0  0  0  0  0  0  0  0
   -5.0394    3.8235   -5.0327 O   0  0  0  0  0  0  0  0  0  0  0  0
   -3.4202   -1.9583   -0.6529 O   0  0  0  0  0  0  0  0  0  0  0  0
   -2.1305    1.3814    2.9616 O   0  0  0  0  0  0  0  0  0  0  0  0
   -6.4451    6.8506   -3.8772 N   0  3  0  0  0  0  0  0  0  0  0  0
   -8.5557    0.6359   -4.5227 N   0  3  0  0  0  0  0  0  0  0  0  0
  1  2  1  1  0  0  0
  1  3  1  0  0  0  0
  1 10  1  0  0  0  0
  3  4  1  1  0  0  0
  3  5  1  0  0  0  0
  5  6  1  6  0  0  0
  5  7  1  0  0  0  0
  7  8  1  1  0  0  0
  7  9  1  0  0  0  0
  9 10  1  0  0  0  0
  9 11  1  6  0  0  0
 11 35  1  0  0  0  0
 12 13  1  1  0  0  0
 12 14  1  0  0  0  0
 12 20  1  0  0  0  0
 14 15  1  0  0  0  0
 14 40  1  6  0  0  0
 15 16  1  6  0  0  0
 15 17  1  0  0  0  0
 17  2  1  6  0  0  0
 17 18  1  0  0  0  0
 18 19  1  1  0  0  0
 18 20  1  0  0  0  0
 21 16  1  6  0  0  0
 21 22  1  0  0  0  0
 21 25  1  0  0  0  0
 22 23  1  0  0  0  0
 22 36  1  1  0  0  0
 23 24  1  0  0  0  0
 23 31  1  6  0  0  0
 24 25  1  0  0  0  0
 24 26  1  6  0  0  0
 26 39  1  0  0  0  0
 27 28  1  0  0  0  0
 27 32  1  0  0  0  0
 27 38  1  1  0  0  0
 28 29  1  0  0  0  0
 28 37  1  6  0  0  0
 29 30  1  0  0  0  0
 29 42  1  6  0  0  0
 30 31  1  6  0  0  0
 30 33  1  0  0  0  0
 32 33  1  0  0  0  0
 32 34  1  1  0  0  0
 34 41  1  0  0  0  0
M  CHG  6   4   1  13   1  19   1  35   1  41   1  42   1
M  END
>  <CHROM.1>
-175.47772883,130.43508939,35.01271734,-177.08215572,-57.76338989,-33.38551041
178.92844048,-126.92642314,49.90810891,76.45872220,119.29529972,-108.69705058
60.22686949,38.74723659,157.71300485,172.40168083,164.03227609,67.36714058
-125.67164416,167.93567806,66.81669235,27.07848897,-6.39210199,3.20447614
-0.07590653,1.01758223,-0.92492504,1.21318848

>  <Name>


>  <RI>
0

>  <Rbt.Current_Directory>
/home/itssahil/PROJECTS/Mol_Feturizer/New_Systems/rnas/1ei2

>  <Rbt.Executable>
rbdock ($Id: //depot/dev/client3/rdock/2013.1/src/exe/rbdock.cxx#4 $)

>  <Rbt.Library>
libRbt.so (2013.1, Build901 2013/11/27)

>  <Rbt.Parameter_File>
/export/apps/rDock/src/rDock_2013.1_src/data/scripts/dock_solv.prm

>  <Rbt.Receptor>
prm/pocket_docking_5.prm

>  <SCORE>
-47.1777

>  <SCORE.INTER>
-38.8182

>  <SCORE.INTER.CONST>
1

>  <SCORE.INTER.POLAR>
-7.38541

>  <SCORE.INTER.ROT>
9

>  <SCORE.INTER.SOLV>
30.2397

>  <SCORE.INTER.VDW>
-20.9407

>  <SCORE.INTER.norm>
-0.924244

>  <SCORE.INTRA>
-8.35944

>  <SCORE.INTRA.DIHEDRAL>
-2.76524

>  <SCORE.INTRA.DIHEDRAL.0>
40.8761

>  <SCORE.INTRA.POLAR>
-0.809424

>  <SCORE.INTRA.POLAR.0>
-0.0268208

>  <SCORE.INTRA.REPUL>
-0.641615

>  <SCORE.INTRA.REPUL.0>
0.641615

>  <SCORE.INTRA.SOLV>
-7.01403

>  <SCORE.INTRA.SOLV.lig_0>
-162.567

>  <SCORE.INTRA.VDW>
2.49031

>  <SCORE.INTRA.VDW.0>
-4.80338

>  <SCORE.INTRA.norm>
-0.199034

>  <SCORE.RESTR>
0

>  <SCORE.RESTR.CAVITY>
0

>  <SCORE.RESTR.norm>
0

>  <SCORE.SYSTEM>
0

>  <SCORE.SYSTEM.CONST>
0

>  <SCORE.SYSTEM.DIHEDRAL>
0

>  <SCORE.SYSTEM.SOLV>
0

>  <SCORE.SYSTEM.norm>
0

>  <SCORE.heavy>
42

>  <SCORE.norm>
-1.12328

>  <RMSD>
4.377

$$$$

 OpenBabel11021811393D
libRbt.so/2013.1/901 2013/11/27
 42 45  0  0  0  0  0  0  0  0999 V2000
   -7.4478    4.2728   -0.3748 C   0  0  2  0  0  0  0  0  0  0  0  0
   -6.4009    3.2542   -0.3834 O   0  0  0  0  0  0  0  0  0  0  0  0
   -8.8716    3.6360   -0.4815 C   0  0  2  0  0  0  0  0  0  0  0  0
   -8.8412    2.1804   -0.2109 N   0  3  0  0  0  0  0  0  0  0  0  0
   -9.4975    3.9192   -1.8804 C   0  0  1  0  0  0  0  0  0  0  0  0
  -10.7992    3.3426   -1.9621 O   0  0  0  0  0  0  0  0  0  0  0  0
   -9.6148    5.4411   -2.1620 C   0  0  2  0  0  0  0  0  0  0  0  0
   -9.9132    5.6290   -3.5409 O   0  0  0  0  0  0  0  0  0  0  0  0
   -8.2932    6.1898   -1.7930 C   0  0  2  0  0  0  0  0  0  0  0  0
   -7.2392    5.2240   -1.4743 O   0  0  0  0  0  0  0  0  0  0  0  0
   -8.4087    7.1310   -0.5719 C   0  0  0  0  0  0  0  0  0  0  0  0
   -3.2374    5.9520    0.7717 C   0  0  1  0  0  0  0  0  0  0  0  0
   -1.9396    6.5015    1.2234 N   0  3  0  0  0  0  0  0  0  0  0  0
   -3.1258    5.3140   -0.6378 C   0  0  1  0  0  0  0  0  0  0  0  0
   -4.4319    4.5826   -1.1059 C   0  0  1  0  0  0  0  0  0  0  0  0
   -4.1051    3.7663   -2.2626 O   0  0  0  0  0  0  0  0  0  0  0  0
   -5.0400    3.6316   -0.0105 C   0  0  1  0  0  0  0  0  0  0  0  0
   -5.1007    4.3175    1.3926 C   0  0  1  0  0  0  0  0  0  0  0  0
   -5.5310    3.3801    2.4499 N   0  3  0  0  0  0  0  0  0  0  0  0
   -3.7349    4.9146    1.7998 C   0  0  0  0  0  0  0  0  0  0  0  0
   -3.6699    4.4090   -3.4956 C   0  0  1  0  0  0  0  0  0  0  0  0
   -2.8576    3.4054   -4.3055 C   0  0  1  0  0  0  0  0  0  0  0  0
   -3.9843    2.6015   -4.9401 C   0  0  1  0  0  0  0  0  0  0  0  0
   -4.9848    3.7064   -5.3079 C   0  0  2  0  0  0  0  0  0  0  0  0
   -4.8094    4.7376   -4.3072 O   0  0  0  0  0  0  0  0  0  0  0  0
   -6.4447    3.2184   -5.3157 C   0  0  0  0  0  0  0  0  0  0  0  0
   -5.1096    0.0022   -9.0700 C   0  0  1  0  0  0  0  0  0  0  0  0
   -3.5851    0.1006   -8.7844 C   0  0  1  0  0  0  0  0  0  0  0  0
   -3.1859   -0.2771   -7.3287 C   0  0  2  0  0  0  0  0  0  0  0  0
   -4.0344    0.5194   -6.2859 C   0  0  1  0  0  0  0  0  0  0  0  0
   -3.5258    1.8727   -6.1151 O   0  0  0  0  0  0  0  0  0  0  0  0
   -5.8990   -0.3164   -7.7640 C   0  0  1  0  0  0  0  0  0  0  0  0
   -5.4573    0.5802   -6.6927 O   0  0  0  0  0  0  0  0  0  0  0  0
   -7.4319   -0.1751   -7.9488 C   0  0  0  0  0  0  0  0  0  0  0  0
   -9.2014    8.3492   -0.8142 N   0  3  0  0  0  0  0  0  0  0  0  0
   -2.0853    4.0921   -5.2907 O   0  0  0  0  0  0  0  0  0  0  0  0
   -2.9020   -0.7714   -9.6841 O   0  0  0  0  0  0  0  0  0  0  0  0
   -5.5477    1.2471   -9.6190 O   0  0  0  0  0  0  0  0  0  0  0  0
   -6.7986    2.7034   -6.5878 O   0  0  0  0  0  0  0  0  0  0  0  0
   -2.8148    6.3385   -1.5817 O   0  0  0  0  0  0  0  0  0  0  0  0
   -7.9694   -1.0726   -8.9879 N   0  3  0  0  0  0  0  0  0  0  0  0
   -1.7256   -0.1269   -7.1110 N   0  3  0  0  0  0  0  0  0  0  0  0
  1  2  1  6  0  0  0
  1  3  1  0  0  0  0
  1 10  1  0  0  0  0
  3  4  1  6  0  0  0
  3  5  1  0  0  0  0
  5  6  1  1  0  0  0
  5  7  1  0  0  0  0
  7  8  1  6  0  0  0
  7  9  1  0  0  0  0
  9 10  1  0  0  0  0
  9 11  1  1  0  0  0
 11 35  1  0  0  0  0
 12 13  1  1  0  0  0
 12 14  1  0  0  0  0
 12 20  1  0  0  0  0
 14 15  1  0  0  0  0
 14 40  1  6  0  0  0
 15 16  1  6  0  0  0
 15 17  1  0  0  0  0
 17  2  1  6  0  0  0
 17 18  1  0  0  0  0
 18 19  1  1  0  0  0
 18 20  1  0  0  0  0
 21 16  1  1  0  0  0
 21 22  1  0  0  0  0
 21 25  1  0  0  0  0
 22 23  1  0  0  0  0
 22 36  1  6  0  0  0
 23 24  1  0  0  0  0
 23 31  1  6  0  0  0
 24 25  1  0  0  0  0
 24 26  1  1  0  0  0
 26 39  1  0  0  0  0
 27 28  1  0  0  0  0
 27 32  1  0  0  0  0
 27 38  1  1  0  0  0
 28 29  1  0  0  0  0
 28 37  1  6  0  0  0
 29 30  1  0  0  0  0
 29 42  1  1  0  0  0
 30 31  1  6  0  0  0
 30 33  1  0  0  0  0
 32 33  1  0  0  0  0
 32 34  1  6  0  0  0
 34 41  1  0  0  0  0
M  CHG  6   4   1  13   1  19   1  35   1  41   1  42   1
M  END
>  <CHROM.1>
-167.16089397,-68.22473268,83.41217324,178.14761029,174.65006138,-71.03249169
77.90428951,61.22040076,62.44977533,-64.49738902,156.41889429,73.38735571
55.41309877,139.64157625,-88.44852432,-53.02382448,66.73167421,-171.59756721
-71.51125373,-164.25342801,59.65793276,48.46873276,-5.62023533,3.27907690
-3.57181890,1.75222456,-0.03850842,1.02558071

>  <Name>


>  <RI>
0

>  <Rbt.Current_Directory>
/home/itssahil/PROJECTS/Mol_Feturizer/New_Systems/rnas/1ei2

>  <Rbt.Executable>
rbdock ($Id: //depot/dev/client3/rdock/2013.1/src/exe/rbdock.cxx#4 $)

>  <Rbt.Library>
libRbt.so (2013.1, Build901 2013/11/27)

>  <Rbt.Parameter_File>
/export/apps/rDock/src/rDock_2013.1_src/data/scripts/dock_solv.prm

>  <Rbt.Receptor>
prm/pocket_docking_5.prm

>  <SCORE>
-58.3425

>  <SCORE.INTER>
-38.6181

>  <SCORE.INTER.CONST>
1

>  <SCORE.INTER.POLAR>
-6.61311

>  <SCORE.INTER.ROT>
9

>  <SCORE.INTER.SOLV>
20.1628

>  <SCORE.INTER.VDW>
-20.0226

>  <SCORE.INTER.norm>
-0.919478

>  <SCORE.INTRA>
-20.3585

>  <SCORE.INTRA.DIHEDRAL>
-22.8941

>  <SCORE.INTRA.DIHEDRAL.0>
40.8761

>  <SCORE.INTRA.POLAR>
-0.184493

>  <SCORE.INTRA.POLAR.0>
-0.0268208

>  <SCORE.INTRA.REPUL>
-0.479385

>  <SCORE.INTRA.REPUL.0>
0.641615

>  <SCORE.INTRA.SOLV>
-11.6141

>  <SCORE.INTRA.SOLV.lig_0>
-162.567

>  <SCORE.INTRA.VDW>
-0.0801749

>  <SCORE.INTRA.VDW.0>
-4.80338

>  <SCORE.INTRA.norm>
-0.484725

>  <SCORE.RESTR>
0.634077

>  <SCORE.RESTR.CAVITY>
0.634077

>  <SCORE.RESTR.norm>
0.0150971

>  <SCORE.SYSTEM>
0

>  <SCORE.SYSTEM.CONST>
0

>  <SCORE.SYSTEM.DIHEDRAL>
0

>  <SCORE.SYSTEM.SOLV>
0

>  <SCORE.SYSTEM.norm>
0

>  <SCORE.heavy>
42

>  <SCORE.norm>
-1.38911

>  <RMSD>
4.379

$$$$

 OpenBabel11021811393D
libRbt.so/2013.1/901 2013/11/27
 42 45  0  0  0  0  0  0  0  0999 V2000
   -8.4691    4.9043    0.5056 C   0  0  2  0  0  0  0  0  0  0  0  0
   -8.0318    4.3273    1.7743 O   0  0  0  0  0  0  0  0  0  0  0  0
  -10.0282    4.9489    0.4003 C   0  0  2  0  0  0  0  0  0  0  0  0
  -10.6715    4.7361    1.7171 N   0  3  0  0  0  0  0  0  0  0  0  0
  -10.5401    3.9015   -0.6340 C   0  0  1  0  0  0  0  0  0  0  0  0
  -11.9618    3.9587   -0.7287 O   0  0  0  0  0  0  0  0  0  0  0  0
   -9.9426    4.1458   -2.0456 C   0  0  2  0  0  0  0  0  0  0  0  0
  -10.2103    3.0085   -2.8583 O   0  0  0  0  0  0  0  0  0  0  0  0
   -8.4022    4.4018   -1.9731 C   0  0  2  0  0  0  0  0  0  0  0  0
   -7.9114    4.1404   -0.6181 O   0  0  0  0  0  0  0  0  0  0  0  0
   -7.9747    5.8458   -2.3229 C   0  0  0  0  0  0  0  0  0  0  0  0
   -4.1501    6.1920    2.0487 C   0  0  1  0  0  0  0  0  0  0  0  0
   -2.9333    6.8599    2.5620 N   0  3  0  0  0  0  0  0  0  0  0  0
   -4.2567    4.7316    2.5606 C   0  0  1  0  0  0  0  0  0  0  0  0
   -5.6004    4.0219    2.1722 C   0  0  1  0  0  0  0  0  0  0  0  0
   -5.7200    2.8110    2.9662 O   0  0  0  0  0  0  0  0  0  0  0  0
   -6.8735    4.9017    2.4538 C   0  0  1  0  0  0  0  0  0  0  0  0
   -6.6970    6.3682    1.9426 C   0  0  1  0  0  0  0  0  0  0  0  0
   -7.8277    7.2328    2.3372 N   0  3  0  0  0  0  0  0  0  0  0  0
   -5.3915    7.0066    2.4681 C   0  0  0  0  0  0  0  0  0  0  0  0
   -5.9318    1.5329    2.2997 C   0  0  1  0  0  0  0  0  0  0  0  0
   -6.3176    1.7997    0.8496 C   0  0  1  0  0  0  0  0  0  0  0  0
   -4.9416    2.0593    0.2515 C   0  0  1  0  0  0  0  0  0  0  0  0
   -4.0931    0.9859    0.9480 C   0  0  2  0  0  0  0  0  0  0  0  0
   -4.6996    0.7952    2.2486 O   0  0  0  0  0  0  0  0  0  0  0  0
   -2.6173    1.3938    1.1061 C   0  0  0  0  0  0  0  0  0  0  0  0
   -3.3408    3.5996   -4.2356 C   0  0  1  0  0  0  0  0  0  0  0  0
   -4.3607    2.4286   -4.2998 C   0  0  1  0  0  0  0  0  0  0  0  0
   -5.6490    2.6615   -3.4589 C   0  0  2  0  0  0  0  0  0  0  0  0
   -5.2993    3.0598   -1.9889 C   0  0  1  0  0  0  0  0  0  0  0  0
   -4.9465    1.8914   -1.1954 O   0  0  0  0  0  0  0  0  0  0  0  0
   -3.8003    4.6794   -3.2094 C   0  0  1  0  0  0  0  0  0  0  0  0
   -4.1815    4.0307   -1.9522 O   0  0  0  0  0  0  0  0  0  0  0  0
   -2.6998    5.7344   -2.9267 C   0  0  0  0  0  0  0  0  0  0  0  0
   -7.5609    6.0362   -3.7242 N   0  3  0  0  0  0  0  0  0  0  0  0
   -6.9209    0.6339    0.2879 O   0  0  0  0  0  0  0  0  0  0  0  0
   -4.7362    2.2338   -5.6627 O   0  0  0  0  0  0  0  0  0  0  0  0
   -2.0683    3.0701   -3.8569 O   0  0  0  0  0  0  0  0  0  0  0  0
   -1.7689    0.5054    0.3993 O   0  0  0  0  0  0  0  0  0  0  0  0
   -3.1713    3.9766    2.0226 O   0  0  0  0  0  0  0  0  0  0  0  0
   -2.8873    6.4279   -1.6391 N   0  3  0  0  0  0  0  0  0  0  0  0
   -6.5624    1.4943   -3.5324 N   0  3  0  0  0  0  0  0  0  0  0  0
  1  2  1  1  0  0  0
  1  3  1  0  0  0  0
  1 10  1  0  0  0  0
  3  4  1  1  0  0  0
  3  5  1  0  0  0  0
  5  6  1  6  0  0  0
  5  7  1  0  0  0  0
  7  8  1  6  0  0  0
  7  9  1  0  0  0  0
  9 10  1  0  0  0  0
  9 11  1  1  0  0  0
 11 35  1  0  0  0  0
 12 13  1  1  0  0  0
 12 14  1  0  0  0  0
 12 20  1  0  0  0  0
 14 15  1  0  0  0  0
 14 40  1  6  0  0  0
 15 16  1  1  0  0  0
 15 17  1  0  0  0  0
 17  2  1  6  0  0  0
 17 18  1  0  0  0  0
 18 19  1  1  0  0  0
 18 20  1  0  0  0  0
 21 16  1  1  0  0  0
 21 22  1  0  0  0  0
 21 25  1  0  0  0  0
 22 23  1  0  0  0  0
 22 36  1  6  0  0  0
 23 24  1  0  0  0  0
 23 31  1  6  0  0  0
 24 25  1  0  0  0  0
 24 26  1  1  0  0  0
 26 39  1  0  0  0  0
 27 28  1  0  0  0  0
 27 32  1  0  0  0  0
 27 38  1  1  0  0  0
 28 29  1  0  0  0  0
 28 37  1  6  0  0  0
 29 30  1  0  0  0  0
 29 42  1  1  0  0  0
 30 31  1  1  0  0  0
 30 33  1  0  0  0  0
 32 33  1  0  0  0  0
 32 34  1  1  0  0  0
 34 41  1  0  0  0  0
M  CHG  6   4   1  13   1  19   1  35   1  41   1  42   1
M  END
>  <CHROM.1>
-141.06287247,-100.02351830,88.24052147,-175.87876610,178.74351177,-95.69636756
-168.35935379,-55.33522422,97.99206848,-125.56704238,-13.45159884,69.47005864
67.96375100,87.69399279,-117.97526596,76.30423495,52.58273359,62.13610754
-142.16492501,-164.35200559,-158.02510475,27.23625084,-6.00042331,3.78628111
-0.41739595,-2.74299344,0.20134924,-1.79914378

>  <Name>


>  <RI>
0

>  <Rbt.Current_Directory>
/home/itssahil/PROJECTS/Mol_Feturizer/New_Systems/rnas/1ei2

>  <Rbt.Executable>
rbdock ($Id: //depot/dev/client3/rdock/2013.1/src/exe/rbdock.cxx#4 $)

>  <Rbt.Library>
libRbt.so (2013.1, Build901 2013/11/27)

>  <Rbt.Parameter_File>
/export/apps/rDock/src/rDock_2013.1_src/data/scripts/dock_solv.prm

>  <Rbt.Receptor>
prm/pocket_docking_2.prm

>  <SCORE>
-16.0306

>  <SCORE.INTER>
-22.6574

>  <SCORE.INTER.CONST>
1

>  <SCORE.INTER.POLAR>
-3.79399

>  <SCORE.INTER.ROT>
9

>  <SCORE.INTER.SOLV>
21.8183

>  <SCORE.INTER.VDW>
-19.3311

>  <SCORE.INTER.norm>
-0.539462

>  <SCORE.INTRA>
-0.757026

>  <SCORE.INTRA.DIHEDRAL>
12.0772

>  <SCORE.INTRA.DIHEDRAL.0>
40.8761

>  <SCORE.INTRA.POLAR>
-0.657747

>  <SCORE.INTRA.POLAR.0>
-0.0268208

>  <SCORE.INTRA.REPUL>
-0.44953

>  <SCORE.INTRA.REPUL.0>
0.641615

>  <SCORE.INTRA.SOLV>
-5.32006

>  <SCORE.INTRA.SOLV.lig_0>
-162.567

>  <SCORE.INTRA.VDW>
0.348378

>  <SCORE.INTRA.VDW.0>
-4.80338

>  <SCORE.INTRA.norm>
-0.0180244

>  <SCORE.RESTR>
7.38388

>  <SCORE.RESTR.CAVITY>
7.38388

>  <SCORE.RESTR.norm>
0.175807

>  <SCORE.SYSTEM>
0

>  <SCORE.SYSTEM.CONST>
0

>  <SCORE.SYSTEM.DIHEDRAL>
0

>  <SCORE.SYSTEM.SOLV>
0

>  <SCORE.SYSTEM.norm>
0

>  <SCORE.heavy>
42

>  <SCORE.norm>
-0.38168

>  <RMSD>
4.399

$$$$

 OpenBabel11021811393D
libRbt.so/2013.1/901 2013/11/27
 42 45  0  0  0  0  0  0  0  0999 V2000
   -4.5597    3.8417    2.6210 C   0  0  2  0  0  0  0  0  0  0  0  0
   -4.6612    5.1641    2.0089 O   0  0  0  0  0  0  0  0  0  0  0  0
   -3.2963    3.0702    2.1185 C   0  0  2  0  0  0  0  0  0  0  0  0
   -2.3388    3.9726    1.4388 N   0  3  0  0  0  0  0  0  0  0  0  0
   -3.7059    1.8981    1.1764 C   0  0  1  0  0  0  0  0  0  0  0  0
   -2.5467    1.1960    0.7330 O   0  0  0  0  0  0  0  0  0  0  0  0
   -4.6498    0.8909    1.8864 C   0  0  2  0  0  0  0  0  0  0  0  0
   -5.2111    0.0230    0.9080 O   0  0  0  0  0  0  0  0  0  0  0  0
   -5.7876    1.6301    2.6627 C   0  0  2  0  0  0  0  0  0  0  0  0
   -5.7706    3.0590    2.3413 O   0  0  0  0  0  0  0  0  0  0  0  0
   -5.6863    1.5260    4.2019 C   0  0  0  0  0  0  0  0  0  0  0  0
   -8.7104    4.6867    0.5961 C   0  0  1  0  0  0  0  0  0  0  0  0
  -10.0117    4.9074   -0.0735 N   0  3  0  0  0  0  0  0  0  0  0  0
   -7.5801    4.4170   -0.4315 C   0  0  1  0  0  0  0  0  0  0  0  0
   -6.1517    4.3246    0.2096 C   0  0  1  0  0  0  0  0  0  0  0  0
   -5.1694    4.3991   -0.8584 O   0  0  0  0  0  0  0  0  0  0  0  0
   -5.8451    5.4917    1.2186 C   0  0  1  0  0  0  0  0  0  0  0  0
   -7.0293    5.7362    2.2089 C   0  0  1  0  0  0  0  0  0  0  0  0
   -6.8064    6.9247    3.0572 N   0  3  0  0  0  0  0  0  0  0  0  0
   -8.3722    5.9155    1.4656 C   0  0  0  0  0  0  0  0  0  0  0  0
   -4.8771    5.6853   -1.4774 C   0  0  1  0  0  0  0  0  0  0  0  0
   -3.5526    5.5752   -2.2232 C   0  0  1  0  0  0  0  0  0  0  0  0
   -4.0223    4.8925   -3.5006 C   0  0  1  0  0  0  0  0  0  0  0  0
   -5.3427    5.6257   -3.7767 C   0  0  2  0  0  0  0  0  0  0  0  0
   -5.8659    5.9860   -2.4758 O   0  0  0  0  0  0  0  0  0  0  0  0
   -6.3638    4.7612   -4.5377 C   0  0  0  0  0  0  0  0  0  0  0  0
   -3.0222    1.3003   -3.8643 C   0  0  1  0  0  0  0  0  0  0  0  0
   -3.5103    1.9546   -5.1868 C   0  0  1  0  0  0  0  0  0  0  0  0
   -2.5045    2.9699   -5.8022 C   0  0  2  0  0  0  0  0  0  0  0  0
   -2.0587    4.0329   -4.7471 C   0  0  1  0  0  0  0  0  0  0  0  0
   -3.0666    5.0708   -4.5854 O   0  0  0  0  0  0  0  0  0  0  0  0
   -1.6821    1.9405   -3.3905 C   0  0  1  0  0  0  0  0  0  0  0  0
   -1.7937    3.4007   -3.4341 O   0  0  0  0  0  0  0  0  0  0  0  0
   -1.2898    1.5007   -1.9565 C   0  0  0  0  0  0  0  0  0  0  0  0
   -4.3154    1.6349    4.7311 N   0  3  0  0  0  0  0  0  0  0  0  0
   -3.0366    6.8802   -2.4865 O   0  0  0  0  0  0  0  0  0  0  0  0
   -3.7509    0.9190   -6.1387 O   0  0  0  0  0  0  0  0  0  0  0  0
   -4.0333    1.4817   -2.8705 O   0  0  0  0  0  0  0  0  0  0  0  0
   -7.5772    5.4669   -4.7335 O   0  0  0  0  0  0  0  0  0  0  0  0
   -7.8565    3.1896   -1.1058 O   0  0  0  0  0  0  0  0  0  0  0  0
   -0.0456    2.1341   -1.4825 N   0  3  0  0  0  0  0  0  0  0  0  0
   -3.0447    3.5854   -7.0397 N   0  3  0  0  0  0  0  0  0  0  0  0
  1  2  1  6  0  0  0
  1  3  1  0  0  0  0
  1 10  1  0  0  0  0
  3  4  1  6  0  0  0
  3  5  1  0  0  0  0
  5  6  1  1  0  0  0
  5  7  1  0  0  0  0
  7  8  1  6  0  0  0
  7  9  1  0  0  0  0
  9 10  1  0  0  0  0
  9 11  1  1  0  0  0
 11 35  1  0  0  0  0
 12 13  1  6  0  0  0
 12 14  1  0  0  0  0
 12 20  1  0  0  0  0
 14 15  1  0  0  0  0
 14 40  1  1  0  0  0
 15 16  1  6  0  0  0
 15 17  1  0  0  0  0
 17  2  1  1  0  0  0
 17 18  1  0  0  0  0
 18 19  1  6  0  0  0
 18 20  1  0  0  0  0
 21 16  1  6  0  0  0
 21 22  1  0  0  0  0
 21 25  1  0  0  0  0
 22 23  1  0  0  0  0
 22 36  1  6  0  0  0
 23 24  1  0  0  0  0
 23 31  1  6  0  0  0
 24 25  1  0  0  0  0
 24 26  1  1  0  0  0
 26 39  1  0  0  0  0
 27 28  1  0  0  0  0
 27 32  1  0  0  0  0
 27 38  1  1  0  0  0
 28 29  1  0  0  0  0
 28 37  1  6  0  0  0
 29 30  1  0  0  0  0
 29 42  1  6  0  0  0
 30 31  1  1  0  0  0
 30 33  1  0  0  0  0
 32 33  1  0  0  0  0
 32 34  1  1  0  0  0
 34 41  1  0  0  0  0
M  CHG  6   4   1  13   1  19   1  35   1  41   1  42   1
M  END
>  <CHROM.1>
120.53429633,-47.64504551,-175.49156857,56.73896101,-56.94248415,39.91114683
-167.57856464,59.63776215,-63.61151462,76.21133102,162.50878206,46.66365414
-179.50940445,92.34368283,178.28352745,175.54751633,-176.87043662,62.40209304
19.29677473,94.78033715,-178.18070460,84.76379656,-4.67106905,3.63655404
-1.02440381,-2.07357278,0.64964648,-1.31005648

>  <Name>


>  <RI>
0

>  <Rbt.Current_Directory>
/home/itssahil/PROJECTS/Mol_Feturizer/New_Systems/rnas/1ei2

>  <Rbt.Executable>
rbdock ($Id: //depot/dev/client3/rdock/2013.1/src/exe/rbdock.cxx#4 $)

>  <Rbt.Library>
libRbt.so (2013.1, Build901 2013/11/27)

>  <Rbt.Parameter_File>
/export/apps/rDock/src/rDock_2013.1_src/data/scripts/dock_solv.prm

>  <Rbt.Receptor>
prm/pocket_docking_2.prm

>  <SCORE>
-45.6903

>  <SCORE.INTER>
-37.8385

>  <SCORE.INTER.CONST>
1

>  <SCORE.INTER.POLAR>
-5.08048

>  <SCORE.INTER.ROT>
9

>  <SCORE.INTER.SOLV>
27.7071

>  <SCORE.INTER.VDW>
-27.1265

>  <SCORE.INTER.norm>
-0.900918

>  <SCORE.INTRA>
-10.6278

>  <SCORE.INTRA.DIHEDRAL>
-14.5593

>  <SCORE.INTRA.DIHEDRAL.0>
40.8761

>  <SCORE.INTRA.POLAR>
0.0268208

>  <SCORE.INTRA.POLAR.0>
-0.0268208

>  <SCORE.INTRA.REPUL>
-0.353845

>  <SCORE.INTRA.REPUL.0>
0.641615

>  <SCORE.INTRA.SOLV>
-5.57387

>  <SCORE.INTRA.SOLV.lig_0>
-162.567

>  <SCORE.INTRA.VDW>
1.11681

>  <SCORE.INTRA.VDW.0>
-4.80338

>  <SCORE.INTRA.norm>
-0.253043

>  <SCORE.RESTR>
2.77603

>  <SCORE.RESTR.CAVITY>
2.77603

>  <SCORE.RESTR.norm>
0.066096

>  <SCORE.SYSTEM>
0

>  <SCORE.SYSTEM.CONST>
0

>  <SCORE.SYSTEM.DIHEDRAL>
0

>  <SCORE.SYSTEM.SOLV>
0

>  <SCORE.SYSTEM.norm>
0

>  <SCORE.heavy>
42

>  <SCORE.norm>
-1.08786

>  <RMSD>
4.433

$$$$

 OpenBabel11021811393D
libRbt.so/2013.1/901 2013/11/27
 42 45  0  0  0  0  0  0  0  0999 V2000
   -7.1489    3.7752   -1.4760 C   0  0  2  0  0  0  0  0  0  0  0  0
   -6.0319    2.8387   -1.5711 O   0  0  0  0  0  0  0  0  0  0  0  0
   -8.2087    3.5230   -2.5972 C   0  0  2  0  0  0  0  0  0  0  0  0
   -8.0133    2.2074   -3.2484 N   0  3  0  0  0  0  0  0  0  0  0  0
   -8.1736    4.6672   -3.6548 C   0  0  1  0  0  0  0  0  0  0  0  0
   -9.1509    4.4316   -4.6662 O   0  0  0  0  0  0  0  0  0  0  0  0
   -8.4527    6.0532   -3.0141 C   0  0  2  0  0  0  0  0  0  0  0  0
   -8.1232    7.0672   -3.9569 O   0  0  0  0  0  0  0  0  0  0  0  0
   -7.6231    6.2499   -1.7039 C   0  0  2  0  0  0  0  0  0  0  0  0
   -6.6592    5.1580   -1.5494 O   0  0  0  0  0  0  0  0  0  0  0  0
   -8.4666    6.2762   -0.4085 C   0  0  0  0  0  0  0  0  0  0  0  0
   -3.9303    4.4103    1.8543 C   0  0  1  0  0  0  0  0  0  0  0  0
   -2.9690    4.5921    2.9648 N   0  3  0  0  0  0  0  0  0  0  0  0
   -3.2480    4.5996    0.4741 C   0  0  1  0  0  0  0  0  0  0  0  0
   -4.1815    4.2719   -0.7429 C   0  0  1  0  0  0  0  0  0  0  0  0
   -3.3554    4.1689   -1.9336 O   0  0  0  0  0  0  0  0  0  0  0  0
   -4.9573    2.9127   -0.5846 C   0  0  1  0  0  0  0  0  0  0  0  0
   -5.5981    2.7656    0.8334 C   0  0  1  0  0  0  0  0  0  0  0  0
   -6.1983    1.4310    1.0349 N   0  3  0  0  0  0  0  0  0  0  0  0
   -4.5666    3.0086    1.9580 C   0  0  0  0  0  0  0  0  0  0  0  0
   -2.1183    3.4008   -1.8856 C   0  0  1  0  0  0  0  0  0  0  0  0
   -2.4567    1.9572   -1.5330 C   0  0  1  0  0  0  0  0  0  0  0  0
   -2.9018    1.4474   -2.8970 C   0  0  1  0  0  0  0  0  0  0  0  0
   -1.8698    2.1036   -3.8253 C   0  0  2  0  0  0  0  0  0  0  0  0
   -1.5170    3.3556   -3.1900 O   0  0  0  0  0  0  0  0  0  0  0  0
   -2.4131    2.3627   -5.2419 C   0  0  0  0  0  0  0  0  0  0  0  0
   -2.4761   -2.3150   -6.0136 C   0  0  1  0  0  0  0  0  0  0  0  0
   -2.5303   -2.7851   -4.5332 C   0  0  1  0  0  0  0  0  0  0  0  0
   -3.7308   -2.2098   -3.7276 C   0  0  2  0  0  0  0  0  0  0  0  0
   -3.8032   -0.6541   -3.8560 C   0  0  1  0  0  0  0  0  0  0  0  0
   -2.8479   -0.0065   -2.9687 O   0  0  0  0  0  0  0  0  0  0  0  0
   -3.5754   -1.2466   -6.2967 C   0  0  1  0  0  0  0  0  0  0  0  0
   -3.5457   -0.2226   -5.2493 O   0  0  0  0  0  0  0  0  0  0  0  0
   -3.3999   -0.5681   -7.6797 C   0  0  0  0  0  0  0  0  0  0  0  0
   -9.5271    5.2549   -0.3510 N   0  3  0  0  0  0  0  0  0  0  0  0
   -1.2827    1.2828   -1.0797 O   0  0  0  0  0  0  0  0  0  0  0  0
   -2.6125   -4.2097   -4.5166 O   0  0  0  0  0  0  0  0  0  0  0  0
   -1.1803   -1.7674   -6.2665 O   0  0  0  0  0  0  0  0  0  0  0  0
   -1.4482    3.0271   -6.0395 O   0  0  0  0  0  0  0  0  0  0  0  0
   -2.8108    5.9536    0.3605 O   0  0  0  0  0  0  0  0  0  0  0  0
   -2.0561    0.0082   -7.8694 N   0  3  0  0  0  0  0  0  0  0  0  0
   -3.7042   -2.6656   -2.3156 N   0  3  0  0  0  0  0  0  0  0  0  0
  1  2  1  6  0  0  0
  1  3  1  0  0  0  0
  1 10  1  0  0  0  0
  3  4  1  6  0  0  0
  3  5  1  0  0  0  0
  5  6  1  6  0  0  0
  5  7  1  0  0  0  0
  7  8  1  6  0  0  0
  7  9  1  0  0  0  0
  9 10  1  0  0  0  0
  9 11  1  1  0  0  0
 11 35  1  0  0  0  0
 12 13  1  1  0  0  0
 12 14  1  0  0  0  0
 12 20  1  0  0  0  0
 14 15  1  0  0  0  0
 14 40  1  6  0  0  0
 15 16  1  6  0  0  0
 15 17  1  0  0  0  0
 17  2  1  6  0  0  0
 17 18  1  0  0  0  0
 18 19  1  1  0  0  0
 18 20  1  0  0  0  0
 21 16  1  6  0  0  0
 21 22  1  0  0  0  0
 21 25  1  0  0  0  0
 22 23  1  0  0  0  0
 22 36  1  6  0  0  0
 23 24  1  0  0  0  0
 23 31  1  1  0  0  0
 24 25  1  0  0  0  0
 24 26  1  6  0  0  0
 26 39  1  0  0  0  0
 27 28  1  0  0  0  0
 27 32  1  0  0  0  0
 27 38  1  1  0  0  0
 28 29  1  0  0  0  0
 28 37  1  6  0  0  0
 29 30  1  0  0  0  0
 29 42  1  1  0  0  0
 30 31  1  1  0  0  0
 30 33  1  0  0  0  0
 32 33  1  0  0  0  0
 32 34  1  6  0  0  0
 34 41  1  0  0  0  0
M  CHG  6   4   1  13   1  19   1  35   1  41   1  42   1
M  END
>  <CHROM.1>
-178.85097217,-65.96544369,-58.45085258,179.50665427,-59.91291958,42.77601314
-161.53229257,60.33789552,-65.94351737,45.93320641,60.52374114,-156.94644049
-166.12091595,150.29028475,177.13319216,166.87203900,69.32654688,67.65732152
-33.24752445,-174.30181399,-54.02196760,101.83405654,-4.48503651,2.26910713
-2.61544119,2.21090550,-0.61698188,1.02626831

>  <Name>


>  <RI>
0

>  <Rbt.Current_Directory>
/home/itssahil/PROJECTS/Mol_Feturizer/New_Systems/rnas/1ei2

>  <Rbt.Executable>
rbdock ($Id: //depot/dev/client3/rdock/2013.1/src/exe/rbdock.cxx#4 $)

>  <Rbt.Library>
libRbt.so (2013.1, Build901 2013/11/27)

>  <Rbt.Parameter_File>
/export/apps/rDock/src/rDock_2013.1_src/data/scripts/dock_solv.prm

>  <Rbt.Receptor>
prm/pocket_docking_6.prm

>  <SCORE>
-48.2606

>  <SCORE.INTER>
-31.028

>  <SCORE.INTER.CONST>
1

>  <SCORE.INTER.POLAR>
-4.72105

>  <SCORE.INTER.ROT>
9

>  <SCORE.INTER.SOLV>
22.4533

>  <SCORE.INTER.VDW>
-22.0329

>  <SCORE.INTER.norm>
-0.738762

>  <SCORE.INTRA>
-17.3423

>  <SCORE.INTRA.DIHEDRAL>
-24.9211

>  <SCORE.INTRA.DIHEDRAL.0>
40.8761

>  <SCORE.INTRA.POLAR>
-0.287807

>  <SCORE.INTRA.POLAR.0>
-0.0268208

>  <SCORE.INTRA.REPUL>
-0.633126

>  <SCORE.INTRA.REPUL.0>
0.641615

>  <SCORE.INTRA.SOLV>
-4.50069

>  <SCORE.INTRA.SOLV.lig_0>
-162.567

>  <SCORE.INTRA.VDW>
1.51281

>  <SCORE.INTRA.VDW.0>
-4.80338

>  <SCORE.INTRA.norm>
-0.412911

>  <SCORE.RESTR>
0.109709

>  <SCORE.RESTR.CAVITY>
0.109709

>  <SCORE.RESTR.norm>
0.00261213

>  <SCORE.SYSTEM>
0

>  <SCORE.SYSTEM.CONST>
0

>  <SCORE.SYSTEM.DIHEDRAL>
0

>  <SCORE.SYSTEM.SOLV>
0

>  <SCORE.SYSTEM.norm>
0

>  <SCORE.heavy>
42

>  <SCORE.norm>
-1.14906

>  <RMSD>
4.522

$$$$

 OpenBabel11021811393D
libRbt.so/2013.1/901 2013/11/27
 42 45  0  0  0  0  0  0  0  0999 V2000
   -6.4099    6.2946    3.8056 C   0  0  2  0  0  0  0  0  0  0  0  0
   -7.0305    4.9886    3.5984 O   0  0  0  0  0  0  0  0  0  0  0  0
   -7.3447    7.2550    4.6105 C   0  0  2  0  0  0  0  0  0  0  0  0
   -8.4526    6.5200    5.2628 N   0  3  0  0  0  0  0  0  0  0  0  0
   -7.9033    8.3801    3.6881 C   0  0  1  0  0  0  0  0  0  0  0  0
   -8.7457    9.2550    4.4352 O   0  0  0  0  0  0  0  0  0  0  0  0
   -6.7648    9.2198    3.0490 C   0  0  2  0  0  0  0  0  0  0  0  0
   -7.3165   10.0231    2.0117 O   0  0  0  0  0  0  0  0  0  0  0  0
   -5.6375    8.3023    2.4740 C   0  0  2  0  0  0  0  0  0  0  0  0
   -6.0594    6.9003    2.5143 O   0  0  0  0  0  0  0  0  0  0  0  0
   -4.2961    8.3782    3.2389 C   0  0  0  0  0  0  0  0  0  0  0  0
   -3.3349    2.8461    2.9884 C   0  0  1  0  0  0  0  0  0  0  0  0
   -2.3445    1.7860    2.6953 N   0  3  0  0  0  0  0  0  0  0  0  0
   -4.1120    3.2671    1.7136 C   0  0  1  0  0  0  0  0  0  0  0  0
   -5.2780    4.2792    1.9893 C   0  0  1  0  0  0  0  0  0  0  0  0
   -6.1164    4.3394    0.8043 O   0  0  0  0  0  0  0  0  0  0  0  0
   -6.1937    3.8604    3.1977 C   0  0  1  0  0  0  0  0  0  0  0  0
   -5.3566    3.4194    4.4418 C   0  0  1  0  0  0  0  0  0  0  0  0
   -6.2097    2.8857    5.5232 N   0  3  0  0  0  0  0  0  0  0  0  0
   -4.3071    2.3456    4.0768 C   0  0  0  0  0  0  0  0  0  0  0  0
   -7.1772    3.3571    0.6240 C   0  0  1  0  0  0  0  0  0  0  0  0
   -7.9398    3.6948   -0.6516 C   0  0  1  0  0  0  0  0  0  0  0  0
   -6.9993    3.0983   -1.6898 C   0  0  1  0  0  0  0  0  0  0  0  0
   -6.5837    1.7842   -1.0133 C   0  0  2  0  0  0  0  0  0  0  0  0
   -6.6094    2.0547    0.4086 O   0  0  0  0  0  0  0  0  0  0  0  0
   -5.1833    1.3057   -1.4365 C   0  0  0  0  0  0  0  0  0  0  0  0
   -6.0891    2.1195   -6.3704 C   0  0  1  0  0  0  0  0  0  0  0  0
   -7.6137    2.1059   -6.0694 C   0  0  1  0  0  0  0  0  0  0  0  0
   -8.1308    3.3857   -5.3511 C   0  0  2  0  0  0  0  0  0  0  0  0
   -7.2807    3.7013   -4.0785 C   0  0  1  0  0  0  0  0  0  0  0  0
   -7.6795    2.8640   -2.9565 O   0  0  0  0  0  0  0  0  0  0  0  0
   -5.4101    3.3720   -5.7375 C   0  0  1  0  0  0  0  0  0  0  0  0
   -5.8360    3.5086   -4.3424 O   0  0  0  0  0  0  0  0  0  0  0  0
   -3.8624    3.2991   -5.7943 C   0  0  0  0  0  0  0  0  0  0  0  0
   -3.1878    7.6474    2.5996 N   0  3  0  0  0  0  0  0  0  0  0  0
   -9.2042    3.0316   -0.6483 O   0  0  0  0  0  0  0  0  0  0  0  0
   -8.3145    1.9629   -7.3042 O   0  0  0  0  0  0  0  0  0  0  0  0
   -5.5127    0.9249   -5.8377 O   0  0  0  0  0  0  0  0  0  0  0  0
   -5.1075    1.1455   -2.8427 O   0  0  0  0  0  0  0  0  0  0  0  0
   -3.1975    3.8656    0.7956 O   0  0  0  0  0  0  0  0  0  0  0  0
   -3.3155    3.7262   -7.0953 N   0  3  0  0  0  0  0  0  0  0  0  0
   -9.5830    3.2941   -5.0594 N   0  3  0  0  0  0  0  0  0  0  0  0
  1  2  1  6  0  0  0
  1  3  1  0  0  0  0
  1 10  1  0  0  0  0
  3  4  1  6  0  0  0
  3  5  1  0  0  0  0
  5  6  1  1  0  0  0
  5  7  1  0  0  0  0
  7  8  1  6  0  0  0
  7  9  1  0  0  0  0
  9 10  1  0  0  0  0
  9 11  1  1  0  0  0
 11 35  1  0  0  0  0
 12 13  1  6  0  0  0
 12 14  1  0  0  0  0
 12 20  1  0  0  0  0
 14 15  1  0  0  0  0
 14 40  1  6  0  0  0
 15 16  1  6  0  0  0
 15 17  1  0  0  0  0
 17  2  1  1  0  0  0
 17 18  1  0  0  0  0
 18 19  1  1  0  0  0
 18 20  1  0  0  0  0
 21 16  1  6  0  0  0
 21 22  1  0  0  0  0
 21 25  1  0  0  0  0
 22 23  1  0  0  0  0
 22 36  1  1  0  0  0
 23 24  1  0  0  0  0
 23 31  1  6  0  0  0
 24 25  1  0  0  0  0
 24 26  1  6  0  0  0
 26 39  1  0  0  0  0
 27 28  1  0  0  0  0
 27 32  1  0  0  0  0
 27 38  1  1  0  0  0
 28 29  1  0  0  0  0
 28 37  1  6  0  0  0
 29 30  1  0  0  0  0
 29 42  1  1  0  0  0
 30 31  1  1  0  0  0
 30 33  1  0  0  0  0
 32 33  1  0  0  0  0
 32 34  1  1  0  0  0
 34 41  1  0  0  0  0
M  CHG  6   4   1  13   1  19   1  35   1  41   1  42   1
M  END
>  <CHROM.1>
-163.55536150,-48.85671050,-148.46246217,-174.95472217,-63.49539550,-172.65765823
-80.85864238,179.39927543,174.36685894,85.16818416,177.03455938,-65.00488785
60.59174384,111.47950933,-57.22522742,58.78980484,-56.18973970,-58.53372910
57.40890456,-177.53187351,82.40271413,-136.76543893,-6.17274774,4.27610031
-0.11546606,1.54711968,-0.91446582,1.13669470

>  <Name>


>  <RI>
0

>  <Rbt.Current_Directory>
/home/itssahil/PROJECTS/Mol_Feturizer/New_Systems/rnas/1ei2

>  <Rbt.Executable>
rbdock ($Id: //depot/dev/client3/rdock/2013.1/src/exe/rbdock.cxx#4 $)

>  <Rbt.Library>
libRbt.so (2013.1, Build901 2013/11/27)

>  <Rbt.Parameter_File>
/export/apps/rDock/src/rDock_2013.1_src/data/scripts/dock_solv.prm

>  <Rbt.Receptor>
prm/pocket_docking_5.prm

>  <SCORE>
-53.9677

>  <SCORE.INTER>
-26.4001

>  <SCORE.INTER.CONST>
1

>  <SCORE.INTER.POLAR>
-5.30374

>  <SCORE.INTER.ROT>
9

>  <SCORE.INTER.SOLV>
28.3849

>  <SCORE.INTER.VDW>
-18.9826

>  <SCORE.INTER.norm>
-0.628574

>  <SCORE.INTRA>
-27.5805

>  <SCORE.INTRA.DIHEDRAL>
-20.523

>  <SCORE.INTRA.DIHEDRAL.0>
40.8761

>  <SCORE.INTRA.POLAR>
-2.25745

>  <SCORE.INTRA.POLAR.0>
-0.0268208

>  <SCORE.INTRA.REPUL>
-0.641615

>  <SCORE.INTRA.REPUL.0>
0.641615

>  <SCORE.INTRA.SOLV>
-11.9665

>  <SCORE.INTRA.SOLV.lig_0>
-162.567

>  <SCORE.INTRA.VDW>
-0.452335

>  <SCORE.INTRA.VDW.0>
-4.80338

>  <SCORE.INTRA.norm>
-0.656678

>  <SCORE.RESTR>
0.0128848

>  <SCORE.RESTR.CAVITY>
0.0128848

>  <SCORE.RESTR.norm>
0.00030678

>  <SCORE.SYSTEM>
0

>  <SCORE.SYSTEM.CONST>
0

>  <SCORE.SYSTEM.DIHEDRAL>
0

>  <SCORE.SYSTEM.SOLV>
0

>  <SCORE.SYSTEM.norm>
0

>  <SCORE.heavy>
42

>  <SCORE.norm>
-1.28495

>  <RMSD>
4.581

$$$$

 OpenBabel11021811393D
libRbt.so/2013.1/901 2013/11/27
 42 45  0  0  0  0  0  0  0  0999 V2000
   -7.3839    7.4207    4.6580 C   0  0  2  0  0  0  0  0  0  0  0  0
   -7.6222    6.1413    3.9946 O   0  0  0  0  0  0  0  0  0  0  0  0
   -8.6786    8.2955    4.7037 C   0  0  2  0  0  0  0  0  0  0  0  0
   -9.8882    7.4985    4.3959 N   0  3  0  0  0  0  0  0  0  0  0  0
   -8.5592    9.5064    3.7299 C   0  0  1  0  0  0  0  0  0  0  0  0
   -9.7412   10.3021    3.7880 O   0  0  0  0  0  0  0  0  0  0  0  0
   -7.3426   10.4063    4.0757 C   0  0  2  0  0  0  0  0  0  0  0  0
   -7.1205   11.3084    2.9975 O   0  0  0  0  0  0  0  0  0  0  0  0
   -6.0593    9.5514    4.3320 C   0  0  2  0  0  0  0  0  0  0  0  0
   -6.3072    8.1521    3.9776 O   0  0  0  0  0  0  0  0  0  0  0  0
   -5.5707    9.5519    5.7988 C   0  0  0  0  0  0  0  0  0  0  0  0
   -4.2831    4.1266    5.8417 C   0  0  1  0  0  0  0  0  0  0  0  0
   -3.3404    3.0867    6.3111 N   0  3  0  0  0  0  0  0  0  0  0  0
   -4.2295    4.2893    4.3000 C   0  0  1  0  0  0  0  0  0  0  0  0
   -5.3127    5.2698    3.7296 C   0  0  1  0  0  0  0  0  0  0  0  0
   -5.3753    5.0888    2.2894 O   0  0  0  0  0  0  0  0  0  0  0  0
   -6.7536    5.0084    4.3038 C   0  0  1  0  0  0  0  0  0  0  0  0
   -6.7412    4.8241    5.8559 C   0  0  1  0  0  0  0  0  0  0  0  0
   -8.0660    4.4319    6.3782 N   0  3  0  0  0  0  0  0  0  0  0  0
   -5.7105    3.7620    6.3001 C   0  0  0  0  0  0  0  0  0  0  0  0
   -4.8173    6.1094    1.4121 C   0  0  1  0  0  0  0  0  0  0  0  0
   -3.9076    5.4306    0.3950 C   0  0  1  0  0  0  0  0  0  0  0  0
   -4.9469    4.9262   -0.5969 C   0  0  1  0  0  0  0  0  0  0  0  0
   -5.9169    6.1147   -0.6611 C   0  0  2  0  0  0  0  0  0  0  0  0
   -5.8660    6.7283    0.6491 O   0  0  0  0  0  0  0  0  0  0  0  0
   -7.3602    5.6965   -0.9948 C   0  0  0  0  0  0  0  0  0  0  0  0
   -2.0479    1.8807   -3.2399 C   0  0  1  0  0  0  0  0  0  0  0  0
   -2.5931    3.0764   -4.0696 C   0  0  1  0  0  0  0  0  0  0  0  0
   -2.3751    4.4648   -3.4017 C   0  0  2  0  0  0  0  0  0  0  0  0
   -2.9072    4.4744   -1.9325 C   0  0  1  0  0  0  0  0  0  0  0  0
   -4.3529    4.6410   -1.8960 O   0  0  0  0  0  0  0  0  0  0  0  0
   -1.5359    2.3596   -1.8475 C   0  0  1  0  0  0  0  0  0  0  0  0
   -2.5416    3.2249   -1.2260 O   0  0  0  0  0  0  0  0  0  0  0  0
   -1.2191    1.1784   -0.8944 C   0  0  0  0  0  0  0  0  0  0  0  0
   -4.1648    9.1461    5.9728 N   0  3  0  0  0  0  0  0  0  0  0  0
   -3.0422    6.3978   -0.2002 O   0  0  0  0  0  0  0  0  0  0  0  0
   -1.9431    3.0757   -5.3399 O   0  0  0  0  0  0  0  0  0  0  0  0
   -3.0999    0.9271   -3.0765 O   0  0  0  0  0  0  0  0  0  0  0  0
   -8.2375    6.8073   -0.9233 O   0  0  0  0  0  0  0  0  0  0  0  0
   -2.9381    4.7756    3.9347 O   0  0  0  0  0  0  0  0  0  0  0  0
   -0.3757    1.5740    0.2485 N   0  3  0  0  0  0  0  0  0  0  0  0
   -2.9499    5.5580   -4.2244 N   0  3  0  0  0  0  0  0  0  0  0  0
  1  2  1  6  0  0  0
  1  3  1  0  0  0  0
  1 10  1  0  0  0  0
  3  4  1  6  0  0  0
  3  5  1  0  0  0  0
  5  6  1  1  0  0  0
  5  7  1  0  0  0  0
  7  8  1  6  0  0  0
  7  9  1  0  0  0  0
  9 10  1  0  0  0  0
  9 11  1  1  0  0  0
 11 35  1  0  0  0  0
 12 13  1  6  0  0  0
 12 14  1  0  0  0  0
 12 20  1  0  0  0  0
 14 15  1  0  0  0  0
 14 40  1  1  0  0  0
 15 16  1  6  0  0  0
 15 17  1  0  0  0  0
 17  2  1  1  0  0  0
 17 18  1  0  0  0  0
 18 19  1  6  0  0  0
 18 20  1  0  0  0  0
 21 16  1  1  0  0  0
 21 22  1  0  0  0  0
 21 25  1  0  0  0  0
 22 23  1  0  0  0  0
 22 36  1  6  0  0  0
 23 24  1  0  0  0  0
 23 31  1  6  0  0  0
 24 25  1  0  0  0  0
 24 26  1  1  0  0  0
 26 39  1  0  0  0  0
 27 28  1  0  0  0  0
 27 32  1  0  0  0  0
 27 38  1  1  0  0  0
 28 29  1  0  0  0  0
 28 37  1  6  0  0  0
 29 30  1  0  0  0  0
 29 42  1  6  0  0  0
 30 31  1  6  0  0  0
 30 33  1  0  0  0  0
 32 33  1  0  0  0  0
 32 34  1  1  0  0  0
 34 41  1  0  0  0  0
M  CHG  6   4   1  13   1  19   1  35   1  41   1  42   1
M  END
>  <CHROM.1>
-155.84737788,-69.06250269,82.46697248,57.69399450,59.53591256,-160.65481224
89.06622182,-98.08046888,-55.70250021,-106.76767493,130.38108153,40.12930176
61.91949385,18.24257611,174.69202383,46.44958982,-66.62317160,175.49078432
-74.61013495,-168.44694434,162.96465284,39.64851229,-5.07790824,5.64559257
1.65393000,2.45308075,-0.90068872,1.74935580

>  <Name>


>  <RI>
0

>  <Rbt.Current_Directory>
/home/itssahil/PROJECTS/Mol_Feturizer/New_Systems/rnas/1ei2

>  <Rbt.Executable>
rbdock ($Id: //depot/dev/client3/rdock/2013.1/src/exe/rbdock.cxx#4 $)

>  <Rbt.Library>
libRbt.so (2013.1, Build901 2013/11/27)

>  <Rbt.Parameter_File>
/export/apps/rDock/src/rDock_2013.1_src/data/scripts/dock_solv.prm

>  <Rbt.Receptor>
prm/pocket_docking_7.prm

>  <SCORE>
-40.6492

>  <SCORE.INTER>
-32.2291

>  <SCORE.INTER.CONST>
1

>  <SCORE.INTER.POLAR>
-5.81929

>  <SCORE.INTER.ROT>
9

>  <SCORE.INTER.SOLV>
29.382

>  <SCORE.INTER.VDW>
-21.4824

>  <SCORE.INTER.norm>
-0.767359

>  <SCORE.INTRA>
-8.42013

>  <SCORE.INTRA.DIHEDRAL>
-6.95206

>  <SCORE.INTRA.DIHEDRAL.0>
40.8761

>  <SCORE.INTRA.POLAR>
-0.121627

>  <SCORE.INTRA.POLAR.0>
-0.0268208

>  <SCORE.INTRA.REPUL>
-0.3093

>  <SCORE.INTRA.REPUL.0>
0.641615

>  <SCORE.INTRA.SOLV>
-13.3325

>  <SCORE.INTRA.SOLV.lig_0>
-162.567

>  <SCORE.INTRA.VDW>
3.68217

>  <SCORE.INTRA.VDW.0>
-4.80338

>  <SCORE.INTRA.norm>
-0.200479

>  <SCORE.RESTR>
0

>  <SCORE.RESTR.CAVITY>
0

>  <SCORE.RESTR.norm>
0

>  <SCORE.SYSTEM>
0

>  <SCORE.SYSTEM.CONST>
0

>  <SCORE.SYSTEM.DIHEDRAL>
0

>  <SCORE.SYSTEM.SOLV>
0

>  <SCORE.SYSTEM.norm>
0

>  <SCORE.heavy>
42

>  <SCORE.norm>
-0.967838

>  <RMSD>
4.592

$$$$

 OpenBabel11021811393D
libRbt.so/2013.1/901 2013/11/27
 42 45  0  0  0  0  0  0  0  0999 V2000
   -7.7076    3.9206   -0.2899 C   0  0  2  0  0  0  0  0  0  0  0  0
   -7.2845    2.8140    0.5644 O   0  0  0  0  0  0  0  0  0  0  0  0
   -9.2582    4.1163   -0.2529 C   0  0  2  0  0  0  0  0  0  0  0  0
   -9.8741    3.3899    0.8812 N   0  3  0  0  0  0  0  0  0  0  0  0
   -9.9013    3.6716   -1.6010 C   0  0  1  0  0  0  0  0  0  0  0  0
  -11.3135    3.8642   -1.5589 O   0  0  0  0  0  0  0  0  0  0  0  0
   -9.3311    4.4712   -2.8031 C   0  0  2  0  0  0  0  0  0  0  0  0
   -9.7324    3.8311   -4.0093 O   0  0  0  0  0  0  0  0  0  0  0  0
   -7.7719    4.5602   -2.7369 C   0  0  2  0  0  0  0  0  0  0  0  0
   -7.2627    3.6940   -1.6712 O   0  0  0  0  0  0  0  0  0  0  0  0
   -7.2218    5.9764   -2.4507 C   0  0  0  0  0  0  0  0  0  0  0  0
   -3.2173    4.1887    0.9979 C   0  0  1  0  0  0  0  0  0  0  0  0
   -1.8275    4.3715    1.4726 N   0  3  0  0  0  0  0  0  0  0  0  0
   -3.4140    2.8005    0.3341 C   0  0  1  0  0  0  0  0  0  0  0  0
   -4.9018    2.4902   -0.0534 C   0  0  1  0  0  0  0  0  0  0  0  0
   -5.0064    1.0724   -0.3530 O   0  0  0  0  0  0  0  0  0  0  0  0
   -5.9249    2.8086    1.0982 C   0  0  1  0  0  0  0  0  0  0  0  0
   -5.6599    4.2054    1.7476 C   0  0  1  0  0  0  0  0  0  0  0  0
   -6.5216    4.4425    2.9237 N   0  3  0  0  0  0  0  0  0  0  0  0
   -4.1866    4.3654    2.1853 C   0  0  0  0  0  0  0  0  0  0  0  0
   -5.9469    0.6204   -1.3699 C   0  0  1  0  0  0  0  0  0  0  0  0
   -5.4217    1.0402   -2.7376 C   0  0  1  0  0  0  0  0  0  0  0  0
   -4.3955   -0.0588   -2.9775 C   0  0  1  0  0  0  0  0  0  0  0  0
   -5.1390   -1.2966   -2.4557 C   0  0  2  0  0  0  0  0  0  0  0  0
   -5.9945   -0.8156   -1.3916 O   0  0  0  0  0  0  0  0  0  0  0  0
   -4.1924   -2.3872   -1.9227 C   0  0  0  0  0  0  0  0  0  0  0  0
   -2.6765   -2.1580   -7.3755 C   0  0  1  0  0  0  0  0  0  0  0  0
   -2.7451   -0.6083   -7.2800 C   0  0  1  0  0  0  0  0  0  0  0  0
   -2.1419   -0.0253   -5.9694 C   0  0  2  0  0  0  0  0  0  0  0  0
   -2.7497   -0.7218   -4.7096 C   0  0  1  0  0  0  0  0  0  0  0  0
   -4.0634   -0.1819   -4.3905 O   0  0  0  0  0  0  0  0  0  0  0  0
   -2.1420   -2.7723   -6.0461 C   0  0  1  0  0  0  0  0  0  0  0  0
   -2.8589   -2.1851   -4.9112 O   0  0  0  0  0  0  0  0  0  0  0  0
   -2.2936   -4.3148   -6.0032 C   0  0  0  0  0  0  0  0  0  0  0  0
   -7.6203    6.9958   -3.4372 N   0  3  0  0  0  0  0  0  0  0  0  0
   -6.4778    0.9887   -3.6972 O   0  0  0  0  0  0  0  0  0  0  0  0
   -2.0378   -0.0577   -8.3904 O   0  0  0  0  0  0  0  0  0  0  0  0
   -3.9885   -2.6520   -7.6539 O   0  0  0  0  0  0  0  0  0  0  0  0
   -3.7560   -3.2344   -2.9717 O   0  0  0  0  0  0  0  0  0  0  0  0
   -2.6140    2.7391   -0.8464 O   0  0  0  0  0  0  0  0  0  0  0  0
   -1.9610   -4.8873   -4.6858 N   0  3  0  0  0  0  0  0  0  0  0  0
   -2.2719    1.4523   -5.9235 N   0  3  0  0  0  0  0  0  0  0  0  0
  1  2  1  1  0  0  0
  1  3  1  0  0  0  0
  1 10  1  0  0  0  0
  3  4  1  1  0  0  0
  3  5  1  0  0  0  0
  5  6  1  1  0  0  0
  5  7  1  0  0  0  0
  7  8  1  6  0  0  0
  7  9  1  0  0  0  0
  9 10  1  0  0  0  0
  9 11  1  1  0  0  0
 11 35  1  0  0  0  0
 12 13  1  1  0  0  0
 12 14  1  0  0  0  0
 12 20  1  0  0  0  0
 14 15  1  0  0  0  0
 14 40  1  6  0  0  0
 15 16  1  1  0  0  0
 15 17  1  0  0  0  0
 17  2  1  6  0  0  0
 17 18  1  0  0  0  0
 18 19  1  1  0  0  0
 18 20  1  0  0  0  0
 21 16  1  1  0  0  0
 21 22  1  0  0  0  0
 21 25  1  0  0  0  0
 22 23  1  0  0  0  0
 22 36  1  6  0  0  0
 23 24  1  0  0  0  0
 23 31  1  6  0  0  0
 24 25  1  0  0  0  0
 24 26  1  1  0  0  0
 26 39  1  0  0  0  0
 27 28  1  0  0  0  0
 27 32  1  0  0  0  0
 27 38  1  1  0  0  0
 28 29  1  0  0  0  0
 28 37  1  6  0  0  0
 29 30  1  0  0  0  0
 29 42  1  1  0  0  0
 30 31  1  6  0  0  0
 30 33  1  0  0  0  0
 32 33  1  0  0  0  0
 32 34  1  6  0  0  0
 34 41  1  0  0  0  0
M  CHG  6   4   1  13   1  19   1  35   1  41   1  42   1
M  END
>  <CHROM.1>
-154.94297172,-72.22382575,-157.40173314,-179.46356487,66.30119296,-58.70328346
52.78633010,179.79162950,179.13796405,-146.87664785,71.21636765,73.63975903
-51.71200839,153.77367230,-86.11929386,-54.69097662,-65.69037348,57.14900068
55.52602033,-143.60330014,-172.29148589,65.27100997,-5.27297313,1.43168993
-2.46926917,2.19072735,-0.57169301,1.08802993

>  <Name>


>  <RI>
0

>  <Rbt.Current_Directory>
/home/itssahil/PROJECTS/Mol_Feturizer/New_Systems/rnas/1ei2

>  <Rbt.Executable>
rbdock ($Id: //depot/dev/client3/rdock/2013.1/src/exe/rbdock.cxx#4 $)

>  <Rbt.Library>
libRbt.so (2013.1, Build901 2013/11/27)

>  <Rbt.Parameter_File>
/export/apps/rDock/src/rDock_2013.1_src/data/scripts/dock_solv.prm

>  <Rbt.Receptor>
prm/pocket_docking_8.prm

>  <SCORE>
-59.2088

>  <SCORE.INTER>
-36.9157

>  <SCORE.INTER.CONST>
1

>  <SCORE.INTER.POLAR>
-5.32317

>  <SCORE.INTER.ROT>
9

>  <SCORE.INTER.SOLV>
29.6125

>  <SCORE.INTER.VDW>
-26.3374

>  <SCORE.INTER.norm>
-0.878944

>  <SCORE.INTRA>
-22.2931

>  <SCORE.INTRA.DIHEDRAL>
-19.1397

>  <SCORE.INTRA.DIHEDRAL.0>
40.8761

>  <SCORE.INTRA.POLAR>
-1.40767

>  <SCORE.INTRA.POLAR.0>
-0.0268208

>  <SCORE.INTRA.REPUL>
-0.62589

>  <SCORE.INTRA.REPUL.0>
0.641615

>  <SCORE.INTRA.SOLV>
-9.65453

>  <SCORE.INTRA.SOLV.lig_0>
-162.567

>  <SCORE.INTRA.VDW>
0.0195065

>  <SCORE.INTRA.VDW.0>
-4.80338

>  <SCORE.INTRA.norm>
-0.530789

>  <SCORE.RESTR>
0

>  <SCORE.RESTR.CAVITY>
0

>  <SCORE.RESTR.norm>
0

>  <SCORE.SYSTEM>
0

>  <SCORE.SYSTEM.CONST>
0

>  <SCORE.SYSTEM.DIHEDRAL>
0

>  <SCORE.SYSTEM.SOLV>
0

>  <SCORE.SYSTEM.norm>
0

>  <SCORE.heavy>
42

>  <SCORE.norm>
-1.40973

>  <RMSD>
4.601

$$$$

 OpenBabel11021811393D
libRbt.so/2013.1/901 2013/11/27
 42 45  0  0  0  0  0  0  0  0999 V2000
   -4.6080    4.4732   -1.2847 C   0  0  2  0  0  0  0  0  0  0  0  0
   -3.6378    4.8684   -0.2668 O   0  0  0  0  0  0  0  0  0  0  0  0
   -4.5189    5.3864   -2.5504 C   0  0  2  0  0  0  0  0  0  0  0  0
   -3.2694    6.1812   -2.5644 N   0  3  0  0  0  0  0  0  0  0  0  0
   -5.7625    6.3212   -2.6432 C   0  0  1  0  0  0  0  0  0  0  0  0
   -5.6749    7.1415   -3.8063 O   0  0  0  0  0  0  0  0  0  0  0  0
   -7.0867    5.5139   -2.7089 C   0  0  2  0  0  0  0  0  0  0  0  0
   -8.1762    6.4054   -2.4997 O   0  0  0  0  0  0  0  0  0  0  0  0
   -7.1115    4.3767   -1.6368 C   0  0  2  0  0  0  0  0  0  0  0  0
   -5.9681    4.5126   -0.7316 O   0  0  0  0  0  0  0  0  0  0  0  0
   -7.0426    2.9457   -2.2178 C   0  0  0  0  0  0  0  0  0  0  0  0
   -2.2577    3.2849    3.5025 C   0  0  1  0  0  0  0  0  0  0  0  0
   -2.2038    2.7965    4.8985 N   0  3  0  0  0  0  0  0  0  0  0  0
   -3.0508    2.3133    2.5898 C   0  0  1  0  0  0  0  0  0  0  0  0
   -3.2698    2.8512    1.1329 C   0  0  1  0  0  0  0  0  0  0  0  0
   -4.2794    2.0263    0.4915 O   0  0  0  0  0  0  0  0  0  0  0  0
   -3.7750    4.3402    1.0880 C   0  0  1  0  0  0  0  0  0  0  0  0
   -2.9585    5.2650    2.0476 C   0  0  1  0  0  0  0  0  0  0  0  0
   -3.5245    6.6275    2.1192 N   0  3  0  0  0  0  0  0  0  0  0  0
   -2.8926    4.6909    3.4807 C   0  0  0  0  0  0  0  0  0  0  0  0
   -3.9451    0.6676    0.0854 C   0  0  1  0  0  0  0  0  0  0  0  0
   -4.4829    0.4354   -1.3216 C   0  0  1  0  0  0  0  0  0  0  0  0
   -3.3916    1.1134   -2.1388 C   0  0  1  0  0  0  0  0  0  0  0  0
   -2.1246    0.6669   -1.3954 C   0  0  2  0  0  0  0  0  0  0  0  0
   -2.5189    0.5201   -0.0102 O   0  0  0  0  0  0  0  0  0  0  0  0
   -0.9697    1.6776   -1.5133 C   0  0  0  0  0  0  0  0  0  0  0  0
   -4.5141    2.5678   -6.6590 C   0  0  1  0  0  0  0  0  0  0  0  0
   -3.8677    1.1545   -6.6527 C   0  0  1  0  0  0  0  0  0  0  0  0
   -4.5448    0.1507   -5.6754 C   0  0  2  0  0  0  0  0  0  0  0  0
   -4.6610    0.7531   -4.2382 C   0  0  1  0  0  0  0  0  0  0  0  0
   -3.3971    0.6570   -3.5222 O   0  0  0  0  0  0  0  0  0  0  0  0
   -5.6118    2.6804   -5.5578 C   0  0  1  0  0  0  0  0  0  0  0  0
   -5.0873    2.1706   -4.2883 O   0  0  0  0  0  0  0  0  0  0  0  0
   -6.1043    4.1371   -5.3589 C   0  0  0  0  0  0  0  0  0  0  0  0
   -8.2829    2.4932   -2.8722 N   0  3  0  0  0  0  0  0  0  0  0  0
   -4.5440   -0.9656   -1.5903 O   0  0  0  0  0  0  0  0  0  0  0  0
   -3.9398    0.6213   -7.9744 O   0  0  0  0  0  0  0  0  0  0  0  0
   -3.4870    3.5354   -6.4314 O   0  0  0  0  0  0  0  0  0  0  0  0
   -0.8079    2.1059   -2.8546 O   0  0  0  0  0  0  0  0  0  0  0  0
   -2.3456    1.0744    2.5162 O   0  0  0  0  0  0  0  0  0  0  0  0
   -6.9545    4.6113   -6.4663 N   0  3  0  0  0  0  0  0  0  0  0  0
   -3.8591   -1.1654   -5.6893 N   0  3  0  0  0  0  0  0  0  0  0  0
  1  2  1  1  0  0  0
  1  3  1  0  0  0  0
  1 10  1  0  0  0  0
  3  4  1  1  0  0  0
  3  5  1  0  0  0  0
  5  6  1  6  0  0  0
  5  7  1  0  0  0  0
  7  8  1  1  0  0  0
  7  9  1  0  0  0  0
  9 10  1  0  0  0  0
  9 11  1  6  0  0  0
 11 35  1  0  0  0  0
 12 13  1  1  0  0  0
 12 14  1  0  0  0  0
 12 20  1  0  0  0  0
 14 15  1  0  0  0  0
 14 40  1  6  0  0  0
 15 16  1  1  0  0  0
 15 17  1  0  0  0  0
 17  2  1  6  0  0  0
 17 18  1  0  0  0  0
 18 19  1  1  0  0  0
 18 20  1  0  0  0  0
 21 16  1  6  0  0  0
 21 22  1  0  0  0  0
 21 25  1  0  0  0  0
 22 23  1  0  0  0  0
 22 36  1  6  0  0  0
 23 24  1  0  0  0  0
 23 31  1  6  0  0  0
 24 25  1  0  0  0  0
 24 26  1  1  0  0  0
 26 39  1  0  0  0  0
 27 28  1  0  0  0  0
 27 32  1  0  0  0  0
 27 38  1  1  0  0  0
 28 29  1  0  0  0  0
 28 37  1  6  0  0  0
 29 30  1  0  0  0  0
 29 42  1  1  0  0  0
 30 31  1  6  0  0  0
 30 33  1  0  0  0  0
 32 33  1  0  0  0  0
 32 34  1  1  0  0  0
 34 41  1  0  0  0  0
M  CHG  6   4   1  13   1  19   1  35   1  41   1  42   1
M  END
>  <CHROM.1>
166.07253914,76.81961551,120.16535079,-163.79980839,-175.80009768,-73.20040962
51.77297792,64.41984182,178.10116797,-72.61044174,-134.90202310,-52.92444434
-51.88534709,53.50244001,-46.53709341,-146.07143089,-58.65246453,-55.21256112
89.69039989,-176.51504299,72.93051865,-58.85677277,-4.30310398,2.95965088
-1.96500990,1.08133925,-0.99586467,1.01766234

>  <Name>


>  <RI>
0

>  <Rbt.Current_Directory>
/home/itssahil/PROJECTS/Mol_Feturizer/New_Systems/rnas/1ei2

>  <Rbt.Executable>
rbdock ($Id: //depot/dev/client3/rdock/2013.1/src/exe/rbdock.cxx#4 $)

>  <Rbt.Library>
libRbt.so (2013.1, Build901 2013/11/27)

>  <Rbt.Parameter_File>
/export/apps/rDock/src/rDock_2013.1_src/data/scripts/dock_solv.prm

>  <Rbt.Receptor>
prm/pocket_docking_4.prm

>  <SCORE>
-47.7314

>  <SCORE.INTER>
-28.4352

>  <SCORE.INTER.CONST>
1

>  <SCORE.INTER.POLAR>
-4.77695

>  <SCORE.INTER.ROT>
9

>  <SCORE.INTER.SOLV>
19.2334

>  <SCORE.INTER.VDW>
-19.0448

>  <SCORE.INTER.norm>
-0.677029

>  <SCORE.INTRA>
-19.3036

>  <SCORE.INTRA.DIHEDRAL>
-17.0314

>  <SCORE.INTRA.DIHEDRAL.0>
40.8761

>  <SCORE.INTRA.POLAR>
-0.786225

>  <SCORE.INTRA.POLAR.0>
-0.0268208

>  <SCORE.INTRA.REPUL>
-0.641615

>  <SCORE.INTRA.REPUL.0>
0.641615

>  <SCORE.INTRA.SOLV>
-10.3535

>  <SCORE.INTRA.SOLV.lig_0>
-162.567

>  <SCORE.INTRA.VDW>
0.270077

>  <SCORE.INTRA.VDW.0>
-4.80338

>  <SCORE.INTRA.norm>
-0.45961

>  <SCORE.RESTR>
0.00739907

>  <SCORE.RESTR.CAVITY>
0.00739907

>  <SCORE.RESTR.norm>
0.000176168

>  <SCORE.SYSTEM>
0

>  <SCORE.SYSTEM.CONST>
0

>  <SCORE.SYSTEM.DIHEDRAL>
0

>  <SCORE.SYSTEM.SOLV>
0

>  <SCORE.SYSTEM.norm>
0

>  <SCORE.heavy>
42

>  <SCORE.norm>
-1.13646

>  <RMSD>
4.611

$$$$

 OpenBabel11021811393D
libRbt.so/2013.1/901 2013/11/27
 42 45  0  0  0  0  0  0  0  0999 V2000
   -4.0840    5.2516    3.6107 C   0  0  2  0  0  0  0  0  0  0  0  0
   -3.4258    4.8602    4.8546 O   0  0  0  0  0  0  0  0  0  0  0  0
   -4.5997    6.7261    3.6714 C   0  0  2  0  0  0  0  0  0  0  0  0
   -4.0000    7.4689    4.8036 N   0  3  0  0  0  0  0  0  0  0  0  0
   -6.1554    6.7618    3.7568 C   0  0  1  0  0  0  0  0  0  0  0  0
   -6.6143    8.1112    3.8013 O   0  0  0  0  0  0  0  0  0  0  0  0
   -6.8157    6.0573    2.5414 C   0  0  2  0  0  0  0  0  0  0  0  0
   -8.1989    5.8687    2.8186 O   0  0  0  0  0  0  0  0  0  0  0  0
   -6.1362    4.6810    2.2455 C   0  0  2  0  0  0  0  0  0  0  0  0
   -5.1987    4.3411    3.3184 O   0  0  0  0  0  0  0  0  0  0  0  0
   -5.3293    4.6342    0.9276 C   0  0  0  0  0  0  0  0  0  0  0  0
   -1.3223    1.4475    6.4512 C   0  0  1  0  0  0  0  0  0  0  0  0
   -0.9611    0.0729    6.8639 N   0  3  0  0  0  0  0  0  0  0  0  0
   -1.3403    1.5919    4.9068 C   0  0  1  0  0  0  0  0  0  0  0  0
   -1.8619    2.9845    4.4081 C   0  0  1  0  0  0  0  0  0  0  0  0
   -2.1378    2.8826    2.9853 O   0  0  0  0  0  0  0  0  0  0  0  0
   -3.1889    3.4430    5.1172 C   0  0  1  0  0  0  0  0  0  0  0  0
   -3.1230    3.2475    6.6665 C   0  0  1  0  0  0  0  0  0  0  0  0
   -4.4171    3.5364    7.3174 N   0  3  0  0  0  0  0  0  0  0  0  0
   -2.6983    1.8113    7.0469 C   0  0  0  0  0  0  0  0  0  0  0  0
   -1.0301    2.7903    2.0434 C   0  0  1  0  0  0  0  0  0  0  0  0
   -1.5155    2.0672    0.7926 C   0  0  1  0  0  0  0  0  0  0  0  0
   -2.2264    3.2113    0.0827 C   0  0  1  0  0  0  0  0  0  0  0  0
   -1.2605    4.3786    0.3313 C   0  0  2  0  0  0  0  0  0  0  0  0
   -0.6418    4.1046    1.6111 O   0  0  0  0  0  0  0  0  0  0  0  0
   -1.9653    5.7465    0.3655 C   0  0  0  0  0  0  0  0  0  0  0  0
   -3.7868    4.6347   -4.4878 C   0  0  1  0  0  0  0  0  0  0  0  0
   -3.2706    3.1708   -4.4117 C   0  0  1  0  0  0  0  0  0  0  0  0
   -3.8815    2.3417   -3.2453 C   0  0  2  0  0  0  0  0  0  0  0  0
   -3.7342    3.0912   -1.8821 C   0  0  1  0  0  0  0  0  0  0  0  0
   -2.3924    2.9387   -1.3386 O   0  0  0  0  0  0  0  0  0  0  0  0
   -4.6980    4.9656   -3.2670 C   0  0  1  0  0  0  0  0  0  0  0  0
   -4.0396    4.5328   -2.0318 O   0  0  0  0  0  0  0  0  0  0  0  0
   -5.0289    6.4770   -3.1669 C   0  0  0  0  0  0  0  0  0  0  0  0
   -5.5402    5.7932    0.0425 N   0  3  0  0  0  0  0  0  0  0  0  0
   -0.3959    1.5994    0.0400 O   0  0  0  0  0  0  0  0  0  0  0  0
   -3.5806    2.5202   -5.6434 O   0  0  0  0  0  0  0  0  0  0  0  0
   -2.6579    5.5112   -4.5117 O   0  0  0  0  0  0  0  0  0  0  0  0
   -2.3853    6.1312   -0.9324 O   0  0  0  0  0  0  0  0  0  0  0  0
   -0.0152    1.3987    4.4126 O   0  0  0  0  0  0  0  0  0  0  0  0
   -6.0095    6.9175   -4.1760 N   0  3  0  0  0  0  0  0  0  0  0  0
   -3.3212    0.9681   -3.2053 N   0  3  0  0  0  0  0  0  0  0  0  0
  1  2  1  1  0  0  0
  1  3  1  0  0  0  0
  1 10  1  0  0  0  0
  3  4  1  1  0  0  0
  3  5  1  0  0  0  0
  5  6  1  6  0  0  0
  5  7  1  0  0  0  0
  7  8  1  1  0  0  0
  7  9  1  0  0  0  0
  9 10  1  0  0  0  0
  9 11  1  6  0  0  0
 11 35  1  0  0  0  0
 12 13  1  6  0  0  0
 12 14  1  0  0  0  0
 12 20  1  0  0  0  0
 14 15  1  0  0  0  0
 14 40  1  1  0  0  0
 15 16  1  6  0  0  0
 15 17  1  0  0  0  0
 17  2  1  1  0  0  0
 17 18  1  0  0  0  0
 18 19  1  1  0  0  0
 18 20  1  0  0  0  0
 21 16  1  1  0  0  0
 21 22  1  0  0  0  0
 21 25  1  0  0  0  0
 22 23  1  0  0  0  0
 22 36  1  6  0  0  0
 23 24  1  0  0  0  0
 23 31  1  6  0  0  0
 24 25  1  0  0  0  0
 24 26  1  1  0  0  0
 26 39  1  0  0  0  0
 27 28  1  0  0  0  0
 27 32  1  0  0  0  0
 27 38  1  1  0  0  0
 28 29  1  0  0  0  0
 28 37  1  6  0  0  0
 29 30  1  0  0  0  0
 29 42  1  1  0  0  0
 30 31  1  6  0  0  0
 30 33  1  0  0  0  0
 32 33  1  0  0  0  0
 32 34  1  1  0  0  0
 34 41  1  0  0  0  0
M  CHG  6   4   1  13   1  19   1  35   1  41   1  42   1
M  END
>  <CHROM.1>
164.42631100,83.69639209,86.68495814,-76.22338439,-72.92561970,-11.20066918
-164.68935755,-32.69778750,70.98911005,-71.84475316,153.86978852,-171.74903623
69.36197326,128.56893869,-71.85469647,166.54144756,69.35248635,66.13069539
165.66197749,-161.34146793,74.15696287,177.27405093,-3.46051495,4.09034226
1.29527986,1.42305118,-0.79530629,1.58530833

>  <Name>


>  <RI>
0

>  <Rbt.Current_Directory>
/home/itssahil/PROJECTS/Mol_Feturizer/New_Systems/rnas/1ei2

>  <Rbt.Executable>
rbdock ($Id: //depot/dev/client3/rdock/2013.1/src/exe/rbdock.cxx#4 $)

>  <Rbt.Library>
libRbt.so (2013.1, Build901 2013/11/27)

>  <Rbt.Parameter_File>
/export/apps/rDock/src/rDock_2013.1_src/data/scripts/dock_solv.prm

>  <Rbt.Receptor>
prm/pocket_docking_8.prm

>  <SCORE>
-57.2271

>  <SCORE.INTER>
-42.1824

>  <SCORE.INTER.CONST>
1

>  <SCORE.INTER.POLAR>
-7.63948

>  <SCORE.INTER.ROT>
9

>  <SCORE.INTER.SOLV>
29.1275

>  <SCORE.INTER.VDW>
-21.9658

>  <SCORE.INTER.norm>
-1.00434

>  <SCORE.INTRA>
-15.0488

>  <SCORE.INTRA.DIHEDRAL>
-9.81726

>  <SCORE.INTRA.DIHEDRAL.0>
40.8761

>  <SCORE.INTRA.POLAR>
-1.34977

>  <SCORE.INTRA.POLAR.0>
-0.0268208

>  <SCORE.INTRA.REPUL>
-0.216448

>  <SCORE.INTRA.REPUL.0>
0.641615

>  <SCORE.INTRA.SOLV>
-4.05828

>  <SCORE.INTRA.SOLV.lig_0>
-162.567

>  <SCORE.INTRA.VDW>
-2.43953

>  <SCORE.INTRA.VDW.0>
-4.80338

>  <SCORE.INTRA.norm>
-0.358304

>  <SCORE.RESTR>
0.00407479

>  <SCORE.RESTR.CAVITY>
0.00407479

>  <SCORE.RESTR.norm>
9.70189e-05

>  <SCORE.SYSTEM>
0

>  <SCORE.SYSTEM.CONST>
0

>  <SCORE.SYSTEM.DIHEDRAL>
0

>  <SCORE.SYSTEM.SOLV>
0

>  <SCORE.SYSTEM.norm>
0

>  <SCORE.heavy>
42

>  <SCORE.norm>
-1.36255

>  <RMSD>
4.681

$$$$

 OpenBabel11021811393D
libRbt.so/2013.1/901 2013/11/27
 42 45  0  0  0  0  0  0  0  0999 V2000
   -2.3589    7.2042    2.2273 C   0  0  2  0  0  0  0  0  0  0  0  0
   -1.2461    6.2944    1.9676 O   0  0  0  0  0  0  0  0  0  0  0  0
   -1.8584    8.6528    2.5356 C   0  0  2  0  0  0  0  0  0  0  0  0
   -0.4406    8.8353    2.1489 N   0  3  0  0  0  0  0  0  0  0  0  0
   -2.0629    8.9967    4.0419 C   0  0  1  0  0  0  0  0  0  0  0  0
   -1.6124   10.3231    4.3086 O   0  0  0  0  0  0  0  0  0  0  0  0
   -3.5539    8.8898    4.4602 C   0  0  2  0  0  0  0  0  0  0  0  0
   -3.6337    8.9273    5.8807 O   0  0  0  0  0  0  0  0  0  0  0  0
   -4.2012    7.5728    3.9218 C   0  0  2  0  0  0  0  0  0  0  0  0
   -3.1720    6.7053    3.3441 O   0  0  0  0  0  0  0  0  0  0  0  0
   -5.2646    7.7846    2.8198 C   0  0  0  0  0  0  0  0  0  0  0  0
   -0.5796    2.4566    0.1110 C   0  0  1  0  0  0  0  0  0  0  0  0
   -0.6761    1.0268   -0.2591 N   0  3  0  0  0  0  0  0  0  0  0  0
   -1.8211    3.2536   -0.3683 C   0  0  1  0  0  0  0  0  0  0  0  0
   -1.8460    4.7421    0.1252 C   0  0  1  0  0  0  0  0  0  0  0  0
   -3.1788    5.2736   -0.1029 O   0  0  0  0  0  0  0  0  0  0  0  0
   -1.5300    4.8953    1.6585 C   0  0  1  0  0  0  0  0  0  0  0  0
   -0.2887    4.0485    2.0884 C   0  0  1  0  0  0  0  0  0  0  0  0
   -0.0803    4.0727    3.5506 N   0  3  0  0  0  0  0  0  0  0  0  0
   -0.4154    2.5750    1.6406 C   0  0  0  0  0  0  0  0  0  0  0  0
   -3.3981    6.2226   -1.1865 C   0  0  1  0  0  0  0  0  0  0  0  0
   -2.8618    5.6169   -2.4781 C   0  0  1  0  0  0  0  0  0  0  0  0
   -4.0199    4.6976   -2.8418 C   0  0  1  0  0  0  0  0  0  0  0  0
   -5.2321    5.5754   -2.4996 C   0  0  2  0  0  0  0  0  0  0  0  0
   -4.8070    6.4113   -1.3968 O   0  0  0  0  0  0  0  0  0  0  0  0
   -6.4730    4.7581   -2.0974 C   0  0  0  0  0  0  0  0  0  0  0  0
   -5.1669    0.8636   -5.3945 C   0  0  1  0  0  0  0  0  0  0  0  0
   -4.8867    2.0693   -6.3343 C   0  0  1  0  0  0  0  0  0  0  0  0
   -3.5035    2.7444   -6.1063 C   0  0  2  0  0  0  0  0  0  0  0  0
   -3.2940    3.1080   -4.6011 C   0  0  1  0  0  0  0  0  0  0  0  0
   -3.9937    4.3361   -4.2527 O   0  0  0  0  0  0  0  0  0  0  0  0
   -4.0341    0.7120   -4.3344 C   0  0  1  0  0  0  0  0  0  0  0  0
   -3.7604    2.0133   -3.7192 O   0  0  0  0  0  0  0  0  0  0  0  0
   -4.3927   -0.3116   -3.2263 C   0  0  0  0  0  0  0  0  0  0  0  0
   -5.2718    9.1355    2.2315 N   0  3  0  0  0  0  0  0  0  0  0  0
   -2.6817    6.6430   -3.4545 O   0  0  0  0  0  0  0  0  0  0  0  0
   -4.9525    1.6118   -7.6844 O   0  0  0  0  0  0  0  0  0  0  0  0
   -6.4226    1.0783   -4.7463 O   0  0  0  0  0  0  0  0  0  0  0  0
   -7.5598    5.6115   -1.7822 O   0  0  0  0  0  0  0  0  0  0  0  0
   -1.8474    3.2469   -1.7955 O   0  0  0  0  0  0  0  0  0  0  0  0
   -3.2346   -0.6846   -2.3935 N   0  3  0  0  0  0  0  0  0  0  0  0
   -3.3136    3.9086   -7.0068 N   0  3  0  0  0  0  0  0  0  0  0  0
  1  2  1  1  0  0  0
  1  3  1  0  0  0  0
  1 10  1  0  0  0  0
  3  4  1  1  0  0  0
  3  5  1  0  0  0  0
  5  6  1  6  0  0  0
  5  7  1  0  0  0  0
  7  8  1  1  0  0  0
  7  9  1  0  0  0  0
  9 10  1  0  0  0  0
  9 11  1  6  0  0  0
 11 35  1  0  0  0  0
 12 13  1  1  0  0  0
 12 14  1  0  0  0  0
 12 20  1  0  0  0  0
 14 15  1  0  0  0  0
 14 40  1  6  0  0  0
 15 16  1  1  0  0  0
 15 17  1  0  0  0  0
 17  2  1  6  0  0  0
 17 18  1  0  0  0  0
 18 19  1  1  0  0  0
 18 20  1  0  0  0  0
 21 16  1  1  0  0  0
 21 22  1  0  0  0  0
 21 25  1  0  0  0  0
 22 23  1  0  0  0  0
 22 36  1  6  0  0  0
 23 24  1  0  0  0  0
 23 31  1  6  0  0  0
 24 25  1  0  0  0  0
 24 26  1  1  0  0  0
 26 39  1  0  0  0  0
 27 28  1  0  0  0  0
 27 32  1  0  0  0  0
 27 38  1  1  0  0  0
 28 29  1  0  0  0  0
 28 37  1  6  0  0  0
 29 30  1  0  0  0  0
 29 42  1  6  0  0  0
 30 31  1  1  0  0  0
 30 33  1  0  0  0  0
 32 33  1  0  0  0  0
 32 34  1  1  0  0  0
 34 41  1  0  0  0  0
M  CHG  6   4   1  13   1  19   1  35   1  41   1  42   1
M  END
>  <CHROM.1>
-179.90838882,84.16220015,-175.02159961,-49.30660644,70.07052607,13.79761021
67.80371499,-69.91031857,102.20184427,-106.34142329,53.36724102,-171.80519970
-24.07264068,92.46175748,179.56776789,-175.51780417,68.63945193,76.99971700
-87.75017921,172.50193704,167.41190909,-11.35128587,-3.22321430,4.81980472
-0.74331406,1.32224679,-0.79337083,0.77045491

>  <Name>


>  <RI>
0

>  <Rbt.Current_Directory>
/home/itssahil/PROJECTS/Mol_Feturizer/New_Systems/rnas/1ei2

>  <Rbt.Executable>
rbdock ($Id: //depot/dev/client3/rdock/2013.1/src/exe/rbdock.cxx#4 $)

>  <Rbt.Library>
libRbt.so (2013.1, Build901 2013/11/27)

>  <Rbt.Parameter_File>
/export/apps/rDock/src/rDock_2013.1_src/data/scripts/dock_solv.prm

>  <Rbt.Receptor>
prm/pocket_docking_8.prm

>  <SCORE>
-54.4177

>  <SCORE.INTER>
-44.1684

>  <SCORE.INTER.CONST>
1

>  <SCORE.INTER.POLAR>
-6.50273

>  <SCORE.INTER.ROT>
9

>  <SCORE.INTER.SOLV>
41.5947

>  <SCORE.INTER.VDW>
-31.2347

>  <SCORE.INTER.norm>
-1.05163

>  <SCORE.INTRA>
-10.3051

>  <SCORE.INTRA.DIHEDRAL>
-3.40142

>  <SCORE.INTRA.DIHEDRAL.0>
40.8761

>  <SCORE.INTRA.POLAR>
-0.74464

>  <SCORE.INTRA.POLAR.0>
-0.0268208

>  <SCORE.INTRA.REPUL>
-0.641615

>  <SCORE.INTRA.REPUL.0>
0.641615

>  <SCORE.INTRA.SOLV>
-7.98369

>  <SCORE.INTRA.SOLV.lig_0>
-162.567

>  <SCORE.INTRA.VDW>
1.12735

>  <SCORE.INTRA.VDW.0>
-4.80338

>  <SCORE.INTRA.norm>
-0.245358

>  <SCORE.RESTR>
0.0557795

>  <SCORE.RESTR.CAVITY>
0.0557795

>  <SCORE.RESTR.norm>
0.00132808

>  <SCORE.SYSTEM>
0

>  <SCORE.SYSTEM.CONST>
0

>  <SCORE.SYSTEM.DIHEDRAL>
0

>  <SCORE.SYSTEM.SOLV>
0

>  <SCORE.SYSTEM.norm>
0

>  <SCORE.heavy>
42

>  <SCORE.norm>
-1.29566

>  <RMSD>
4.694

$$$$

 OpenBabel11021811393D
libRbt.so/2013.1/901 2013/11/27
 42 45  0  0  0  0  0  0  0  0999 V2000
   -5.3071    4.8384    1.7140 C   0  0  2  0  0  0  0  0  0  0  0  0
   -5.9236    6.0799    1.2532 O   0  0  0  0  0  0  0  0  0  0  0  0
   -4.0777    5.1148    2.6391 C   0  0  2  0  0  0  0  0  0  0  0  0
   -4.0493    6.5200    3.1056 N   0  3  0  0  0  0  0  0  0  0  0  0
   -2.7483    4.7538    1.9101 C   0  0  1  0  0  0  0  0  0  0  0  0
   -1.6354    5.0003    2.7669 O   0  0  0  0  0  0  0  0  0  0  0  0
   -2.7150    3.2637    1.4765 C   0  0  2  0  0  0  0  0  0  0  0  0
   -1.6281    3.0736    0.5775 O   0  0  0  0  0  0  0  0  0  0  0  0
   -4.0559    2.8418    0.7926 C   0  0  2  0  0  0  0  0  0  0  0  0
   -4.8978    4.0187    0.5660 O   0  0  0  0  0  0  0  0  0  0  0  0
   -4.9077    1.8449    1.6116 C   0  0  0  0  0  0  0  0  0  0  0  0
  -10.0221    4.8210    0.7665 C   0  0  1  0  0  0  0  0  0  0  0  0
  -11.4183    4.6968    0.2915 N   0  3  0  0  0  0  0  0  0  0  0  0
   -9.0116    4.3235   -0.3001 C   0  0  1  0  0  0  0  0  0  0  0  0
   -7.5117    4.5697    0.0867 C   0  0  1  0  0  0  0  0  0  0  0  0
   -6.6983    4.3698   -1.1005 O   0  0  0  0  0  0  0  0  0  0  0  0
   -7.2348    6.0263    0.6119 C   0  0  1  0  0  0  0  0  0  0  0  0
   -8.2998    6.4832    1.6607 C   0  0  1  0  0  0  0  0  0  0  0  0
   -8.1292    7.8997    2.0432 N   0  3  0  0  0  0  0  0  0  0  0  0
   -9.7409    6.2922    1.1368 C   0  0  0  0  0  0  0  0  0  0  0  0
   -6.7840    5.3231   -2.1990 C   0  0  1  0  0  0  0  0  0  0  0  0
   -5.4955    5.2468   -3.0094 C   0  0  1  0  0  0  0  0  0  0  0  0
   -5.7846    4.0128   -3.8533 C   0  0  1  0  0  0  0  0  0  0  0  0
   -7.2611    4.2247   -4.2171 C   0  0  2  0  0  0  0  0  0  0  0  0
   -7.8371    4.9419   -3.0994 O   0  0  0  0  0  0  0  0  0  0  0  0
   -8.0196    2.9053   -4.4478 C   0  0  0  0  0  0  0  0  0  0  0  0
   -2.6251    0.9218   -4.6563 C   0  0  1  0  0  0  0  0  0  0  0  0
   -3.0130    1.5901   -6.0048 C   0  0  1  0  0  0  0  0  0  0  0  0
   -2.8083    3.1323   -6.0315 C   0  0  2  0  0  0  0  0  0  0  0  0
   -3.5061    3.8156   -4.8117 C   0  0  1  0  0  0  0  0  0  0  0  0
   -4.9368    3.9631   -5.0369 O   0  0  0  0  0  0  0  0  0  0  0  0
   -2.2559    1.9976   -3.5903 C   0  0  1  0  0  0  0  0  0  0  0  0
   -3.2847    3.0405   -3.5691 O   0  0  0  0  0  0  0  0  0  0  0  0
   -2.1083    1.3967   -2.1686 C   0  0  0  0  0  0  0  0  0  0  0  0
   -6.0850    1.3195    0.8979 N   0  3  0  0  0  0  0  0  0  0  0  0
   -5.3642    6.4155   -3.8190 O   0  0  0  0  0  0  0  0  0  0  0  0
   -2.2208    1.0081   -7.0393 O   0  0  0  0  0  0  0  0  0  0  0  0
   -3.7331    0.1402   -4.2042 O   0  0  0  0  0  0  0  0  0  0  0  0
   -8.1235    2.1649   -3.2438 O   0  0  0  0  0  0  0  0  0  0  0  0
   -9.2064    2.9235   -0.4987 O   0  0  0  0  0  0  0  0  0  0  0  0
   -0.7075    1.3422   -1.7117 N   0  3  0  0  0  0  0  0  0  0  0  0
   -3.2312    3.7127   -7.3301 N   0  3  0  0  0  0  0  0  0  0  0  0
  1  2  1  6  0  0  0
  1  3  1  0  0  0  0
  1 10  1  0  0  0  0
  3  4  1  6  0  0  0
  3  5  1  0  0  0  0
  5  6  1  1  0  0  0
  5  7  1  0  0  0  0
  7  8  1  6  0  0  0
  7  9  1  0  0  0  0
  9 10  1  0  0  0  0
  9 11  1  1  0  0  0
 11 35  1  0  0  0  0
 12 13  1  6  0  0  0
 12 14  1  0  0  0  0
 12 20  1  0  0  0  0
 14 15  1  0  0  0  0
 14 40  1  1  0  0  0
 15 16  1  6  0  0  0
 15 17  1  0  0  0  0
 17  2  1  1  0  0  0
 17 18  1  0  0  0  0
 18 19  1  6  0  0  0
 18 20  1  0  0  0  0
 21 16  1  1  0  0  0
 21 22  1  0  0  0  0
 21 25  1  0  0  0  0
 22 23  1  0  0  0  0
 22 36  1  6  0  0  0
 23 24  1  0  0  0  0
 23 31  1  6  0  0  0
 24 25  1  0  0  0  0
 24 26  1  1  0  0  0
 26 39  1  0  0  0  0
 27 28  1  0  0  0  0
 27 32  1  0  0  0  0
 27 38  1  1  0  0  0
 28 29  1  0  0  0  0
 28 37  1  6  0  0  0
 29 30  1  0  0  0  0
 29 42  1  6  0  0  0
 30 31  1  6  0  0  0
 30 33  1  0  0  0  0
 32 33  1  0  0  0  0
 32 34  1  1  0  0  0
 34 41  1  0  0  0  0
M  CHG  6   4   1  13   1  19   1  35   1  41   1  42   1
M  END
>  <CHROM.1>
-167.52823689,-20.12653978,-64.66184683,-60.68784580,-61.11771441,-172.77418070
-157.57190436,55.48988700,168.46928630,69.19914401,156.74128542,-162.79217276
178.79732888,64.66379901,66.53735601,179.98307980,-60.01365042,-72.10176600
63.20449482,153.66677704,107.97598320,-13.79707363,-5.33068532,3.85589241
-1.43939530,-2.15772775,0.29446264,-1.85711050

>  <Name>


>  <RI>
0

>  <Rbt.Current_Directory>
/home/itssahil/PROJECTS/Mol_Feturizer/New_Systems/rnas/1ei2

>  <Rbt.Executable>
rbdock ($Id: //depot/dev/client3/rdock/2013.1/src/exe/rbdock.cxx#4 $)

>  <Rbt.Library>
libRbt.so (2013.1, Build901 2013/11/27)

>  <Rbt.Parameter_File>
/export/apps/rDock/src/rDock_2013.1_src/data/scripts/dock_solv.prm

>  <Rbt.Receptor>
prm/pocket_docking_3.prm

>  <SCORE>
-47.314

>  <SCORE.INTER>
-26.4518

>  <SCORE.INTER.CONST>
1

>  <SCORE.INTER.POLAR>
-4.82966

>  <SCORE.INTER.ROT>
9

>  <SCORE.INTER.SOLV>
23.6649

>  <SCORE.INTER.VDW>
-19.024

>  <SCORE.INTER.norm>
-0.629806

>  <SCORE.INTRA>
-21.4762

>  <SCORE.INTRA.DIHEDRAL>
-16.3756

>  <SCORE.INTRA.DIHEDRAL.0>
40.8761

>  <SCORE.INTRA.POLAR>
-1.92717

>  <SCORE.INTRA.POLAR.0>
-0.0268208

>  <SCORE.INTRA.REPUL>
-0.604589

>  <SCORE.INTRA.REPUL.0>
0.641615

>  <SCORE.INTRA.SOLV>
-8.59459

>  <SCORE.INTRA.SOLV.lig_0>
-162.567

>  <SCORE.INTRA.VDW>
0.584243

>  <SCORE.INTRA.VDW.0>
-4.80338

>  <SCORE.INTRA.norm>
-0.511338

>  <SCORE.RESTR>
0.614079

>  <SCORE.RESTR.CAVITY>
0.614079

>  <SCORE.RESTR.norm>
0.0146209

>  <SCORE.SYSTEM>
0

>  <SCORE.SYSTEM.CONST>
0

>  <SCORE.SYSTEM.DIHEDRAL>
0

>  <SCORE.SYSTEM.SOLV>
0

>  <SCORE.SYSTEM.norm>
0

>  <SCORE.heavy>
42

>  <SCORE.norm>
-1.12652

>  <RMSD>
4.798

$$$$

 OpenBabel11021811393D
libRbt.so/2013.1/901 2013/11/27
 42 45  0  0  0  0  0  0  0  0999 V2000
   -3.6541    4.2944    1.8005 C   0  0  2  0  0  0  0  0  0  0  0  0
   -3.8736    5.2281    0.6989 O   0  0  0  0  0  0  0  0  0  0  0  0
   -2.1465    3.9018    1.9307 C   0  0  2  0  0  0  0  0  0  0  0  0
   -1.2743    4.8184    1.1612 N   0  3  0  0  0  0  0  0  0  0  0  0
   -1.9212    2.4267    1.4812 C   0  0  1  0  0  0  0  0  0  0  0  0
   -0.5451    2.0772    1.6140 O   0  0  0  0  0  0  0  0  0  0  0  0
   -2.7650    1.4323    2.3230 C   0  0  2  0  0  0  0  0  0  0  0  0
   -2.7414    0.1597    1.6861 O   0  0  0  0  0  0  0  0  0  0  0  0
   -4.2397    1.9276    2.4759 C   0  0  2  0  0  0  0  0  0  0  0  0
   -4.4728    3.0892    1.6148 O   0  0  0  0  0  0  0  0  0  0  0  0
   -4.6258    2.3603    3.9091 C   0  0  0  0  0  0  0  0  0  0  0  0
   -8.1646    5.3391    1.1404 C   0  0  1  0  0  0  0  0  0  0  0  0
   -9.5904    5.7197    1.0269 N   0  3  0  0  0  0  0  0  0  0  0  0
   -7.6186    4.7727   -0.1965 C   0  0  1  0  0  0  0  0  0  0  0  0
   -6.0755    4.4924   -0.1810 C   0  0  1  0  0  0  0  0  0  0  0  0
   -5.6381    4.2853   -1.5510 O   0  0  0  0  0  0  0  0  0  0  0  0
   -5.2324    5.6807    0.4117 C   0  0  1  0  0  0  0  0  0  0  0  0
   -5.8457    6.2282    1.7410 C   0  0  1  0  0  0  0  0  0  0  0  0
   -5.1433    7.4364    2.2194 N   0  3  0  0  0  0  0  0  0  0  0  0
   -7.3450    6.5684    1.5847 C   0  0  0  0  0  0  0  0  0  0  0  0
   -5.3939    5.4371   -2.4091 C   0  0  1  0  0  0  0  0  0  0  0  0
   -4.1089    5.1952   -3.1921 C   0  0  1  0  0  0  0  0  0  0  0  0
   -4.6367    4.2894   -4.2964 C   0  0  1  0  0  0  0  0  0  0  0  0
   -5.9783    4.9570   -4.6306 C   0  0  2  0  0  0  0  0  0  0  0  0
   -6.4370    5.5481   -3.3913 O   0  0  0  0  0  0  0  0  0  0  0  0
   -7.0275    3.9657   -5.1652 C   0  0  0  0  0  0  0  0  0  0  0  0
   -2.9651    1.1640   -3.3238 C   0  0  1  0  0  0  0  0  0  0  0  0
   -3.7187    1.1557   -4.6829 C   0  0  1  0  0  0  0  0  0  0  0  0
   -2.9855    1.9234   -5.8205 C   0  0  2  0  0  0  0  0  0  0  0  0
   -2.5992    3.3685   -5.3685 C   0  0  1  0  0  0  0  0  0  0  0  0
   -3.7411    4.2682   -5.4451 O   0  0  0  0  0  0  0  0  0  0  0  0
   -1.7053    2.0795   -3.3939 C   0  0  1  0  0  0  0  0  0  0  0  0
   -2.0686    3.3696   -3.9857 O   0  0  0  0  0  0  0  0  0  0  0  0
   -1.0679    2.3180   -2.0007 C   0  0  0  0  0  0  0  0  0  0  0  0
   -6.0510    2.6918    4.0825 N   0  3  0  0  0  0  0  0  0  0  0  0
   -3.6229    6.4311   -3.7165 O   0  0  0  0  0  0  0  0  0  0  0  0
   -3.8961   -0.2004   -5.0903 O   0  0  0  0  0  0  0  0  0  0  0  0
   -3.8602    1.6345   -2.3136 O   0  0  0  0  0  0  0  0  0  0  0  0
   -6.4342    3.0295   -6.0486 O   0  0  0  0  0  0  0  0  0  0  0  0
   -8.2997    3.5532   -0.4903 O   0  0  0  0  0  0  0  0  0  0  0  0
   -0.1999    1.2069   -1.5694 N   0  3  0  0  0  0  0  0  0  0  0  0
   -3.7728    1.9098   -7.0784 N   0  3  0  0  0  0  0  0  0  0  0  0
  1  2  1  6  0  0  0
  1  3  1  0  0  0  0
  1 10  1  0  0  0  0
  3  4  1  6  0  0  0
  3  5  1  0  0  0  0
  5  6  1  1  0  0  0
  5  7  1  0  0  0  0
  7  8  1  6  0  0  0
  7  9  1  0  0  0  0
  9 10  1  0  0  0  0
  9 11  1  1  0  0  0
 11 35  1  0  0  0  0
 12 13  1  6  0  0  0
 12 14  1  0  0  0  0
 12 20  1  0  0  0  0
 14 15  1  0  0  0  0
 14 40  1  1  0  0  0
 15 16  1  6  0  0  0
 15 17  1  0  0  0  0
 17  2  1  1  0  0  0
 17 18  1  0  0  0  0
 18 19  1  6  0  0  0
 18 20  1  0  0  0  0
 21 16  1  1  0  0  0
 21 22  1  0  0  0  0
 21 25  1  0  0  0  0
 22 23  1  0  0  0  0
 22 36  1  6  0  0  0
 23 24  1  0  0  0  0
 23 31  1  6  0  0  0
 24 25  1  0  0  0  0
 24 26  1  1  0  0  0
 26 39  1  0  0  0  0
 27 28  1  0  0  0  0
 27 32  1  0  0  0  0
 27 38  1  1  0  0  0
 28 29  1  0  0  0  0
 28 37  1  6  0  0  0
 29 30  1  0  0  0  0
 29 42  1  6  0  0  0
 30 31  1  1  0  0  0
 30 33  1  0  0  0  0
 32 33  1  0  0  0  0
 32 34  1  1  0  0  0
 34 41  1  0  0  0  0
M  CHG  6   4   1  13   1  19   1  35   1  41   1  42   1
M  END
>  <CHROM.1>
178.66347906,-69.88484842,80.81570540,-176.45350784,-60.00115145,-173.89282574
90.39734208,-64.69551684,171.59075523,80.51358558,137.06912901,164.67463281
-69.76032927,82.55259718,-40.19240689,69.51242036,41.82591458,164.33965151
-167.56980311,84.94045587,81.31274808,47.23696314,-4.36836100,3.58700385
-1.26009807,-1.79890483,0.60885354,-1.64947237

>  <Name>


>  <RI>
0

>  <Rbt.Current_Directory>
/home/itssahil/PROJECTS/Mol_Feturizer/New_Systems/rnas/1ei2

>  <Rbt.Executable>
rbdock ($Id: //depot/dev/client3/rdock/2013.1/src/exe/rbdock.cxx#4 $)

>  <Rbt.Library>
libRbt.so (2013.1, Build901 2013/11/27)

>  <Rbt.Parameter_File>
/export/apps/rDock/src/rDock_2013.1_src/data/scripts/dock_solv.prm

>  <Rbt.Receptor>
prm/pocket_docking_3.prm

>  <SCORE>
-56.0117

>  <SCORE.INTER>
-39.0718

>  <SCORE.INTER.CONST>
1

>  <SCORE.INTER.POLAR>
-6.86679

>  <SCORE.INTER.ROT>
9

>  <SCORE.INTER.SOLV>
30.0585

>  <SCORE.INTER.VDW>
-22.778

>  <SCORE.INTER.norm>
-0.93028

>  <SCORE.INTRA>
-16.9798

>  <SCORE.INTRA.DIHEDRAL>
-16.0107

>  <SCORE.INTRA.DIHEDRAL.0>
40.8761

>  <SCORE.INTRA.POLAR>
-1.30332

>  <SCORE.INTRA.POLAR.0>
-0.0268208

>  <SCORE.INTRA.REPUL>
-0.165338

>  <SCORE.INTRA.REPUL.0>
0.641615

>  <SCORE.INTRA.SOLV>
-5.94478

>  <SCORE.INTRA.SOLV.lig_0>
-162.567

>  <SCORE.INTRA.VDW>
-0.744092

>  <SCORE.INTRA.VDW.0>
-4.80338

>  <SCORE.INTRA.norm>
-0.40428

>  <SCORE.RESTR>
0.0398727

>  <SCORE.RESTR.CAVITY>
0.0398727

>  <SCORE.RESTR.norm>
0.00094935

>  <SCORE.SYSTEM>
0

>  <SCORE.SYSTEM.CONST>
0

>  <SCORE.SYSTEM.DIHEDRAL>
0

>  <SCORE.SYSTEM.SOLV>
0

>  <SCORE.SYSTEM.norm>
0

>  <SCORE.heavy>
42

>  <SCORE.norm>
-1.33361

>  <RMSD>
4.816

$$$$

 OpenBabel11021811393D
libRbt.so/2013.1/901 2013/11/27
 42 45  0  0  0  0  0  0  0  0999 V2000
   -7.5093    4.4018   -1.7408 C   0  0  2  0  0  0  0  0  0  0  0  0
   -7.2306    5.2528   -0.5868 O   0  0  0  0  0  0  0  0  0  0  0  0
   -6.9726    5.0346   -3.0658 C   0  0  2  0  0  0  0  0  0  0  0  0
   -6.0218    6.1382   -2.7988 N   0  3  0  0  0  0  0  0  0  0  0  0
   -8.1518    5.5320   -3.9551 C   0  0  1  0  0  0  0  0  0  0  0  0
   -7.6507    6.0974   -5.1645 O   0  0  0  0  0  0  0  0  0  0  0  0
   -9.1263    4.3794   -4.3175 C   0  0  2  0  0  0  0  0  0  0  0  0
  -10.3116    4.9403   -4.8711 O   0  0  0  0  0  0  0  0  0  0  0  0
   -9.4775    3.5174   -3.0617 C   0  0  2  0  0  0  0  0  0  0  0  0
   -8.9526    4.1536   -1.8513 O   0  0  0  0  0  0  0  0  0  0  0  0
   -8.9020    2.0827   -3.0872 C   0  0  0  0  0  0  0  0  0  0  0  0
   -4.0727    5.4381    2.3480 C   0  0  1  0  0  0  0  0  0  0  0  0
   -3.1588    5.1164    3.4668 N   0  3  0  0  0  0  0  0  0  0  0  0
   -3.8386    4.5009    1.1344 C   0  0  1  0  0  0  0  0  0  0  0  0
   -4.8776    4.6954   -0.0243 C   0  0  1  0  0  0  0  0  0  0  0  0
   -4.7594    3.5684   -0.9337 O   0  0  0  0  0  0  0  0  0  0  0  0
   -6.3676    4.7462    0.4772 C   0  0  1  0  0  0  0  0  0  0  0  0
   -6.5367    5.6822    1.7175 C   0  0  1  0  0  0  0  0  0  0  0  0
   -7.9009    5.6160    2.2801 N   0  3  0  0  0  0  0  0  0  0  0  0
   -5.5318    5.3367    2.8393 C   0  0  0  0  0  0  0  0  0  0  0  0
   -4.7069    2.2148   -0.3973 C   0  0  1  0  0  0  0  0  0  0  0  0
   -4.8483    1.2295   -1.5515 C   0  0  1  0  0  0  0  0  0  0  0  0
   -3.4225    1.2390   -2.0857 C   0  0  1  0  0  0  0  0  0  0  0  0
   -2.6044    1.2477   -0.7865 C   0  0  2  0  0  0  0  0  0  0  0  0
   -3.4137    1.9636    0.1769 O   0  0  0  0  0  0  0  0  0  0  0  0
   -1.2350    1.9332   -0.9418 C   0  0  0  0  0  0  0  0  0  0  0  0
   -3.1479   -2.2141   -5.9869 C   0  0  1  0  0  0  0  0  0  0  0  0
   -3.3680   -2.6908   -4.5241 C   0  0  1  0  0  0  0  0  0  0  0  0
   -4.4498   -1.8844   -3.7492 C   0  0  2  0  0  0  0  0  0  0  0  0
   -4.1780   -0.3480   -3.8347 C   0  0  1  0  0  0  0  0  0  0  0  0
   -3.1453    0.0583   -2.8926 O   0  0  0  0  0  0  0  0  0  0  0  0
   -3.9764   -0.9267   -6.2811 C   0  0  1  0  0  0  0  0  0  0  0  0
   -3.7720    0.0451   -5.2038 O   0  0  0  0  0  0  0  0  0  0  0  0
   -3.5973   -0.2748   -7.6358 C   0  0  0  0  0  0  0  0  0  0  0  0
   -7.6746    1.9326   -3.8885 N   0  3  0  0  0  0  0  0  0  0  0  0
   -5.2097   -0.0564   -1.0473 O   0  0  0  0  0  0  0  0  0  0  0  0
   -3.7572   -4.0634   -4.5524 O   0  0  0  0  0  0  0  0  0  0  0  0
   -1.7545   -1.9564   -6.1733 O   0  0  0  0  0  0  0  0  0  0  0  0
   -0.4578    1.2899   -1.9372 O   0  0  0  0  0  0  0  0  0  0  0  0
   -2.5299    4.7390    0.6167 O   0  0  0  0  0  0  0  0  0  0  0  0
   -4.0135   -1.0823   -8.7972 N   0  3  0  0  0  0  0  0  0  0  0  0
   -4.5848   -2.3635   -2.3511 N   0  3  0  0  0  0  0  0  0  0  0  0
  1  2  1  1  0  0  0
  1  3  1  0  0  0  0
  1 10  1  0  0  0  0
  3  4  1  1  0  0  0
  3  5  1  0  0  0  0
  5  6  1  6  0  0  0
  5  7  1  0  0  0  0
  7  8  1  1  0  0  0
  7  9  1  0  0  0  0
  9 10  1  0  0  0  0
  9 11  1  6  0  0  0
 11 35  1  0  0  0  0
 12 13  1  1  0  0  0
 12 14  1  0  0  0  0
 12 20  1  0  0  0  0
 14 15  1  0  0  0  0
 14 40  1  6  0  0  0
 15 16  1  6  0  0  0
 15 17  1  0  0  0  0
 17  2  1  6  0  0  0
 17 18  1  0  0  0  0
 18 19  1  1  0  0  0
 18 20  1  0  0  0  0
 21 16  1  6  0  0  0
 21 22  1  0  0  0  0
 21 25  1  0  0  0  0
 22 23  1  0  0  0  0
 22 36  1  1  0  0  0
 23 24  1  0  0  0  0
 23 31  1  1  0  0  0
 24 25  1  0  0  0  0
 24 26  1  6  0  0  0
 26 39  1  0  0  0  0
 27 28  1  0  0  0  0
 27 32  1  0  0  0  0
 27 38  1  1  0  0  0
 28 29  1  0  0  0  0
 28 37  1  6  0  0  0
 29 30  1  0  0  0  0
 29 42  1  1  0  0  0
 30 31  1  1  0  0  0
 30 33  1  0  0  0  0
 32 33  1  0  0  0  0
 32 34  1  6  0  0  0
 34 41  1  0  0  0  0
M  CHG  6   4   1  13   1  19   1  35   1  41   1  42   1
M  END
>  <CHROM.1>
-117.56030204,71.96214790,50.71946088,-169.90210082,-175.40265164,26.80377926
-175.77624149,-52.98956702,72.83156093,46.86431858,169.48602212,69.73873998
66.20585005,43.33516054,-58.89528396,173.33279707,67.55454409,69.19758133
43.01598216,-133.26480743,69.20571693,-174.57025752,-5.15454414,2.27312842
-2.28660615,1.97192219,-0.63732354,0.93266927

>  <Name>


>  <RI>
0

>  <Rbt.Current_Directory>
/home/itssahil/PROJECTS/Mol_Feturizer/New_Systems/rnas/1ei2

>  <Rbt.Executable>
rbdock ($Id: //depot/dev/client3/rdock/2013.1/src/exe/rbdock.cxx#4 $)

>  <Rbt.Library>
libRbt.so (2013.1, Build901 2013/11/27)

>  <Rbt.Parameter_File>
/export/apps/rDock/src/rDock_2013.1_src/data/scripts/dock_solv.prm

>  <Rbt.Receptor>
prm/pocket_docking_6.prm

>  <SCORE>
-44.4809

>  <SCORE.INTER>
-26.7108

>  <SCORE.INTER.CONST>
1

>  <SCORE.INTER.POLAR>
-3.83022

>  <SCORE.INTER.ROT>
9

>  <SCORE.INTER.SOLV>
20.5246

>  <SCORE.INTER.VDW>
-21.4814

>  <SCORE.INTER.norm>
-0.635972

>  <SCORE.INTRA>
-17.7701

>  <SCORE.INTRA.DIHEDRAL>
-16.0638

>  <SCORE.INTRA.DIHEDRAL.0>
40.8761

>  <SCORE.INTRA.POLAR>
-1.07467

>  <SCORE.INTRA.POLAR.0>
-0.0268208

>  <SCORE.INTRA.REPUL>
-0.63933

>  <SCORE.INTRA.REPUL.0>
0.641615

>  <SCORE.INTRA.SOLV>
-4.05668

>  <SCORE.INTRA.SOLV.lig_0>
-162.567

>  <SCORE.INTRA.VDW>
-0.859304

>  <SCORE.INTRA.VDW.0>
-4.80338

>  <SCORE.INTRA.norm>
-0.423097

>  <SCORE.RESTR>
0

>  <SCORE.RESTR.CAVITY>
0

>  <SCORE.RESTR.norm>
0

>  <SCORE.SYSTEM>
0

>  <SCORE.SYSTEM.CONST>
0

>  <SCORE.SYSTEM.DIHEDRAL>
0

>  <SCORE.SYSTEM.SOLV>
0

>  <SCORE.SYSTEM.norm>
0

>  <SCORE.heavy>
42

>  <SCORE.norm>
-1.05907

>  <RMSD>
4.831

$$$$

 OpenBabel11021811393D
libRbt.so/2013.1/901 2013/11/27
 42 45  0  0  0  0  0  0  0  0999 V2000
   -4.1648    4.5157    1.4633 C   0  0  2  0  0  0  0  0  0  0  0  0
   -4.6752    5.4752    0.4873 O   0  0  0  0  0  0  0  0  0  0  0  0
   -2.6053    4.4190    1.4144 C   0  0  2  0  0  0  0  0  0  0  0  0
   -2.0105    5.5499    0.6657 N   0  3  0  0  0  0  0  0  0  0  0  0
   -2.1573    3.0594    0.7981 C   0  0  1  0  0  0  0  0  0  0  0  0
   -0.7340    2.9787    0.7681 O   0  0  0  0  0  0  0  0  0  0  0  0
   -2.7018    1.8523    1.6079 C   0  0  2  0  0  0  0  0  0  0  0  0
   -2.5093    0.6662    0.8451 O   0  0  0  0  0  0  0  0  0  0  0  0
   -4.2176    2.0325    1.9447 C   0  0  2  0  0  0  0  0  0  0  0  0
   -4.7577    3.1921    1.2314 O   0  0  0  0  0  0  0  0  0  0  0  0
   -4.5188    2.2611    3.4438 C   0  0  0  0  0  0  0  0  0  0  0  0
   -8.8252    4.9296    1.5362 C   0  0  1  0  0  0  0  0  0  0  0  0
  -10.2995    5.0476    1.5895 N   0  3  0  0  0  0  0  0  0  0  0  0
   -8.3536    4.2814    0.2082 C   0  0  1  0  0  0  0  0  0  0  0  0
   -6.7954    4.2672    0.0300 C   0  0  1  0  0  0  0  0  0  0  0  0
   -6.5002    3.9468   -1.3561 O   0  0  0  0  0  0  0  0  0  0  0  0
   -6.1190    5.6503    0.3518 C   0  0  1  0  0  0  0  0  0  0  0  0
   -6.6536    6.2679    1.6844 C   0  0  1  0  0  0  0  0  0  0  0  0
   -6.1321    7.6311    1.9122 N   0  3  0  0  0  0  0  0  0  0  0  0
   -8.1974    6.3282    1.7110 C   0  0  0  0  0  0  0  0  0  0  0  0
   -6.7914    4.9238   -2.3970 C   0  0  1  0  0  0  0  0  0  0  0  0
   -5.5163    5.1818   -3.1910 C   0  0  1  0  0  0  0  0  0  0  0  0
   -5.5257    3.9687   -4.1111 C   0  0  1  0  0  0  0  0  0  0  0  0
   -7.0120    3.8735   -4.4840 C   0  0  2  0  0  0  0  0  0  0  0  0
   -7.7335    4.3770   -3.3344 O   0  0  0  0  0  0  0  0  0  0  0  0
   -7.4617    2.4367   -4.8043 C   0  0  0  0  0  0  0  0  0  0  0  0
   -3.1087    0.9668   -3.8916 C   0  0  1  0  0  0  0  0  0  0  0  0
   -3.6615    1.1428   -5.3334 C   0  0  1  0  0  0  0  0  0  0  0  0
   -3.1243    2.4036   -6.0702 C   0  0  2  0  0  0  0  0  0  0  0  0
   -3.3170    3.6892   -5.2031 C   0  0  1  0  0  0  0  0  0  0  0  0
   -4.6857    4.1788   -5.2825 O   0  0  0  0  0  0  0  0  0  0  0  0
   -2.2474    2.1973   -3.4740 C   0  0  1  0  0  0  0  0  0  0  0  0
   -2.9719    3.4319   -3.7859 O   0  0  0  0  0  0  0  0  0  0  0  0
   -1.8867    2.1837   -1.9661 C   0  0  0  0  0  0  0  0  0  0  0  0
   -5.3408    1.2091    4.0675 N   0  3  0  0  0  0  0  0  0  0  0  0
   -5.6438    6.3983   -3.9274 O   0  0  0  0  0  0  0  0  0  0  0  0
   -3.3101   -0.0126   -6.0937 O   0  0  0  0  0  0  0  0  0  0  0  0
   -4.2147    0.8142   -2.9992 O   0  0  0  0  0  0  0  0  0  0  0  0
   -6.4169    1.7065   -5.4241 O   0  0  0  0  0  0  0  0  0  0  0  0
   -8.8294    2.9365    0.1600 O   0  0  0  0  0  0  0  0  0  0  0  0
   -0.7045    1.3550   -1.6666 N   0  3  0  0  0  0  0  0  0  0  0  0
   -3.7174    2.5338   -7.4243 N   0  3  0  0  0  0  0  0  0  0  0  0
  1  2  1  6  0  0  0
  1  3  1  0  0  0  0
  1 10  1  0  0  0  0
  3  4  1  6  0  0  0
  3  5  1  0  0  0  0
  5  6  1  1  0  0  0
  5  7  1  0  0  0  0
  7  8  1  6  0  0  0
  7  9  1  0  0  0  0
  9 10  1  0  0  0  0
  9 11  1  1  0  0  0
 11 35  1  0  0  0  0
 12 13  1  6  0  0  0
 12 14  1  0  0  0  0
 12 20  1  0  0  0  0
 14 15  1  0  0  0  0
 14 40  1  1  0  0  0
 15 16  1  6  0  0  0
 15 17  1  0  0  0  0
 17  2  1  1  0  0  0
 17 18  1  0  0  0  0
 18 19  1  6  0  0  0
 18 20  1  0  0  0  0
 21 16  1  1  0  0  0
 21 22  1  0  0  0  0
 21 25  1  0  0  0  0
 22 23  1  0  0  0  0
 22 36  1  6  0  0  0
 23 24  1  0  0  0  0
 23 31  1  6  0  0  0
 24 25  1  0  0  0  0
 24 26  1  1  0  0  0
 26 39  1  0  0  0  0
 27 28  1  0  0  0  0
 27 32  1  0  0  0  0
 27 38  1  1  0  0  0
 28 29  1  0  0  0  0
 28 37  1  6  0  0  0
 29 30  1  0  0  0  0
 29 42  1  6  0  0  0
 30 31  1  1  0  0  0
 30 33  1  0  0  0  0
 32 33  1  0  0  0  0
 32 34  1  1  0  0  0
 34 41  1  0  0  0  0
M  CHG  6   4   1  13   1  19   1  35   1  41   1  42   1
M  END
>  <CHROM.1>
177.26876380,-56.38471946,103.35576105,62.87005659,174.77222979,-117.16860876
-62.13732523,-65.48679064,174.26073406,70.38176179,124.96666194,-150.68644149
-147.16105414,94.41600194,-33.74099697,176.56461060,179.13419281,58.82058175
-110.66547226,106.44421275,83.60424251,-93.98548125,-4.89597874,3.45378970
-1.39517358,-1.93137862,0.48697972,-1.71552477

>  <Name>


>  <RI>
0

>  <Rbt.Current_Directory>
/home/itssahil/PROJECTS/Mol_Feturizer/New_Systems/rnas/1ei2

>  <Rbt.Executable>
rbdock ($Id: //depot/dev/client3/rdock/2013.1/src/exe/rbdock.cxx#4 $)

>  <Rbt.Library>
libRbt.so (2013.1, Build901 2013/11/27)

>  <Rbt.Parameter_File>
/export/apps/rDock/src/rDock_2013.1_src/data/scripts/dock_solv.prm

>  <Rbt.Receptor>
prm/pocket_docking_2.prm

>  <SCORE>
-38.323

>  <SCORE.INTER>
-32.8071

>  <SCORE.INTER.CONST>
1

>  <SCORE.INTER.POLAR>
-5.68705

>  <SCORE.INTER.ROT>
9

>  <SCORE.INTER.SOLV>
28.9739

>  <SCORE.INTER.VDW>
-22.1725

>  <SCORE.INTER.norm>
-0.781122

>  <SCORE.INTRA>
-8.63037

>  <SCORE.INTRA.DIHEDRAL>
1.56934

>  <SCORE.INTRA.DIHEDRAL.0>
40.8761

>  <SCORE.INTRA.POLAR>
-1.31615

>  <SCORE.INTRA.POLAR.0>
-0.0268208

>  <SCORE.INTRA.REPUL>
-0.619656

>  <SCORE.INTRA.REPUL.0>
0.641615

>  <SCORE.INTRA.SOLV>
-7.67706

>  <SCORE.INTRA.SOLV.lig_0>
-162.567

>  <SCORE.INTRA.VDW>
1.99668

>  <SCORE.INTRA.VDW.0>
-4.80338

>  <SCORE.INTRA.norm>
-0.205485

>  <SCORE.RESTR>
3.11447

>  <SCORE.RESTR.CAVITY>
3.11447

>  <SCORE.RESTR.norm>
0.0741541

>  <SCORE.SYSTEM>
0

>  <SCORE.SYSTEM.CONST>
0

>  <SCORE.SYSTEM.DIHEDRAL>
0

>  <SCORE.SYSTEM.SOLV>
0

>  <SCORE.SYSTEM.norm>
0

>  <SCORE.heavy>
42

>  <SCORE.norm>
-0.912453

>  <RMSD>
4.904

$$$$

 OpenBabel11021811393D
libRbt.so/2013.1/901 2013/11/27
 42 45  0  0  0  0  0  0  0  0999 V2000
   -5.4610    3.3800    0.8442 C   0  0  2  0  0  0  0  0  0  0  0  0
   -5.3154    1.9272    0.8012 O   0  0  0  0  0  0  0  0  0  0  0  0
   -6.1696    3.9258   -0.4379 C   0  0  2  0  0  0  0  0  0  0  0  0
   -6.8276    2.8417   -1.2026 N   0  3  0  0  0  0  0  0  0  0  0  0
   -5.1583    4.6952   -1.3402 C   0  0  1  0  0  0  0  0  0  0  0  0
   -5.8179    5.1968   -2.5007 O   0  0  0  0  0  0  0  0  0  0  0  0
   -4.5079    5.8881   -0.5896 C   0  0  2  0  0  0  0  0  0  0  0  0
   -3.4027    6.3600   -1.3522 O   0  0  0  0  0  0  0  0  0  0  0  0
   -4.0326    5.4681    0.8391 C   0  0  2  0  0  0  0  0  0  0  0  0
   -4.1470    4.0170    1.0017 O   0  0  0  0  0  0  0  0  0  0  0  0
   -4.8382    6.1034    1.9957 C   0  0  0  0  0  0  0  0  0  0  0  0
   -2.3341    1.7387    3.9150 C   0  0  1  0  0  0  0  0  0  0  0  0
   -1.3455    1.2477    4.9009 N   0  3  0  0  0  0  0  0  0  0  0  0
   -1.8320    1.5442    2.4603 C   0  0  1  0  0  0  0  0  0  0  0  0
   -2.8988    1.9075    1.3694 C   0  0  1  0  0  0  0  0  0  0  0  0
   -2.4397    1.3844    0.0940 O   0  0  0  0  0  0  0  0  0  0  0  0
   -4.3164    1.2881    1.6538 C   0  0  1  0  0  0  0  0  0  0  0  0
   -4.7561    1.4892    3.1401 C   0  0  1  0  0  0  0  0  0  0  0  0
   -6.0158    0.7812    3.4463 N   0  3  0  0  0  0  0  0  0  0  0  0
   -3.6736    1.0038    4.1302 C   0  0  0  0  0  0  0  0  0  0  0  0
   -3.1711    1.7131   -1.1225 C   0  0  1  0  0  0  0  0  0  0  0  0
   -2.3526    1.2488   -2.3214 C   0  0  1  0  0  0  0  0  0  0  0  0
   -2.7040   -0.2328   -2.3258 C   0  0  1  0  0  0  0  0  0  0  0  0
   -4.2063   -0.1962   -2.0112 C   0  0  2  0  0  0  0  0  0  0  0  0
   -4.3992    0.9688   -1.1738 O   0  0  0  0  0  0  0  0  0  0  0  0
   -4.7001   -1.4595   -1.2836 C   0  0  0  0  0  0  0  0  0  0  0  0
   -2.7205   -0.6162   -7.4433 C   0  0  1  0  0  0  0  0  0  0  0  0
   -2.4306   -1.9153   -6.6410 C   0  0  1  0  0  0  0  0  0  0  0  0
   -3.4283   -2.1786   -5.4764 C   0  0  2  0  0  0  0  0  0  0  0  0
   -3.5557   -0.9278   -4.5484 C   0  0  1  0  0  0  0  0  0  0  0  0
   -2.4365   -0.8425   -3.6214 O   0  0  0  0  0  0  0  0  0  0  0  0
   -3.8744    0.1977   -6.7826 C   0  0  1  0  0  0  0  0  0  0  0  0
   -3.6273    0.3196   -5.3437 O   0  0  0  0  0  0  0  0  0  0  0  0
   -4.0280    1.6132   -7.3964 C   0  0  0  0  0  0  0  0  0  0  0  0
   -4.3952    7.4565    2.3756 N   0  3  0  0  0  0  0  0  0  0  0  0
   -2.8162    1.9002   -3.5043 O   0  0  0  0  0  0  0  0  0  0  0  0
   -2.4813   -3.0208   -7.5420 O   0  0  0  0  0  0  0  0  0  0  0  0
   -1.5254    0.1668   -7.4825 O   0  0  0  0  0  0  0  0  0  0  0  0
   -4.5514   -2.6058   -2.1039 O   0  0  0  0  0  0  0  0  0  0  0  0
   -0.6794    2.3619    2.2597 O   0  0  0  0  0  0  0  0  0  0  0  0
   -5.2393    2.3123   -6.9297 N   0  3  0  0  0  0  0  0  0  0  0  0
   -3.0753   -3.4109   -4.7286 N   0  3  0  0  0  0  0  0  0  0  0  0
  1  2  1  6  0  0  0
  1  3  1  0  0  0  0
  1 10  1  0  0  0  0
  3  4  1  6  0  0  0
  3  5  1  0  0  0  0
  5  6  1  6  0  0  0
  5  7  1  0  0  0  0
  7  8  1  6  0  0  0
  7  9  1  0  0  0  0
  9 10  1  0  0  0  0
  9 11  1  1  0  0  0
 11 35  1  0  0  0  0
 12 13  1  1  0  0  0
 12 14  1  0  0  0  0
 12 20  1  0  0  0  0
 14 15  1  0  0  0  0
 14 40  1  6  0  0  0
 15 16  1  6  0  0  0
 15 17  1  0  0  0  0
 17  2  1  6  0  0  0
 17 18  1  0  0  0  0
 18 19  1  1  0  0  0
 18 20  1  0  0  0  0
 21 16  1  1  0  0  0
 21 22  1  0  0  0  0
 21 25  1  0  0  0  0
 22 23  1  0  0  0  0
 22 36  1  6  0  0  0
 23 24  1  0  0  0  0
 23 31  1  6  0  0  0
 24 25  1  0  0  0  0
 24 26  1  1  0  0  0
 26 39  1  0  0  0  0
 27 28  1  0  0  0  0
 27 32  1  0  0  0  0
 27 38  1  1  0  0  0
 28 29  1  0  0  0  0
 28 37  1  6  0  0  0
 29 30  1  0  0  0  0
 29 42  1  1  0  0  0
 30 31  1  1  0  0  0
 30 33  1  0  0  0  0
 32 33  1  0  0  0  0
 32 34  1  6  0  0  0
 34 41  1  0  0  0  0
M  CHG  6   4   1  13   1  19   1  35   1  41   1  42   1
M  END
>  <CHROM.1>
159.80303459,-55.89120323,-158.88291427,-178.43058431,92.13283600,-83.67922172
-74.96856300,-57.39446285,-175.81953765,-173.06082805,170.28023618,78.41561189
-166.92231951,-94.90895569,-63.77377853,-60.20191740,175.36290762,57.61358813
-76.71864726,-149.22219050,171.13143670,-171.83745132,-3.75377112,1.55368386
-1.50534160,1.84848239,-1.27830948,1.35138370

>  <Name>


>  <RI>
0

>  <Rbt.Current_Directory>
/home/itssahil/PROJECTS/Mol_Feturizer/New_Systems/rnas/1ei2

>  <Rbt.Executable>
rbdock ($Id: //depot/dev/client3/rdock/2013.1/src/exe/rbdock.cxx#4 $)

>  <Rbt.Library>
libRbt.so (2013.1, Build901 2013/11/27)

>  <Rbt.Parameter_File>
/export/apps/rDock/src/rDock_2013.1_src/data/scripts/dock_solv.prm

>  <Rbt.Receptor>
prm/pocket_docking_7.prm

>  <SCORE>
-58.8383

>  <SCORE.INTER>
-34.8346

>  <SCORE.INTER.CONST>
1

>  <SCORE.INTER.POLAR>
-5.3647

>  <SCORE.INTER.ROT>
9

>  <SCORE.INTER.SOLV>
29.1726

>  <SCORE.INTER.VDW>
-24.6649

>  <SCORE.INTER.norm>
-0.829396

>  <SCORE.INTRA>
-24.0036

>  <SCORE.INTRA.DIHEDRAL>
-19.0274

>  <SCORE.INTRA.DIHEDRAL.0>
40.8761

>  <SCORE.INTRA.POLAR>
-2.88218

>  <SCORE.INTRA.POLAR.0>
-0.0268208

>  <SCORE.INTRA.REPUL>
-0.63872

>  <SCORE.INTRA.REPUL.0>
0.641615

>  <SCORE.INTRA.SOLV>
-9.91041

>  <SCORE.INTRA.SOLV.lig_0>
-162.567

>  <SCORE.INTRA.VDW>
3.4583

>  <SCORE.INTRA.VDW.0>
-4.80338

>  <SCORE.INTRA.norm>
-0.571515

>  <SCORE.RESTR>
0

>  <SCORE.RESTR.CAVITY>
0

>  <SCORE.RESTR.norm>
0

>  <SCORE.SYSTEM>
0

>  <SCORE.SYSTEM.CONST>
0

>  <SCORE.SYSTEM.DIHEDRAL>
0

>  <SCORE.SYSTEM.SOLV>
0

>  <SCORE.SYSTEM.norm>
0

>  <SCORE.heavy>
42

>  <SCORE.norm>
-1.40091

>  <RMSD>
4.910

$$$$

 OpenBabel11021811393D
libRbt.so/2013.1/901 2013/11/27
 42 45  0  0  0  0  0  0  0  0999 V2000
   -3.3831    3.8937    1.7003 C   0  0  2  0  0  0  0  0  0  0  0  0
   -3.7643    5.0931    0.9586 O   0  0  0  0  0  0  0  0  0  0  0  0
   -1.9278    3.4404    1.3532 C   0  0  2  0  0  0  0  0  0  0  0  0
   -1.1763    4.5054    0.6502 N   0  3  0  0  0  0  0  0  0  0  0  0
   -1.9463    2.1331    0.5050 C   0  0  1  0  0  0  0  0  0  0  0  0
   -0.6139    1.7241    0.2035 O   0  0  0  0  0  0  0  0  0  0  0  0
   -2.6607    0.9732    1.2490 C   0  0  2  0  0  0  0  0  0  0  0  0
   -2.8992   -0.0835    0.3260 O   0  0  0  0  0  0  0  0  0  0  0  0
   -4.0098    1.4491    1.8789 C   0  0  2  0  0  0  0  0  0  0  0  0
   -4.3282    2.8042    1.4232 O   0  0  0  0  0  0  0  0  0  0  0  0
   -4.0157    1.4940    3.4243 C   0  0  0  0  0  0  0  0  0  0  0  0
   -7.9072    5.0351    2.1639 C   0  0  1  0  0  0  0  0  0  0  0  0
   -9.3451    5.3554    2.3058 N   0  3  0  0  0  0  0  0  0  0  0  0
   -7.5860    4.4715    0.7548 C   0  0  1  0  0  0  0  0  0  0  0  0
   -6.0546    4.2548    0.4946 C   0  0  1  0  0  0  0  0  0  0  0  0
   -5.8616    4.0451   -0.9301 O   0  0  0  0  0  0  0  0  0  0  0  0
   -5.1706    5.4853    0.9172 C   0  0  1  0  0  0  0  0  0  0  0  0
   -5.5585    6.0273    2.3310 C   0  0  1  0  0  0  0  0  0  0  0  0
   -4.8342    7.2702    2.6662 N   0  3  0  0  0  0  0  0  0  0  0  0
   -7.0746    6.3034    2.4444 C   0  0  0  0  0  0  0  0  0  0  0  0
   -6.2568    5.0863   -1.8695 C   0  0  1  0  0  0  0  0  0  0  0  0
   -5.3102    5.0475   -3.0634 C   0  0  1  0  0  0  0  0  0  0  0  0
   -5.9185    3.8931   -3.8480 C   0  0  1  0  0  0  0  0  0  0  0  0
   -7.4208    4.1667   -3.6878 C   0  0  2  0  0  0  0  0  0  0  0  0
   -7.5638    4.8032   -2.3956 O   0  0  0  0  0  0  0  0  0  0  0  0
   -8.2753    2.8877   -3.7461 C   0  0  0  0  0  0  0  0  0  0  0  0
   -3.1735    0.9446   -5.8985 C   0  0  1  0  0  0  0  0  0  0  0  0
   -3.9875    1.7009   -6.9852 C   0  0  1  0  0  0  0  0  0  0  0  0
   -3.8162    3.2470   -6.9459 C   0  0  2  0  0  0  0  0  0  0  0  0
   -4.0820    3.8081   -5.5119 C   0  0  1  0  0  0  0  0  0  0  0  0
   -5.5088    3.9210   -5.2456 O   0  0  0  0  0  0  0  0  0  0  0  0
   -2.4850    1.9472   -4.9234 C   0  0  1  0  0  0  0  0  0  0  0  0
   -3.4592    2.9476   -4.4798 O   0  0  0  0  0  0  0  0  0  0  0  0
   -1.8747    1.2437   -3.6838 C   0  0  0  0  0  0  0  0  0  0  0  0
   -5.3538    1.3864    4.0320 N   0  3  0  0  0  0  0  0  0  0  0  0
   -5.3957    6.2751   -3.7876 O   0  0  0  0  0  0  0  0  0  0  0  0
   -3.5727    1.2299   -8.2668 O   0  0  0  0  0  0  0  0  0  0  0  0
   -4.0655    0.0909   -5.1784 O   0  0  0  0  0  0  0  0  0  0  0  0
   -8.0261    2.0618   -2.6216 O   0  0  0  0  0  0  0  0  0  0  0  0
   -8.2558    3.2209    0.5974 O   0  0  0  0  0  0  0  0  0  0  0  0
   -1.0981    2.1600   -2.8287 N   0  3  0  0  0  0  0  0  0  0  0  0
   -4.6462    3.9107   -7.9817 N   0  3  0  0  0  0  0  0  0  0  0  0
  1  2  1  6  0  0  0
  1  3  1  0  0  0  0
  1 10  1  0  0  0  0
  3  4  1  6  0  0  0
  3  5  1  0  0  0  0
  5  6  1  1  0  0  0
  5  7  1  0  0  0  0
  7  8  1  6  0  0  0
  7  9  1  0  0  0  0
  9 10  1  0  0  0  0
  9 11  1  1  0  0  0
 11 35  1  0  0  0  0
 12 13  1  6  0  0  0
 12 14  1  0  0  0  0
 12 20  1  0  0  0  0
 14 15  1  0  0  0  0
 14 40  1  1  0  0  0
 15 16  1  6  0  0  0
 15 17  1  0  0  0  0
 17  2  1  1  0  0  0
 17 18  1  0  0  0  0
 18 19  1  6  0  0  0
 18 20  1  0  0  0  0
 21 16  1  1  0  0  0
 21 22  1  0  0  0  0
 21 25  1  0  0  0  0
 22 23  1  0  0  0  0
 22 36  1  6  0  0  0
 23 24  1  0  0  0  0
 23 31  1  6  0  0  0
 24 25  1  0  0  0  0
 24 26  1  1  0  0  0
 26 39  1  0  0  0  0
 27 28  1  0  0  0  0
 27 32  1  0  0  0  0
 27 38  1  1  0  0  0
 28 29  1  0  0  0  0
 28 37  1  6  0  0  0
 29 30  1  0  0  0  0
 29 42  1  6  0  0  0
 30 31  1  1  0  0  0
 30 33  1  0  0  0  0
 32 33  1  0  0  0  0
 32 34  1  1  0  0  0
 34 41  1  0  0  0  0
M  CHG  6   4   1  13   1  19   1  35   1  41   1  42   1
M  END
>  <CHROM.1>
166.16288223,-50.42078404,-69.30513873,56.13948620,45.36722405,-155.88545745
50.28395276,-43.97479090,66.45727945,60.20725558,147.72375601,-80.39015487
-62.17606751,60.91580714,67.24127960,64.62608273,60.75515304,175.86721869
172.48675415,155.65322005,173.87416841,152.57452437,-4.75523967,3.36159235
-1.47190848,-1.76710891,0.54419871,-1.67488261

>  <Name>


>  <RI>
0

>  <Rbt.Current_Directory>
/home/itssahil/PROJECTS/Mol_Feturizer/New_Systems/rnas/1ei2

>  <Rbt.Executable>
rbdock ($Id: //depot/dev/client3/rdock/2013.1/src/exe/rbdock.cxx#4 $)

>  <Rbt.Library>
libRbt.so (2013.1, Build901 2013/11/27)

>  <Rbt.Parameter_File>
/export/apps/rDock/src/rDock_2013.1_src/data/scripts/dock_solv.prm

>  <Rbt.Receptor>
prm/pocket_docking_3.prm

>  <SCORE>
-51.1418

>  <SCORE.INTER>
-30.7715

>  <SCORE.INTER.CONST>
1

>  <SCORE.INTER.POLAR>
-4.87504

>  <SCORE.INTER.ROT>
9

>  <SCORE.INTER.SOLV>
27.8076

>  <SCORE.INTER.VDW>
-23.1334

>  <SCORE.INTER.norm>
-0.732656

>  <SCORE.INTRA>
-20.6024

>  <SCORE.INTRA.DIHEDRAL>
-25.0513

>  <SCORE.INTRA.DIHEDRAL.0>
40.8761

>  <SCORE.INTRA.POLAR>
-1.14788

>  <SCORE.INTRA.POLAR.0>
-0.0268208

>  <SCORE.INTRA.REPUL>
-0.641615

>  <SCORE.INTRA.REPUL.0>
0.641615

>  <SCORE.INTRA.SOLV>
-8.90291

>  <SCORE.INTRA.SOLV.lig_0>
-162.567

>  <SCORE.INTRA.VDW>
3.48554

>  <SCORE.INTRA.VDW.0>
-4.80338

>  <SCORE.INTRA.norm>
-0.490534

>  <SCORE.RESTR>
0.23217

>  <SCORE.RESTR.CAVITY>
0.23217

>  <SCORE.RESTR.norm>
0.00552785

>  <SCORE.SYSTEM>
0

>  <SCORE.SYSTEM.CONST>
0

>  <SCORE.SYSTEM.DIHEDRAL>
0

>  <SCORE.SYSTEM.SOLV>
0

>  <SCORE.SYSTEM.norm>
0

>  <SCORE.heavy>
42

>  <SCORE.norm>
-1.21766

>  <RMSD>
4.966

$$$$

 OpenBabel11021811393D
libRbt.so/2013.1/901 2013/11/27
 42 45  0  0  0  0  0  0  0  0999 V2000
   -4.3289    4.2643    2.4335 C   0  0  2  0  0  0  0  0  0  0  0  0
   -4.4202    5.3533    1.4642 O   0  0  0  0  0  0  0  0  0  0  0  0
   -2.8484    3.9910    2.8546 C   0  0  2  0  0  0  0  0  0  0  0  0
   -1.9532    5.1023    2.4587 N   0  3  0  0  0  0  0  0  0  0  0  0
   -2.3455    2.6435    2.2546 C   0  0  1  0  0  0  0  0  0  0  0  0
   -0.9983    2.4002    2.6537 O   0  0  0  0  0  0  0  0  0  0  0  0
   -3.2191    1.4458    2.7149 C   0  0  2  0  0  0  0  0  0  0  0  0
   -2.8962    0.3118    1.9178 O   0  0  0  0  0  0  0  0  0  0  0  0
   -4.7423    1.7732    2.5888 C   0  0  2  0  0  0  0  0  0  0  0  0
   -4.9280    3.0422    1.8814 O   0  0  0  0  0  0  0  0  0  0  0  0
   -5.4826    1.9120    3.9390 C   0  0  0  0  0  0  0  0  0  0  0  0
   -8.7315    5.5283    1.4220 C   0  0  1  0  0  0  0  0  0  0  0  0
  -10.1311    5.8827    1.0966 N   0  3  0  0  0  0  0  0  0  0  0  0
   -8.0568    4.7506    0.2618 C   0  0  1  0  0  0  0  0  0  0  0  0
   -6.5285    4.4792    0.4873 C   0  0  1  0  0  0  0  0  0  0  0  0
   -5.9527    4.0502   -0.7758 O   0  0  0  0  0  0  0  0  0  0  0  0
   -5.7338    5.7502    0.9638 C   0  0  1  0  0  0  0  0  0  0  0  0
   -6.4749    6.5080    2.1125 C   0  0  1  0  0  0  0  0  0  0  0  0
   -5.8077    7.7796    2.4586 N   0  3  0  0  0  0  0  0  0  0  0  0
   -7.9438    6.8153    1.7438 C   0  0  0  0  0  0  0  0  0  0  0  0
   -6.4009    4.6686   -2.0166 C   0  0  1  0  0  0  0  0  0  0  0  0
   -5.2983    4.5207   -3.0584 C   0  0  1  0  0  0  0  0  0  0  0  0
   -5.5441    3.0856   -3.5040 C   0  0  1  0  0  0  0  0  0  0  0  0
   -7.0775    3.0368   -3.5613 C   0  0  2  0  0  0  0  0  0  0  0  0
   -7.5335    3.9557   -2.5398 O   0  0  0  0  0  0  0  0  0  0  0  0
   -7.6453    1.6301   -3.3003 C   0  0  0  0  0  0  0  0  0  0  0  0
   -2.3617    0.0356   -4.2377 C   0  0  1  0  0  0  0  0  0  0  0  0
   -3.0617    0.3475   -5.5898 C   0  0  1  0  0  0  0  0  0  0  0  0
   -2.9934    1.8441   -6.0100 C   0  0  2  0  0  0  0  0  0  0  0  0
   -3.4904    2.7769   -4.8590 C   0  0  1  0  0  0  0  0  0  0  0  0
   -4.9446    2.8188   -4.8045 O   0  0  0  0  0  0  0  0  0  0  0  0
   -1.8789    1.3474   -3.5476 C   0  0  1  0  0  0  0  0  0  0  0  0
   -2.9653    2.3304   -3.5480 O   0  0  0  0  0  0  0  0  0  0  0  0
   -1.4048    1.1106   -2.0905 C   0  0  0  0  0  0  0  0  0  0  0  0
   -5.8461    0.6305    4.5691 N   0  3  0  0  0  0  0  0  0  0  0  0
   -5.5150    5.4443   -4.1254 O   0  0  0  0  0  0  0  0  0  0  0  0
   -2.4442   -0.4393   -6.6077 O   0  0  0  0  0  0  0  0  0  0  0  0
   -3.2908   -0.6507   -3.3957 O   0  0  0  0  0  0  0  0  0  0  0  0
   -8.7456    1.6866   -2.4087 O   0  0  0  0  0  0  0  0  0  0  0  0
   -8.7225    3.4983    0.1009 O   0  0  0  0  0  0  0  0  0  0  0  0
   -0.2658    1.9668   -1.7117 N   0  3  0  0  0  0  0  0  0  0  0  0
   -3.7105    2.0816   -7.2873 N   0  3  0  0  0  0  0  0  0  0  0  0
  1  2  1  6  0  0  0
  1  3  1  0  0  0  0
  1 10  1  0  0  0  0
  3  4  1  6  0  0  0
  3  5  1  0  0  0  0
  5  6  1  1  0  0  0
  5  7  1  0  0  0  0
  7  8  1  6  0  0  0
  7  9  1  0  0  0  0
  9 10  1  0  0  0  0
  9 11  1  1  0  0  0
 11 35  1  0  0  0  0
 12 13  1  6  0  0  0
 12 14  1  0  0  0  0
 12 20  1  0  0  0  0
 14 15  1  0  0  0  0
 14 40  1  1  0  0  0
 15 16  1  6  0  0  0
 15 17  1  0  0  0  0
 17  2  1  1  0  0  0
 17 18  1  0  0  0  0
 18 19  1  6  0  0  0
 18 20  1  0  0  0  0
 21 16  1  1  0  0  0
 21 22  1  0  0  0  0
 21 25  1  0  0  0  0
 22 23  1  0  0  0  0
 22 36  1  6  0  0  0
 23 24  1  0  0  0  0
 23 31  1  6  0  0  0
 24 25  1  0  0  0  0
 24 26  1  1  0  0  0
 26 39  1  0  0  0  0
 27 28  1  0  0  0  0
 27 32  1  0  0  0  0
 27 38  1  1  0  0  0
 28 29  1  0  0  0  0
 28 37  1  6  0  0  0
 29 30  1  0  0  0  0
 29 42  1  6  0  0  0
 30 31  1  1  0  0  0
 30 33  1  0  0  0  0
 32 33  1  0  0  0  0
 32 34  1  1  0  0  0
 34 41  1  0  0  0  0
M  CHG  6   4   1  13   1  19   1  35   1  41   1  42   1
M  END
>  <CHROM.1>
-179.69535956,-49.46480150,179.61632685,-62.17059273,-59.72788963,-79.72157841
123.13028175,89.44899107,168.41195787,38.19027686,155.86679330,-92.25519716
174.60911866,69.68424319,135.30074455,66.93919510,-53.65778538,-171.05335363
23.20157309,151.97559437,144.49197543,-159.73882817,-4.86613730,3.11697958
-0.88067559,-1.95224871,0.54061248,-1.78361884

>  <Name>


>  <RI>
0

>  <Rbt.Current_Directory>
/home/itssahil/PROJECTS/Mol_Feturizer/New_Systems/rnas/1ei2

>  <Rbt.Executable>
rbdock ($Id: //depot/dev/client3/rdock/2013.1/src/exe/rbdock.cxx#4 $)

>  <Rbt.Library>
libRbt.so (2013.1, Build901 2013/11/27)

>  <Rbt.Parameter_File>
/export/apps/rDock/src/rDock_2013.1_src/data/scripts/dock_solv.prm

>  <Rbt.Receptor>
prm/pocket_docking_3.prm

>  <SCORE>
-53.3652

>  <SCORE.INTER>
-37.676

>  <SCORE.INTER.CONST>
1

>  <SCORE.INTER.POLAR>
-6.89761

>  <SCORE.INTER.ROT>
9

>  <SCORE.INTER.SOLV>
30.9855

>  <SCORE.INTER.VDW>
-22.0538

>  <SCORE.INTER.norm>
-0.897047

>  <SCORE.INTRA>
-15.7745

>  <SCORE.INTRA.DIHEDRAL>
-9.92451

>  <SCORE.INTRA.DIHEDRAL.0>
40.8761

>  <SCORE.INTRA.POLAR>
-1.29637

>  <SCORE.INTRA.POLAR.0>
-0.0268208

>  <SCORE.INTRA.REPUL>
-0.641615

>  <SCORE.INTRA.REPUL.0>
0.641615

>  <SCORE.INTRA.SOLV>
-14.209

>  <SCORE.INTRA.SOLV.lig_0>
-162.567

>  <SCORE.INTRA.VDW>
3.90802

>  <SCORE.INTRA.VDW.0>
-4.80338

>  <SCORE.INTRA.norm>
-0.375583

>  <SCORE.RESTR>
0.0852953

>  <SCORE.RESTR.CAVITY>
0.0852953

>  <SCORE.RESTR.norm>
0.00203084

>  <SCORE.SYSTEM>
0

>  <SCORE.SYSTEM.CONST>
0

>  <SCORE.SYSTEM.DIHEDRAL>
0

>  <SCORE.SYSTEM.SOLV>
0

>  <SCORE.SYSTEM.norm>
0

>  <SCORE.heavy>
42

>  <SCORE.norm>
-1.2706

>  <RMSD>
4.966

$$$$

 OpenBabel11021811393D
libRbt.so/2013.1/901 2013/11/27
 42 45  0  0  0  0  0  0  0  0999 V2000
   -5.2606    2.1692    1.0385 C   0  0  2  0  0  0  0  0  0  0  0  0
   -6.6089    2.7147    1.1724 O   0  0  0  0  0  0  0  0  0  0  0  0
   -4.8668    1.2974    2.2750 C   0  0  2  0  0  0  0  0  0  0  0  0
   -6.0487    0.9467    3.0955 N   0  3  0  0  0  0  0  0  0  0  0  0
   -3.7954    2.0247    3.1422 C   0  0  1  0  0  0  0  0  0  0  0  0
   -3.4369    1.2160    4.2607 O   0  0  0  0  0  0  0  0  0  0  0  0
   -2.5107    2.3372    2.3290 C   0  0  2  0  0  0  0  0  0  0  0  0
   -1.7056    3.2422    3.0763 O   0  0  0  0  0  0  0  0  0  0  0  0
   -2.8577    2.9543    0.9353 C   0  0  2  0  0  0  0  0  0  0  0  0
   -4.2890    3.2561    0.8603 O   0  0  0  0  0  0  0  0  0  0  0  0
   -2.5394    2.0385   -0.2689 C   0  0  0  0  0  0  0  0  0  0  0  0
   -9.3835    3.8304   -1.9383 C   0  0  1  0  0  0  0  0  0  0  0  0
  -10.1001    4.5795   -2.9946 N   0  3  0  0  0  0  0  0  0  0  0  0
   -7.9546    3.4325   -2.3923 C   0  0  1  0  0  0  0  0  0  0  0  0
   -7.0941    2.7682   -1.2618 C   0  0  1  0  0  0  0  0  0  0  0  0
   -5.7092    2.7442   -1.7005 O   0  0  0  0  0  0  0  0  0  0  0  0
   -7.1463    3.5505    0.1019 C   0  0  1  0  0  0  0  0  0  0  0  0
   -8.6061    3.9495    0.4928 C   0  0  1  0  0  0  0  0  0  0  0  0
   -8.6432    4.8104    1.6925 N   0  3  0  0  0  0  0  0  0  0  0  0
   -9.3273    4.6882   -0.6570 C   0  0  0  0  0  0  0  0  0  0  0  0
   -4.9261    3.9725   -1.6752 C   0  0  1  0  0  0  0  0  0  0  0  0
   -3.8177    3.8630   -2.7155 C   0  0  1  0  0  0  0  0  0  0  0  0
   -4.6007    4.2055   -3.9757 C   0  0  1  0  0  0  0  0  0  0  0  0
   -5.4912    5.3558   -3.4847 C   0  0  2  0  0  0  0  0  0  0  0  0
   -5.7407    5.0832   -2.0850 O   0  0  0  0  0  0  0  0  0  0  0  0
   -6.8226    5.4557   -4.2507 C   0  0  0  0  0  0  0  0  0  0  0  0
   -4.3585    0.8498   -5.3172 C   0  0  1  0  0  0  0  0  0  0  0  0
   -5.1613    1.9492   -6.0671 C   0  0  1  0  0  0  0  0  0  0  0  0
   -4.2741    2.9714   -6.8347 C   0  0  2  0  0  0  0  0  0  0  0  0
   -3.1741    3.5753   -5.9035 C   0  0  1  0  0  0  0  0  0  0  0  0
   -3.7189    4.6262   -5.0561 O   0  0  0  0  0  0  0  0  0  0  0  0
   -2.8270    1.1290   -5.3982 C   0  0  1  0  0  0  0  0  0  0  0  0
   -2.5644    2.5282   -5.0517 O   0  0  0  0  0  0  0  0  0  0  0  0
   -2.0063    0.2076   -4.4594 C   0  0  0  0  0  0  0  0  0  0  0  0
   -1.9873    0.7219    0.0959 N   0  3  0  0  0  0  0  0  0  0  0  0
   -2.8062    4.8345   -2.4477 O   0  0  0  0  0  0  0  0  0  0  0  0
   -6.0323    1.3119   -7.0007 O   0  0  0  0  0  0  0  0  0  0  0  0
   -4.7843    0.8309   -3.9529 O   0  0  0  0  0  0  0  0  0  0  0  0
   -6.6485    5.1097   -5.6140 O   0  0  0  0  0  0  0  0  0  0  0  0
   -8.0581    2.5172   -3.4827 O   0  0  0  0  0  0  0  0  0  0  0  0
   -0.5503    0.3597   -4.6356 N   0  3  0  0  0  0  0  0  0  0  0  0
   -5.0973    4.0138   -7.4965 N   0  3  0  0  0  0  0  0  0  0  0  0
  1  2  1  1  0  0  0
  1  3  1  0  0  0  0
  1 10  1  0  0  0  0
  3  4  1  1  0  0  0
  3  5  1  0  0  0  0
  5  6  1  1  0  0  0
  5  7  1  0  0  0  0
  7  8  1  1  0  0  0
  7  9  1  0  0  0  0
  9 10  1  0  0  0  0
  9 11  1  6  0  0  0
 11 35  1  0  0  0  0
 12 13  1  6  0  0  0
 12 14  1  0  0  0  0
 12 20  1  0  0  0  0
 14 15  1  0  0  0  0
 14 40  1  6  0  0  0
 15 16  1  6  0  0  0
 15 17  1  0  0  0  0
 17  2  1  1  0  0  0
 17 18  1  0  0  0  0
 18 19  1  1  0  0  0
 18 20  1  0  0  0  0
 21 16  1  6  0  0  0
 21 22  1  0  0  0  0
 21 25  1  0  0  0  0
 22 23  1  0  0  0  0
 22 36  1  1  0  0  0
 23 24  1  0  0  0  0
 23 31  1  6  0  0  0
 24 25  1  0  0  0  0
 24 26  1  6  0  0  0
 26 39  1  0  0  0  0
 27 28  1  0  0  0  0
 27 32  1  0  0  0  0
 27 38  1  1  0  0  0
 28 29  1  0  0  0  0
 28 37  1  6  0  0  0
 29 30  1  0  0  0  0
 29 42  1  1  0  0  0
 30 31  1  1  0  0  0
 30 33  1  0  0  0  0
 32 33  1  0  0  0  0
 32 34  1  1  0  0  0
 34 41  1  0  0  0  0
M  CHG  6   4   1  13   1  19   1  35   1  41   1  42   1
M  END
>  <CHROM.1>
-179.65655073,55.94146098,36.36142549,64.30404057,-57.65835741,1.22940089
-171.48833097,138.41562451,-58.50307123,75.73575329,-154.36338305,-70.26394097
-168.60289482,87.35598590,-35.34920252,-176.27328510,-52.28647610,66.48404491
-162.42860957,71.88738242,173.69474383,127.64394657,-5.07365454,2.94546531
-1.98838135,-1.57103359,0.40286867,-1.50163640

>  <Name>


>  <RI>
0

>  <Rbt.Current_Directory>
/home/itssahil/PROJECTS/Mol_Feturizer/New_Systems/rnas/1ei2

>  <Rbt.Executable>
rbdock ($Id: //depot/dev/client3/rdock/2013.1/src/exe/rbdock.cxx#4 $)

>  <Rbt.Library>
libRbt.so (2013.1, Build901 2013/11/27)

>  <Rbt.Parameter_File>
/export/apps/rDock/src/rDock_2013.1_src/data/scripts/dock_solv.prm

>  <Rbt.Receptor>
prm/pocket_docking_2.prm

>  <SCORE>
-32.7886

>  <SCORE.INTER>
-20.3074

>  <SCORE.INTER.CONST>
1

>  <SCORE.INTER.POLAR>
-3.63023

>  <SCORE.INTER.ROT>
9

>  <SCORE.INTER.SOLV>
33.5837

>  <SCORE.INTER.VDW>
-22.2321

>  <SCORE.INTER.norm>
-0.483509

>  <SCORE.INTRA>
-17.6436

>  <SCORE.INTRA.DIHEDRAL>
-15.3654

>  <SCORE.INTRA.DIHEDRAL.0>
40.8761

>  <SCORE.INTRA.POLAR>
-1.22074

>  <SCORE.INTRA.POLAR.0>
-0.0268208

>  <SCORE.INTRA.REPUL>
-0.641615

>  <SCORE.INTRA.REPUL.0>
0.641615

>  <SCORE.INTRA.SOLV>
-3.91855

>  <SCORE.INTRA.SOLV.lig_0>
-162.567

>  <SCORE.INTRA.VDW>
-0.643049

>  <SCORE.INTRA.VDW.0>
-4.80338

>  <SCORE.INTRA.norm>
-0.420087

>  <SCORE.RESTR>
5.16243

>  <SCORE.RESTR.CAVITY>
5.16243

>  <SCORE.RESTR.norm>
0.122915

>  <SCORE.SYSTEM>
0

>  <SCORE.SYSTEM.CONST>
0

>  <SCORE.SYSTEM.DIHEDRAL>
0

>  <SCORE.SYSTEM.SOLV>
0

>  <SCORE.SYSTEM.norm>
0

>  <SCORE.heavy>
42

>  <SCORE.norm>
-0.78068

>  <RMSD>
4.969

$$$$

 OpenBabel11021811393D
libRbt.so/2013.1/901 2013/11/27
 42 45  0  0  0  0  0  0  0  0999 V2000
   -8.5478    6.9451    2.9085 C   0  0  2  0  0  0  0  0  0  0  0  0
   -7.7662    6.5014    4.0599 O   0  0  0  0  0  0  0  0  0  0  0  0
   -9.9567    6.2687    2.8738 C   0  0  2  0  0  0  0  0  0  0  0  0
  -10.2911    5.6350    4.1698 N   0  3  0  0  0  0  0  0  0  0  0  0
  -10.0383    5.2262    1.7182 C   0  0  1  0  0  0  0  0  0  0  0  0
  -11.3304    4.6236    1.6902 O   0  0  0  0  0  0  0  0  0  0  0  0
   -9.7685    5.8767    0.3349 C   0  0  2  0  0  0  0  0  0  0  0  0
   -9.5702    4.8444   -0.6247 O   0  0  0  0  0  0  0  0  0  0  0  0
   -8.5168    6.8118    0.3822 C   0  0  2  0  0  0  0  0  0  0  0  0
   -7.8230    6.6603    1.6632 O   0  0  0  0  0  0  0  0  0  0  0  0
   -8.8347    8.3173    0.2315 C   0  0  0  0  0  0  0  0  0  0  0  0
   -4.2109    8.6898    2.9690 C   0  0  1  0  0  0  0  0  0  0  0  0
   -2.8601    9.2945    2.9836 N   0  3  0  0  0  0  0  0  0  0  0  0
   -4.1417    7.1453    2.8427 C   0  0  1  0  0  0  0  0  0  0  0  0
   -5.5352    6.4373    2.9728 C   0  0  1  0  0  0  0  0  0  0  0  0
   -5.3056    5.0155    3.1646 O   0  0  0  0  0  0  0  0  0  0  0  0
   -6.3828    6.9501    4.1946 C   0  0  1  0  0  0  0  0  0  0  0  0
   -6.3923    8.5103    4.2873 C   0  0  1  0  0  0  0  0  0  0  0  0
   -7.0609    8.9888    5.5146 N   0  3  0  0  0  0  0  0  0  0  0  0
   -4.9630    9.0966    4.2533 C   0  0  0  0  0  0  0  0  0  0  0  0
   -6.3855    4.0721    2.9064 C   0  0  1  0  0  0  0  0  0  0  0  0
   -6.4453    3.8011    1.4078 C   0  0  1  0  0  0  0  0  0  0  0  0
   -5.3186    2.7855    1.2757 C   0  0  1  0  0  0  0  0  0  0  0  0
   -5.5342    1.9188    2.5246 C   0  0  2  0  0  0  0  0  0  0  0  0
   -6.0910    2.8076    3.5224 O   0  0  0  0  0  0  0  0  0  0  0  0
   -4.2339    1.2828    3.0479 C   0  0  0  0  0  0  0  0  0  0  0  0
   -3.4233    1.0591   -3.0765 C   0  0  1  0  0  0  0  0  0  0  0  0
   -4.9267    0.7387   -2.8477 C   0  0  1  0  0  0  0  0  0  0  0  0
   -5.7798    1.9672   -2.4187 C   0  0  2  0  0  0  0  0  0  0  0  0
   -5.1396    2.6999   -1.1960 C   0  0  1  0  0  0  0  0  0  0  0  0
   -5.4394    2.0085    0.0495 O   0  0  0  0  0  0  0  0  0  0  0  0
   -3.1019    2.5299   -2.6721 C   0  0  1  0  0  0  0  0  0  0  0  0
   -3.6709    2.8110   -1.3515 O   0  0  0  0  0  0  0  0  0  0  0  0
   -1.5786    2.8173   -2.6437 C   0  0  0  0  0  0  0  0  0  0  0  0
   -9.1541    8.7379   -1.1441 N   0  3  0  0  0  0  0  0  0  0  0  0
   -7.7088    3.2279    1.0707 O   0  0  0  0  0  0  0  0  0  0  0  0
   -5.4641    0.2131   -4.0607 O   0  0  0  0  0  0  0  0  0  0  0  0
   -2.6438    0.1516   -2.2943 O   0  0  0  0  0  0  0  0  0  0  0  0
   -4.3453    0.9645    4.4244 O   0  0  0  0  0  0  0  0  0  0  0  0
   -3.5796    6.8136    1.5733 O   0  0  0  0  0  0  0  0  0  0  0  0
   -0.9363    2.6366   -3.9585 N   0  3  0  0  0  0  0  0  0  0  0  0
   -7.1946    1.5879   -2.1805 N   0  3  0  0  0  0  0  0  0  0  0  0
  1  2  1  1  0  0  0
  1  3  1  0  0  0  0
  1 10  1  0  0  0  0
  3  4  1  1  0  0  0
  3  5  1  0  0  0  0
  5  6  1  6  0  0  0
  5  7  1  0  0  0  0
  7  8  1  6  0  0  0
  7  9  1  0  0  0  0
  9 10  1  0  0  0  0
  9 11  1  1  0  0  0
 11 35  1  0  0  0  0
 12 13  1  1  0  0  0
 12 14  1  0  0  0  0
 12 20  1  0  0  0  0
 14 15  1  0  0  0  0
 14 40  1  6  0  0  0
 15 16  1  1  0  0  0
 15 17  1  0  0  0  0
 17  2  1  6  0  0  0
 17 18  1  0  0  0  0
 18 19  1  1  0  0  0
 18 20  1  0  0  0  0
 21 16  1  6  0  0  0
 21 22  1  0  0  0  0
 21 25  1  0  0  0  0
 22 23  1  0  0  0  0
 22 36  1  1  0  0  0
 23 24  1  0  0  0  0
 23 31  1  6  0  0  0
 24 25  1  0  0  0  0
 24 26  1  1  0  0  0
 26 39  1  0  0  0  0
 27 28  1  0  0  0  0
 27 32  1  0  0  0  0
 27 38  1  1  0  0  0
 28 29  1  0  0  0  0
 28 37  1  6  0  0  0
 29 30  1  0  0  0  0
 29 42  1  1  0  0  0
 30 31  1  1  0  0  0
 30 33  1  0  0  0  0
 32 33  1  0  0  0  0
 32 34  1  1  0  0  0
 34 41  1  0  0  0  0
M  CHG  6   4   1  13   1  19   1  35   1  41   1  42   1
M  END
>  <CHROM.1>
175.18151404,-61.72296607,42.07614368,-63.93111064,-61.97722361,-75.83851105
-78.59803502,-177.66368636,63.95282330,-161.14367378,81.70075272,178.77115242
-63.97652737,72.08768975,156.47464588,178.68442163,61.53655472,61.97508131
54.70760940,-159.50967307,61.52896312,71.85479345,-6.12963309,4.62528328
1.04401570,2.00864389,-0.06547883,0.77243929

>  <Name>


>  <RI>
0

>  <Rbt.Current_Directory>
/home/itssahil/PROJECTS/Mol_Feturizer/New_Systems/rnas/1ei2

>  <Rbt.Executable>
rbdock ($Id: //depot/dev/client3/rdock/2013.1/src/exe/rbdock.cxx#4 $)

>  <Rbt.Library>
libRbt.so (2013.1, Build901 2013/11/27)

>  <Rbt.Parameter_File>
/export/apps/rDock/src/rDock_2013.1_src/data/scripts/dock_solv.prm

>  <Rbt.Receptor>
prm/pocket_docking_7.prm

>  <SCORE>
-54.4366

>  <SCORE.INTER>
-27.056

>  <SCORE.INTER.CONST>
1

>  <SCORE.INTER.POLAR>
-4.3301

>  <SCORE.INTER.ROT>
9

>  <SCORE.INTER.SOLV>
21.6794

>  <SCORE.INTER.VDW>
-20.4302

>  <SCORE.INTER.norm>
-0.644191

>  <SCORE.INTRA>
-27.3805

>  <SCORE.INTRA.DIHEDRAL>
-28.8705

>  <SCORE.INTRA.DIHEDRAL.0>
40.8761

>  <SCORE.INTRA.POLAR>
-0.973179

>  <SCORE.INTRA.POLAR.0>
-0.0268208

>  <SCORE.INTRA.REPUL>
-0.641615

>  <SCORE.INTRA.REPUL.0>
0.641615

>  <SCORE.INTRA.SOLV>
-10.8899

>  <SCORE.INTRA.SOLV.lig_0>
-162.567

>  <SCORE.INTRA.VDW>
-0.98345

>  <SCORE.INTRA.VDW.0>
-4.80338

>  <SCORE.INTRA.norm>
-0.651918

>  <SCORE.RESTR>
0

>  <SCORE.RESTR.CAVITY>
0

>  <SCORE.RESTR.norm>
0

>  <SCORE.SYSTEM>
0

>  <SCORE.SYSTEM.CONST>
0

>  <SCORE.SYSTEM.DIHEDRAL>
0

>  <SCORE.SYSTEM.SOLV>
0

>  <SCORE.SYSTEM.norm>
0

>  <SCORE.heavy>
42

>  <SCORE.norm>
-1.29611

>  <RMSD>
4.976

$$$$

 OpenBabel11021811393D
libRbt.so/2013.1/901 2013/11/27
 42 45  0  0  0  0  0  0  0  0999 V2000
   -5.9092    3.7565    2.9994 C   0  0  2  0  0  0  0  0  0  0  0  0
   -5.5069    2.5743    2.2417 O   0  0  0  0  0  0  0  0  0  0  0  0
   -6.6718    4.7839    2.1013 C   0  0  2  0  0  0  0  0  0  0  0  0
   -7.1079    4.1753    0.8236 N   0  3  0  0  0  0  0  0  0  0  0  0
   -5.7914    6.0421    1.8352 C   0  0  1  0  0  0  0  0  0  0  0  0
   -6.5011    6.9758    1.0240 O   0  0  0  0  0  0  0  0  0  0  0  0
   -5.3818    6.7486    3.1552 C   0  0  2  0  0  0  0  0  0  0  0  0
   -4.3597    7.6965    2.8681 O   0  0  0  0  0  0  0  0  0  0  0  0
   -4.8747    5.7187    4.2161 C   0  0  2  0  0  0  0  0  0  0  0  0
   -4.7335    4.3948    3.6056 O   0  0  0  0  0  0  0  0  0  0  0  0
   -5.8083    5.5415    5.4356 C   0  0  0  0  0  0  0  0  0  0  0  0
   -1.9653    1.7710    4.5724 C   0  0  1  0  0  0  0  0  0  0  0  0
   -0.8027    1.1005    5.1961 N   0  3  0  0  0  0  0  0  0  0  0  0
   -1.7647    1.9544    3.0452 C   0  0  1  0  0  0  0  0  0  0  0  0
   -3.0256    2.5231    2.3057 C   0  0  1  0  0  0  0  0  0  0  0  0
   -2.8333    2.3428    0.8769 O   0  0  0  0  0  0  0  0  0  0  0  0
   -4.3615    1.7926    2.7006 C   0  0  1  0  0  0  0  0  0  0  0  0
   -4.4946    1.6107    4.2473 C   0  0  1  0  0  0  0  0  0  0  0  0
   -5.6720    0.7959    4.6104 N   0  3  0  0  0  0  0  0  0  0  0  0
   -3.2391    0.9486    4.8581 C   0  0  0  0  0  0  0  0  0  0  0  0
   -2.9371    1.0087    0.3006 C   0  0  1  0  0  0  0  0  0  0  0  0
   -4.4127    0.6521    0.1650 C   0  0  1  0  0  0  0  0  0  0  0  0
   -4.7507    1.4005   -1.1172 C   0  0  1  0  0  0  0  0  0  0  0  0
   -3.5056    1.1275   -1.9731 C   0  0  2  0  0  0  0  0  0  0  0  0
   -2.4088    1.0082   -1.0358 O   0  0  0  0  0  0  0  0  0  0  0  0
   -3.2155    2.2475   -2.9884 C   0  0  0  0  0  0  0  0  0  0  0  0
   -7.1755    2.2509   -5.1118 C   0  0  1  0  0  0  0  0  0  0  0  0
   -7.7183    0.9714   -4.4164 C   0  0  1  0  0  0  0  0  0  0  0  0
   -8.1280    1.1816   -2.9300 C   0  0  2  0  0  0  0  0  0  0  0  0
   -6.9749    1.8520   -2.1159 C   0  0  1  0  0  0  0  0  0  0  0  0
   -5.9603    0.8786   -1.7386 O   0  0  0  0  0  0  0  0  0  0  0  0
   -7.0346    3.4200   -4.0903 C   0  0  1  0  0  0  0  0  0  0  0  0
   -6.3405    2.9429   -2.8914 O   0  0  0  0  0  0  0  0  0  0  0  0
   -6.2652    4.6310   -4.6781 C   0  0  0  0  0  0  0  0  0  0  0  0
   -5.9972    6.7610    6.2408 N   0  3  0  0  0  0  0  0  0  0  0  0
   -4.5554   -0.7590    0.0005 O   0  0  0  0  0  0  0  0  0  0  0  0
   -8.8588    0.5146   -5.1423 O   0  0  0  0  0  0  0  0  0  0  0  0
   -5.9044    1.9462   -5.6901 O   0  0  0  0  0  0  0  0  0  0  0  0
   -2.0561    1.9529   -3.7483 O   0  0  0  0  0  0  0  0  0  0  0  0
   -0.6706    2.8455    2.8300 O   0  0  0  0  0  0  0  0  0  0  0  0
   -6.9611    5.2535   -5.8192 N   0  3  0  0  0  0  0  0  0  0  0  0
   -8.6013   -0.0830   -2.3144 N   0  3  0  0  0  0  0  0  0  0  0  0
  1  2  1  6  0  0  0
  1  3  1  0  0  0  0
  1 10  1  0  0  0  0
  3  4  1  6  0  0  0
  3  5  1  0  0  0  0
  5  6  1  6  0  0  0
  5  7  1  0  0  0  0
  7  8  1  6  0  0  0
  7  9  1  0  0  0  0
  9 10  1  0  0  0  0
  9 11  1  1  0  0  0
 11 35  1  0  0  0  0
 12 13  1  6  0  0  0
 12 14  1  0  0  0  0
 12 20  1  0  0  0  0
 14 15  1  0  0  0  0
 14 40  1  1  0  0  0
 15 16  1  6  0  0  0
 15 17  1  0  0  0  0
 17  2  1  1  0  0  0
 17 18  1  0  0  0  0
 18 19  1  6  0  0  0
 18 20  1  0  0  0  0
 21 16  1  6  0  0  0
 21 22  1  0  0  0  0
 21 25  1  0  0  0  0
 22 23  1  0  0  0  0
 22 36  1  6  0  0  0
 23 24  1  0  0  0  0
 23 31  1  6  0  0  0
 24 25  1  0  0  0  0
 24 26  1  6  0  0  0
 26 39  1  0  0  0  0
 27 28  1  0  0  0  0
 27 32  1  0  0  0  0
 27 38  1  1  0  0  0
 28 29  1  0  0  0  0
 28 37  1  6  0  0  0
 29 30  1  0  0  0  0
 29 42  1  1  0  0  0
 30 31  1  6  0  0  0
 30 33  1  0  0  0  0
 32 33  1  0  0  0  0
 32 34  1  6  0  0  0
 34 41  1  0  0  0  0
M  CHG  6   4   1  13   1  19   1  35   1  41   1  42   1
M  END
>  <CHROM.1>
154.89767839,-77.61786510,65.00995425,-178.38863602,-58.00218548,-62.10533788
-62.17318064,59.64993238,60.96896885,72.95722627,78.19980778,-70.63481256
-176.69114660,130.21806660,179.72830143,58.02920615,176.24644230,167.07523850
-64.45646835,172.74461103,63.35129738,-179.86190692,-5.03308703,2.79736807
0.31726634,1.09308876,-0.86638238,0.99011717

>  <Name>


>  <RI>
0

>  <Rbt.Current_Directory>
/home/itssahil/PROJECTS/Mol_Feturizer/New_Systems/rnas/1ei2

>  <Rbt.Executable>
rbdock ($Id: //depot/dev/client3/rdock/2013.1/src/exe/rbdock.cxx#4 $)

>  <Rbt.Library>
libRbt.so (2013.1, Build901 2013/11/27)

>  <Rbt.Parameter_File>
/export/apps/rDock/src/rDock_2013.1_src/data/scripts/dock_solv.prm

>  <Rbt.Receptor>
prm/pocket_docking_6.prm

>  <SCORE>
-49.0399

>  <SCORE.INTER>
-28.5178

>  <SCORE.INTER.CONST>
1

>  <SCORE.INTER.POLAR>
-5.03242

>  <SCORE.INTER.ROT>
9

>  <SCORE.INTER.SOLV>
26.732

>  <SCORE.INTER.VDW>
-20.7478

>  <SCORE.INTER.norm>
-0.678996

>  <SCORE.INTRA>
-20.5221

>  <SCORE.INTRA.DIHEDRAL>
-25.5024

>  <SCORE.INTRA.DIHEDRAL.0>
40.8761

>  <SCORE.INTRA.POLAR>
0.0111805

>  <SCORE.INTRA.POLAR.0>
-0.0268208

>  <SCORE.INTRA.REPUL>
-0.641615

>  <SCORE.INTRA.REPUL.0>
0.641615

>  <SCORE.INTRA.SOLV>
-11.8861

>  <SCORE.INTRA.SOLV.lig_0>
-162.567

>  <SCORE.INTRA.VDW>
1.34225

>  <SCORE.INTRA.VDW.0>
-4.80338

>  <SCORE.INTRA.norm>
-0.488621

>  <SCORE.RESTR>
0

>  <SCORE.RESTR.CAVITY>
0

>  <SCORE.RESTR.norm>
0

>  <SCORE.SYSTEM>
0

>  <SCORE.SYSTEM.CONST>
0

>  <SCORE.SYSTEM.DIHEDRAL>
0

>  <SCORE.SYSTEM.SOLV>
0

>  <SCORE.SYSTEM.norm>
0

>  <SCORE.heavy>
42

>  <SCORE.norm>
-1.16762

>  <RMSD>
5.000

$$$$

 OpenBabel11021811393D
libRbt.so/2013.1/901 2013/11/27
 42 45  0  0  0  0  0  0  0  0999 V2000
   -3.5781    3.8867    1.1719 C   0  0  2  0  0  0  0  0  0  0  0  0
   -3.8093    5.2508    0.7034 O   0  0  0  0  0  0  0  0  0  0  0  0
   -2.0731    3.4824    1.0474 C   0  0  2  0  0  0  0  0  0  0  0  0
   -1.2061    4.6629    0.8292 N   0  3  0  0  0  0  0  0  0  0  0  0
   -1.8759    2.4405   -0.0947 C   0  0  1  0  0  0  0  0  0  0  0  0
   -0.5018    2.0720   -0.1919 O   0  0  0  0  0  0  0  0  0  0  0  0
   -2.7141    1.1563    0.1455 C   0  0  2  0  0  0  0  0  0  0  0  0
   -2.7199    0.3841   -1.0500 O   0  0  0  0  0  0  0  0  0  0  0  0
   -4.1789    1.5051    0.5651 C   0  0  2  0  0  0  0  0  0  0  0  0
   -4.4156    2.9432    0.4198 O   0  0  0  0  0  0  0  0  0  0  0  0
   -4.5290    1.1493    2.0283 C   0  0  0  0  0  0  0  0  0  0  0  0
   -7.9911    5.4296    1.7523 C   0  0  1  0  0  0  0  0  0  0  0  0
   -9.4037    5.8544    1.8731 N   0  3  0  0  0  0  0  0  0  0  0  0
   -7.6562    4.9705    0.3089 C   0  0  1  0  0  0  0  0  0  0  0  0
   -6.1373    4.6514    0.0833 C   0  0  1  0  0  0  0  0  0  0  0  0
   -5.9013    4.5557   -1.3471 O   0  0  0  0  0  0  0  0  0  0  0  0
   -5.1769    5.7609    0.6496 C   0  0  1  0  0  0  0  0  0  0  0  0
   -5.5800    6.2036    2.0934 C   0  0  1  0  0  0  0  0  0  0  0  0
   -4.7738    7.3466    2.5683 N   0  3  0  0  0  0  0  0  0  0  0  0
   -7.0727    6.5937    2.1789 C   0  0  0  0  0  0  0  0  0  0  0  0
   -6.5699    5.4841   -2.2493 C   0  0  1  0  0  0  0  0  0  0  0  0
   -5.8476    5.4619   -3.5912 C   0  0  1  0  0  0  0  0  0  0  0  0
   -6.4481    4.2000   -4.1958 C   0  0  1  0  0  0  0  0  0  0  0  0
   -7.9207    4.3274   -3.7804 C   0  0  2  0  0  0  0  0  0  0  0  0
   -7.9077    5.0324   -2.5161 O   0  0  0  0  0  0  0  0  0  0  0  0
   -8.6212    2.9661   -3.6210 C   0  0  0  0  0  0  0  0  0  0  0  0
   -4.0327    1.2388   -4.6411 C   0  0  1  0  0  0  0  0  0  0  0  0
   -5.2304    1.1518   -5.6277 C   0  0  1  0  0  0  0  0  0  0  0  0
   -5.2057    2.2263   -6.7529 C   0  0  2  0  0  0  0  0  0  0  0  0
   -5.0329    3.6615   -6.1594 C   0  0  1  0  0  0  0  0  0  0  0  0
   -6.2939    4.1747   -5.6441 O   0  0  0  0  0  0  0  0  0  0  0  0
   -3.1594    2.4955   -4.9385 C   0  0  1  0  0  0  0  0  0  0  0  0
   -4.0226    3.6713   -5.0763 O   0  0  0  0  0  0  0  0  0  0  0  0
   -2.1071    2.7612   -3.8312 C   0  0  0  0  0  0  0  0  0  0  0  0
   -5.8272    1.6727    2.4889 N   0  3  0  0  0  0  0  0  0  0  0  0
   -6.1970    6.6218   -4.3469 O   0  0  0  0  0  0  0  0  0  0  0  0
   -5.2215   -0.1406   -6.2327 O   0  0  0  0  0  0  0  0  0  0  0  0
   -4.5481    1.3011   -3.3093 O   0  0  0  0  0  0  0  0  0  0  0  0
   -9.9776    3.1364   -3.2470 O   0  0  0  0  0  0  0  0  0  0  0  0
   -8.4163    3.7994    0.0121 O   0  0  0  0  0  0  0  0  0  0  0  0
   -1.2682    1.5835   -3.5427 N   0  3  0  0  0  0  0  0  0  0  0  0
   -6.3926    2.1129   -7.6365 N   0  3  0  0  0  0  0  0  0  0  0  0
  1  2  1  6  0  0  0
  1  3  1  0  0  0  0
  1 10  1  0  0  0  0
  3  4  1  6  0  0  0
  3  5  1  0  0  0  0
  5  6  1  1  0  0  0
  5  7  1  0  0  0  0
  7  8  1  6  0  0  0
  7  9  1  0  0  0  0
  9 10  1  0  0  0  0
  9 11  1  1  0  0  0
 11 35  1  0  0  0  0
 12 13  1  6  0  0  0
 12 14  1  0  0  0  0
 12 20  1  0  0  0  0
 14 15  1  0  0  0  0
 14 40  1  1  0  0  0
 15 16  1  6  0  0  0
 15 17  1  0  0  0  0
 17  2  1  1  0  0  0
 17 18  1  0  0  0  0
 18 19  1  6  0  0  0
 18 20  1  0  0  0  0
 21 16  1  1  0  0  0
 21 22  1  0  0  0  0
 21 25  1  0  0  0  0
 22 23  1  0  0  0  0
 22 36  1  6  0  0  0
 23 24  1  0  0  0  0
 23 31  1  6  0  0  0
 24 25  1  0  0  0  0
 24 26  1  1  0  0  0
 26 39  1  0  0  0  0
 27 28  1  0  0  0  0
 27 32  1  0  0  0  0
 27 38  1  1  0  0  0
 28 29  1  0  0  0  0
 28 37  1  6  0  0  0
 29 30  1  0  0  0  0
 29 42  1  1  0  0  0
 30 31  1  1  0  0  0
 30 33  1  0  0  0  0
 32 33  1  0  0  0  0
 32 34  1  1  0  0  0
 34 41  1  0  0  0  0
M  CHG  6   4   1  13   1  19   1  35   1  41   1  42   1
M  END
>  <CHROM.1>
175.29341060,-41.97986563,61.72217267,-175.30492915,175.53949341,170.53725367
-168.52382811,-56.23961714,169.05012376,39.35464464,162.78617469,-81.18759239
-175.26161854,84.88021265,-179.58164966,62.84401378,173.57348649,179.08761941
-179.81718812,105.24463993,53.10343252,139.59232154,-5.18494397,3.53580227
-1.73974275,-1.60944456,0.48397346,-1.88317901

>  <Name>


>  <RI>
0

>  <Rbt.Current_Directory>
/home/itssahil/PROJECTS/Mol_Feturizer/New_Systems/rnas/1ei2

>  <Rbt.Executable>
rbdock ($Id: //depot/dev/client3/rdock/2013.1/src/exe/rbdock.cxx#4 $)

>  <Rbt.Library>
libRbt.so (2013.1, Build901 2013/11/27)

>  <Rbt.Parameter_File>
/export/apps/rDock/src/rDock_2013.1_src/data/scripts/dock_solv.prm

>  <Rbt.Receptor>
prm/pocket_docking_4.prm

>  <SCORE>
-51.0831

>  <SCORE.INTER>
-28.3105

>  <SCORE.INTER.CONST>
1

>  <SCORE.INTER.POLAR>
-4.7349

>  <SCORE.INTER.ROT>
9

>  <SCORE.INTER.SOLV>
20.8547

>  <SCORE.INTER.VDW>
-19.6422

>  <SCORE.INTER.norm>
-0.67406

>  <SCORE.INTRA>
-22.7725

>  <SCORE.INTRA.DIHEDRAL>
-20.8259

>  <SCORE.INTRA.DIHEDRAL.0>
40.8761

>  <SCORE.INTRA.POLAR>
-2.70503

>  <SCORE.INTRA.POLAR.0>
-0.0268208

>  <SCORE.INTRA.REPUL>
-0.514322

>  <SCORE.INTRA.REPUL.0>
0.641615

>  <SCORE.INTRA.SOLV>
-4.22906

>  <SCORE.INTRA.SOLV.lig_0>
-162.567

>  <SCORE.INTRA.VDW>
1.52364

>  <SCORE.INTRA.VDW.0>
-4.80338

>  <SCORE.INTRA.norm>
-0.542203

>  <SCORE.RESTR>
0

>  <SCORE.RESTR.CAVITY>
0

>  <SCORE.RESTR.norm>
0

>  <SCORE.SYSTEM>
0

>  <SCORE.SYSTEM.CONST>
0

>  <SCORE.SYSTEM.DIHEDRAL>
0

>  <SCORE.SYSTEM.SOLV>
0

>  <SCORE.SYSTEM.norm>
0

>  <SCORE.heavy>
42

>  <SCORE.norm>
-1.21626

>  <RMSD>
5.018

$$$$

 OpenBabel11021811393D
libRbt.so/2013.1/901 2013/11/27
 42 45  0  0  0  0  0  0  0  0999 V2000
   -5.3321    5.5419    3.5556 C   0  0  2  0  0  0  0  0  0  0  0  0
   -5.5206    4.3029    2.8052 O   0  0  0  0  0  0  0  0  0  0  0  0
   -6.5920    6.4635    3.4709 C   0  0  2  0  0  0  0  0  0  0  0  0
   -7.7745    5.7283    2.9665 N   0  3  0  0  0  0  0  0  0  0  0  0
   -6.3030    7.7102    2.5814 C   0  0  1  0  0  0  0  0  0  0  0  0
   -7.4554    8.5479    2.5201 O   0  0  0  0  0  0  0  0  0  0  0  0
   -5.1154    8.5463    3.1291 C   0  0  2  0  0  0  0  0  0  0  0  0
   -4.7206    9.4852    2.1351 O   0  0  0  0  0  0  0  0  0  0  0  0
   -3.9069    7.6318    3.5123 C   0  0  2  0  0  0  0  0  0  0  0  0
   -4.1503    6.2599    3.0607 O   0  0  0  0  0  0  0  0  0  0  0  0
   -3.6206    7.5493    5.0293 C   0  0  0  0  0  0  0  0  0  0  0  0
   -1.9928    2.1855    4.1058 C   0  0  1  0  0  0  0  0  0  0  0  0
   -1.0631    1.1261    4.5573 N   0  3  0  0  0  0  0  0  0  0  0  0
   -2.4276    1.9711    2.6323 C   0  0  1  0  0  0  0  0  0  0  0  0
   -3.5283    2.9767    2.1452 C   0  0  1  0  0  0  0  0  0  0  0  0
   -4.0753    2.4798    0.8943 O   0  0  0  0  0  0  0  0  0  0  0  0
   -4.7225    3.1313    3.1572 C   0  0  1  0  0  0  0  0  0  0  0  0
   -4.2246    3.3151    4.6273 C   0  0  1  0  0  0  0  0  0  0  0  0
   -5.3404    3.3110    5.5952 N   0  3  0  0  0  0  0  0  0  0  0  0
   -3.2229    2.2120    5.0368 C   0  0  0  0  0  0  0  0  0  0  0  0
   -5.1605    1.5080    0.9204 C   0  0  1  0  0  0  0  0  0  0  0  0
   -6.0989    1.7970   -0.2453 C   0  0  1  0  0  0  0  0  0  0  0  0
   -5.3268    1.1353   -1.3787 C   0  0  1  0  0  0  0  0  0  0  0  0
   -4.8292   -0.1516   -0.7053 C   0  0  2  0  0  0  0  0  0  0  0  0
   -4.6432    0.1873    0.6897 O   0  0  0  0  0  0  0  0  0  0  0  0
   -3.5109   -0.6735   -1.3042 C   0  0  0  0  0  0  0  0  0  0  0  0
   -6.0932    1.5183   -6.2986 C   0  0  1  0  0  0  0  0  0  0  0  0
   -7.2609    0.8298   -5.5385 C   0  0  1  0  0  0  0  0  0  0  0  0
   -7.7608    1.6182   -4.2936 C   0  0  2  0  0  0  0  0  0  0  0  0
   -6.5748    1.9866   -3.3451 C   0  0  1  0  0  0  0  0  0  0  0  0
   -6.1879    0.8520   -2.5190 O   0  0  0  0  0  0  0  0  0  0  0  0
   -5.6008    2.7825   -5.5309 C   0  0  1  0  0  0  0  0  0  0  0  0
   -5.3998    2.4511   -4.1179 O   0  0  0  0  0  0  0  0  0  0  0  0
   -4.2827    3.3539   -6.1141 C   0  0  0  0  0  0  0  0  0  0  0  0
   -2.9492    8.7360    5.5882 N   0  3  0  0  0  0  0  0  0  0  0  0
   -7.3555    1.1562   -0.0241 O   0  0  0  0  0  0  0  0  0  0  0  0
   -8.3528    0.6682   -6.4430 O   0  0  0  0  0  0  0  0  0  0  0  0
   -5.0256    0.5776   -6.4344 O   0  0  0  0  0  0  0  0  0  0  0  0
   -3.6854   -1.0496   -2.6595 O   0  0  0  0  0  0  0  0  0  0  0  0
   -1.2822    2.1079    1.7916 O   0  0  0  0  0  0  0  0  0  0  0  0
   -3.2048    2.3504   -6.1857 N   0  3  0  0  0  0  0  0  0  0  0  0
   -8.8481    0.8913   -3.5925 N   0  3  0  0  0  0  0  0  0  0  0  0
  1  2  1  6  0  0  0
  1  3  1  0  0  0  0
  1 10  1  0  0  0  0
  3  4  1  6  0  0  0
  3  5  1  0  0  0  0
  5  6  1  1  0  0  0
  5  7  1  0  0  0  0
  7  8  1  6  0  0  0
  7  9  1  0  0  0  0
  9 10  1  0  0  0  0
  9 11  1  1  0  0  0
 11 35  1  0  0  0  0
 12 13  1  1  0  0  0
 12 14  1  0  0  0  0
 12 20  1  0  0  0  0
 14 15  1  0  0  0  0
 14 40  1  6  0  0  0
 15 16  1  6  0  0  0
 15 17  1  0  0  0  0
 17  2  1  6  0  0  0
 17 18  1  0  0  0  0
 18 19  1  1  0  0  0
 18 20  1  0  0  0  0
 21 16  1  6  0  0  0
 21 22  1  0  0  0  0
 21 25  1  0  0  0  0
 22 23  1  0  0  0  0
 22 36  1  1  0  0  0
 23 24  1  0  0  0  0
 23 31  1  6  0  0  0
 24 25  1  0  0  0  0
 24 26  1  6  0  0  0
 26 39  1  0  0  0  0
 27 28  1  0  0  0  0
 27 32  1  0  0  0  0
 27 38  1  1  0  0  0
 28 29  1  0  0  0  0
 28 37  1  6  0  0  0
 29 30  1  0  0  0  0
 29 42  1  1  0  0  0
 30 31  1  6  0  0  0
 30 33  1  0  0  0  0
 32 33  1  0  0  0  0
 32 34  1  6  0  0  0
 34 41  1  0  0  0  0
M  CHG  6   4   1  13   1  19   1  35   1  41   1  42   1
M  END
>  <CHROM.1>
-156.88532080,-100.60229260,57.21570703,59.79583549,167.87149925,-76.20936288
51.49204243,-176.26518347,64.07907652,85.52959305,144.14835994,-33.04605019
-179.58949341,74.90953491,-64.03738770,60.21048448,55.66167910,61.11318271
-51.53267905,-165.69463064,-54.56286460,29.83464377,-5.01559747,3.21183344
0.21359232,1.27499401,-1.01125380,0.80443765

>  <Name>


>  <RI>
0

>  <Rbt.Current_Directory>
/home/itssahil/PROJECTS/Mol_Feturizer/New_Systems/rnas/1ei2

>  <Rbt.Executable>
rbdock ($Id: //depot/dev/client3/rdock/2013.1/src/exe/rbdock.cxx#4 $)

>  <Rbt.Library>
libRbt.so (2013.1, Build901 2013/11/27)

>  <Rbt.Parameter_File>
/export/apps/rDock/src/rDock_2013.1_src/data/scripts/dock_solv.prm

>  <Rbt.Receptor>
prm/pocket_docking_6.prm

>  <SCORE>
-47.0488

>  <SCORE.INTER>
-29.7999

>  <SCORE.INTER.CONST>
1

>  <SCORE.INTER.POLAR>
-5.50876

>  <SCORE.INTER.ROT>
9

>  <SCORE.INTER.SOLV>
24.1601

>  <SCORE.INTER.VDW>
-19.1574

>  <SCORE.INTER.norm>
-0.70952

>  <SCORE.INTRA>
-17.2586

>  <SCORE.INTRA.DIHEDRAL>
-17.163

>  <SCORE.INTRA.DIHEDRAL.0>
40.8761

>  <SCORE.INTRA.POLAR>
-1.02196

>  <SCORE.INTRA.POLAR.0>
-0.0268208

>  <SCORE.INTRA.REPUL>
-0.641214

>  <SCORE.INTRA.REPUL.0>
0.641615

>  <SCORE.INTRA.SOLV>
-8.9723

>  <SCORE.INTRA.SOLV.lig_0>
-162.567

>  <SCORE.INTRA.VDW>
2.48975

>  <SCORE.INTRA.VDW.0>
-4.80338

>  <SCORE.INTRA.norm>
-0.41092

>  <SCORE.RESTR>
0.00968315

>  <SCORE.RESTR.CAVITY>
0.00968315

>  <SCORE.RESTR.norm>
0.000230551

>  <SCORE.SYSTEM>
0

>  <SCORE.SYSTEM.CONST>
0

>  <SCORE.SYSTEM.DIHEDRAL>
0

>  <SCORE.SYSTEM.SOLV>
0

>  <SCORE.SYSTEM.norm>
0

>  <SCORE.heavy>
42

>  <SCORE.norm>
-1.12021

>  <RMSD>
5.093

$$$$

 OpenBabel11021811393D
libRbt.so/2013.1/901 2013/11/27
 42 45  0  0  0  0  0  0  0  0999 V2000
   -4.5861    3.4944    0.7572 C   0  0  2  0  0  0  0  0  0  0  0  0
   -5.7897    3.9627    1.4396 O   0  0  0  0  0  0  0  0  0  0  0  0
   -4.3444    1.9688    0.9980 C   0  0  2  0  0  0  0  0  0  0  0  0
   -5.5494    1.3039    1.5449 N   0  3  0  0  0  0  0  0  0  0  0  0
   -3.1227    1.7472    1.9398 C   0  0  1  0  0  0  0  0  0  0  0  0
   -2.9060    0.3526    2.1437 O   0  0  0  0  0  0  0  0  0  0  0  0
   -1.8248    2.3667    1.3558 C   0  0  2  0  0  0  0  0  0  0  0  0
   -0.8305    2.3884    2.3739 O   0  0  0  0  0  0  0  0  0  0  0  0
   -2.0772    3.8142    0.8224 C   0  0  2  0  0  0  0  0  0  0  0  0
   -3.4178    4.2647    1.2034 O   0  0  0  0  0  0  0  0  0  0  0  0
   -1.9876    3.9563   -0.7144 C   0  0  0  0  0  0  0  0  0  0  0  0
   -9.7721    4.3545   -0.1752 C   0  0  1  0  0  0  0  0  0  0  0  0
  -10.9783    4.8728   -0.8585 N   0  3  0  0  0  0  0  0  0  0  0  0
   -8.6421    4.0264   -1.1860 C   0  0  1  0  0  0  0  0  0  0  0  0
   -7.2881    3.6156   -0.5093 C   0  0  1  0  0  0  0  0  0  0  0  0
   -6.2455    3.6539   -1.5204 O   0  0  0  0  0  0  0  0  0  0  0  0
   -6.8557    4.5806    0.6551 C   0  0  1  0  0  0  0  0  0  0  0  0
   -8.0407    4.8978    1.6237 C   0  0  1  0  0  0  0  0  0  0  0  0
   -7.6777    5.9178    2.6286 N   0  3  0  0  0  0  0  0  0  0  0  0
   -9.2902    5.3918    0.8604 C   0  0  0  0  0  0  0  0  0  0  0  0
   -5.9918    4.8927   -2.2441 C   0  0  1  0  0  0  0  0  0  0  0  0
   -4.5968    4.8216   -2.8538 C   0  0  1  0  0  0  0  0  0  0  0  0
   -4.8884    3.9790   -4.0881 C   0  0  1  0  0  0  0  0  0  0  0  0
   -6.2270    4.5674   -4.5562 C   0  0  2  0  0  0  0  0  0  0  0  0
   -6.8990    5.0090   -3.3525 O   0  0  0  0  0  0  0  0  0  0  0  0
   -7.1022    3.5489   -5.3086 C   0  0  0  0  0  0  0  0  0  0  0  0
   -4.3899    0.3481   -4.7118 C   0  0  1  0  0  0  0  0  0  0  0  0
   -4.7541    1.1825   -5.9714 C   0  0  1  0  0  0  0  0  0  0  0  0
   -3.5967    2.0815   -6.4944 C   0  0  2  0  0  0  0  0  0  0  0  0
   -3.0084    2.9673   -5.3493 C   0  0  1  0  0  0  0  0  0  0  0  0
   -3.8482    4.1293   -5.0968 O   0  0  0  0  0  0  0  0  0  0  0  0
   -2.9744    0.7316   -4.1830 C   0  0  1  0  0  0  0  0  0  0  0  0
   -2.8612    2.1898   -4.0973 O   0  0  0  0  0  0  0  0  0  0  0  0
   -2.6737    0.1133   -2.7933 C   0  0  0  0  0  0  0  0  0  0  0  0
   -1.9065    2.6769   -1.4410 N   0  3  0  0  0  0  0  0  0  0  0  0
   -4.1568    6.1331   -3.2074 O   0  0  0  0  0  0  0  0  0  0  0  0
   -5.1368    0.2831   -7.0112 O   0  0  0  0  0  0  0  0  0  0  0  0
   -5.3750    0.5949   -3.7060 O   0  0  0  0  0  0  0  0  0  0  0  0
   -7.3192    2.3904   -4.5216 O   0  0  0  0  0  0  0  0  0  0  0  0
   -9.0743    2.9560   -2.0256 O   0  0  0  0  0  0  0  0  0  0  0  0
   -2.7674   -1.3581   -2.7878 N   0  3  0  0  0  0  0  0  0  0  0  0
   -4.0195    2.8782   -7.6728 N   0  3  0  0  0  0  0  0  0  0  0  0
  1  2  1  1  0  0  0
  1  3  1  0  0  0  0
  1 10  1  0  0  0  0
  3  4  1  1  0  0  0
  3  5  1  0  0  0  0
  5  6  1  6  0  0  0
  5  7  1  0  0  0  0
  7  8  1  1  0  0  0
  7  9  1  0  0  0  0
  9 10  1  0  0  0  0
  9 11  1  6  0  0  0
 11 35  1  0  0  0  0
 12 13  1  6  0  0  0
 12 14  1  0  0  0  0
 12 20  1  0  0  0  0
 14 15  1  0  0  0  0
 14 40  1  6  0  0  0
 15 16  1  6  0  0  0
 15 17  1  0  0  0  0
 17  2  1  1  0  0  0
 17 18  1  0  0  0  0
 18 19  1  1  0  0  0
 18 20  1  0  0  0  0
 21 16  1  6  0  0  0
 21 22  1  0  0  0  0
 21 25  1  0  0  0  0
 22 23  1  0  0  0  0
 22 36  1  6  0  0  0
 23 24  1  0  0  0  0
 23 31  1  6  0  0  0
 24 25  1  0  0  0  0
 24 26  1  1  0  0  0
 26 39  1  0  0  0  0
 27 28  1  0  0  0  0
 27 32  1  0  0  0  0
 27 38  1  1  0  0  0
 28 29  1  0  0  0  0
 28 37  1  6  0  0  0
 29 30  1  0  0  0  0
 29 42  1  6  0  0  0
 30 31  1  1  0  0  0
 30 33  1  0  0  0  0
 32 33  1  0  0  0  0
 32 34  1  1  0  0  0
 34 41  1  0  0  0  0
M  CHG  6   4   1  13   1  19   1  35   1  41   1  42   1
M  END
>  <CHROM.1>
-121.90133199,54.23342669,86.00247646,58.81860669,177.15993819,9.82876684
166.73668261,-56.68882361,-60.21010334,57.77500729,160.41943194,-176.19243921
-84.43966579,111.66038625,55.37549456,177.21971159,-39.62321238,66.36544870
79.78725458,91.17668670,58.04619443,-171.80356047,-5.11993108,3.01826781
-1.86785202,-1.92418788,0.45708650,-1.72869794

>  <Name>


>  <RI>
0

>  <Rbt.Current_Directory>
/home/itssahil/PROJECTS/Mol_Feturizer/New_Systems/rnas/1ei2

>  <Rbt.Executable>
rbdock ($Id: //depot/dev/client3/rdock/2013.1/src/exe/rbdock.cxx#4 $)

>  <Rbt.Library>
libRbt.so (2013.1, Build901 2013/11/27)

>  <Rbt.Parameter_File>
/export/apps/rDock/src/rDock_2013.1_src/data/scripts/dock_solv.prm

>  <Rbt.Receptor>
prm/pocket_docking_2.prm

>  <SCORE>
-29.8675

>  <SCORE.INTER>
-15.4502

>  <SCORE.INTER.CONST>
1

>  <SCORE.INTER.POLAR>
-2.32263

>  <SCORE.INTER.ROT>
9

>  <SCORE.INTER.SOLV>
16.3485

>  <SCORE.INTER.VDW>
-17.6075

>  <SCORE.INTER.norm>
-0.367862

>  <SCORE.INTRA>
-16.396

>  <SCORE.INTRA.DIHEDRAL>
-7.8663

>  <SCORE.INTRA.DIHEDRAL.0>
40.8761

>  <SCORE.INTRA.POLAR>
-1.83726

>  <SCORE.INTRA.POLAR.0>
-0.0268208

>  <SCORE.INTRA.REPUL>
-0.641615

>  <SCORE.INTRA.REPUL.0>
0.641615

>  <SCORE.INTRA.SOLV>
-0.856677

>  <SCORE.INTRA.SOLV.lig_0>
-162.567

>  <SCORE.INTRA.VDW>
-2.57975

>  <SCORE.INTRA.VDW.0>
-4.80338

>  <SCORE.INTRA.norm>
-0.390381

>  <SCORE.RESTR>
1.97865

>  <SCORE.RESTR.CAVITY>
1.97865

>  <SCORE.RESTR.norm>
0.0471108

>  <SCORE.SYSTEM>
0

>  <SCORE.SYSTEM.CONST>
0

>  <SCORE.SYSTEM.DIHEDRAL>
0

>  <SCORE.SYSTEM.SOLV>
0

>  <SCORE.SYSTEM.norm>
0

>  <SCORE.heavy>
42

>  <SCORE.norm>
-0.711132

>  <RMSD>
5.119

$$$$

 OpenBabel11021811393D
libRbt.so/2013.1/901 2013/11/27
 42 45  0  0  0  0  0  0  0  0999 V2000
  -10.8529    5.7898   -0.2449 C   0  0  2  0  0  0  0  0  0  0  0  0
  -10.5032    4.6611    0.6138 O   0  0  0  0  0  0  0  0  0  0  0  0
  -10.9803    5.3567   -1.7416 C   0  0  2  0  0  0  0  0  0  0  0  0
  -11.0683    3.8849   -1.8794 N   0  3  0  0  0  0  0  0  0  0  0  0
   -9.7899    5.9141   -2.5790 C   0  0  1  0  0  0  0  0  0  0  0  0
   -9.9224    5.5214   -3.9434 O   0  0  0  0  0  0  0  0  0  0  0  0
   -9.7175    7.4634   -2.5175 C   0  0  2  0  0  0  0  0  0  0  0  0
   -8.4654    7.8838   -3.0479 O   0  0  0  0  0  0  0  0  0  0  0  0
   -9.8794    7.9812   -1.0515 C   0  0  2  0  0  0  0  0  0  0  0  0
   -9.8516    6.8563   -0.1140 O   0  0  0  0  0  0  0  0  0  0  0  0
  -11.1972    8.7434   -0.7823 C   0  0  0  0  0  0  0  0  0  0  0  0
   -9.3078    7.0711    3.9876 C   0  0  1  0  0  0  0  0  0  0  0  0
   -8.9574    7.5202    5.3536 N   0  3  0  0  0  0  0  0  0  0  0  0
   -8.2433    6.0972    3.4181 C   0  0  1  0  0  0  0  0  0  0  0  0
   -8.6352    5.4709    2.0346 C   0  0  1  0  0  0  0  0  0  0  0  0
   -7.7404    4.3570    1.7709 O   0  0  0  0  0  0  0  0  0  0  0  0
  -10.1069    4.9167    1.9962 C   0  0  1  0  0  0  0  0  0  0  0  0
  -11.1297    5.9276    2.6084 C   0  0  1  0  0  0  0  0  0  0  0  0
  -12.4860    5.3514    2.7096 N   0  3  0  0  0  0  0  0  0  0  0  0
  -10.6977    6.4016    4.0143 C   0  0  0  0  0  0  0  0  0  0  0  0
   -7.9492    3.5320    0.5883 C   0  0  1  0  0  0  0  0  0  0  0  0
   -7.4835    4.3116   -0.6357 C   0  0  1  0  0  0  0  0  0  0  0  0
   -5.9820    4.0754   -0.5462 C   0  0  1  0  0  0  0  0  0  0  0  0
   -5.9243    2.5959   -0.1400 C   0  0  2  0  0  0  0  0  0  0  0  0
   -7.1147    2.3638    0.6505 O   0  0  0  0  0  0  0  0  0  0  0  0
   -4.6684    2.2445    0.6776 C   0  0  0  0  0  0  0  0  0  0  0  0
   -2.5091    2.8790   -4.0048 C   0  0  1  0  0  0  0  0  0  0  0  0
   -3.2862    4.1935   -4.2939 C   0  0  1  0  0  0  0  0  0  0  0  0
   -3.3542    5.1702   -3.0845 C   0  0  2  0  0  0  0  0  0  0  0  0
   -3.8763    4.4456   -1.8023 C   0  0  1  0  0  0  0  0  0  0  0  0
   -5.3258    4.3120   -1.8250 O   0  0  0  0  0  0  0  0  0  0  0  0
   -2.1042    2.7933   -2.5018 C   0  0  1  0  0  0  0  0  0  0  0  0
   -3.2644    3.1041   -1.6627 O   0  0  0  0  0  0  0  0  0  0  0  0
   -1.5537    1.3963   -2.1153 C   0  0  0  0  0  0  0  0  0  0  0  0
  -11.2577    9.4113    0.5298 N   0  3  0  0  0  0  0  0  0  0  0  0
   -8.0353    3.7302   -1.8173 O   0  0  0  0  0  0  0  0  0  0  0  0
   -2.6502    4.8616   -5.3828 O   0  0  0  0  0  0  0  0  0  0  0  0
   -3.3456    1.7737   -4.3534 O   0  0  0  0  0  0  0  0  0  0  0  0
   -4.6038    3.0190    1.8628 O   0  0  0  0  0  0  0  0  0  0  0  0
   -7.0115    6.8021    3.2659 O   0  0  0  0  0  0  0  0  0  0  0  0
   -1.3079    1.2571   -0.6682 N   0  3  0  0  0  0  0  0  0  0  0  0
   -4.1394    6.3858   -3.4132 N   0  3  0  0  0  0  0  0  0  0  0  0
  1  2  1  1  0  0  0
  1  3  1  0  0  0  0
  1 10  1  0  0  0  0
  3  4  1  1  0  0  0
  3  5  1  0  0  0  0
  5  6  1  6  0  0  0
  5  7  1  0  0  0  0
  7  8  1  1  0  0  0
  7  9  1  0  0  0  0
  9 10  1  0  0  0  0
  9 11  1  6  0  0  0
 11 35  1  0  0  0  0
 12 13  1  1  0  0  0
 12 14  1  0  0  0  0
 12 20  1  0  0  0  0
 14 15  1  0  0  0  0
 14 40  1  6  0  0  0
 15 16  1  1  0  0  0
 15 17  1  0  0  0  0
 17  2  1  6  0  0  0
 17 18  1  0  0  0  0
 18 19  1  1  0  0  0
 18 20  1  0  0  0  0
 21 16  1  1  0  0  0
 21 22  1  0  0  0  0
 21 25  1  0  0  0  0
 22 23  1  0  0  0  0
 22 36  1  6  0  0  0
 23 24  1  0  0  0  0
 23 31  1  6  0  0  0
 24 25  1  0  0  0  0
 24 26  1  1  0  0  0
 26 39  1  0  0  0  0
 27 28  1  0  0  0  0
 27 32  1  0  0  0  0
 27 38  1  1  0  0  0
 28 29  1  0  0  0  0
 28 37  1  6  0  0  0
 29 30  1  0  0  0  0
 29 42  1  6  0  0  0
 30 31  1  6  0  0  0
 30 33  1  0  0  0  0
 32 33  1  0  0  0  0
 32 34  1  1  0  0  0
 34 41  1  0  0  0  0
M  CHG  6   4   1  13   1  19   1  35   1  41   1  42   1
M  END
>  <CHROM.1>
169.05423913,-76.03631803,-77.77239567,-62.78857497,179.22560877,-170.85873627
-57.89925778,-60.74532900,178.00299948,175.50924602,74.86932144,-62.32633466
-61.63259895,165.24418969,58.97879838,-59.20756647,-60.42715134,-59.94044905
-148.51530398,-160.19705064,-173.64820417,170.14839824,-7.28159606,4.94703012
-0.48523628,2.74730526,-0.51592438,1.75009292

>  <Name>


>  <RI>
0

>  <Rbt.Current_Directory>
/home/itssahil/PROJECTS/Mol_Feturizer/New_Systems/rnas/1ei2

>  <Rbt.Executable>
rbdock ($Id: //depot/dev/client3/rdock/2013.1/src/exe/rbdock.cxx#4 $)

>  <Rbt.Library>
libRbt.so (2013.1, Build901 2013/11/27)

>  <Rbt.Parameter_File>
/export/apps/rDock/src/rDock_2013.1_src/data/scripts/dock_solv.prm

>  <Rbt.Receptor>
prm/pocket_docking_6.prm

>  <SCORE>
-53.2715

>  <SCORE.INTER>
-25.212

>  <SCORE.INTER.CONST>
1

>  <SCORE.INTER.POLAR>
-3.98285

>  <SCORE.INTER.ROT>
9

>  <SCORE.INTER.SOLV>
24.7595

>  <SCORE.INTER.VDW>
-21.385

>  <SCORE.INTER.norm>
-0.600286

>  <SCORE.INTRA>
-28.0594

>  <SCORE.INTRA.DIHEDRAL>
-30.927

>  <SCORE.INTRA.DIHEDRAL.0>
40.8761

>  <SCORE.INTRA.POLAR>
-1.21888

>  <SCORE.INTRA.POLAR.0>
-0.0268208

>  <SCORE.INTRA.REPUL>
-0.641615

>  <SCORE.INTRA.REPUL.0>
0.641615

>  <SCORE.INTRA.SOLV>
-8.78453

>  <SCORE.INTRA.SOLV.lig_0>
-162.567

>  <SCORE.INTRA.VDW>
-0.851358

>  <SCORE.INTRA.VDW.0>
-4.80338

>  <SCORE.INTRA.norm>
-0.668081

>  <SCORE.RESTR>
0

>  <SCORE.RESTR.CAVITY>
0

>  <SCORE.RESTR.norm>
0

>  <SCORE.SYSTEM>
0

>  <SCORE.SYSTEM.CONST>
0

>  <SCORE.SYSTEM.DIHEDRAL>
0

>  <SCORE.SYSTEM.SOLV>
0

>  <SCORE.SYSTEM.norm>
0

>  <SCORE.heavy>
42

>  <SCORE.norm>
-1.26837

>  <RMSD>
5.157

$$$$

 OpenBabel11021811393D
libRbt.so/2013.1/901 2013/11/27
 42 45  0  0  0  0  0  0  0  0999 V2000
   -5.8675    4.3690    1.2342 C   0  0  2  0  0  0  0  0  0  0  0  0
   -7.2811    4.2768    1.5903 O   0  0  0  0  0  0  0  0  0  0  0  0
   -5.2567    2.9618    0.9329 C   0  0  2  0  0  0  0  0  0  0  0  0
   -6.3098    1.9397    0.7344 N   0  3  0  0  0  0  0  0  0  0  0  0
   -4.2829    2.5297    2.0704 C   0  0  1  0  0  0  0  0  0  0  0  0
   -3.7246    1.2501    1.7796 O   0  0  0  0  0  0  0  0  0  0  0  0
   -3.1216    3.5437    2.2512 C   0  0  2  0  0  0  0  0  0  0  0  0
   -2.4475    3.2539    3.4707 O   0  0  0  0  0  0  0  0  0  0  0  0
   -3.6504    5.0146    2.2678 C   0  0  2  0  0  0  0  0  0  0  0  0
   -5.1144    5.0232    2.3121 O   0  0  0  0  0  0  0  0  0  0  0  0
   -3.2445    5.8562    1.0360 C   0  0  0  0  0  0  0  0  0  0  0  0
  -11.0327    4.2049   -0.5404 C   0  0  1  0  0  0  0  0  0  0  0  0
  -12.1793    4.5714   -1.4015 N   0  3  0  0  0  0  0  0  0  0  0  0
   -9.7536    3.9416   -1.3775 C   0  0  1  0  0  0  0  0  0  0  0  0
   -8.4700    3.6960   -0.5104 C   0  0  1  0  0  0  0  0  0  0  0  0
   -7.3101    3.7886   -1.3804 O   0  0  0  0  0  0  0  0  0  0  0  0
   -8.2849    4.7513    0.6412 C   0  0  1  0  0  0  0  0  0  0  0  0
   -9.6117    4.9964    1.4301 C   0  0  1  0  0  0  0  0  0  0  0  0
   -9.4789    6.0922    2.4117 N   0  3  0  0  0  0  0  0  0  0  0  0
  -10.7882    5.3308    0.4857 C   0  0  0  0  0  0  0  0  0  0  0  0
   -7.1202    4.9778   -2.2004 C   0  0  1  0  0  0  0  0  0  0  0  0
   -5.7502    4.8965   -2.8634 C   0  0  1  0  0  0  0  0  0  0  0  0
   -6.0699    3.9605   -4.0210 C   0  0  1  0  0  0  0  0  0  0  0  0
   -7.4422    4.4814   -4.4713 C   0  0  2  0  0  0  0  0  0  0  0  0
   -8.0754    4.9922   -3.2739 O   0  0  0  0  0  0  0  0  0  0  0  0
   -8.3199    3.3907   -5.1110 C   0  0  0  0  0  0  0  0  0  0  0  0
   -3.3896    0.6223   -4.8473 C   0  0  1  0  0  0  0  0  0  0  0  0
   -3.5152    1.4730   -6.1419 C   0  0  1  0  0  0  0  0  0  0  0  0
   -3.0394    2.9459   -5.9826 C   0  0  2  0  0  0  0  0  0  0  0  0
   -3.7250    3.6313   -4.7571 C   0  0  1  0  0  0  0  0  0  0  0  0
   -5.0769    4.0627   -5.0819 O   0  0  0  0  0  0  0  0  0  0  0  0
   -2.9457    1.5072   -3.6431 C   0  0  1  0  0  0  0  0  0  0  0  0
   -3.7707    2.7169   -3.5928 O   0  0  0  0  0  0  0  0  0  0  0  0
   -3.0509    0.7604   -2.2884 C   0  0  0  0  0  0  0  0  0  0  0  0
   -1.7935    6.0720    0.8968 N   0  3  0  0  0  0  0  0  0  0  0  0
   -5.3609    6.1894   -3.3278 O   0  0  0  0  0  0  0  0  0  0  0  0
   -2.7379    0.8521   -7.1650 O   0  0  0  0  0  0  0  0  0  0  0  0
   -4.6583    0.0222   -4.5762 O   0  0  0  0  0  0  0  0  0  0  0  0
   -8.4524    2.2764   -4.2452 O   0  0  0  0  0  0  0  0  0  0  0  0
   -9.9721    2.7966   -2.2013 O   0  0  0  0  0  0  0  0  0  0  0  0
   -2.7949    1.6355   -1.1297 N   0  3  0  0  0  0  0  0  0  0  0  0
   -3.2197    3.7126   -7.2404 N   0  3  0  0  0  0  0  0  0  0  0  0
  1  2  1  1  0  0  0
  1  3  1  0  0  0  0
  1 10  1  0  0  0  0
  3  4  1  1  0  0  0
  3  5  1  0  0  0  0
  5  6  1  6  0  0  0
  5  7  1  0  0  0  0
  7  8  1  1  0  0  0
  7  9  1  0  0  0  0
  9 10  1  0  0  0  0
  9 11  1  6  0  0  0
 11 35  1  0  0  0  0
 12 13  1  6  0  0  0
 12 14  1  0  0  0  0
 12 20  1  0  0  0  0
 14 15  1  0  0  0  0
 14 40  1  1  0  0  0
 15 16  1  6  0  0  0
 15 17  1  0  0  0  0
 17  2  1  1  0  0  0
 17 18  1  0  0  0  0
 18 19  1  1  0  0  0
 18 20  1  0  0  0  0
 21 16  1  1  0  0  0
 21 22  1  0  0  0  0
 21 25  1  0  0  0  0
 22 23  1  0  0  0  0
 22 36  1  6  0  0  0
 23 24  1  0  0  0  0
 23 31  1  6  0  0  0
 24 25  1  0  0  0  0
 24 26  1  1  0  0  0
 26 39  1  0  0  0  0
 27 28  1  0  0  0  0
 27 32  1  0  0  0  0
 27 38  1  1  0  0  0
 28 29  1  0  0  0  0
 28 37  1  6  0  0  0
 29 30  1  0  0  0  0
 29 42  1  6  0  0  0
 30 31  1  6  0  0  0
 30 33  1  0  0  0  0
 32 33  1  0  0  0  0
 32 34  1  1  0  0  0
 34 41  1  0  0  0  0
M  CHG  6   4   1  13   1  19   1  35   1  41   1  42   1
M  END
>  <CHROM.1>
-108.41539002,76.86170209,68.43879082,-69.40350498,68.29955449,-63.63816480
71.52098200,46.92592260,79.87342757,53.95147355,172.51240107,-70.72031167
75.48803490,65.25573299,54.29424376,-174.81411581,73.43479168,-55.85833387
63.73103224,144.35930359,-172.87462338,-68.06391433,-5.88049067,3.53875208
-1.62043404,-2.13334383,0.23653430,-1.78146907

>  <Name>


>  <RI>
0

>  <Rbt.Current_Directory>
/home/itssahil/PROJECTS/Mol_Feturizer/New_Systems/rnas/1ei2

>  <Rbt.Executable>
rbdock ($Id: //depot/dev/client3/rdock/2013.1/src/exe/rbdock.cxx#4 $)

>  <Rbt.Library>
libRbt.so (2013.1, Build901 2013/11/27)

>  <Rbt.Parameter_File>
/export/apps/rDock/src/rDock_2013.1_src/data/scripts/dock_solv.prm

>  <Rbt.Receptor>
prm/pocket_docking_3.prm

>  <SCORE>
-52.0274

>  <SCORE.INTER>
-29.2802

>  <SCORE.INTER.CONST>
1

>  <SCORE.INTER.POLAR>
-5.06031

>  <SCORE.INTER.ROT>
9

>  <SCORE.INTER.SOLV>
26.3866

>  <SCORE.INTER.VDW>
-21.048

>  <SCORE.INTER.norm>
-0.697149

>  <SCORE.INTRA>
-22.7472

>  <SCORE.INTRA.DIHEDRAL>
-20.6033

>  <SCORE.INTRA.DIHEDRAL.0>
40.8761

>  <SCORE.INTRA.POLAR>
-1.96507

>  <SCORE.INTRA.POLAR.0>
-0.0268208

>  <SCORE.INTRA.REPUL>
-0.576233

>  <SCORE.INTRA.REPUL.0>
0.641615

>  <SCORE.INTRA.SOLV>
-3.60442

>  <SCORE.INTRA.SOLV.lig_0>
-162.567

>  <SCORE.INTRA.VDW>
-1.0809

>  <SCORE.INTRA.VDW.0>
-4.80338

>  <SCORE.INTRA.norm>
-0.541599

>  <SCORE.RESTR>
0

>  <SCORE.RESTR.CAVITY>
0

>  <SCORE.RESTR.norm>
0

>  <SCORE.SYSTEM>
0

>  <SCORE.SYSTEM.CONST>
0

>  <SCORE.SYSTEM.DIHEDRAL>
0

>  <SCORE.SYSTEM.SOLV>
0

>  <SCORE.SYSTEM.norm>
0

>  <SCORE.heavy>
42

>  <SCORE.norm>
-1.23875

>  <RMSD>
5.167

$$$$

 OpenBabel11021811393D
libRbt.so/2013.1/901 2013/11/27
 42 45  0  0  0  0  0  0  0  0999 V2000
   -8.8786    6.3039   -1.4331 C   0  0  2  0  0  0  0  0  0  0  0  0
   -7.5453    6.8274   -1.7192 O   0  0  0  0  0  0  0  0  0  0  0  0
   -9.6080    7.1521   -0.3410 C   0  0  2  0  0  0  0  0  0  0  0  0
   -8.9385    8.4549   -0.1230 N   0  3  0  0  0  0  0  0  0  0  0  0
   -9.7081    6.3582    0.9964 C   0  0  1  0  0  0  0  0  0  0  0  0
  -10.3838    7.1375    1.9810 O   0  0  0  0  0  0  0  0  0  0  0  0
  -10.4745    5.0203    0.8165 C   0  0  2  0  0  0  0  0  0  0  0  0
  -10.2808    4.2229    1.9794 O   0  0  0  0  0  0  0  0  0  0  0  0
   -9.9802    4.2493   -0.4502 C   0  0  2  0  0  0  0  0  0  0  0  0
   -8.7920    4.9015   -1.0052 O   0  0  0  0  0  0  0  0  0  0  0  0
  -11.0135    4.1717   -1.5977 C   0  0  0  0  0  0  0  0  0  0  0  0
   -6.7549    4.1025   -4.9704 C   0  0  1  0  0  0  0  0  0  0  0  0
   -6.1210    3.4072   -6.1127 N   0  3  0  0  0  0  0  0  0  0  0  0
   -5.9799    3.8518   -3.6503 C   0  0  1  0  0  0  0  0  0  0  0  0
   -6.5172    4.6836   -2.4340 C   0  0  1  0  0  0  0  0  0  0  0  0
   -5.5326    4.6160   -1.3677 O   0  0  0  0  0  0  0  0  0  0  0  0
   -6.7479    6.2025   -2.7714 C   0  0  1  0  0  0  0  0  0  0  0  0
   -7.5066    6.3934   -4.1245 C   0  0  1  0  0  0  0  0  0  0  0  0
   -7.5927    7.8151   -4.5161 N   0  3  0  0  0  0  0  0  0  0  0  0
   -6.8334    5.6129   -5.2757 C   0  0  0  0  0  0  0  0  0  0  0  0
   -4.4123    5.5476   -1.3642 C   0  0  1  0  0  0  0  0  0  0  0  0
   -3.5403    5.2534   -0.1494 C   0  0  1  0  0  0  0  0  0  0  0  0
   -2.7487    4.0623   -0.6721 C   0  0  1  0  0  0  0  0  0  0  0  0
   -2.4540    4.4950   -2.1154 C   0  0  2  0  0  0  0  0  0  0  0  0
   -3.5780    5.3170   -2.5113 O   0  0  0  0  0  0  0  0  0  0  0  0
   -2.3009    3.3061   -3.0810 C   0  0  0  0  0  0  0  0  0  0  0  0
   -4.2397    1.4195    1.2914 C   0  0  1  0  0  0  0  0  0  0  0  0
   -3.2643    1.1636    0.1089 C   0  0  1  0  0  0  0  0  0  0  0  0
   -1.7668    1.4023    0.4577 C   0  0  2  0  0  0  0  0  0  0  0  0
   -1.5549    2.8093    1.1037 C   0  0  1  0  0  0  0  0  0  0  0  0
   -1.5258    3.8555    0.0918 O   0  0  0  0  0  0  0  0  0  0  0  0
   -3.4798    2.0044    2.5205 C   0  0  1  0  0  0  0  0  0  0  0  0
   -2.6218    3.1098    2.0862 O   0  0  0  0  0  0  0  0  0  0  0  0
   -4.4418    2.5087    3.6269 C   0  0  0  0  0  0  0  0  0  0  0  0
  -12.2250    3.3974   -1.2754 N   0  3  0  0  0  0  0  0  0  0  0  0
   -2.6911    6.3698    0.1174 O   0  0  0  0  0  0  0  0  0  0  0  0
   -3.4216   -0.1887   -0.3190 O   0  0  0  0  0  0  0  0  0  0  0  0
   -5.2483    2.3336    0.8554 O   0  0  0  0  0  0  0  0  0  0  0  0
   -3.4145    2.4343   -2.9899 O   0  0  0  0  0  0  0  0  0  0  0  0
   -6.0641    2.4644   -3.3254 O   0  0  0  0  0  0  0  0  0  0  0  0
   -5.1191    1.4114    4.3418 N   0  3  0  0  0  0  0  0  0  0  0  0
   -0.8934    1.1778   -0.7209 N   0  3  0  0  0  0  0  0  0  0  0  0
  1  2  1  1  0  0  0
  1  3  1  0  0  0  0
  1 10  1  0  0  0  0
  3  4  1  1  0  0  0
  3  5  1  0  0  0  0
  5  6  1  1  0  0  0
  5  7  1  0  0  0  0
  7  8  1  1  0  0  0
  7  9  1  0  0  0  0
  9 10  1  0  0  0  0
  9 11  1  6  0  0  0
 11 35  1  0  0  0  0
 12 13  1  6  0  0  0
 12 14  1  0  0  0  0
 12 20  1  0  0  0  0
 14 15  1  0  0  0  0
 14 40  1  1  0  0  0
 15 16  1  1  0  0  0
 15 17  1  0  0  0  0
 17  2  1  1  0  0  0
 17 18  1  0  0  0  0
 18 19  1  6  0  0  0
 18 20  1  0  0  0  0
 21 16  1  6  0  0  0
 21 22  1  0  0  0  0
 21 25  1  0  0  0  0
 22 23  1  0  0  0  0
 22 36  1  6  0  0  0
 23 24  1  0  0  0  0
 23 31  1  1  0  0  0
 24 25  1  0  0  0  0
 24 26  1  6  0  0  0
 26 39  1  0  0  0  0
 27 28  1  0  0  0  0
 27 32  1  0  0  0  0
 27 38  1  6  0  0  0
 28 29  1  0  0  0  0
 28 37  1  1  0  0  0
 29 30  1  0  0  0  0
 29 42  1  6  0  0  0
 30 31  1  6  0  0  0
 30 33  1  0  0  0  0
 32 33  1  0  0  0  0
 32 34  1  1  0  0  0
 34 41  1  0  0  0  0
M  CHG  6   4   1  13   1  19   1  35   1  41   1  42   1
M  END
>  <CHROM.1>
-176.55275062,-59.37923773,114.85372505,-72.03034619,-177.77397014,-65.03923845
-58.11376153,82.83865832,62.30882775,84.69255192,-179.77311891,-58.81014760
62.35981748,100.25130209,52.44151741,174.76317474,-58.02231785,64.13366581
-62.25529244,63.93516568,71.54511572,156.98283503,-5.87688254,4.20358945
-0.89937077,2.82389296,0.39759114,-1.26561391

>  <Name>


>  <RI>
0

>  <Rbt.Current_Directory>
/home/itssahil/PROJECTS/Mol_Feturizer/New_Systems/rnas/1ei2

>  <Rbt.Executable>
rbdock ($Id: //depot/dev/client3/rdock/2013.1/src/exe/rbdock.cxx#4 $)

>  <Rbt.Library>
libRbt.so (2013.1, Build901 2013/11/27)

>  <Rbt.Parameter_File>
/export/apps/rDock/src/rDock_2013.1_src/data/scripts/dock_solv.prm

>  <Rbt.Receptor>
prm/pocket_docking_3.prm

>  <SCORE>
-49.9331

>  <SCORE.INTER>
-29.6909

>  <SCORE.INTER.CONST>
1

>  <SCORE.INTER.POLAR>
-4.98608

>  <SCORE.INTER.ROT>
9

>  <SCORE.INTER.SOLV>
31.2091

>  <SCORE.INTER.VDW>
-23.1767

>  <SCORE.INTER.norm>
-0.706926

>  <SCORE.INTRA>
-20.8912

>  <SCORE.INTRA.DIHEDRAL>
-24.3588

>  <SCORE.INTRA.DIHEDRAL.0>
40.8761

>  <SCORE.INTRA.POLAR>
-0.36947

>  <SCORE.INTRA.POLAR.0>
-0.0268208

>  <SCORE.INTRA.REPUL>
-0.641615

>  <SCORE.INTRA.REPUL.0>
0.641615

>  <SCORE.INTRA.SOLV>
-7.66539

>  <SCORE.INTRA.SOLV.lig_0>
-162.567

>  <SCORE.INTRA.VDW>
-0.414855

>  <SCORE.INTRA.VDW.0>
-4.80338

>  <SCORE.INTRA.norm>
-0.49741

>  <SCORE.RESTR>
0.648982

>  <SCORE.RESTR.CAVITY>
0.648982

>  <SCORE.RESTR.norm>
0.015452

>  <SCORE.SYSTEM>
0

>  <SCORE.SYSTEM.CONST>
0

>  <SCORE.SYSTEM.DIHEDRAL>
0

>  <SCORE.SYSTEM.SOLV>
0

>  <SCORE.SYSTEM.norm>
0

>  <SCORE.heavy>
42

>  <SCORE.norm>
-1.18888

>  <RMSD>
5.202

$$$$

 OpenBabel11021811393D
libRbt.so/2013.1/901 2013/11/27
 42 45  0  0  0  0  0  0  0  0999 V2000
   -3.7634    3.5774    0.6966 C   0  0  2  0  0  0  0  0  0  0  0  0
   -4.1581    4.8464    1.3028 O   0  0  0  0  0  0  0  0  0  0  0  0
   -3.6807    2.4331    1.7585 C   0  0  2  0  0  0  0  0  0  0  0  0
   -4.3503    2.8120    3.0239 N   0  3  0  0  0  0  0  0  0  0  0  0
   -2.1976    2.0339    2.0229 C   0  0  1  0  0  0  0  0  0  0  0  0
   -2.1356    0.9832    2.9849 O   0  0  0  0  0  0  0  0  0  0  0  0
   -1.4892    1.5570    0.7268 C   0  0  2  0  0  0  0  0  0  0  0  0
   -0.0885    1.4888    0.9701 O   0  0  0  0  0  0  0  0  0  0  0  0
   -1.7791    2.5238   -0.4668 C   0  0  2  0  0  0  0  0  0  0  0  0
   -2.4718    3.7221    0.0124 O   0  0  0  0  0  0  0  0  0  0  0  0
   -2.6664    1.9207   -1.5800 C   0  0  0  0  0  0  0  0  0  0  0  0
   -8.4216    4.9994    1.9502 C   0  0  1  0  0  0  0  0  0  0  0  0
   -9.8440    5.4076    1.9242 N   0  3  0  0  0  0  0  0  0  0  0  0
   -7.9478    4.4983    0.5607 C   0  0  1  0  0  0  0  0  0  0  0  0
   -6.4109    4.1937    0.4888 C   0  0  1  0  0  0  0  0  0  0  0  0
   -6.0408    4.0548   -0.9092 O   0  0  0  0  0  0  0  0  0  0  0  0
   -5.5203    5.3349    1.1044 C   0  0  1  0  0  0  0  0  0  0  0  0
   -6.0619    5.8186    2.4884 C   0  0  1  0  0  0  0  0  0  0  0  0
   -5.3167    6.9880    2.9975 N   0  3  0  0  0  0  0  0  0  0  0  0
   -7.5604    6.1899    2.4210 C   0  0  0  0  0  0  0  0  0  0  0  0
   -6.3125    5.1455   -1.8362 C   0  0  1  0  0  0  0  0  0  0  0  0
   -5.4571    4.9481   -3.0821 C   0  0  1  0  0  0  0  0  0  0  0  0
   -6.2930    3.9092   -3.8171 C   0  0  1  0  0  0  0  0  0  0  0  0
   -7.7172    4.4285   -3.5740 C   0  0  2  0  0  0  0  0  0  0  0  0
   -7.6769    5.0822   -2.2830 O   0  0  0  0  0  0  0  0  0  0  0  0
   -8.7736    3.3090   -3.5684 C   0  0  0  0  0  0  0  0  0  0  0  0
   -3.6175    1.1979   -6.6849 C   0  0  1  0  0  0  0  0  0  0  0  0
   -4.4956    2.1694   -7.5220 C   0  0  1  0  0  0  0  0  0  0  0  0
   -4.3480    3.6653   -7.1200 C   0  0  2  0  0  0  0  0  0  0  0  0
   -4.5531    3.8598   -5.5831 C   0  0  1  0  0  0  0  0  0  0  0  0
   -5.9669    3.8663   -5.2362 O   0  0  0  0  0  0  0  0  0  0  0  0
   -2.8990    1.9569   -5.5282 C   0  0  1  0  0  0  0  0  0  0  0  0
   -3.8668    2.7950   -4.8157 O   0  0  0  0  0  0  0  0  0  0  0  0
   -2.2178    0.9945   -4.5214 C   0  0  0  0  0  0  0  0  0  0  0  0
   -2.8126    0.4558   -1.5160 N   0  3  0  0  0  0  0  0  0  0  0  0
   -5.3805    6.1716   -3.8141 O   0  0  0  0  0  0  0  0  0  0  0  0
   -4.1358    2.0300   -8.8958 O   0  0  0  0  0  0  0  0  0  0  0  0
   -4.4594    0.1726   -6.1530 O   0  0  0  0  0  0  0  0  0  0  0  0
   -8.6428    2.4966   -2.4144 O   0  0  0  0  0  0  0  0  0  0  0  0
   -8.6634    3.3072    0.2342 O   0  0  0  0  0  0  0  0  0  0  0  0
   -0.8331    0.6563   -4.8984 N   0  3  0  0  0  0  0  0  0  0  0  0
   -5.2380    4.5343   -7.9294 N   0  3  0  0  0  0  0  0  0  0  0  0
  1  2  1  1  0  0  0
  1  3  1  0  0  0  0
  1 10  1  0  0  0  0
  3  4  1  1  0  0  0
  3  5  1  0  0  0  0
  5  6  1  1  0  0  0
  5  7  1  0  0  0  0
  7  8  1  1  0  0  0
  7  9  1  0  0  0  0
  9 10  1  0  0  0  0
  9 11  1  6  0  0  0
 11 35  1  0  0  0  0
 12 13  1  6  0  0  0
 12 14  1  0  0  0  0
 12 20  1  0  0  0  0
 14 15  1  0  0  0  0
 14 40  1  1  0  0  0
 15 16  1  6  0  0  0
 15 17  1  0  0  0  0
 17  2  1  1  0  0  0
 17 18  1  0  0  0  0
 18 19  1  6  0  0  0
 18 20  1  0  0  0  0
 21 16  1  1  0  0  0
 21 22  1  0  0  0  0
 21 25  1  0  0  0  0
 22 23  1  0  0  0  0
 22 36  1  6  0  0  0
 23 24  1  0  0  0  0
 23 31  1  6  0  0  0
 24 25  1  0  0  0  0
 24 26  1  1  0  0  0
 26 39  1  0  0  0  0
 27 28  1  0  0  0  0
 27 32  1  0  0  0  0
 27 38  1  1  0  0  0
 28 29  1  0  0  0  0
 28 37  1  6  0  0  0
 29 30  1  0  0  0  0
 29 42  1  6  0  0  0
 30 31  1  6  0  0  0
 30 33  1  0  0  0  0
 32 33  1  0  0  0  0
 32 34  1  1  0  0  0
 34 41  1  0  0  0  0
M  CHG  6   4   1  13   1  19   1  35   1  41   1  42   1
M  END
>  <CHROM.1>
-104.78480311,12.01274478,55.37373272,-65.45778681,-161.08079163,-14.72564741
-168.56854310,-174.96610427,176.52321009,56.76310916,162.13657443,66.45060313
-177.72541741,45.68133693,70.28521463,-60.12727153,69.76718971,-55.38834073
-72.31133907,174.18645571,88.84099450,120.42068691,-4.90158915,3.36834251
-1.81927392,-1.78198546,0.51727549,-1.70163065

>  <Name>


>  <RI>
0

>  <Rbt.Current_Directory>
/home/itssahil/PROJECTS/Mol_Feturizer/New_Systems/rnas/1ei2

>  <Rbt.Executable>
rbdock ($Id: //depot/dev/client3/rdock/2013.1/src/exe/rbdock.cxx#4 $)

>  <Rbt.Library>
libRbt.so (2013.1, Build901 2013/11/27)

>  <Rbt.Parameter_File>
/export/apps/rDock/src/rDock_2013.1_src/data/scripts/dock_solv.prm

>  <Rbt.Receptor>
prm/pocket_docking_2.prm

>  <SCORE>
-38.6972

>  <SCORE.INTER>
-31.3255

>  <SCORE.INTER.CONST>
1

>  <SCORE.INTER.POLAR>
-5.76634

>  <SCORE.INTER.ROT>
9

>  <SCORE.INTER.SOLV>
20.7591

>  <SCORE.INTER.VDW>
-18.1822

>  <SCORE.INTER.norm>
-0.745845

>  <SCORE.INTRA>
-13.222

>  <SCORE.INTRA.DIHEDRAL>
-10.4774

>  <SCORE.INTRA.DIHEDRAL.0>
40.8761

>  <SCORE.INTRA.POLAR>
-0.973179

>  <SCORE.INTRA.POLAR.0>
-0.0268208

>  <SCORE.INTRA.REPUL>
-0.641615

>  <SCORE.INTRA.REPUL.0>
0.641615

>  <SCORE.INTRA.SOLV>
-6.639

>  <SCORE.INTRA.SOLV.lig_0>
-162.567

>  <SCORE.INTRA.VDW>
1.85305

>  <SCORE.INTRA.VDW.0>
-4.80338

>  <SCORE.INTRA.norm>
-0.314811

>  <SCORE.RESTR>
5.85035

>  <SCORE.RESTR.CAVITY>
5.85035

>  <SCORE.RESTR.norm>
0.139294

>  <SCORE.SYSTEM>
0

>  <SCORE.SYSTEM.CONST>
0

>  <SCORE.SYSTEM.DIHEDRAL>
0

>  <SCORE.SYSTEM.SOLV>
0

>  <SCORE.SYSTEM.norm>
0

>  <SCORE.heavy>
42

>  <SCORE.norm>
-0.921361

>  <RMSD>
5.230

$$$$

 OpenBabel11021811393D
libRbt.so/2013.1/901 2013/11/27
 42 45  0  0  0  0  0  0  0  0999 V2000
   -6.1854    5.3621    0.7427 C   0  0  2  0  0  0  0  0  0  0  0  0
   -6.6761    6.5744    0.0922 O   0  0  0  0  0  0  0  0  0  0  0  0
   -5.1503    5.6907    1.8672 C   0  0  2  0  0  0  0  0  0  0  0  0
   -5.1823    7.1241    2.2380 N   0  3  0  0  0  0  0  0  0  0  0  0
   -3.7138    5.2703    1.4326 C   0  0  1  0  0  0  0  0  0  0  0  0
   -2.7806    5.5655    2.4696 O   0  0  0  0  0  0  0  0  0  0  0  0
   -3.6293    3.7541    1.1113 C   0  0  2  0  0  0  0  0  0  0  0  0
   -2.3946    3.4946    0.4526 O   0  0  0  0  0  0  0  0  0  0  0  0
   -4.8230    3.2976    0.2112 C   0  0  2  0  0  0  0  0  0  0  0  0
   -5.5812    4.4631   -0.2492 O   0  0  0  0  0  0  0  0  0  0  0  0
   -5.8365    2.3654    0.9140 C   0  0  0  0  0  0  0  0  0  0  0  0
  -10.9043    5.8416   -0.3605 C   0  0  1  0  0  0  0  0  0  0  0  0
  -12.2838    5.7936   -0.8943 N   0  3  0  0  0  0  0  0  0  0  0  0
   -9.9500    4.9214   -1.1659 C   0  0  1  0  0  0  0  0  0  0  0  0
   -8.4451    5.0450   -0.7416 C   0  0  1  0  0  0  0  0  0  0  0  0
   -7.6323    4.4017   -1.7597 O   0  0  0  0  0  0  0  0  0  0  0  0
   -7.9543    6.5340   -0.6134 C   0  0  1  0  0  0  0  0  0  0  0  0
   -8.9683    7.4186    0.1816 C   0  0  1  0  0  0  0  0  0  0  0  0
   -8.5837    8.8448    0.1754 N   0  3  0  0  0  0  0  0  0  0  0  0
  -10.4013    7.3000   -0.3845 C   0  0  0  0  0  0  0  0  0  0  0  0
   -7.7706    4.8079   -3.1521 C   0  0  1  0  0  0  0  0  0  0  0  0
   -6.4433    4.5680   -3.8617 C   0  0  1  0  0  0  0  0  0  0  0  0
   -6.5494    3.0723   -4.1262 C   0  0  1  0  0  0  0  0  0  0  0  0
   -8.0206    2.9346   -4.5432 C   0  0  2  0  0  0  0  0  0  0  0  0
   -8.7283    3.9673   -3.8163 O   0  0  0  0  0  0  0  0  0  0  0  0
   -8.6132    1.5530   -4.2128 C   0  0  0  0  0  0  0  0  0  0  0  0
   -2.9179   -0.0523   -5.1646 C   0  0  1  0  0  0  0  0  0  0  0  0
   -3.3319    0.7935   -6.4009 C   0  0  1  0  0  0  0  0  0  0  0  0
   -3.3642    2.3271   -6.1394 C   0  0  2  0  0  0  0  0  0  0  0  0
   -4.2214    2.6667   -4.8778 C   0  0  1  0  0  0  0  0  0  0  0  0
   -5.6440    2.6507   -5.1866 O   0  0  0  0  0  0  0  0  0  0  0  0
   -2.7741    0.8478   -3.8999 C   0  0  1  0  0  0  0  0  0  0  0  0
   -3.9499    1.7133   -3.7774 O   0  0  0  0  0  0  0  0  0  0  0  0
   -2.6113    0.0200   -2.5990 C   0  0  0  0  0  0  0  0  0  0  0  0
   -6.9419    1.9079    0.0537 N   0  3  0  0  0  0  0  0  0  0  0  0
   -6.4048    5.3134   -5.0789 O   0  0  0  0  0  0  0  0  0  0  0  0
   -2.4067    0.5314   -7.4553 O   0  0  0  0  0  0  0  0  0  0  0  0
   -3.9156   -1.0523   -4.9466 O   0  0  0  0  0  0  0  0  0  0  0  0
   -9.2563    1.5678   -2.9499 O   0  0  0  0  0  0  0  0  0  0  0  0
  -10.3625    3.5663   -0.9898 O   0  0  0  0  0  0  0  0  0  0  0  0
   -1.9087    0.7584   -1.5335 N   0  3  0  0  0  0  0  0  0  0  0  0
   -3.8020    3.0733   -7.3451 N   0  3  0  0  0  0  0  0  0  0  0  0
  1  2  1  6  0  0  0
  1  3  1  0  0  0  0
  1 10  1  0  0  0  0
  3  4  1  6  0  0  0
  3  5  1  0  0  0  0
  5  6  1  1  0  0  0
  5  7  1  0  0  0  0
  7  8  1  6  0  0  0
  7  9  1  0  0  0  0
  9 10  1  0  0  0  0
  9 11  1  1  0  0  0
 11 35  1  0  0  0  0
 12 13  1  6  0  0  0
 12 14  1  0  0  0  0
 12 20  1  0  0  0  0
 14 15  1  0  0  0  0
 14 40  1  1  0  0  0
 15 16  1  6  0  0  0
 15 17  1  0  0  0  0
 17  2  1  1  0  0  0
 17 18  1  0  0  0  0
 18 19  1  6  0  0  0
 18 20  1  0  0  0  0
 21 16  1  1  0  0  0
 21 22  1  0  0  0  0
 21 25  1  0  0  0  0
 22 23  1  0  0  0  0
 22 36  1  6  0  0  0
 23 24  1  0  0  0  0
 23 31  1  6  0  0  0
 24 25  1  0  0  0  0
 24 26  1  1  0  0  0
 26 39  1  0  0  0  0
 27 28  1  0  0  0  0
 27 32  1  0  0  0  0
 27 38  1  1  0  0  0
 28 29  1  0  0  0  0
 28 37  1  6  0  0  0
 29 30  1  0  0  0  0
 29 42  1  6  0  0  0
 30 31  1  6  0  0  0
 30 33  1  0  0  0  0
 32 33  1  0  0  0  0
 32 34  1  1  0  0  0
 34 41  1  0  0  0  0
M  CHG  6   4   1  13   1  19   1  35   1  41   1  42   1
M  END
>  <CHROM.1>
-158.08071681,-10.25271978,53.96704361,-66.19651538,57.27034198,-178.47847477
75.26952133,66.19457628,-174.60856332,54.35706336,151.69878020,-68.71146591
56.67309111,70.22598043,93.48943594,60.14655195,-58.65119068,-76.57819517
-66.41428705,-174.49493016,154.85732245,94.73189238,-6.11144648,3.72676456
-2.05688363,-2.20707944,0.35655390,-2.08592503

>  <Name>


>  <RI>
0

>  <Rbt.Current_Directory>
/home/itssahil/PROJECTS/Mol_Feturizer/New_Systems/rnas/1ei2

>  <Rbt.Executable>
rbdock ($Id: //depot/dev/client3/rdock/2013.1/src/exe/rbdock.cxx#4 $)

>  <Rbt.Library>
libRbt.so (2013.1, Build901 2013/11/27)

>  <Rbt.Parameter_File>
/export/apps/rDock/src/rDock_2013.1_src/data/scripts/dock_solv.prm

>  <Rbt.Receptor>
prm/pocket_docking_3.prm

>  <SCORE>
-43.2756

>  <SCORE.INTER>
-23.9203

>  <SCORE.INTER.CONST>
1

>  <SCORE.INTER.POLAR>
-4.83177

>  <SCORE.INTER.ROT>
9

>  <SCORE.INTER.SOLV>
19.9075

>  <SCORE.INTER.VDW>
-16.0768

>  <SCORE.INTER.norm>
-0.56953

>  <SCORE.INTRA>
-19.5335

>  <SCORE.INTRA.DIHEDRAL>
-16.9901

>  <SCORE.INTRA.DIHEDRAL.0>
40.8761

>  <SCORE.INTRA.POLAR>
-1.82541

>  <SCORE.INTRA.POLAR.0>
-0.0268208

>  <SCORE.INTRA.REPUL>
-0.499202

>  <SCORE.INTRA.REPUL.0>
0.641615

>  <SCORE.INTRA.SOLV>
-6.47499

>  <SCORE.INTRA.SOLV.lig_0>
-162.567

>  <SCORE.INTRA.VDW>
0.901418

>  <SCORE.INTRA.VDW.0>
-4.80338

>  <SCORE.INTRA.norm>
-0.465084

>  <SCORE.RESTR>
0.178245

>  <SCORE.RESTR.CAVITY>
0.178245

>  <SCORE.RESTR.norm>
0.00424392

>  <SCORE.SYSTEM>
0

>  <SCORE.SYSTEM.CONST>
0

>  <SCORE.SYSTEM.DIHEDRAL>
0

>  <SCORE.SYSTEM.SOLV>
0

>  <SCORE.SYSTEM.norm>
0

>  <SCORE.heavy>
42

>  <SCORE.norm>
-1.03037

>  <RMSD>
5.237

$$$$

 OpenBabel11021811393D
libRbt.so/2013.1/901 2013/11/27
 42 45  0  0  0  0  0  0  0  0999 V2000
   -4.3453    4.6579    0.7824 C   0  0  2  0  0  0  0  0  0  0  0  0
   -5.7798    4.4187    0.6457 O   0  0  0  0  0  0  0  0  0  0  0  0
   -3.5192    3.3504    0.5547 C   0  0  2  0  0  0  0  0  0  0  0  0
   -4.3362    2.2912   -0.0808 N   0  3  0  0  0  0  0  0  0  0  0  0
   -2.9129    2.8417    1.8972 C   0  0  1  0  0  0  0  0  0  0  0  0
   -2.1537    1.6552    1.6752 O   0  0  0  0  0  0  0  0  0  0  0  0
   -1.9875    3.9031    2.5505 C   0  0  2  0  0  0  0  0  0  0  0  0
   -1.7053    3.5027    3.8868 O   0  0  0  0  0  0  0  0  0  0  0  0
   -2.6535    5.3172    2.5443 C   0  0  2  0  0  0  0  0  0  0  0  0
   -4.0481    5.2153    2.1084 O   0  0  0  0  0  0  0  0  0  0  0  0
   -1.9750    6.3416    1.6059 C   0  0  0  0  0  0  0  0  0  0  0  0
   -9.6389    6.0625    1.6580 C   0  0  1  0  0  0  0  0  0  0  0  0
  -10.7144    6.9581    2.1391 N   0  3  0  0  0  0  0  0  0  0  0  0
   -8.9570    6.6255    0.3835 C   0  0  1  0  0  0  0  0  0  0  0  0
   -7.7115    5.7959   -0.0860 C   0  0  1  0  0  0  0  0  0  0  0  0
   -6.9824    6.5859   -1.0634 O   0  0  0  0  0  0  0  0  0  0  0  0
   -6.7166    5.4507    1.0824 C   0  0  1  0  0  0  0  0  0  0  0  0
   -7.4620    4.9162    2.3480 C   0  0  1  0  0  0  0  0  0  0  0  0
   -6.5480    4.7330    3.4938 N   0  3  0  0  0  0  0  0  0  0  0  0
   -8.6038    5.8617    2.7843 C   0  0  0  0  0  0  0  0  0  0  0  0
   -7.3194    6.4702   -2.4762 C   0  0  1  0  0  0  0  0  0  0  0  0
   -6.1064    5.9262   -3.2215 C   0  0  1  0  0  0  0  0  0  0  0  0
   -6.2447    4.4426   -2.9081 C   0  0  1  0  0  0  0  0  0  0  0  0
   -7.7600    4.2366   -3.0452 C   0  0  2  0  0  0  0  0  0  0  0  0
   -8.3597    5.4951   -2.6550 O   0  0  0  0  0  0  0  0  0  0  0  0
   -8.2953    3.0973   -2.1594 C   0  0  0  0  0  0  0  0  0  0  0  0
   -2.3917    1.3713   -3.7536 C   0  0  1  0  0  0  0  0  0  0  0  0
   -3.2178    1.7031   -5.0275 C   0  0  1  0  0  0  0  0  0  0  0  0
   -3.4692    3.2234   -5.2434 C   0  0  2  0  0  0  0  0  0  0  0  0
   -4.0705    3.8839   -3.9613 C   0  0  1  0  0  0  0  0  0  0  0  0
   -5.4989    3.6238   -3.8542 O   0  0  0  0  0  0  0  0  0  0  0  0
   -2.1355    2.6560   -2.9086 C   0  0  1  0  0  0  0  0  0  0  0  0
   -3.3916    3.3913   -2.7406 O   0  0  0  0  0  0  0  0  0  0  0  0
   -1.5390    2.3383   -1.5132 C   0  0  0  0  0  0  0  0  0  0  0  0
   -1.3099    5.7467    0.4333 N   0  3  0  0  0  0  0  0  0  0  0  0
   -6.2443    6.1809   -4.6196 O   0  0  0  0  0  0  0  0  0  0  0  0
   -2.5193    1.1919   -6.1621 O   0  0  0  0  0  0  0  0  0  0  0  0
   -3.1169    0.4110   -2.9823 O   0  0  0  0  0  0  0  0  0  0  0  0
   -9.7092    3.0260   -2.2273 O   0  0  0  0  0  0  0  0  0  0  0  0
   -9.9134    6.6494   -0.6759 O   0  0  0  0  0  0  0  0  0  0  0  0
   -0.4290    1.3695   -1.5711 N   0  3  0  0  0  0  0  0  0  0  0  0
   -4.2931    3.4700   -6.4528 N   0  3  0  0  0  0  0  0  0  0  0  0
  1  2  1  1  0  0  0
  1  3  1  0  0  0  0
  1 10  1  0  0  0  0
  3  4  1  1  0  0  0
  3  5  1  0  0  0  0
  5  6  1  6  0  0  0
  5  7  1  0  0  0  0
  7  8  1  1  0  0  0
  7  9  1  0  0  0  0
  9 10  1  0  0  0  0
  9 11  1  6  0  0  0
 11 35  1  0  0  0  0
 12 13  1  1  0  0  0
 12 14  1  0  0  0  0
 12 20  1  0  0  0  0
 14 15  1  0  0  0  0
 14 40  1  6  0  0  0
 15 16  1  6  0  0  0
 15 17  1  0  0  0  0
 17  2  1  6  0  0  0
 17 18  1  0  0  0  0
 18 19  1  1  0  0  0
 18 20  1  0  0  0  0
 21 16  1  1  0  0  0
 21 22  1  0  0  0  0
 21 25  1  0  0  0  0
 22 23  1  0  0  0  0
 22 36  1  6  0  0  0
 23 24  1  0  0  0  0
 23 31  1  6  0  0  0
 24 25  1  0  0  0  0
 24 26  1  1  0  0  0
 26 39  1  0  0  0  0
 27 28  1  0  0  0  0
 27 32  1  0  0  0  0
 27 38  1  1  0  0  0
 28 29  1  0  0  0  0
 28 37  1  6  0  0  0
 29 30  1  0  0  0  0
 29 42  1  6  0  0  0
 30 31  1  1  0  0  0
 30 33  1  0  0  0  0
 32 33  1  0  0  0  0
 32 34  1  1  0  0  0
 34 41  1  0  0  0  0
M  CHG  6   4   1  13   1  19   1  35   1  41   1  42   1
M  END
>  <CHROM.1>
167.89777863,126.58876563,86.76167572,66.42864231,-179.90869265,28.79576503
-64.35186085,-57.56332217,-65.57358205,-89.62368322,-117.22251569,87.48545691
69.97057274,57.71849813,174.65333258,-175.89148877,66.38492384,-59.31086238
-74.66882176,-165.13364570,46.34164289,-93.75187254,-5.13204963,4.16844590
-0.93592761,-2.49338903,0.40997304,-1.80301732

>  <Name>


>  <RI>
0

>  <Rbt.Current_Directory>
/home/itssahil/PROJECTS/Mol_Feturizer/New_Systems/rnas/1ei2

>  <Rbt.Executable>
rbdock ($Id: //depot/dev/client3/rdock/2013.1/src/exe/rbdock.cxx#4 $)

>  <Rbt.Library>
libRbt.so (2013.1, Build901 2013/11/27)

>  <Rbt.Parameter_File>
/export/apps/rDock/src/rDock_2013.1_src/data/scripts/dock_solv.prm

>  <Rbt.Receptor>
prm/pocket_docking_3.prm

>  <SCORE>
-46.2164

>  <SCORE.INTER>
-27.5877

>  <SCORE.INTER.CONST>
1

>  <SCORE.INTER.POLAR>
-5.50582

>  <SCORE.INTER.ROT>
9

>  <SCORE.INTER.SOLV>
21.6502

>  <SCORE.INTER.VDW>
-16.8558

>  <SCORE.INTER.norm>
-0.65685

>  <SCORE.INTRA>
-18.6346

>  <SCORE.INTRA.DIHEDRAL>
-10.3021

>  <SCORE.INTRA.DIHEDRAL.0>
40.8761

>  <SCORE.INTRA.POLAR>
-2.23251

>  <SCORE.INTRA.POLAR.0>
-0.0268208

>  <SCORE.INTRA.REPUL>
-0.641615

>  <SCORE.INTRA.REPUL.0>
0.641615

>  <SCORE.INTRA.SOLV>
0.043723

>  <SCORE.INTRA.SOLV.lig_0>
-162.567

>  <SCORE.INTRA.VDW>
-2.70684

>  <SCORE.INTRA.VDW.0>
-4.80338

>  <SCORE.INTRA.norm>
-0.443681

>  <SCORE.RESTR>
0.00590168

>  <SCORE.RESTR.CAVITY>
0.00590168

>  <SCORE.RESTR.norm>
0.000140516

>  <SCORE.SYSTEM>
0

>  <SCORE.SYSTEM.CONST>
0

>  <SCORE.SYSTEM.DIHEDRAL>
0

>  <SCORE.SYSTEM.SOLV>
0

>  <SCORE.SYSTEM.norm>
0

>  <SCORE.heavy>
42

>  <SCORE.norm>
-1.10039

>  <RMSD>
5.254

$$$$

 OpenBabel11021811393D
libRbt.so/2013.1/901 2013/11/27
 42 45  0  0  0  0  0  0  0  0999 V2000
   -4.2246    4.2028    1.7010 C   0  0  2  0  0  0  0  0  0  0  0  0
   -4.4171    5.3689    0.8426 O   0  0  0  0  0  0  0  0  0  0  0  0
   -2.8837    3.4662    1.3795 C   0  0  2  0  0  0  0  0  0  0  0  0
   -1.9836    4.3044    0.5546 N   0  3  0  0  0  0  0  0  0  0  0  0
   -3.1595    2.1035    0.6755 C   0  0  1  0  0  0  0  0  0  0  0  0
   -1.9302    1.4367    0.3966 O   0  0  0  0  0  0  0  0  0  0  0  0
   -4.0382    1.1700    1.5506 C   0  0  2  0  0  0  0  0  0  0  0  0
   -4.4897    0.0838    0.7493 O   0  0  0  0  0  0  0  0  0  0  0  0
   -5.2607    1.9386    2.1491 C   0  0  2  0  0  0  0  0  0  0  0  0
   -5.3542    3.2751    1.5573 O   0  0  0  0  0  0  0  0  0  0  0  0
   -5.2040    2.1407    3.6808 C   0  0  0  0  0  0  0  0  0  0  0  0
   -8.0927    6.6257    2.7214 C   0  0  1  0  0  0  0  0  0  0  0  0
   -9.3095    7.3861    3.0842 N   0  3  0  0  0  0  0  0  0  0  0  0
   -8.2147    5.9967    1.3087 C   0  0  1  0  0  0  0  0  0  0  0  0
   -6.8987    5.3054    0.8087 C   0  0  1  0  0  0  0  0  0  0  0  0
   -7.0319    5.0528   -0.6159 O   0  0  0  0  0  0  0  0  0  0  0  0
   -5.6136    6.1884    1.0160 C   0  0  1  0  0  0  0  0  0  0  0  0
   -5.5598    6.8181    2.4455 C   0  0  1  0  0  0  0  0  0  0  0  0
   -4.4350    7.7642    2.5927 N   0  3  0  0  0  0  0  0  0  0  0  0
   -6.8684    7.5617    2.7954 C   0  0  0  0  0  0  0  0  0  0  0  0
   -6.9780    6.1684   -1.5515 C   0  0  1  0  0  0  0  0  0  0  0  0
   -6.4231    5.6631   -2.8779 C   0  0  1  0  0  0  0  0  0  0  0  0
   -7.6761    5.0289   -3.4663 C   0  0  1  0  0  0  0  0  0  0  0  0
   -8.7522    6.0547   -3.0832 C   0  0  2  0  0  0  0  0  0  0  0  0
   -8.3068    6.6367   -1.8348 O   0  0  0  0  0  0  0  0  0  0  0  0
  -10.1468    5.4273   -2.9076 C   0  0  0  0  0  0  0  0  0  0  0  0
   -5.0511    2.5630   -3.1559 C   0  0  1  0  0  0  0  0  0  0  0  0
   -6.5395    2.2162   -3.4386 C   0  0  1  0  0  0  0  0  0  0  0  0
   -6.9770    2.4496   -4.9135 C   0  0  2  0  0  0  0  0  0  0  0  0
   -6.6055    3.8902   -5.3914 C   0  0  1  0  0  0  0  0  0  0  0  0
   -7.5683    4.8704   -4.9103 O   0  0  0  0  0  0  0  0  0  0  0  0
   -4.3850    3.2099   -4.4081 C   0  0  1  0  0  0  0  0  0  0  0  0
   -5.2500    4.2705   -4.9311 O   0  0  0  0  0  0  0  0  0  0  0  0
   -2.9852    3.7995   -4.0966 C   0  0  0  0  0  0  0  0  0  0  0  0
   -5.5907    0.9556    4.4666 N   0  3  0  0  0  0  0  0  0  0  0  0
   -5.9755    6.7664   -3.6660 O   0  0  0  0  0  0  0  0  0  0  0  0
   -6.7507    0.8429   -3.1134 O   0  0  0  0  0  0  0  0  0  0  0  0
   -4.9999    3.4659   -2.0490 O   0  0  0  0  0  0  0  0  0  0  0  0
  -10.1410    4.4658   -1.8664 O   0  0  0  0  0  0  0  0  0  0  0  0
   -9.2601    5.0251    1.3280 O   0  0  0  0  0  0  0  0  0  0  0  0
   -2.1808    4.0385   -5.3089 N   0  3  0  0  0  0  0  0  0  0  0  0
   -8.4144    2.1363   -5.1083 N   0  3  0  0  0  0  0  0  0  0  0  0
  1  2  1  6  0  0  0
  1  3  1  0  0  0  0
  1 10  1  0  0  0  0
  3  4  1  6  0  0  0
  3  5  1  0  0  0  0
  5  6  1  1  0  0  0
  5  7  1  0  0  0  0
  7  8  1  6  0  0  0
  7  9  1  0  0  0  0
  9 10  1  0  0  0  0
  9 11  1  1  0  0  0
 11 35  1  0  0  0  0
 12 13  1  6  0  0  0
 12 14  1  0  0  0  0
 12 20  1  0  0  0  0
 14 15  1  0  0  0  0
 14 40  1  1  0  0  0
 15 16  1  6  0  0  0
 15 17  1  0  0  0  0
 17  2  1  1  0  0  0
 17 18  1  0  0  0  0
 18 19  1  6  0  0  0
 18 20  1  0  0  0  0
 21 16  1  1  0  0  0
 21 22  1  0  0  0  0
 21 25  1  0  0  0  0
 22 23  1  0  0  0  0
 22 36  1  6  0  0  0
 23 24  1  0  0  0  0
 23 31  1  6  0  0  0
 24 25  1  0  0  0  0
 24 26  1  1  0  0  0
 26 39  1  0  0  0  0
 27 28  1  0  0  0  0
 27 32  1  0  0  0  0
 27 38  1  1  0  0  0
 28 29  1  0  0  0  0
 28 37  1  6  0  0  0
 29 30  1  0  0  0  0
 29 42  1  1  0  0  0
 30 31  1  1  0  0  0
 30 33  1  0  0  0  0
 32 33  1  0  0  0  0
 32 34  1  1  0  0  0
 34 41  1  0  0  0  0
M  CHG  6   4   1  13   1  19   1  35   1  41   1  42   1
M  END
>  <CHROM.1>
-179.24966286,-58.65681255,61.49023455,63.58324408,-58.04640546,-79.03053378
-72.85113742,63.17500029,-56.76647199,71.96924531,150.90216039,42.44947180
175.61300095,68.72636995,61.34129177,-53.39638932,62.33114004,59.11781898
67.90235498,62.56770444,162.56503837,-34.17022964,-5.99136579,4.22051203
-0.82978511,-1.38502585,0.69439874,-1.75959048

>  <Name>


>  <RI>
0

>  <Rbt.Current_Directory>
/home/itssahil/PROJECTS/Mol_Feturizer/New_Systems/rnas/1ei2

>  <Rbt.Executable>
rbdock ($Id: //depot/dev/client3/rdock/2013.1/src/exe/rbdock.cxx#4 $)

>  <Rbt.Library>
libRbt.so (2013.1, Build901 2013/11/27)

>  <Rbt.Parameter_File>
/export/apps/rDock/src/rDock_2013.1_src/data/scripts/dock_solv.prm

>  <Rbt.Receptor>
prm/pocket_docking_4.prm

>  <SCORE>
-58.7014

>  <SCORE.INTER>
-33.0947

>  <SCORE.INTER.CONST>
1

>  <SCORE.INTER.POLAR>
-5.88992

>  <SCORE.INTER.ROT>
9

>  <SCORE.INTER.SOLV>
30.0386

>  <SCORE.INTER.VDW>
-22.043

>  <SCORE.INTER.norm>
-0.787969

>  <SCORE.INTRA>
-25.6067

>  <SCORE.INTRA.DIHEDRAL>
-30.0353

>  <SCORE.INTRA.DIHEDRAL.0>
40.8761

>  <SCORE.INTRA.POLAR>
-0.475224

>  <SCORE.INTRA.POLAR.0>
-0.0268208

>  <SCORE.INTRA.REPUL>
-0.491095

>  <SCORE.INTRA.REPUL.0>
0.641615

>  <SCORE.INTRA.SOLV>
-10.2621

>  <SCORE.INTRA.SOLV.lig_0>
-162.567

>  <SCORE.INTRA.VDW>
-1.38675

>  <SCORE.INTRA.VDW.0>
-4.80338

>  <SCORE.INTRA.norm>
-0.609682

>  <SCORE.RESTR>
0

>  <SCORE.RESTR.CAVITY>
0

>  <SCORE.RESTR.norm>
0

>  <SCORE.SYSTEM>
0

>  <SCORE.SYSTEM.CONST>
0

>  <SCORE.SYSTEM.DIHEDRAL>
0

>  <SCORE.SYSTEM.SOLV>
0

>  <SCORE.SYSTEM.norm>
0

>  <SCORE.heavy>
42

>  <SCORE.norm>
-1.39765

>  <RMSD>
5.313

$$$$

 OpenBabel11021811393D
libRbt.so/2013.1/901 2013/11/27
 42 45  0  0  0  0  0  0  0  0999 V2000
   -4.5043    5.6769    3.8934 C   0  0  2  0  0  0  0  0  0  0  0  0
   -3.3774    4.7520    3.9845 O   0  0  0  0  0  0  0  0  0  0  0  0
   -4.2394    6.8057    2.8449 C   0  0  2  0  0  0  0  0  0  0  0  0
   -3.0979    6.4745    1.9614 N   0  3  0  0  0  0  0  0  0  0  0  0
   -4.0020    8.1722    3.5557 C   0  0  1  0  0  0  0  0  0  0  0  0
   -3.7718    9.1953    2.5894 O   0  0  0  0  0  0  0  0  0  0  0  0
   -5.2160    8.5855    4.4303 C   0  0  2  0  0  0  0  0  0  0  0  0
   -4.8290    9.6711    5.2655 O   0  0  0  0  0  0  0  0  0  0  0  0
   -5.7190    7.3906    5.3036 C   0  0  2  0  0  0  0  0  0  0  0  0
   -4.7828    6.2682    5.2087 O   0  0  0  0  0  0  0  0  0  0  0  0
   -7.1057    6.8397    4.8991 C   0  0  0  0  0  0  0  0  0  0  0  0
   -2.1431    1.1545    6.0228 C   0  0  1  0  0  0  0  0  0  0  0  0
   -2.1500   -0.1194    6.7761 N   0  3  0  0  0  0  0  0  0  0  0  0
   -2.7367    0.9779    4.6006 C   0  0  1  0  0  0  0  0  0  0  0  0
   -2.8939    2.3232    3.8096 C   0  0  1  0  0  0  0  0  0  0  0  0
   -3.7416    2.0749    2.6561 O   0  0  0  0  0  0  0  0  0  0  0  0
   -3.5652    3.4677    4.6543 C   0  0  1  0  0  0  0  0  0  0  0  0
   -2.9470    3.5791    6.0855 C   0  0  1  0  0  0  0  0  0  0  0  0
   -3.6735    4.5498    6.9293 N   0  3  0  0  0  0  0  0  0  0  0  0
   -2.9350    2.2164    6.8139 C   0  0  0  0  0  0  0  0  0  0  0  0
   -3.4491    2.7397    1.3930 C   0  0  1  0  0  0  0  0  0  0  0  0
   -2.7719    1.7395    0.4636 C   0  0  1  0  0  0  0  0  0  0  0  0
   -3.9902    0.9784   -0.0414 C   0  0  1  0  0  0  0  0  0  0  0  0
   -5.0002    2.1152   -0.2535 C   0  0  2  0  0  0  0  0  0  0  0  0
   -4.6730    3.1155    0.7405 O   0  0  0  0  0  0  0  0  0  0  0  0
   -6.4615    1.6611   -0.0873 C   0  0  0  0  0  0  0  0  0  0  0  0
   -4.7637    0.3027   -4.9713 C   0  0  1  0  0  0  0  0  0  0  0  0
   -3.8269   -0.7505   -4.3167 C   0  0  1  0  0  0  0  0  0  0  0  0
   -4.3946   -1.3827   -3.0132 C   0  0  2  0  0  0  0  0  0  0  0  0
   -4.8428   -0.2807   -2.0000 C   0  0  1  0  0  0  0  0  0  0  0  0
   -3.7030    0.2706   -1.2818 O   0  0  0  0  0  0  0  0  0  0  0  0
   -6.0027    0.5808   -4.0670 C   0  0  1  0  0  0  0  0  0  0  0  0
   -5.5621    0.8152   -2.6895 O   0  0  0  0  0  0  0  0  0  0  0  0
   -6.8295    1.7990   -4.5532 C   0  0  0  0  0  0  0  0  0  0  0  0
   -8.1173    6.8903    5.9693 N   0  3  0  0  0  0  0  0  0  0  0  0
   -2.1127    2.4340   -0.5955 O   0  0  0  0  0  0  0  0  0  0  0  0
   -3.5919   -1.7928   -5.2628 O   0  0  0  0  0  0  0  0  0  0  0  0
   -4.0197    1.5067   -5.1713 O   0  0  0  0  0  0  0  0  0  0  0  0
   -6.5918    0.7667    1.0043 O   0  0  0  0  0  0  0  0  0  0  0  0
   -1.8869    0.1076    3.8537 O   0  0  0  0  0  0  0  0  0  0  0  0
   -7.4756    1.5696   -5.8585 N   0  3  0  0  0  0  0  0  0  0  0  0
   -3.4387   -2.3499   -2.4191 N   0  3  0  0  0  0  0  0  0  0  0  0
  1  2  1  1  0  0  0
  1  3  1  0  0  0  0
  1 10  1  0  0  0  0
  3  4  1  1  0  0  0
  3  5  1  0  0  0  0
  5  6  1  6  0  0  0
  5  7  1  0  0  0  0
  7  8  1  1  0  0  0
  7  9  1  0  0  0  0
  9 10  1  0  0  0  0
  9 11  1  6  0  0  0
 11 35  1  0  0  0  0
 12 13  1  1  0  0  0
 12 14  1  0  0  0  0
 12 20  1  0  0  0  0
 14 15  1  0  0  0  0
 14 40  1  6  0  0  0
 15 16  1  6  0  0  0
 15 17  1  0  0  0  0
 17  2  1  6  0  0  0
 17 18  1  0  0  0  0
 18 19  1  1  0  0  0
 18 20  1  0  0  0  0
 21 16  1  1  0  0  0
 21 22  1  0  0  0  0
 21 25  1  0  0  0  0
 22 23  1  0  0  0  0
 22 36  1  6  0  0  0
 23 24  1  0  0  0  0
 23 31  1  6  0  0  0
 24 25  1  0  0  0  0
 24 26  1  1  0  0  0
 26 39  1  0  0  0  0
 27 28  1  0  0  0  0
 27 32  1  0  0  0  0
 27 38  1  1  0  0  0
 28 29  1  0  0  0  0
 28 37  1  6  0  0  0
 29 30  1  0  0  0  0
 29 42  1  1  0  0  0
 30 31  1  6  0  0  0
 30 33  1  0  0  0  0
 32 33  1  0  0  0  0
 32 34  1  6  0  0  0
 34 41  1  0  0  0  0
M  CHG  6   4   1  13   1  19   1  35   1  41   1  42   1
M  END
>  <CHROM.1>
-165.13673190,136.04132895,40.26126997,49.97844670,-57.71624338,-121.17551742
57.96009920,49.26421218,40.97447913,-142.35595311,102.61303555,-45.62474531
173.06260594,-168.56201031,40.61885108,157.77698815,64.56110292,-62.45589256
73.32903070,-161.26261547,66.34039802,56.81967252,-4.31069650,2.92574139
1.39063454,1.49165667,-1.12415581,0.90156728

>  <Name>


>  <RI>
0

>  <Rbt.Current_Directory>
/home/itssahil/PROJECTS/Mol_Feturizer/New_Systems/rnas/1ei2

>  <Rbt.Executable>
rbdock ($Id: //depot/dev/client3/rdock/2013.1/src/exe/rbdock.cxx#4 $)

>  <Rbt.Library>
libRbt.so (2013.1, Build901 2013/11/27)

>  <Rbt.Parameter_File>
/export/apps/rDock/src/rDock_2013.1_src/data/scripts/dock_solv.prm

>  <Rbt.Receptor>
prm/pocket_docking_8.prm

>  <SCORE>
-60.1478

>  <SCORE.INTER>
-45.5078

>  <SCORE.INTER.CONST>
1

>  <SCORE.INTER.POLAR>
-7.9154

>  <SCORE.INTER.ROT>
9

>  <SCORE.INTER.SOLV>
27.2089

>  <SCORE.INTER.VDW>
-22.6235

>  <SCORE.INTER.norm>
-1.08352

>  <SCORE.INTRA>
-14.64

>  <SCORE.INTRA.DIHEDRAL>
-6.70023

>  <SCORE.INTRA.DIHEDRAL.0>
40.8761

>  <SCORE.INTRA.POLAR>
-1.14243

>  <SCORE.INTRA.POLAR.0>
-0.0268208

>  <SCORE.INTRA.REPUL>
-0.641615

>  <SCORE.INTRA.REPUL.0>
0.641615

>  <SCORE.INTRA.SOLV>
-10.9507

>  <SCORE.INTRA.SOLV.lig_0>
-162.567

>  <SCORE.INTRA.VDW>
1.27781

>  <SCORE.INTRA.VDW.0>
-4.80338

>  <SCORE.INTRA.norm>
-0.348572

>  <SCORE.RESTR>
0

>  <SCORE.RESTR.CAVITY>
0

>  <SCORE.RESTR.norm>
0

>  <SCORE.SYSTEM>
0

>  <SCORE.SYSTEM.CONST>
0

>  <SCORE.SYSTEM.DIHEDRAL>
0

>  <SCORE.SYSTEM.SOLV>
0

>  <SCORE.SYSTEM.norm>
0

>  <SCORE.heavy>
42

>  <SCORE.norm>
-1.43209

>  <RMSD>
5.323

$$$$

 OpenBabel11021811393D
libRbt.so/2013.1/901 2013/11/27
 42 45  0  0  0  0  0  0  0  0999 V2000
   -4.4252    4.3254    2.2904 C   0  0  2  0  0  0  0  0  0  0  0  0
   -4.5224    5.3800    1.2844 O   0  0  0  0  0  0  0  0  0  0  0  0
   -2.9445    4.0825    2.7289 C   0  0  2  0  0  0  0  0  0  0  0  0
   -2.0589    5.1896    2.3007 N   0  3  0  0  0  0  0  0  0  0  0  0
   -2.4235    2.7211    2.1774 C   0  0  1  0  0  0  0  0  0  0  0  0
   -1.0762    2.5062    2.5921 O   0  0  0  0  0  0  0  0  0  0  0  0
   -3.2870    1.5302    2.6729 C   0  0  2  0  0  0  0  0  0  0  0  0
   -2.9472    0.3735    1.9164 O   0  0  0  0  0  0  0  0  0  0  0  0
   -4.8129    1.8365    2.5272 C   0  0  2  0  0  0  0  0  0  0  0  0
   -5.0078    3.0789    1.7764 O   0  0  0  0  0  0  0  0  0  0  0  0
   -5.5627    2.0125    3.8678 C   0  0  0  0  0  0  0  0  0  0  0  0
   -8.6480    6.3400    2.1073 C   0  0  1  0  0  0  0  0  0  0  0  0
   -9.9934    6.9556    2.0688 N   0  3  0  0  0  0  0  0  0  0  0  0
   -8.3719    5.4957    0.8356 C   0  0  1  0  0  0  0  0  0  0  0  0
   -6.9070    4.9419    0.7502 C   0  0  1  0  0  0  0  0  0  0  0  0
   -6.6814    4.4621   -0.6025 O   0  0  0  0  0  0  0  0  0  0  0  0
   -5.8115    6.0281    1.0574 C   0  0  1  0  0  0  0  0  0  0  0  0
   -6.1575    6.8654    2.3310 C   0  0  1  0  0  0  0  0  0  0  0  0
   -5.2104    7.9802    2.5360 N   0  3  0  0  0  0  0  0  0  0  0  0
   -7.5868    7.4489    2.2642 C   0  0  0  0  0  0  0  0  0  0  0  0
   -5.9898    5.3141   -1.5610 C   0  0  1  0  0  0  0  0  0  0  0  0
   -4.5601    4.8093   -1.7158 C   0  0  1  0  0  0  0  0  0  0  0  0
   -4.7894    3.6507   -2.6768 C   0  0  1  0  0  0  0  0  0  0  0  0
   -5.8183    4.2504   -3.6458 C   0  0  2  0  0  0  0  0  0  0  0  0
   -6.5941    5.1852   -2.8584 O   0  0  0  0  0  0  0  0  0  0  0  0
   -6.7425    3.1917   -4.2737 C   0  0  0  0  0  0  0  0  0  0  0  0
   -2.7946    1.1693   -6.4801 C   0  0  1  0  0  0  0  0  0  0  0  0
   -1.7315    1.8613   -5.5821 C   0  0  1  0  0  0  0  0  0  0  0  0
   -1.8896    1.5603   -4.0637 C   0  0  2  0  0  0  0  0  0  0  0  0
   -3.3476    1.8469   -3.5801 C   0  0  1  0  0  0  0  0  0  0  0  0
   -3.5601    3.2700   -3.3593 O   0  0  0  0  0  0  0  0  0  0  0  0
   -3.8681    0.4459   -5.6115 C   0  0  1  0  0  0  0  0  0  0  0  0
   -4.3407    1.3513   -4.5610 O   0  0  0  0  0  0  0  0  0  0  0  0
   -5.0787   -0.0405   -6.4493 C   0  0  0  0  0  0  0  0  0  0  0  0
   -5.8356    0.7536    4.5832 N   0  3  0  0  0  0  0  0  0  0  0  0
   -3.7501    5.8263   -2.3059 O   0  0  0  0  0  0  0  0  0  0  0  0
   -0.4382    1.4261   -5.9998 O   0  0  0  0  0  0  0  0  0  0  0  0
   -3.4125    2.1653   -7.2981 O   0  0  0  0  0  0  0  0  0  0  0  0
   -7.5391    3.7602   -5.2988 O   0  0  0  0  0  0  0  0  0  0  0  0
   -9.2775    4.3927    0.8118 O   0  0  0  0  0  0  0  0  0  0  0  0
   -5.6619    1.0242   -7.2861 N   0  3  0  0  0  0  0  0  0  0  0  0
   -0.8698    2.2786   -3.2598 N   0  3  0  0  0  0  0  0  0  0  0  0
  1  2  1  6  0  0  0
  1  3  1  0  0  0  0
  1 10  1  0  0  0  0
  3  4  1  6  0  0  0
  3  5  1  0  0  0  0
  5  6  1  1  0  0  0
  5  7  1  0  0  0  0
  7  8  1  6  0  0  0
  7  9  1  0  0  0  0
  9 10  1  0  0  0  0
  9 11  1  1  0  0  0
 11 35  1  0  0  0  0
 12 13  1  6  0  0  0
 12 14  1  0  0  0  0
 12 20  1  0  0  0  0
 14 15  1  0  0  0  0
 14 40  1  1  0  0  0
 15 16  1  6  0  0  0
 15 17  1  0  0  0  0
 17  2  1  1  0  0  0
 17 18  1  0  0  0  0
 18 19  1  6  0  0  0
 18 20  1  0  0  0  0
 21 16  1  1  0  0  0
 21 22  1  0  0  0  0
 21 25  1  0  0  0  0
 22 23  1  0  0  0  0
 22 36  1  6  0  0  0
 23 24  1  0  0  0  0
 23 31  1  6  0  0  0
 24 25  1  0  0  0  0
 24 26  1  1  0  0  0
 26 39  1  0  0  0  0
 27 28  1  0  0  0  0
 27 32  1  0  0  0  0
 27 38  1  1  0  0  0
 28 29  1  0  0  0  0
 28 37  1  6  0  0  0
 29 30  1  0  0  0  0
 29 42  1  1  0  0  0
 30 31  1  6  0  0  0
 30 33  1  0  0  0  0
 32 33  1  0  0  0  0
 32 34  1  6  0  0  0
 34 41  1  0  0  0  0
M  CHG  6   4   1  13   1  19   1  35   1  41   1  42   1
M  END
>  <CHROM.1>
-161.27884842,-54.07737344,-157.46360272,-168.95205125,-56.14088939,-75.78287859
-119.94716951,-63.09286725,-173.09853117,98.25652768,103.50128058,158.73753224
-55.14182520,141.75184141,-171.49621748,63.00249766,55.52118158,61.37092057
63.07706707,-169.06949437,-51.70558972,-75.72706147,-4.80273171,3.54755717
-1.05083717,-1.91919904,0.59964802,-1.74389921

>  <Name>


>  <RI>
0

>  <Rbt.Current_Directory>
/home/itssahil/PROJECTS/Mol_Feturizer/New_Systems/rnas/1ei2

>  <Rbt.Executable>
rbdock ($Id: //depot/dev/client3/rdock/2013.1/src/exe/rbdock.cxx#4 $)

>  <Rbt.Library>
libRbt.so (2013.1, Build901 2013/11/27)

>  <Rbt.Parameter_File>
/export/apps/rDock/src/rDock_2013.1_src/data/scripts/dock_solv.prm

>  <Rbt.Receptor>
prm/pocket_docking_3.prm

>  <SCORE>
-52.3659

>  <SCORE.INTER>
-36.8367

>  <SCORE.INTER.CONST>
1

>  <SCORE.INTER.POLAR>
-6.51707

>  <SCORE.INTER.ROT>
9

>  <SCORE.INTER.SOLV>
29.0568

>  <SCORE.INTER.VDW>
-22.1198

>  <SCORE.INTER.norm>
-0.877064

>  <SCORE.INTRA>
-15.7194

>  <SCORE.INTRA.DIHEDRAL>
-13.0842

>  <SCORE.INTRA.DIHEDRAL.0>
40.8761

>  <SCORE.INTRA.POLAR>
-0.982292

>  <SCORE.INTRA.POLAR.0>
-0.0268208

>  <SCORE.INTRA.REPUL>
-0.641615

>  <SCORE.INTRA.REPUL.0>
0.641615

>  <SCORE.INTRA.SOLV>
-9.71794

>  <SCORE.INTRA.SOLV.lig_0>
-162.567

>  <SCORE.INTRA.VDW>
2.22957

>  <SCORE.INTRA.VDW.0>
-4.80338

>  <SCORE.INTRA.norm>
-0.374271

>  <SCORE.RESTR>
0.190231

>  <SCORE.RESTR.CAVITY>
0.190231

>  <SCORE.RESTR.norm>
0.00452931

>  <SCORE.SYSTEM>
0

>  <SCORE.SYSTEM.CONST>
0

>  <SCORE.SYSTEM.DIHEDRAL>
0

>  <SCORE.SYSTEM.SOLV>
0

>  <SCORE.SYSTEM.norm>
0

>  <SCORE.heavy>
42

>  <SCORE.norm>
-1.24681

>  <RMSD>
5.324

$$$$

 OpenBabel11021811393D
libRbt.so/2013.1/901 2013/11/27
 42 45  0  0  0  0  0  0  0  0999 V2000
   -3.9402    2.9223    1.2608 C   0  0  2  0  0  0  0  0  0  0  0  0
   -4.9972    3.7357    1.8563 O   0  0  0  0  0  0  0  0  0  0  0  0
   -3.6985    1.6082    2.0725 C   0  0  2  0  0  0  0  0  0  0  0  0
   -4.8079    1.3357    3.0148 N   0  3  0  0  0  0  0  0  0  0  0  0
   -2.3392    1.6729    2.8322 C   0  0  1  0  0  0  0  0  0  0  0  0
   -2.1252    0.4656    3.5602 O   0  0  0  0  0  0  0  0  0  0  0  0
   -1.1457    1.8806    1.8617 C   0  0  2  0  0  0  0  0  0  0  0  0
    0.0085    2.2187    2.6226 O   0  0  0  0  0  0  0  0  0  0  0  0
   -1.4501    3.0065    0.8210 C   0  0  2  0  0  0  0  0  0  0  0  0
   -2.6941    3.6949    1.1729 O   0  0  0  0  0  0  0  0  0  0  0  0
   -1.6217    2.5075   -0.6322 C   0  0  0  0  0  0  0  0  0  0  0  0
   -7.7895    6.7407    0.5173 C   0  0  1  0  0  0  0  0  0  0  0  0
   -8.3778    7.9725   -0.0545 N   0  3  0  0  0  0  0  0  0  0  0  0
   -7.1413    5.8568   -0.5803 C   0  0  1  0  0  0  0  0  0  0  0  0
   -6.3708    4.6124   -0.0167 C   0  0  1  0  0  0  0  0  0  0  0  0
   -5.5526    4.0635   -1.0845 O   0  0  0  0  0  0  0  0  0  0  0  0
   -5.4143    4.9624    1.1820 C   0  0  1  0  0  0  0  0  0  0  0  0
   -6.1118    5.8771    2.2402 C   0  0  1  0  0  0  0  0  0  0  0  0
   -5.1733    6.3280    3.2880 N   0  3  0  0  0  0  0  0  0  0  0  0
   -6.7491    7.1255    1.5897 C   0  0  0  0  0  0  0  0  0  0  0  0
   -4.6732    4.9448   -1.8413 C   0  0  1  0  0  0  0  0  0  0  0  0
   -3.4598    4.1439   -2.2985 C   0  0  1  0  0  0  0  0  0  0  0  0
   -4.0494    3.4363   -3.5110 C   0  0  1  0  0  0  0  0  0  0  0  0
   -4.8883    4.5548   -4.1453 C   0  0  2  0  0  0  0  0  0  0  0  0
   -5.3303    5.3816   -3.0423 O   0  0  0  0  0  0  0  0  0  0  0  0
   -6.1019    4.0258   -4.9305 C   0  0  0  0  0  0  0  0  0  0  0  0
   -3.3261   -0.8367   -4.8674 C   0  0  1  0  0  0  0  0  0  0  0  0
   -2.5986    0.1259   -5.8469 C   0  0  1  0  0  0  0  0  0  0  0  0
   -1.5693    1.0706   -5.1619 C   0  0  2  0  0  0  0  0  0  0  0  0
   -2.2141    1.8300   -3.9580 C   0  0  1  0  0  0  0  0  0  0  0  0
   -3.0083    2.9621   -4.4127 O   0  0  0  0  0  0  0  0  0  0  0  0
   -2.9465   -0.5154   -3.3899 C   0  0  1  0  0  0  0  0  0  0  0  0
   -3.0684    0.9256   -3.1543 O   0  0  0  0  0  0  0  0  0  0  0  0
   -3.8338   -1.2764   -2.3713 C   0  0  0  0  0  0  0  0  0  0  0  0
   -0.6454    1.4835   -1.0441 N   0  3  0  0  0  0  0  0  0  0  0  0
   -2.4070    5.0330   -2.6720 O   0  0  0  0  0  0  0  0  0  0  0  0
   -1.9157   -0.6587   -6.8240 O   0  0  0  0  0  0  0  0  0  0  0  0
   -4.7356   -0.6929   -5.0561 O   0  0  0  0  0  0  0  0  0  0  0  0
   -6.9558    3.2678   -4.0908 O   0  0  0  0  0  0  0  0  0  0  0  0
   -8.1647    5.3970   -1.4627 O   0  0  0  0  0  0  0  0  0  0  0  0
   -5.2149   -0.7630   -2.3178 N   0  3  0  0  0  0  0  0  0  0  0  0
   -0.9383    1.9874   -6.1435 N   0  3  0  0  0  0  0  0  0  0  0  0
  1  2  1  1  0  0  0
  1  3  1  0  0  0  0
  1 10  1  0  0  0  0
  3  4  1  1  0  0  0
  3  5  1  0  0  0  0
  5  6  1  6  0  0  0
  5  7  1  0  0  0  0
  7  8  1  1  0  0  0
  7  9  1  0  0  0  0
  9 10  1  0  0  0  0
  9 11  1  6  0  0  0
 11 35  1  0  0  0  0
 12 13  1  6  0  0  0
 12 14  1  0  0  0  0
 12 20  1  0  0  0  0
 14 15  1  0  0  0  0
 14 40  1  6  0  0  0
 15 16  1  6  0  0  0
 15 17  1  0  0  0  0
 17  2  1  1  0  0  0
 17 18  1  0  0  0  0
 18 19  1  1  0  0  0
 18 20  1  0  0  0  0
 21 16  1  6  0  0  0
 21 22  1  0  0  0  0
 21 25  1  0  0  0  0
 22 23  1  0  0  0  0
 22 36  1  6  0  0  0
 23 24  1  0  0  0  0
 23 31  1  6  0  0  0
 24 25  1  0  0  0  0
 24 26  1  1  0  0  0
 26 39  1  0  0  0  0
 27 28  1  0  0  0  0
 27 32  1  0  0  0  0
 27 38  1  1  0  0  0
 28 29  1  0  0  0  0
 28 37  1  6  0  0  0
 29 30  1  0  0  0  0
 29 42  1  6  0  0  0
 30 31  1  6  0  0  0
 30 33  1  0  0  0  0
 32 33  1  0  0  0  0
 32 34  1  1  0  0  0
 34 41  1  0  0  0  0
M  CHG  6   4   1  13   1  19   1  35   1  41   1  42   1
M  END
>  <CHROM.1>
-176.25658247,78.83666977,-55.46785952,-72.98605826,-165.77111921,-42.06292881
-36.89323363,57.53190492,-58.32739768,50.64340939,149.46707759,-56.98337335
-55.35121814,71.47742472,58.85869402,178.82949352,82.71615592,-59.60016865
157.11112714,157.13901490,-71.46684818,172.43431871,-4.03842722,2.94512297
-1.31790790,-2.10486614,0.79264478,-1.81848905

>  <Name>


>  <RI>
0

>  <Rbt.Current_Directory>
/home/itssahil/PROJECTS/Mol_Feturizer/New_Systems/rnas/1ei2

>  <Rbt.Executable>
rbdock ($Id: //depot/dev/client3/rdock/2013.1/src/exe/rbdock.cxx#4 $)

>  <Rbt.Library>
libRbt.so (2013.1, Build901 2013/11/27)

>  <Rbt.Parameter_File>
/export/apps/rDock/src/rDock_2013.1_src/data/scripts/dock_solv.prm

>  <Rbt.Receptor>
prm/pocket_docking_3.prm

>  <SCORE>
-52.054

>  <SCORE.INTER>
-31.7588

>  <SCORE.INTER.CONST>
1

>  <SCORE.INTER.POLAR>
-5.05923

>  <SCORE.INTER.ROT>
9

>  <SCORE.INTER.SOLV>
30.2176

>  <SCORE.INTER.VDW>
-23.981

>  <SCORE.INTER.norm>
-0.756161

>  <SCORE.INTRA>
-21.4061

>  <SCORE.INTRA.DIHEDRAL>
-23.1101

>  <SCORE.INTRA.DIHEDRAL.0>
40.8761

>  <SCORE.INTRA.POLAR>
-0.690073

>  <SCORE.INTRA.POLAR.0>
-0.0268208

>  <SCORE.INTRA.REPUL>
-0.629684

>  <SCORE.INTRA.REPUL.0>
0.641615

>  <SCORE.INTRA.SOLV>
-6.52312

>  <SCORE.INTRA.SOLV.lig_0>
-162.567

>  <SCORE.INTRA.VDW>
-1.09487

>  <SCORE.INTRA.VDW.0>
-4.80338

>  <SCORE.INTRA.norm>
-0.50967

>  <SCORE.RESTR>
1.11093

>  <SCORE.RESTR.CAVITY>
1.11093

>  <SCORE.RESTR.norm>
0.0264507

>  <SCORE.SYSTEM>
0

>  <SCORE.SYSTEM.CONST>
0

>  <SCORE.SYSTEM.DIHEDRAL>
0

>  <SCORE.SYSTEM.SOLV>
0

>  <SCORE.SYSTEM.norm>
0

>  <SCORE.heavy>
42

>  <SCORE.norm>
-1.23938

>  <RMSD>
5.391

$$$$

 OpenBabel11021811393D
libRbt.so/2013.1/901 2013/11/27
 42 45  0  0  0  0  0  0  0  0999 V2000
   -5.2103    5.5186    2.0517 C   0  0  2  0  0  0  0  0  0  0  0  0
   -5.5766    6.0839    0.7556 O   0  0  0  0  0  0  0  0  0  0  0  0
   -3.6656    5.3117    2.1737 C   0  0  2  0  0  0  0  0  0  0  0  0
   -2.9302    6.0491    1.1208 N   0  3  0  0  0  0  0  0  0  0  0  0
   -3.3083    3.7953    2.1303 C   0  0  1  0  0  0  0  0  0  0  0  0
   -1.8986    3.6189    2.2526 O   0  0  0  0  0  0  0  0  0  0  0  0
   -4.0040    3.0063    3.2717 C   0  0  2  0  0  0  0  0  0  0  0  0
   -3.8769    1.6135    3.0078 O   0  0  0  0  0  0  0  0  0  0  0  0
   -5.5138    3.3934    3.3906 C   0  0  2  0  0  0  0  0  0  0  0  0
   -5.9063    4.2427    2.2636 O   0  0  0  0  0  0  0  0  0  0  0  0
   -5.8766    4.1743    4.6747 C   0  0  0  0  0  0  0  0  0  0  0  0
   -9.7865    6.3906    1.6515 C   0  0  1  0  0  0  0  0  0  0  0  0
  -11.2335    6.6904    1.5693 N   0  3  0  0  0  0  0  0  0  0  0  0
   -9.3719    5.3009    0.6284 C   0  0  1  0  0  0  0  0  0  0  0  0
   -7.8252    5.0488    0.5650 C   0  0  1  0  0  0  0  0  0  0  0  0
   -7.5409    4.2693   -0.6277 O   0  0  0  0  0  0  0  0  0  0  0  0
   -6.9812    6.3734    0.4786 C   0  0  1  0  0  0  0  0  0  0  0  0
   -7.4624    7.4431    1.5116 C   0  0  1  0  0  0  0  0  0  0  0  0
   -6.7723    8.7368    1.3323 N   0  3  0  0  0  0  0  0  0  0  0  0
   -8.9852    7.6882    1.4178 C   0  0  0  0  0  0  0  0  0  0  0  0
   -7.1416    4.9499   -1.8525 C   0  0  1  0  0  0  0  0  0  0  0  0
   -5.6429    4.7549   -2.0495 C   0  0  1  0  0  0  0  0  0  0  0  0
   -5.6327    3.3524   -2.6422 C   0  0  1  0  0  0  0  0  0  0  0  0
   -6.8341    3.4100   -3.5964 C   0  0  2  0  0  0  0  0  0  0  0  0
   -7.7704    4.3302   -2.9864 O   0  0  0  0  0  0  0  0  0  0  0  0
   -7.5007    2.0389   -3.8087 C   0  0  0  0  0  0  0  0  0  0  0  0
   -1.1194    1.2722   -4.2311 C   0  0  1  0  0  0  0  0  0  0  0  0
   -1.5837    1.6369   -2.7935 C   0  0  1  0  0  0  0  0  0  0  0  0
   -3.0358    1.1869   -2.4617 C   0  0  2  0  0  0  0  0  0  0  0  0
   -4.0425    1.6804   -3.5502 C   0  0  1  0  0  0  0  0  0  0  0  0
   -4.3899    3.0801   -3.3517 O   0  0  0  0  0  0  0  0  0  0  0  0
   -2.2937    0.6621   -5.0551 C   0  0  1  0  0  0  0  0  0  0  0  0
   -3.4839    1.5042   -4.9106 O   0  0  0  0  0  0  0  0  0  0  0  0
   -1.9494    0.5180   -6.5600 C   0  0  0  0  0  0  0  0  0  0  0  0
   -5.2530    3.6509    5.9028 N   0  3  0  0  0  0  0  0  0  0  0  0
   -5.1484    5.7194   -2.9789 O   0  0  0  0  0  0  0  0  0  0  0  0
   -0.6932    1.0214   -1.8637 O   0  0  0  0  0  0  0  0  0  0  0  0
   -0.6375    2.4592   -4.8650 O   0  0  0  0  0  0  0  0  0  0  0  0
   -6.6609    1.1797   -4.5605 O   0  0  0  0  0  0  0  0  0  0  0  0
  -10.0187    4.0765    0.9749 O   0  0  0  0  0  0  0  0  0  0  0  0
   -2.3068   -0.8041   -7.1061 N   0  3  0  0  0  0  0  0  0  0  0  0
   -3.4304    1.5969   -1.0911 N   0  3  0  0  0  0  0  0  0  0  0  0
  1  2  1  6  0  0  0
  1  3  1  0  0  0  0
  1 10  1  0  0  0  0
  3  4  1  6  0  0  0
  3  5  1  0  0  0  0
  5  6  1  1  0  0  0
  5  7  1  0  0  0  0
  7  8  1  6  0  0  0
  7  9  1  0  0  0  0
  9 10  1  0  0  0  0
  9 11  1  1  0  0  0
 11 35  1  0  0  0  0
 12 13  1  6  0  0  0
 12 14  1  0  0  0  0
 12 20  1  0  0  0  0
 14 15  1  0  0  0  0
 14 40  1  1  0  0  0
 15 16  1  6  0  0  0
 15 17  1  0  0  0  0
 17  2  1  1  0  0  0
 17 18  1  0  0  0  0
 18 19  1  6  0  0  0
 18 20  1  0  0  0  0
 21 16  1  1  0  0  0
 21 22  1  0  0  0  0
 21 25  1  0  0  0  0
 22 23  1  0  0  0  0
 22 36  1  6  0  0  0
 23 24  1  0  0  0  0
 23 31  1  6  0  0  0
 24 25  1  0  0  0  0
 24 26  1  1  0  0  0
 26 39  1  0  0  0  0
 27 28  1  0  0  0  0
 27 32  1  0  0  0  0
 27 38  1  6  0  0  0
 28 29  1  0  0  0  0
 28 37  1  1  0  0  0
 29 30  1  0  0  0  0
 29 42  1  1  0  0  0
 30 31  1  1  0  0  0
 30 33  1  0  0  0  0
 32 33  1  0  0  0  0
 32 34  1  6  0  0  0
 34 41  1  0  0  0  0
M  CHG  6   4   1  13   1  19   1  35   1  41   1  42   1
M  END
>  <CHROM.1>
-178.59930475,-60.51500188,45.79693842,-172.28723062,71.48647434,-43.09317198
-55.08216096,-67.58761457,-56.29059923,95.22009902,104.76048272,-178.11278231
171.74667061,158.91540286,-69.85044572,-174.17709311,73.99216009,54.59901334
-173.43757444,-97.33774763,133.00569000,-159.20402408,-5.21329779,3.74318130
-0.71298863,-2.17367571,0.46375521,-1.86516159

>  <Name>


>  <RI>
0

>  <Rbt.Current_Directory>
/home/itssahil/PROJECTS/Mol_Feturizer/New_Systems/rnas/1ei2

>  <Rbt.Executable>
rbdock ($Id: //depot/dev/client3/rdock/2013.1/src/exe/rbdock.cxx#4 $)

>  <Rbt.Library>
libRbt.so (2013.1, Build901 2013/11/27)

>  <Rbt.Parameter_File>
/export/apps/rDock/src/rDock_2013.1_src/data/scripts/dock_solv.prm

>  <Rbt.Receptor>
prm/pocket_docking_4.prm

>  <SCORE>
-44.3096

>  <SCORE.INTER>
-30.1744

>  <SCORE.INTER.CONST>
1

>  <SCORE.INTER.POLAR>
-5.20008

>  <SCORE.INTER.ROT>
9

>  <SCORE.INTER.SOLV>
17.1897

>  <SCORE.INTER.VDW>
-18.1126

>  <SCORE.INTER.norm>
-0.718439

>  <SCORE.INTRA>
-14.6278

>  <SCORE.INTRA.DIHEDRAL>
-12.1915

>  <SCORE.INTRA.DIHEDRAL.0>
40.8761

>  <SCORE.INTRA.POLAR>
0.0260398

>  <SCORE.INTRA.POLAR.0>
-0.0268208

>  <SCORE.INTRA.REPUL>
-0.641615

>  <SCORE.INTRA.REPUL.0>
0.641615

>  <SCORE.INTRA.SOLV>
-11.6378

>  <SCORE.INTRA.SOLV.lig_0>
-162.567

>  <SCORE.INTRA.VDW>
0.406337

>  <SCORE.INTRA.VDW.0>
-4.80338

>  <SCORE.INTRA.norm>
-0.348281

>  <SCORE.RESTR>
0.492645

>  <SCORE.RESTR.CAVITY>
0.492645

>  <SCORE.RESTR.norm>
0.0117296

>  <SCORE.SYSTEM>
0

>  <SCORE.SYSTEM.CONST>
0

>  <SCORE.SYSTEM.DIHEDRAL>
0

>  <SCORE.SYSTEM.SOLV>
0

>  <SCORE.SYSTEM.norm>
0

>  <SCORE.heavy>
42

>  <SCORE.norm>
-1.05499

>  <RMSD>
5.468

$$$$

 OpenBabel11021811393D
libRbt.so/2013.1/901 2013/11/27
 42 45  0  0  0  0  0  0  0  0999 V2000
   -6.9418    6.3931    0.1611 C   0  0  2  0  0  0  0  0  0  0  0  0
   -6.2156    5.3632   -0.5776 O   0  0  0  0  0  0  0  0  0  0  0  0
   -7.6099    5.8138    1.4503 C   0  0  2  0  0  0  0  0  0  0  0  0
   -7.0652    4.4810    1.7968 N   0  3  0  0  0  0  0  0  0  0  0  0
   -9.1581    5.7456    1.2846 C   0  0  1  0  0  0  0  0  0  0  0  0
   -9.7567    5.2256    2.4698 O   0  0  0  0  0  0  0  0  0  0  0  0
   -9.7691    7.1432    0.9970 C   0  0  2  0  0  0  0  0  0  0  0  0
  -11.1172    6.9741    0.5732 O   0  0  0  0  0  0  0  0  0  0  0  0
   -8.9544    7.9039   -0.0989 C   0  0  2  0  0  0  0  0  0  0  0  0
   -7.9602    7.0108   -0.6983 O   0  0  0  0  0  0  0  0  0  0  0  0
   -8.1796    9.1377    0.4185 C   0  0  0  0  0  0  0  0  0  0  0  0
   -9.1180    4.9032   -3.7373 C   0  0  1  0  0  0  0  0  0  0  0  0
   -9.8610    4.4035   -4.9158 N   0  3  0  0  0  0  0  0  0  0  0  0
   -9.2439    3.9345   -2.5324 C   0  0  1  0  0  0  0  0  0  0  0  0
   -8.3557    4.3353   -1.3034 C   0  0  1  0  0  0  0  0  0  0  0  0
   -8.3071    3.2056   -0.3910 O   0  0  0  0  0  0  0  0  0  0  0  0
   -6.8749    4.6929   -1.6954 C   0  0  1  0  0  0  0  0  0  0  0  0
   -6.8102    5.6470   -2.9316 C   0  0  1  0  0  0  0  0  0  0  0  0
   -5.4236    5.8644   -3.3923 N   0  3  0  0  0  0  0  0  0  0  0  0
   -7.6369    5.1053   -4.1194 C   0  0  0  0  0  0  0  0  0  0  0  0
   -8.0919    1.8647   -0.9186 C   0  0  1  0  0  0  0  0  0  0  0  0
   -6.8475    1.8833   -1.7985 C   0  0  1  0  0  0  0  0  0  0  0  0
   -5.7652    1.8042   -0.7305 C   0  0  1  0  0  0  0  0  0  0  0  0
   -6.3655    0.7812    0.2444 C   0  0  2  0  0  0  0  0  0  0  0  0
   -7.7999    0.9552    0.1549 O   0  0  0  0  0  0  0  0  0  0  0  0
   -5.8964    0.9858    1.6961 C   0  0  0  0  0  0  0  0  0  0  0  0
   -1.1099    2.8171   -0.2409 C   0  0  1  0  0  0  0  0  0  0  0  0
   -1.3049    1.5474   -1.1156 C   0  0  1  0  0  0  0  0  0  0  0  0
   -2.2682    1.7481   -2.3209 C   0  0  2  0  0  0  0  0  0  0  0  0
   -3.6292    2.3619   -1.8598 C   0  0  1  0  0  0  0  0  0  0  0  0
   -4.4986    1.3456   -1.2849 O   0  0  0  0  0  0  0  0  0  0  0  0
   -2.0577    3.9633   -0.7082 C   0  0  1  0  0  0  0  0  0  0  0  0
   -3.4173    3.4412   -0.8677 O   0  0  0  0  0  0  0  0  0  0  0  0
   -2.0810    5.1544    0.2840 C   0  0  0  0  0  0  0  0  0  0  0  0
   -9.0283   10.1843    1.0147 N   0  3  0  0  0  0  0  0  0  0  0  0
   -6.8354    0.7315   -2.6423 O   0  0  0  0  0  0  0  0  0  0  0  0
   -0.0299    1.1450   -1.6145 O   0  0  0  0  0  0  0  0  0  0  0  0
   -1.3842    2.4751    1.1195 O   0  0  0  0  0  0  0  0  0  0  0  0
   -4.5471    0.5815    1.8529 O   0  0  0  0  0  0  0  0  0  0  0  0
  -10.6083    3.8969   -2.1147 O   0  0  0  0  0  0  0  0  0  0  0  0
   -3.4146    5.7707    0.4091 N   0  3  0  0  0  0  0  0  0  0  0  0
   -2.4404    0.4920   -3.0921 N   0  3  0  0  0  0  0  0  0  0  0  0
  1  2  1  6  0  0  0
  1  3  1  0  0  0  0
  1 10  1  0  0  0  0
  3  4  1  6  0  0  0
  3  5  1  0  0  0  0
  5  6  1  1  0  0  0
  5  7  1  0  0  0  0
  7  8  1  6  0  0  0
  7  9  1  0  0  0  0
  9 10  1  0  0  0  0
  9 11  1  1  0  0  0
 11 35  1  0  0  0  0
 12 13  1  6  0  0  0
 12 14  1  0  0  0  0
 12 20  1  0  0  0  0
 14 15  1  0  0  0  0
 14 40  1  1  0  0  0
 15 16  1  1  0  0  0
 15 17  1  0  0  0  0
 17  2  1  1  0  0  0
 17 18  1  0  0  0  0
 18 19  1  6  0  0  0
 18 20  1  0  0  0  0
 21 16  1  1  0  0  0
 21 22  1  0  0  0  0
 21 25  1  0  0  0  0
 22 23  1  0  0  0  0
 22 36  1  6  0  0  0
 23 24  1  0  0  0  0
 23 31  1  6  0  0  0
 24 25  1  0  0  0  0
 24 26  1  1  0  0  0
 26 39  1  0  0  0  0
 27 28  1  0  0  0  0
 27 32  1  0  0  0  0
 27 38  1  1  0  0  0
 28 29  1  0  0  0  0
 28 37  1  6  0  0  0
 29 30  1  0  0  0  0
 29 42  1  1  0  0  0
 30 31  1  1  0  0  0
 30 33  1  0  0  0  0
 32 33  1  0  0  0  0
 32 34  1  1  0  0  0
 34 41  1  0  0  0  0
M  CHG  6   4   1  13   1  19   1  35   1  41   1  42   1
M  END
>  <CHROM.1>
96.29268455,-43.29942083,55.65420790,179.17596709,-173.27713332,-60.35184369
59.95037867,-68.70429052,-179.76454640,44.51541808,52.52847588,28.12351234
56.62126632,86.27269439,-72.99474047,-179.93042829,56.71627863,-69.44974865
66.59692492,175.90235629,-143.36183643,-112.84330081,-6.28302322,4.02090256
-0.74316810,-2.58863238,0.29391027,-2.57988258

>  <Name>


>  <RI>
0

>  <Rbt.Current_Directory>
/home/itssahil/PROJECTS/Mol_Feturizer/New_Systems/rnas/1ei2

>  <Rbt.Executable>
rbdock ($Id: //depot/dev/client3/rdock/2013.1/src/exe/rbdock.cxx#4 $)

>  <Rbt.Library>
libRbt.so (2013.1, Build901 2013/11/27)

>  <Rbt.Parameter_File>
/export/apps/rDock/src/rDock_2013.1_src/data/scripts/dock_solv.prm

>  <Rbt.Receptor>
prm/pocket_docking_3.prm

>  <SCORE>
-46.1073

>  <SCORE.INTER>
-29.6141

>  <SCORE.INTER.CONST>
1

>  <SCORE.INTER.POLAR>
-4.91963

>  <SCORE.INTER.ROT>
9

>  <SCORE.INTER.SOLV>
23.1361

>  <SCORE.INTER.VDW>
-20.656

>  <SCORE.INTER.norm>
-0.705097

>  <SCORE.INTRA>
-17.7631

>  <SCORE.INTRA.DIHEDRAL>
-19.2128

>  <SCORE.INTRA.DIHEDRAL.0>
40.8761

>  <SCORE.INTRA.POLAR>
-2.30192

>  <SCORE.INTRA.POLAR.0>
-0.0268208

>  <SCORE.INTRA.REPUL>
0.360683

>  <SCORE.INTRA.REPUL.0>
0.641615

>  <SCORE.INTRA.SOLV>
-2.53069

>  <SCORE.INTRA.SOLV.lig_0>
-162.567

>  <SCORE.INTRA.VDW>
-0.868207

>  <SCORE.INTRA.VDW.0>
-4.80338

>  <SCORE.INTRA.norm>
-0.42293

>  <SCORE.RESTR>
1.26989

>  <SCORE.RESTR.CAVITY>
1.26989

>  <SCORE.RESTR.norm>
0.0302355

>  <SCORE.SYSTEM>
0

>  <SCORE.SYSTEM.CONST>
0

>  <SCORE.SYSTEM.DIHEDRAL>
0

>  <SCORE.SYSTEM.SOLV>
0

>  <SCORE.SYSTEM.norm>
0

>  <SCORE.heavy>
42

>  <SCORE.norm>
-1.09779

>  <RMSD>
5.496

$$$$

 OpenBabel11021811393D
libRbt.so/2013.1/901 2013/11/27
 42 45  0  0  0  0  0  0  0  0999 V2000
   -1.8923    1.9775    2.5940 C   0  0  2  0  0  0  0  0  0  0  0  0
   -1.4196    2.7406    1.4417 O   0  0  0  0  0  0  0  0  0  0  0  0
   -3.1147    1.0756    2.2251 C   0  0  2  0  0  0  0  0  0  0  0  0
   -3.2714    0.9400    0.7588 N   0  3  0  0  0  0  0  0  0  0  0  0
   -4.4221    1.6317    2.8657 C   0  0  1  0  0  0  0  0  0  0  0  0
   -5.5276    0.7956    2.5308 O   0  0  0  0  0  0  0  0  0  0  0  0
   -4.3170    1.7128    4.4122 C   0  0  2  0  0  0  0  0  0  0  0  0
   -5.4059    2.4859    4.9043 O   0  0  0  0  0  0  0  0  0  0  0  0
   -2.9617    2.3529    4.8559 C   0  0  2  0  0  0  0  0  0  0  0  0
   -2.2510    2.8856    3.6913 O   0  0  0  0  0  0  0  0  0  0  0  0
   -1.9884    1.3751    5.5536 C   0  0  0  0  0  0  0  0  0  0  0  0
   -3.1130    6.4897    2.7442 C   0  0  1  0  0  0  0  0  0  0  0  0
   -3.4908    7.9179    2.8330 N   0  3  0  0  0  0  0  0  0  0  0  0
   -3.8133    5.7889    1.5506 C   0  0  1  0  0  0  0  0  0  0  0  0
   -3.3364    4.3133    1.3156 C   0  0  1  0  0  0  0  0  0  0  0  0
   -3.8057    3.8876    0.0081 O   0  0  0  0  0  0  0  0  0  0  0  0
   -1.7717    4.1540    1.3332 C   0  0  1  0  0  0  0  0  0  0  0  0
   -1.1200    4.9039    2.5398 C   0  0  1  0  0  0  0  0  0  0  0  0
    0.3556    4.8810    2.4753 N   0  3  0  0  0  0  0  0  0  0  0  0
   -1.5795    6.3772    2.6166 C   0  0  0  0  0  0  0  0  0  0  0  0
   -3.6657    4.7835   -1.1322 C   0  0  1  0  0  0  0  0  0  0  0  0
   -2.9863    4.0240   -2.2656 C   0  0  1  0  0  0  0  0  0  0  0  0
   -4.1765    3.2532   -2.8204 C   0  0  1  0  0  0  0  0  0  0  0  0
   -5.2862    4.3126   -2.7629 C   0  0  2  0  0  0  0  0  0  0  0  0
   -4.9625    5.1527   -1.6293 O   0  0  0  0  0  0  0  0  0  0  0  0
   -6.6899    3.7054   -2.5888 C   0  0  0  0  0  0  0  0  0  0  0  0
   -6.3471    1.7845   -6.9890 C   0  0  1  0  0  0  0  0  0  0  0  0
   -4.7987    1.8331   -7.1126 C   0  0  1  0  0  0  0  0  0  0  0  0
   -4.0469    1.0762   -5.9799 C   0  0  2  0  0  0  0  0  0  0  0  0
   -4.5412    1.5345   -4.5701 C   0  0  1  0  0  0  0  0  0  0  0  0
   -3.9317    2.7984   -4.1825 O   0  0  0  0  0  0  0  0  0  0  0  0
   -6.7757    1.1000   -5.6556 C   0  0  1  0  0  0  0  0  0  0  0  0
   -6.0155    1.6745   -4.5427 O   0  0  0  0  0  0  0  0  0  0  0  0
   -8.2922    1.2536   -5.3715 C   0  0  0  0  0  0  0  0  0  0  0  0
   -2.5531    0.6876    6.7282 N   0  3  0  0  0  0  0  0  0  0  0  0
   -2.4682    4.9474   -3.2234 O   0  0  0  0  0  0  0  0  0  0  0  0
   -4.4295    1.2591   -8.3659 O   0  0  0  0  0  0  0  0  0  0  0  0
   -6.8465    3.1229   -7.0383 O   0  0  0  0  0  0  0  0  0  0  0  0
   -7.6938    4.6526   -2.9105 O   0  0  0  0  0  0  0  0  0  0  0  0
   -5.2212    5.7802    1.7856 O   0  0  0  0  0  0  0  0  0  0  0  0
   -8.7141    0.5802   -4.1295 N   0  3  0  0  0  0  0  0  0  0  0  0
   -2.5756    1.1919   -6.1346 N   0  3  0  0  0  0  0  0  0  0  0  0
  1  2  1  6  0  0  0
  1  3  1  0  0  0  0
  1 10  1  0  0  0  0
  3  4  1  6  0  0  0
  3  5  1  0  0  0  0
  5  6  1  1  0  0  0
  5  7  1  0  0  0  0
  7  8  1  6  0  0  0
  7  9  1  0  0  0  0
  9 10  1  0  0  0  0
  9 11  1  6  0  0  0
 11 35  1  0  0  0  0
 12 13  1  6  0  0  0
 12 14  1  0  0  0  0
 12 20  1  0  0  0  0
 14 15  1  0  0  0  0
 14 40  1  1  0  0  0
 15 16  1  6  0  0  0
 15 17  1  0  0  0  0
 17  2  1  1  0  0  0
 17 18  1  0  0  0  0
 18 19  1  6  0  0  0
 18 20  1  0  0  0  0
 21 16  1  1  0  0  0
 21 22  1  0  0  0  0
 21 25  1  0  0  0  0
 22 23  1  0  0  0  0
 22 36  1  6  0  0  0
 23 24  1  0  0  0  0
 23 31  1  6  0  0  0
 24 25  1  0  0  0  0
 24 26  1  1  0  0  0
 26 39  1  0  0  0  0
 27 28  1  0  0  0  0
 27 32  1  0  0  0  0
 27 38  1  1  0  0  0
 28 29  1  0  0  0  0
 28 37  1  6  0  0  0
 29 30  1  0  0  0  0
 29 42  1  1  0  0  0
 30 31  1  6  0  0  0
 30 33  1  0  0  0  0
 32 33  1  0  0  0  0
 32 34  1  1  0  0  0
 34 41  1  0  0  0  0
M  CHG  6   4   1  13   1  19   1  35   1  41   1  42   1
M  END
>  <CHROM.1>
102.31125128,-58.89062260,-60.43753172,60.84121034,159.60650991,-55.54736055
-134.23591766,-40.07751546,-58.64810587,44.83854430,128.57170191,-77.32438333
176.97531324,147.23600081,-163.68776692,59.93977440,165.30681539,63.33223116
112.48899949,-172.48294687,178.54455619,-50.11908820,-4.10200605,3.07294469
-0.66681084,0.96043221,1.03211379,1.97577761

>  <Name>


>  <RI>
0

>  <Rbt.Current_Directory>
/home/itssahil/PROJECTS/Mol_Feturizer/New_Systems/rnas/1ei2

>  <Rbt.Executable>
rbdock ($Id: //depot/dev/client3/rdock/2013.1/src/exe/rbdock.cxx#4 $)

>  <Rbt.Library>
libRbt.so (2013.1, Build901 2013/11/27)

>  <Rbt.Parameter_File>
/export/apps/rDock/src/rDock_2013.1_src/data/scripts/dock_solv.prm

>  <Rbt.Receptor>
prm/pocket_docking_8.prm

>  <SCORE>
-55.9874

>  <SCORE.INTER>
-38.7171

>  <SCORE.INTER.CONST>
1

>  <SCORE.INTER.POLAR>
-7.24474

>  <SCORE.INTER.ROT>
9

>  <SCORE.INTER.SOLV>
28.2244

>  <SCORE.INTER.VDW>
-20.6703

>  <SCORE.INTER.norm>
-0.921835

>  <SCORE.INTRA>
-17.2703

>  <SCORE.INTRA.DIHEDRAL>
-9.74715

>  <SCORE.INTRA.DIHEDRAL.0>
40.8761

>  <SCORE.INTRA.POLAR>
-1.24439

>  <SCORE.INTRA.POLAR.0>
-0.0268208

>  <SCORE.INTRA.REPUL>
-0.641615

>  <SCORE.INTRA.REPUL.0>
0.641615

>  <SCORE.INTRA.SOLV>
-11.2548

>  <SCORE.INTRA.SOLV.lig_0>
-162.567

>  <SCORE.INTRA.VDW>
0.669692

>  <SCORE.INTRA.VDW.0>
-4.80338

>  <SCORE.INTRA.norm>
-0.411198

>  <SCORE.RESTR>
0

>  <SCORE.RESTR.CAVITY>
0

>  <SCORE.RESTR.norm>
0

>  <SCORE.SYSTEM>
0

>  <SCORE.SYSTEM.CONST>
0

>  <SCORE.SYSTEM.DIHEDRAL>
0

>  <SCORE.SYSTEM.SOLV>
0

>  <SCORE.SYSTEM.norm>
0

>  <SCORE.heavy>
42

>  <SCORE.norm>
-1.33303

>  <RMSD>
5.501

$$$$

 OpenBabel11021811393D
libRbt.so/2013.1/901 2013/11/27
 42 45  0  0  0  0  0  0  0  0999 V2000
   -9.6569    5.5488   -2.9361 C   0  0  2  0  0  0  0  0  0  0  0  0
   -9.5939    4.2095   -2.3564 O   0  0  0  0  0  0  0  0  0  0  0  0
   -9.6722    5.4998   -4.4985 C   0  0  2  0  0  0  0  0  0  0  0  0
   -9.9741    4.1394   -5.0000 N   0  3  0  0  0  0  0  0  0  0  0  0
   -8.3178    6.0081   -5.0783 C   0  0  1  0  0  0  0  0  0  0  0  0
   -8.3475    5.9684   -6.5034 O   0  0  0  0  0  0  0  0  0  0  0  0
   -8.0099    7.4628   -4.6328 C   0  0  2  0  0  0  0  0  0  0  0  0
   -6.6531    7.7588   -4.9448 O   0  0  0  0  0  0  0  0  0  0  0  0
   -8.2611    7.6524   -3.1016 C   0  0  2  0  0  0  0  0  0  0  0  0
   -8.5226    6.3571   -2.4699 O   0  0  0  0  0  0  0  0  0  0  0  0
   -9.4649    8.5591   -2.7565 C   0  0  0  0  0  0  0  0  0  0  0  0
  -10.3011    5.5187    1.6940 C   0  0  1  0  0  0  0  0  0  0  0  0
  -10.5816    5.5387    3.1470 N   0  3  0  0  0  0  0  0  0  0  0  0
   -8.9029    4.9183    1.3924 C   0  0  1  0  0  0  0  0  0  0  0  0
   -8.6111    4.7328   -0.1374 C   0  0  1  0  0  0  0  0  0  0  0  0
   -7.4421    3.8813   -0.2764 O   0  0  0  0  0  0  0  0  0  0  0  0
   -9.7925    4.0481   -0.9183 C   0  0  1  0  0  0  0  0  0  0  0  0
  -11.1771    4.6744   -0.5529 C   0  0  1  0  0  0  0  0  0  0  0  0
  -12.2990    3.9375   -1.1694 N   0  3  0  0  0  0  0  0  0  0  0  0
  -11.4042    4.7145    0.9751 C   0  0  0  0  0  0  0  0  0  0  0  0
   -6.1947    4.2620    0.3731 C   0  0  1  0  0  0  0  0  0  0  0  0
   -5.1765    3.1483    0.1589 C   0  0  1  0  0  0  0  0  0  0  0  0
   -4.7191    3.4743   -1.2563 C   0  0  1  0  0  0  0  0  0  0  0  0
   -4.6282    5.0062   -1.2078 C   0  0  2  0  0  0  0  0  0  0  0  0
   -5.6436    5.4256   -0.2651 O   0  0  0  0  0  0  0  0  0  0  0  0
   -4.8703    5.6674   -2.5766 C   0  0  0  0  0  0  0  0  0  0  0  0
   -2.5147    2.9689   -5.2831 C   0  0  1  0  0  0  0  0  0  0  0  0
   -1.5138    2.7208   -4.1203 C   0  0  1  0  0  0  0  0  0  0  0  0
   -1.9579    1.6091   -3.1263 C   0  0  2  0  0  0  0  0  0  0  0  0
   -3.4113    1.8606   -2.6106 C   0  0  1  0  0  0  0  0  0  0  0  0
   -3.4308    2.8644   -1.5564 O   0  0  0  0  0  0  0  0  0  0  0  0
   -3.8132    2.1291   -5.0858 C   0  0  1  0  0  0  0  0  0  0  0  0
   -4.2999    2.2936   -3.7136 O   0  0  0  0  0  0  0  0  0  0  0  0
   -4.9352    2.5311   -6.0774 C   0  0  0  0  0  0  0  0  0  0  0  0
   -9.6296    8.8319   -1.3179 N   0  3  0  0  0  0  0  0  0  0  0  0
   -4.1092    3.2826    1.0978 O   0  0  0  0  0  0  0  0  0  0  0  0
   -0.2547    2.3523   -4.6819 O   0  0  0  0  0  0  0  0  0  0  0  0
   -2.8300    4.3625   -5.3183 O   0  0  0  0  0  0  0  0  0  0  0  0
   -3.6746    5.7089   -3.3363 O   0  0  0  0  0  0  0  0  0  0  0  0
   -7.9059    5.7775    1.9449 O   0  0  0  0  0  0  0  0  0  0  0  0
   -4.5982    2.2246   -7.4797 N   0  3  0  0  0  0  0  0  0  0  0  0
   -0.9800    1.4476   -2.0218 N   0  3  0  0  0  0  0  0  0  0  0  0
  1  2  1  1  0  0  0
  1  3  1  0  0  0  0
  1 10  1  0  0  0  0
  3  4  1  1  0  0  0
  3  5  1  0  0  0  0
  5  6  1  6  0  0  0
  5  7  1  0  0  0  0
  7  8  1  1  0  0  0
  7  9  1  0  0  0  0
  9 10  1  0  0  0  0
  9 11  1  6  0  0  0
 11 35  1  0  0  0  0
 12 13  1  1  0  0  0
 12 14  1  0  0  0  0
 12 20  1  0  0  0  0
 14 15  1  0  0  0  0
 14 40  1  6  0  0  0
 15 16  1  1  0  0  0
 15 17  1  0  0  0  0
 17  2  1  6  0  0  0
 17 18  1  0  0  0  0
 18 19  1  6  0  0  0
 18 20  1  0  0  0  0
 21 16  1  6  0  0  0
 21 22  1  0  0  0  0
 21 25  1  0  0  0  0
 22 23  1  0  0  0  0
 22 36  1  1  0  0  0
 23 24  1  0  0  0  0
 23 31  1  1  0  0  0
 24 25  1  0  0  0  0
 24 26  1  6  0  0  0
 26 39  1  0  0  0  0
 27 28  1  0  0  0  0
 27 32  1  0  0  0  0
 27 38  1  1  0  0  0
 28 29  1  0  0  0  0
 28 37  1  6  0  0  0
 29 30  1  0  0  0  0
 29 42  1  1  0  0  0
 30 31  1  1  0  0  0
 30 33  1  0  0  0  0
 32 33  1  0  0  0  0
 32 34  1  6  0  0  0
 34 41  1  0  0  0  0
M  CHG  6   4   1  13   1  19   1  35   1  41   1  42   1
M  END
>  <CHROM.1>
-170.02280533,-66.00890875,45.58150509,-68.74432108,-57.12097803,-174.92904845
-23.51369053,-46.36745469,-55.94552189,-56.14479700,175.54589243,49.95893214
-54.49191228,116.00199863,-84.84837408,-174.61461595,78.61091511,-56.44560427
-166.05773530,162.76164856,65.91043519,-59.69565430,-6.59608316,4.55618710
-2.34583620,2.78166759,-0.44496239,1.73444423

>  <Name>


>  <RI>
0

>  <Rbt.Current_Directory>
/home/itssahil/PROJECTS/Mol_Feturizer/New_Systems/rnas/1ei2

>  <Rbt.Executable>
rbdock ($Id: //depot/dev/client3/rdock/2013.1/src/exe/rbdock.cxx#4 $)

>  <Rbt.Library>
libRbt.so (2013.1, Build901 2013/11/27)

>  <Rbt.Parameter_File>
/export/apps/rDock/src/rDock_2013.1_src/data/scripts/dock_solv.prm

>  <Rbt.Receptor>
prm/pocket_docking_5.prm

>  <SCORE>
-58.6284

>  <SCORE.INTER>
-38.7493

>  <SCORE.INTER.CONST>
1

>  <SCORE.INTER.POLAR>
-6.15797

>  <SCORE.INTER.ROT>
9

>  <SCORE.INTER.SOLV>
30.8552

>  <SCORE.INTER.VDW>
-25.1914

>  <SCORE.INTER.norm>
-0.922603

>  <SCORE.INTRA>
-20.1539

>  <SCORE.INTRA.DIHEDRAL>
-22.1905

>  <SCORE.INTRA.DIHEDRAL.0>
40.8761

>  <SCORE.INTRA.POLAR>
0.0169869

>  <SCORE.INTRA.POLAR.0>
-0.0268208

>  <SCORE.INTRA.REPUL>
-0.635742

>  <SCORE.INTRA.REPUL.0>
0.641615

>  <SCORE.INTRA.SOLV>
-10.4492

>  <SCORE.INTRA.SOLV.lig_0>
-162.567

>  <SCORE.INTRA.VDW>
-0.713119

>  <SCORE.INTRA.VDW.0>
-4.80338

>  <SCORE.INTRA.norm>
-0.479856

>  <SCORE.RESTR>
0.274913

>  <SCORE.RESTR.CAVITY>
0.274913

>  <SCORE.RESTR.norm>
0.00654554

>  <SCORE.SYSTEM>
0

>  <SCORE.SYSTEM.CONST>
0

>  <SCORE.SYSTEM.DIHEDRAL>
0

>  <SCORE.SYSTEM.SOLV>
0

>  <SCORE.SYSTEM.norm>
0

>  <SCORE.heavy>
42

>  <SCORE.norm>
-1.39591

>  <RMSD>
5.509

$$$$

 OpenBabel11021811393D
libRbt.so/2013.1/901 2013/11/27
 42 45  0  0  0  0  0  0  0  0999 V2000
   -5.4462    5.6551    3.6214 C   0  0  2  0  0  0  0  0  0  0  0  0
   -6.7262    4.9675    3.4716 O   0  0  0  0  0  0  0  0  0  0  0  0
   -4.4297    4.8052    4.4510 C   0  0  2  0  0  0  0  0  0  0  0  0
   -4.8691    3.3966    4.5767 N   0  3  0  0  0  0  0  0  0  0  0  0
   -4.2052    5.4356    5.8585 C   0  0  1  0  0  0  0  0  0  0  0  0
   -3.2691    4.6579    6.6016 O   0  0  0  0  0  0  0  0  0  0  0  0
   -3.6693    6.8891    5.7603 C   0  0  2  0  0  0  0  0  0  0  0  0
   -3.7624    7.4981    7.0433 O   0  0  0  0  0  0  0  0  0  0  0  0
   -4.4766    7.7217    4.7122 C   0  0  2  0  0  0  0  0  0  0  0  0
   -5.6448    6.9635    4.2584 O   0  0  0  0  0  0  0  0  0  0  0  0
   -3.6799    8.1003    3.4425 C   0  0  0  0  0  0  0  0  0  0  0  0
  -10.6659    5.4032    1.7659 C   0  0  1  0  0  0  0  0  0  0  0  0
  -11.8317    5.9052    1.0049 N   0  3  0  0  0  0  0  0  0  0  0  0
   -9.5551    4.8732    0.8217 C   0  0  1  0  0  0  0  0  0  0  0  0
   -8.2347    4.4671    1.5643 C   0  0  1  0  0  0  0  0  0  0  0  0
   -7.1868    4.3054    0.5709 O   0  0  0  0  0  0  0  0  0  0  0  0
   -7.7451    5.5457    2.5992 C   0  0  1  0  0  0  0  0  0  0  0  0
   -8.9113    6.0629    3.5023 C   0  0  1  0  0  0  0  0  0  0  0  0
   -8.4865    7.1795    4.3710 N   0  3  0  0  0  0  0  0  0  0  0  0
  -10.1215    6.5332    2.6645 C   0  0  0  0  0  0  0  0  0  0  0  0
   -7.3202    4.9550   -0.7264 C   0  0  1  0  0  0  0  0  0  0  0  0
   -5.9348    5.0877   -1.3475 C   0  0  1  0  0  0  0  0  0  0  0  0
   -5.7538    3.6797   -1.8980 C   0  0  1  0  0  0  0  0  0  0  0  0
   -7.1509    3.3855   -2.4628 C   0  0  2  0  0  0  0  0  0  0  0  0
   -8.0723    4.1178   -1.6200 O   0  0  0  0  0  0  0  0  0  0  0  0
   -7.5008    1.8866   -2.4533 C   0  0  0  0  0  0  0  0  0  0  0  0
   -1.3219    1.9188   -2.5278 C   0  0  1  0  0  0  0  0  0  0  0  0
   -1.8831    2.4942   -3.8579 C   0  0  1  0  0  0  0  0  0  0  0  0
   -2.3979    3.9586   -3.7494 C   0  0  2  0  0  0  0  0  0  0  0  0
   -3.4061    4.1163   -2.5660 C   0  0  1  0  0  0  0  0  0  0  0  0
   -4.7307    3.6373   -2.9340 O   0  0  0  0  0  0  0  0  0  0  0  0
   -1.5492    2.9170   -1.3521 C   0  0  1  0  0  0  0  0  0  0  0  0
   -2.9378    3.3841   -1.3667 O   0  0  0  0  0  0  0  0  0  0  0  0
   -1.2369    2.2864    0.0294 C   0  0  0  0  0  0  0  0  0  0  0  0
   -4.2624    9.2086    2.6655 N   0  3  0  0  0  0  0  0  0  0  0  0
   -5.9655    6.0588   -2.3937 O   0  0  0  0  0  0  0  0  0  0  0  0
   -0.8487    2.4474   -4.8399 O   0  0  0  0  0  0  0  0  0  0  0  0
   -1.9821    0.6804   -2.2570 O   0  0  0  0  0  0  0  0  0  0  0  0
   -6.5204    1.1343   -3.1473 O   0  0  0  0  0  0  0  0  0  0  0  0
  -10.0531    3.7328    0.1224 O   0  0  0  0  0  0  0  0  0  0  0  0
   -2.3876    1.5657    0.6042 N   0  3  0  0  0  0  0  0  0  0  0  0
   -2.9536    4.4347   -5.0404 N   0  3  0  0  0  0  0  0  0  0  0  0
  1  2  1  1  0  0  0
  1  3  1  0  0  0  0
  1 10  1  0  0  0  0
  3  4  1  1  0  0  0
  3  5  1  0  0  0  0
  5  6  1  1  0  0  0
  5  7  1  0  0  0  0
  7  8  1  1  0  0  0
  7  9  1  0  0  0  0
  9 10  1  0  0  0  0
  9 11  1  6  0  0  0
 11 35  1  0  0  0  0
 12 13  1  6  0  0  0
 12 14  1  0  0  0  0
 12 20  1  0  0  0  0
 14 15  1  0  0  0  0
 14 40  1  1  0  0  0
 15 16  1  6  0  0  0
 15 17  1  0  0  0  0
 17  2  1  1  0  0  0
 17 18  1  0  0  0  0
 18 19  1  6  0  0  0
 18 20  1  0  0  0  0
 21 16  1  1  0  0  0
 21 22  1  0  0  0  0
 21 25  1  0  0  0  0
 22 23  1  0  0  0  0
 22 36  1  6  0  0  0
 23 24  1  0  0  0  0
 23 31  1  6  0  0  0
 24 25  1  0  0  0  0
 24 26  1  1  0  0  0
 26 39  1  0  0  0  0
 27 28  1  0  0  0  0
 27 32  1  0  0  0  0
 27 38  1  1  0  0  0
 28 29  1  0  0  0  0
 28 37  1  6  0  0  0
 29 30  1  0  0  0  0
 29 42  1  6  0  0  0
 30 31  1  6  0  0  0
 30 33  1  0  0  0  0
 32 33  1  0  0  0  0
 32 34  1  1  0  0  0
 34 41  1  0  0  0  0
M  CHG  6   4   1  13   1  19   1  35   1  41   1  42   1
M  END
>  <CHROM.1>
-173.17961896,127.30996203,176.65506959,-64.19638330,-178.58448594,-161.75008896
-151.90808738,60.63843285,170.31570632,21.65476145,158.54077185,85.54590350
52.92225745,56.96789127,-55.49322784,-175.31553693,166.31136376,62.99155646
25.74224845,177.62740640,-86.37671629,-173.48011602,-5.44712807,4.59162475
0.69620107,-1.95794083,0.14622273,-1.97202917

>  <Name>


>  <RI>
0

>  <Rbt.Current_Directory>
/home/itssahil/PROJECTS/Mol_Feturizer/New_Systems/rnas/1ei2

>  <Rbt.Executable>
rbdock ($Id: //depot/dev/client3/rdock/2013.1/src/exe/rbdock.cxx#4 $)

>  <Rbt.Library>
libRbt.so (2013.1, Build901 2013/11/27)

>  <Rbt.Parameter_File>
/export/apps/rDock/src/rDock_2013.1_src/data/scripts/dock_solv.prm

>  <Rbt.Receptor>
prm/pocket_docking_7.prm

>  <SCORE>
-49.2242

>  <SCORE.INTER>
-27.999

>  <SCORE.INTER.CONST>
1

>  <SCORE.INTER.POLAR>
-4.56978

>  <SCORE.INTER.ROT>
9

>  <SCORE.INTER.SOLV>
22.735

>  <SCORE.INTER.VDW>
-20.6117

>  <SCORE.INTER.norm>
-0.666643

>  <SCORE.INTRA>
-21.2765

>  <SCORE.INTRA.DIHEDRAL>
-15.0675

>  <SCORE.INTRA.DIHEDRAL.0>
40.8761

>  <SCORE.INTRA.POLAR>
-2.16774

>  <SCORE.INTRA.POLAR.0>
-0.0268208

>  <SCORE.INTRA.REPUL>
-0.641615

>  <SCORE.INTRA.REPUL.0>
0.641615

>  <SCORE.INTRA.SOLV>
-10.1545

>  <SCORE.INTRA.SOLV.lig_0>
-162.567

>  <SCORE.INTRA.VDW>
1.9129

>  <SCORE.INTRA.VDW.0>
-4.80338

>  <SCORE.INTRA.norm>
-0.506582

>  <SCORE.RESTR>
0.0512914

>  <SCORE.RESTR.CAVITY>
0.0512914

>  <SCORE.RESTR.norm>
0.00122122

>  <SCORE.SYSTEM>
0

>  <SCORE.SYSTEM.CONST>
0

>  <SCORE.SYSTEM.DIHEDRAL>
0

>  <SCORE.SYSTEM.SOLV>
0

>  <SCORE.SYSTEM.norm>
0

>  <SCORE.heavy>
42

>  <SCORE.norm>
-1.172

>  <RMSD>
5.510

$$$$

 OpenBabel11021811393D
libRbt.so/2013.1/901 2013/11/27
 42 45  0  0  0  0  0  0  0  0999 V2000
   -2.1175    2.3779    2.9991 C   0  0  2  0  0  0  0  0  0  0  0  0
   -1.7056    3.5449    2.2233 O   0  0  0  0  0  0  0  0  0  0  0  0
   -2.8389    1.3175    2.1051 C   0  0  2  0  0  0  0  0  0  0  0  0
   -2.6203    1.5779    0.6638 N   0  3  0  0  0  0  0  0  0  0  0  0
   -4.3630    1.2714    2.4275 C   0  0  1  0  0  0  0  0  0  0  0  0
   -5.0080    0.2942    1.6136 O   0  0  0  0  0  0  0  0  0  0  0  0
   -4.6269    0.9233    3.9170 C   0  0  2  0  0  0  0  0  0  0  0  0
   -5.9955    1.1803    4.2108 O   0  0  0  0  0  0  0  0  0  0  0  0
   -3.7090    1.7598    4.8663 C   0  0  2  0  0  0  0  0  0  0  0  0
   -2.9968    2.7867    4.1023 O   0  0  0  0  0  0  0  0  0  0  0  0
   -2.6293    0.9357    5.6048 C   0  0  0  0  0  0  0  0  0  0  0  0
   -4.9293    6.0652    3.5928 C   0  0  1  0  0  0  0  0  0  0  0  0
   -5.8101    7.2286    3.8399 N   0  3  0  0  0  0  0  0  0  0  0  0
   -4.9802    5.6178    2.1084 C   0  0  1  0  0  0  0  0  0  0  0  0
   -3.9548    4.4852    1.7539 C   0  0  1  0  0  0  0  0  0  0  0  0
   -3.8694    4.3872    0.3068 O   0  0  0  0  0  0  0  0  0  0  0  0
   -2.5053    4.7649    2.2970 C   0  0  1  0  0  0  0  0  0  0  0  0
   -2.5191    5.2393    3.7862 C   0  0  1  0  0  0  0  0  0  0  0  0
   -1.1769    5.6443    4.2515 N   0  3  0  0  0  0  0  0  0  0  0  0
   -3.4860    6.4250    4.0026 C   0  0  0  0  0  0  0  0  0  0  0  0
   -3.9216    5.5994   -0.4998 C   0  0  1  0  0  0  0  0  0  0  0  0
   -3.3133    5.3006   -1.8649 C   0  0  1  0  0  0  0  0  0  0  0  0
   -4.4949    4.6162   -2.5387 C   0  0  1  0  0  0  0  0  0  0  0  0
   -5.6687    5.4834   -2.0621 C   0  0  2  0  0  0  0  0  0  0  0  0
   -5.2887    5.9643   -0.7506 O   0  0  0  0  0  0  0  0  0  0  0  0
   -6.9954    4.7074   -1.9781 C   0  0  0  0  0  0  0  0  0  0  0  0
   -4.1127    3.1439   -7.5204 C   0  0  1  0  0  0  0  0  0  0  0  0
   -3.4003    2.5827   -6.2583 C   0  0  1  0  0  0  0  0  0  0  0  0
   -4.3429    2.3697   -5.0388 C   0  0  2  0  0  0  0  0  0  0  0  0
   -5.1642    3.6621   -4.7274 C   0  0  1  0  0  0  0  0  0  0  0  0
   -4.3652    4.6299   -3.9896 O   0  0  0  0  0  0  0  0  0  0  0  0
   -5.5975    3.5005   -7.2066 C   0  0  1  0  0  0  0  0  0  0  0  0
   -5.6626    4.2890   -5.9734 O   0  0  0  0  0  0  0  0  0  0  0  0
   -6.2721    4.2930   -8.3558 C   0  0  0  0  0  0  0  0  0  0  0  0
   -2.4489    1.2984    7.0215 N   0  3  0  0  0  0  0  0  0  0  0  0
   -2.9731    6.5227   -2.5201 O   0  0  0  0  0  0  0  0  0  0  0  0
   -2.8052    1.3307   -6.5973 O   0  0  0  0  0  0  0  0  0  0  0  0
   -3.4081    4.3085   -7.9566 O   0  0  0  0  0  0  0  0  0  0  0  0
   -7.4964    4.4214   -3.2727 O   0  0  0  0  0  0  0  0  0  0  0  0
   -6.2960    5.1483    1.8157 O   0  0  0  0  0  0  0  0  0  0  0  0
   -7.7300    4.4274   -8.1811 N   0  3  0  0  0  0  0  0  0  0  0  0
   -3.5965    1.8690   -3.8579 N   0  3  0  0  0  0  0  0  0  0  0  0
  1  2  1  6  0  0  0
  1  3  1  0  0  0  0
  1 10  1  0  0  0  0
  3  4  1  6  0  0  0
  3  5  1  0  0  0  0
  5  6  1  6  0  0  0
  5  7  1  0  0  0  0
  7  8  1  1  0  0  0
  7  9  1  0  0  0  0
  9 10  1  0  0  0  0
  9 11  1  6  0  0  0
 11 35  1  0  0  0  0
 12 13  1  6  0  0  0
 12 14  1  0  0  0  0
 12 20  1  0  0  0  0
 14 15  1  0  0  0  0
 14 40  1  1  0  0  0
 15 16  1  6  0  0  0
 15 17  1  0  0  0  0
 17  2  1  1  0  0  0
 17 18  1  0  0  0  0
 18 19  1  6  0  0  0
 18 20  1  0  0  0  0
 21 16  1  1  0  0  0
 21 22  1  0  0  0  0
 21 25  1  0  0  0  0
 22 23  1  0  0  0  0
 22 36  1  6  0  0  0
 23 24  1  0  0  0  0
 23 31  1  6  0  0  0
 24 25  1  0  0  0  0
 24 26  1  1  0  0  0
 26 39  1  0  0  0  0
 27 28  1  0  0  0  0
 27 32  1  0  0  0  0
 27 38  1  1  0  0  0
 28 29  1  0  0  0  0
 28 37  1  6  0  0  0
 29 30  1  0  0  0  0
 29 42  1  1  0  0  0
 30 31  1  6  0  0  0
 30 33  1  0  0  0  0
 32 33  1  0  0  0  0
 32 34  1  6  0  0  0
 34 41  1  0  0  0  0
M  CHG  6   4   1  13   1  19   1  35   1  41   1  42   1
M  END
>  <CHROM.1>
101.62317716,-62.22607430,171.17118410,-66.21269899,-178.40028981,-138.02963838
164.01940707,59.52248381,173.80989334,37.79097382,159.36682632,-65.43872230
174.82406892,160.63582246,-71.92772442,-177.81842642,175.05604209,64.08695043
-57.65954953,-95.13106021,169.77130513,59.50621319,-4.23251689,3.74221804
-0.53474818,-1.12577205,1.21412420,-1.93434010

>  <Name>


>  <RI>
0

>  <Rbt.Current_Directory>
/home/itssahil/PROJECTS/Mol_Feturizer/New_Systems/rnas/1ei2

>  <Rbt.Executable>
rbdock ($Id: //depot/dev/client3/rdock/2013.1/src/exe/rbdock.cxx#4 $)

>  <Rbt.Library>
libRbt.so (2013.1, Build901 2013/11/27)

>  <Rbt.Parameter_File>
/export/apps/rDock/src/rDock_2013.1_src/data/scripts/dock_solv.prm

>  <Rbt.Receptor>
prm/pocket_docking_5.prm

>  <SCORE>
-50.8955

>  <SCORE.INTER>
-28.8646

>  <SCORE.INTER.CONST>
1

>  <SCORE.INTER.POLAR>
-3.71055

>  <SCORE.INTER.ROT>
9

>  <SCORE.INTER.SOLV>
18.1092

>  <SCORE.INTER.VDW>
-22.5109

>  <SCORE.INTER.norm>
-0.687252

>  <SCORE.INTRA>
-22.4628

>  <SCORE.INTRA.DIHEDRAL>
-17.5506

>  <SCORE.INTRA.DIHEDRAL.0>
40.8761

>  <SCORE.INTRA.POLAR>
-1.7389

>  <SCORE.INTRA.POLAR.0>
-0.0268208

>  <SCORE.INTRA.REPUL>
-0.641615

>  <SCORE.INTRA.REPUL.0>
0.641615

>  <SCORE.INTRA.SOLV>
-10.9135

>  <SCORE.INTRA.SOLV.lig_0>
-162.567

>  <SCORE.INTRA.VDW>
0.889616

>  <SCORE.INTRA.VDW.0>
-4.80338

>  <SCORE.INTRA.norm>
-0.534827

>  <SCORE.RESTR>
0.431816

>  <SCORE.RESTR.CAVITY>
0.431816

>  <SCORE.RESTR.norm>
0.0102813

>  <SCORE.SYSTEM>
0

>  <SCORE.SYSTEM.CONST>
0

>  <SCORE.SYSTEM.DIHEDRAL>
0

>  <SCORE.SYSTEM.SOLV>
0

>  <SCORE.SYSTEM.norm>
0

>  <SCORE.heavy>
42

>  <SCORE.norm>
-1.2118

>  <RMSD>
5.534

$$$$

 OpenBabel11021811393D
libRbt.so/2013.1/901 2013/11/27
 42 45  0  0  0  0  0  0  0  0999 V2000
   -8.1812    4.8320   -1.7489 C   0  0  2  0  0  0  0  0  0  0  0  0
   -8.5173    4.0104   -0.5889 O   0  0  0  0  0  0  0  0  0  0  0  0
   -9.3968    4.9812   -2.7204 C   0  0  2  0  0  0  0  0  0  0  0  0
  -10.6650    4.5680   -2.0770 N   0  3  0  0  0  0  0  0  0  0  0  0
   -9.1580    4.1695   -4.0293 C   0  0  1  0  0  0  0  0  0  0  0  0
  -10.2682    4.3214   -4.9112 O   0  0  0  0  0  0  0  0  0  0  0  0
   -7.8746    4.6333   -4.7691 C   0  0  2  0  0  0  0  0  0  0  0  0
   -7.5582    3.6795   -5.7769 O   0  0  0  0  0  0  0  0  0  0  0  0
   -6.6737    4.7862   -3.7802 C   0  0  2  0  0  0  0  0  0  0  0  0
   -7.0347    4.2558   -2.4636 O   0  0  0  0  0  0  0  0  0  0  0  0
   -6.2111    6.2439   -3.5534 C   0  0  0  0  0  0  0  0  0  0  0  0
   -6.2665    6.2690    2.3185 C   0  0  1  0  0  0  0  0  0  0  0  0
   -5.5718    6.6888    3.5560 N   0  3  0  0  0  0  0  0  0  0  0  0
   -5.5201    5.1063    1.6132 C   0  0  1  0  0  0  0  0  0  0  0  0
   -6.2880    4.5189    0.3782 C   0  0  1  0  0  0  0  0  0  0  0  0
   -5.6655    3.2574    0.0149 O   0  0  0  0  0  0  0  0  0  0  0  0
   -7.8072    4.2323    0.6681 C   0  0  1  0  0  0  0  0  0  0  0  0
   -8.4984    5.4252    1.4045 C   0  0  1  0  0  0  0  0  0  0  0  0
   -9.8813    5.1004    1.8094 N   0  3  0  0  0  0  0  0  0  0  0  0
   -7.7126    5.8562    2.6633 C   0  0  0  0  0  0  0  0  0  0  0  0
   -5.2754    2.3212    1.0608 C   0  0  1  0  0  0  0  0  0  0  0  0
   -5.4694    0.9023    0.5392 C   0  0  1  0  0  0  0  0  0  0  0  0
   -4.2004    0.7470   -0.2878 C   0  0  1  0  0  0  0  0  0  0  0  0
   -3.1562    1.4158    0.6176 C   0  0  2  0  0  0  0  0  0  0  0  0
   -3.8709    2.4494    1.3363 O   0  0  0  0  0  0  0  0  0  0  0  0
   -1.9836    2.0303   -0.1677 C   0  0  0  0  0  0  0  0  0  0  0  0
   -6.7957    0.4423   -2.7849 C   0  0  1  0  0  0  0  0  0  0  0  0
   -5.2887    0.5506   -3.1490 C   0  0  1  0  0  0  0  0  0  0  0  0
   -4.4898   -0.7692   -2.9464 C   0  0  2  0  0  0  0  0  0  0  0  0
   -4.7105   -1.3482   -1.5119 C   0  0  1  0  0  0  0  0  0  0  0  0
   -3.8881   -0.6549   -0.5309 O   0  0  0  0  0  0  0  0  0  0  0  0
   -7.1157   -0.9477   -2.1558 C   0  0  1  0  0  0  0  0  0  0  0  0
   -6.1333   -1.2516   -1.1121 O   0  0  0  0  0  0  0  0  0  0  0  0
   -8.5412   -1.0095   -1.5491 C   0  0  0  0  0  0  0  0  0  0  0  0
   -4.7489    6.4173   -3.4971 N   0  3  0  0  0  0  0  0  0  0  0  0
   -5.4968   -0.0149    1.6331 O   0  0  0  0  0  0  0  0  0  0  0  0
   -5.1837    0.9403   -4.5178 O   0  0  0  0  0  0  0  0  0  0  0  0
   -7.1136    1.4859   -1.8614 O   0  0  0  0  0  0  0  0  0  0  0  0
   -0.8088    1.2528   -0.0125 O   0  0  0  0  0  0  0  0  0  0  0  0
   -4.2463    5.5781    1.1747 O   0  0  0  0  0  0  0  0  0  0  0  0
   -9.5882   -0.5967   -2.5017 N   0  3  0  0  0  0  0  0  0  0  0  0
   -3.0539   -0.5894   -3.2751 N   0  3  0  0  0  0  0  0  0  0  0  0
  1  2  1  1  0  0  0
  1  3  1  0  0  0  0
  1 10  1  0  0  0  0
  3  4  1  1  0  0  0
  3  5  1  0  0  0  0
  5  6  1  6  0  0  0
  5  7  1  0  0  0  0
  7  8  1  6  0  0  0
  7  9  1  0  0  0  0
  9 10  1  0  0  0  0
  9 11  1  1  0  0  0
 11 35  1  0  0  0  0
 12 13  1  1  0  0  0
 12 14  1  0  0  0  0
 12 20  1  0  0  0  0
 14 15  1  0  0  0  0
 14 40  1  6  0  0  0
 15 16  1  1  0  0  0
 15 17  1  0  0  0  0
 17  2  1  6  0  0  0
 17 18  1  0  0  0  0
 18 19  1  1  0  0  0
 18 20  1  0  0  0  0
 21 16  1  6  0  0  0
 21 22  1  0  0  0  0
 21 25  1  0  0  0  0
 22 23  1  0  0  0  0
 22 36  1  1  0  0  0
 23 24  1  0  0  0  0
 23 31  1  1  0  0  0
 24 25  1  0  0  0  0
 24 26  1  6  0  0  0
 26 39  1  0  0  0  0
 27 28  1  0  0  0  0
 27 32  1  0  0  0  0
 27 38  1  1  0  0  0
 28 29  1  0  0  0  0
 28 37  1  6  0  0  0
 29 30  1  0  0  0  0
 29 42  1  1  0  0  0
 30 31  1  1  0  0  0
 30 33  1  0  0  0  0
 32 33  1  0  0  0  0
 32 34  1  1  0  0  0
 34 41  1  0  0  0  0
M  CHG  6   4   1  13   1  19   1  35   1  41   1  42   1
M  END
>  <CHROM.1>
-152.29465917,-39.36381137,81.17533733,-70.54724126,51.07547384,-139.13528999
-166.51887739,-55.00098260,57.79557671,42.45928745,145.83102086,-62.62093467
-26.93040400,74.53805737,-106.88968300,68.82451870,56.94000160,162.22660931
55.42045269,66.18719159,52.92048374,-75.15299573,-6.32775636,2.76969915,-1.14509589
2.47308016,-0.73605502,0.77152976

>  <Name>


>  <RI>
0

>  <Rbt.Current_Directory>
/home/itssahil/PROJECTS/Mol_Feturizer/New_Systems/rnas/1ei2

>  <Rbt.Executable>
rbdock ($Id: //depot/dev/client3/rdock/2013.1/src/exe/rbdock.cxx#4 $)

>  <Rbt.Library>
libRbt.so (2013.1, Build901 2013/11/27)

>  <Rbt.Parameter_File>
/export/apps/rDock/src/rDock_2013.1_src/data/scripts/dock_solv.prm

>  <Rbt.Receptor>
prm/pocket_docking_5.prm

>  <SCORE>
-53.6895

>  <SCORE.INTER>
-38.6672

>  <SCORE.INTER.CONST>
1

>  <SCORE.INTER.POLAR>
-6.47828

>  <SCORE.INTER.ROT>
9

>  <SCORE.INTER.SOLV>
32.2056

>  <SCORE.INTER.VDW>
-24.5191

>  <SCORE.INTER.norm>
-0.920647

>  <SCORE.INTRA>
-15.0223

>  <SCORE.INTRA.DIHEDRAL>
-10.323

>  <SCORE.INTRA.DIHEDRAL.0>
40.8761

>  <SCORE.INTRA.POLAR>
-1.10041

>  <SCORE.INTRA.POLAR.0>
-0.0268208

>  <SCORE.INTRA.REPUL>
-0.214045

>  <SCORE.INTRA.REPUL.0>
0.641615

>  <SCORE.INTRA.SOLV>
-7.83144

>  <SCORE.INTRA.SOLV.lig_0>
-162.567

>  <SCORE.INTRA.VDW>
-1.13345

>  <SCORE.INTRA.VDW.0>
-4.80338

>  <SCORE.INTRA.norm>
-0.357674

>  <SCORE.RESTR>
0

>  <SCORE.RESTR.CAVITY>
0

>  <SCORE.RESTR.norm>
0

>  <SCORE.SYSTEM>
0

>  <SCORE.SYSTEM.CONST>
0

>  <SCORE.SYSTEM.DIHEDRAL>
0

>  <SCORE.SYSTEM.SOLV>
0

>  <SCORE.SYSTEM.norm>
0

>  <SCORE.heavy>
42

>  <SCORE.norm>
-1.27832

>  <RMSD>
5.575

$$$$

 OpenBabel11021811393D
libRbt.so/2013.1/901 2013/11/27
 42 45  0  0  0  0  0  0  0  0999 V2000
   -4.9347    2.0586    2.1561 C   0  0  2  0  0  0  0  0  0  0  0  0
   -6.0895    2.9427    2.2920 O   0  0  0  0  0  0  0  0  0  0  0  0
   -4.6611    1.2623    3.4733 C   0  0  2  0  0  0  0  0  0  0  0  0
   -5.8160    1.3221    4.3983 N   0  3  0  0  0  0  0  0  0  0  0  0
   -3.3713    1.7854    4.1746 C   0  0  1  0  0  0  0  0  0  0  0  0
   -3.1266    1.0453    5.3686 O   0  0  0  0  0  0  0  0  0  0  0  0
   -2.1260    1.6635    3.2561 C   0  0  2  0  0  0  0  0  0  0  0  0
   -1.0598    2.4115    3.8301 O   0  0  0  0  0  0  0  0  0  0  0  0
   -2.4311    2.1853    1.8145 C   0  0  2  0  0  0  0  0  0  0  0  0
   -3.7444    2.8328    1.7807 O   0  0  0  0  0  0  0  0  0  0  0  0
   -2.4560    1.0870    0.7267 C   0  0  0  0  0  0  0  0  0  0  0  0
   -8.1806    6.1119    0.2417 C   0  0  1  0  0  0  0  0  0  0  0  0
   -8.4927    7.2973   -0.5876 N   0  3  0  0  0  0  0  0  0  0  0  0
   -7.7035    4.9189   -0.6275 C   0  0  1  0  0  0  0  0  0  0  0  0
   -7.2154    3.6839    0.2071 C   0  0  1  0  0  0  0  0  0  0  0  0
   -6.5042    2.7852   -0.6859 O   0  0  0  0  0  0  0  0  0  0  0  0
   -6.2331    4.0694    1.3736 C   0  0  1  0  0  0  0  0  0  0  0  0
   -6.7512    5.2939    2.1953 C   0  0  1  0  0  0  0  0  0  0  0  0
   -5.7627    5.7500    3.1937 N   0  3  0  0  0  0  0  0  0  0  0  0
   -7.1063    6.4894    1.2828 C   0  0  0  0  0  0  0  0  0  0  0  0
   -7.2143    2.1661   -1.7973 C   0  0  1  0  0  0  0  0  0  0  0  0
   -7.0028    3.0179   -3.0432 C   0  0  1  0  0  0  0  0  0  0  0  0
   -5.6182    2.5407   -3.4600 C   0  0  1  0  0  0  0  0  0  0  0  0
   -5.7218    1.0298   -3.2073 C   0  0  2  0  0  0  0  0  0  0  0  0
   -6.6377    0.8841   -2.0957 O   0  0  0  0  0  0  0  0  0  0  0  0
   -4.3676    0.3821   -2.8666 C   0  0  0  0  0  0  0  0  0  0  0  0
   -2.3135    4.2351   -2.9686 C   0  0  1  0  0  0  0  0  0  0  0  0
   -2.2736    3.0600   -3.9850 C   0  0  1  0  0  0  0  0  0  0  0  0
   -2.9629    3.3724   -5.3445 C   0  0  2  0  0  0  0  0  0  0  0  0
   -4.4111    3.9191   -5.1308 C   0  0  1  0  0  0  0  0  0  0  0  0
   -5.3483    2.8385   -4.8601 O   0  0  0  0  0  0  0  0  0  0  0  0
   -3.1777    5.4119   -3.5151 C   0  0  1  0  0  0  0  0  0  0  0  0
   -4.4531    4.8927   -4.0155 O   0  0  0  0  0  0  0  0  0  0  0  0
   -3.4532    6.4940   -2.4395 C   0  0  0  0  0  0  0  0  0  0  0  0
   -1.4835    1.2857   -0.3623 N   0  3  0  0  0  0  0  0  0  0  0  0
   -7.9866    2.6907   -4.0248 O   0  0  0  0  0  0  0  0  0  0  0  0
   -0.9084    2.7266   -4.2332 O   0  0  0  0  0  0  0  0  0  0  0  0
   -2.8608    3.7514   -1.7400 O   0  0  0  0  0  0  0  0  0  0  0  0
   -3.5330    0.3244   -4.0106 O   0  0  0  0  0  0  0  0  0  0  0  0
   -8.7804    4.5036   -1.4672 O   0  0  0  0  0  0  0  0  0  0  0  0
   -2.7736    6.2176   -1.1606 N   0  3  0  0  0  0  0  0  0  0  0  0
   -2.9233    2.2005   -6.2540 N   0  3  0  0  0  0  0  0  0  0  0  0
  1  2  1  1  0  0  0
  1  3  1  0  0  0  0
  1 10  1  0  0  0  0
  3  4  1  1  0  0  0
  3  5  1  0  0  0  0
  5  6  1  1  0  0  0
  5  7  1  0  0  0  0
  7  8  1  1  0  0  0
  7  9  1  0  0  0  0
  9 10  1  0  0  0  0
  9 11  1  6  0  0  0
 11 35  1  0  0  0  0
 12 13  1  6  0  0  0
 12 14  1  0  0  0  0
 12 20  1  0  0  0  0
 14 15  1  0  0  0  0
 14 40  1  6  0  0  0
 15 16  1  6  0  0  0
 15 17  1  0  0  0  0
 17  2  1  1  0  0  0
 17 18  1  0  0  0  0
 18 19  1  1  0  0  0
 18 20  1  0  0  0  0
 21 16  1  1  0  0  0
 21 22  1  0  0  0  0
 21 25  1  0  0  0  0
 22 23  1  0  0  0  0
 22 36  1  6  0  0  0
 23 24  1  0  0  0  0
 23 31  1  6  0  0  0
 24 25  1  0  0  0  0
 24 26  1  1  0  0  0
 26 39  1  0  0  0  0
 27 28  1  0  0  0  0
 27 32  1  0  0  0  0
 27 38  1  1  0  0  0
 28 29  1  0  0  0  0
 28 37  1  6  0  0  0
 29 30  1  0  0  0  0
 29 42  1  6  0  0  0
 30 31  1  1  0  0  0
 30 33  1  0  0  0  0
 32 33  1  0  0  0  0
 32 34  1  1  0  0  0
 34 41  1  0  0  0  0
M  CHG  6   4   1  13   1  19   1  35   1  41   1  42   1
M  END
>  <CHROM.1>
159.46118394,97.81413653,-45.98044296,61.80349304,69.53455684,-120.95671444
162.30617398,-57.99911759,66.43247657,-62.85991701,94.70781283,-74.89303540
65.32600590,106.67659935,-71.56056691,-63.14728057,-57.85117880,-170.78359749
28.10957808,94.73126244,3.44354731,82.45978754,-4.73941077,3.20153269,-0.76233311
-1.58496327,0.53982182,-1.50334063

>  <Name>


>  <RI>
0

>  <Rbt.Current_Directory>
/home/itssahil/PROJECTS/Mol_Feturizer/New_Systems/rnas/1ei2

>  <Rbt.Executable>
rbdock ($Id: //depot/dev/client3/rdock/2013.1/src/exe/rbdock.cxx#4 $)

>  <Rbt.Library>
libRbt.so (2013.1, Build901 2013/11/27)

>  <Rbt.Parameter_File>
/export/apps/rDock/src/rDock_2013.1_src/data/scripts/dock_solv.prm

>  <Rbt.Receptor>
prm/pocket_docking_3.prm

>  <SCORE>
-53.1857

>  <SCORE.INTER>
-37.7518

>  <SCORE.INTER.CONST>
1

>  <SCORE.INTER.POLAR>
-5.68214

>  <SCORE.INTER.ROT>
9

>  <SCORE.INTER.SOLV>
27.5297

>  <SCORE.INTER.VDW>
-25.004

>  <SCORE.INTER.norm>
-0.898853

>  <SCORE.INTRA>
-16.0267

>  <SCORE.INTRA.DIHEDRAL>
-1.18925

>  <SCORE.INTRA.DIHEDRAL.0>
40.8761

>  <SCORE.INTRA.POLAR>
-3.07502

>  <SCORE.INTRA.POLAR.0>
-0.0268208

>  <SCORE.INTRA.REPUL>
-0.641615

>  <SCORE.INTRA.REPUL.0>
0.641615

>  <SCORE.INTRA.SOLV>
-2.35906

>  <SCORE.INTRA.SOLV.lig_0>
-162.567

>  <SCORE.INTRA.VDW>
-0.589428

>  <SCORE.INTRA.VDW.0>
-4.80338

>  <SCORE.INTRA.norm>
-0.381588

>  <SCORE.RESTR>
0.592819

>  <SCORE.RESTR.CAVITY>
0.592819

>  <SCORE.RESTR.norm>
0.0141147

>  <SCORE.SYSTEM>
0

>  <SCORE.SYSTEM.CONST>
0

>  <SCORE.SYSTEM.DIHEDRAL>
0

>  <SCORE.SYSTEM.SOLV>
0

>  <SCORE.SYSTEM.norm>
0

>  <SCORE.heavy>
42

>  <SCORE.norm>
-1.26633

>  <RMSD>
5.600

$$$$

 OpenBabel11021811393D
libRbt.so/2013.1/901 2013/11/27
 42 45  0  0  0  0  0  0  0  0999 V2000
   -5.5692    5.0426    3.8818 C   0  0  2  0  0  0  0  0  0  0  0  0
   -6.5016    4.0233    3.4070 O   0  0  0  0  0  0  0  0  0  0  0  0
   -6.2205    5.9564    4.9702 C   0  0  2  0  0  0  0  0  0  0  0  0
   -7.4687    5.3654    5.5050 N   0  3  0  0  0  0  0  0  0  0  0  0
   -6.4904    7.3822    4.4018 C   0  0  1  0  0  0  0  0  0  0  0  0
   -7.0748    8.2090    5.4060 O   0  0  0  0  0  0  0  0  0  0  0  0
   -5.1862    8.0605    3.9034 C   0  0  2  0  0  0  0  0  0  0  0  0
   -5.5322    9.2133    3.1439 O   0  0  0  0  0  0  0  0  0  0  0  0
   -4.3345    7.0809    3.0325 C   0  0  2  0  0  0  0  0  0  0  0  0
   -5.0955    5.8601    2.7574 O   0  0  0  0  0  0  0  0  0  0  0  0
   -3.0067    6.6318    3.6848 C   0  0  0  0  0  0  0  0  0  0  0  0
   -3.5439    1.8130    1.1740 C   0  0  1  0  0  0  0  0  0  0  0  0
   -2.8676    0.7869    0.3493 N   0  3  0  0  0  0  0  0  0  0  0  0
   -4.5827    2.6144    0.3465 C   0  0  1  0  0  0  0  0  0  0  0  0
   -5.4372    3.6135    1.2018 C   0  0  1  0  0  0  0  0  0  0  0  0
   -6.5656    4.0497    0.3971 O   0  0  0  0  0  0  0  0  0  0  0  0
   -6.0126    2.9726    2.5180 C   0  0  1  0  0  0  0  0  0  0  0  0
   -4.9296    2.1549    3.2934 C   0  0  1  0  0  0  0  0  0  0  0  0
   -5.5017    1.4312    4.4470 N   0  3  0  0  0  0  0  0  0  0  0  0
   -4.2209    1.1294    2.3802 C   0  0  0  0  0  0  0  0  0  0  0  0
   -7.3341    5.2166    0.8100 C   0  0  1  0  0  0  0  0  0  0  0  0
   -7.6012    6.0807   -0.4168 C   0  0  1  0  0  0  0  0  0  0  0  0
   -8.7779    5.3274   -1.0219 C   0  0  1  0  0  0  0  0  0  0  0  0
   -9.5944    4.9711    0.2285 C   0  0  2  0  0  0  0  0  0  0  0  0
   -8.6253    4.8092    1.2917 O   0  0  0  0  0  0  0  0  0  0  0  0
  -10.4189    3.6820    0.0622 C   0  0  0  0  0  0  0  0  0  0  0  0
   -9.3785    4.7876   -5.5217 C   0  0  1  0  0  0  0  0  0  0  0  0
  -10.4517    5.7768   -4.9877 C   0  0  1  0  0  0  0  0  0  0  0  0
   -9.8635    7.0200   -4.2598 C   0  0  2  0  0  0  0  0  0  0  0  0
   -8.8471    6.5965   -3.1510 C   0  0  1  0  0  0  0  0  0  0  0  0
   -9.5342    6.1660   -1.9420 O   0  0  0  0  0  0  0  0  0  0  0  0
   -7.9518    5.2162   -5.0624 C   0  0  1  0  0  0  0  0  0  0  0  0
   -7.9651    5.5056   -3.6262 O   0  0  0  0  0  0  0  0  0  0  0  0
   -6.8841    4.1307   -5.3549 C   0  0  0  0  0  0  0  0  0  0  0  0
   -2.0811    5.9412    2.7696 N   0  3  0  0  0  0  0  0  0  0  0  0
   -7.9763    7.3964   -0.0083 O   0  0  0  0  0  0  0  0  0  0  0  0
  -11.2381    6.2254   -6.0907 O   0  0  0  0  0  0  0  0  0  0  0  0
   -9.6830    3.4811   -5.0284 O   0  0  0  0  0  0  0  0  0  0  0  0
  -11.2436    3.7545   -1.0881 O   0  0  0  0  0  0  0  0  0  0  0  0
   -3.8942    3.3528   -0.6625 O   0  0  0  0  0  0  0  0  0  0  0  0
   -5.5642    4.4559   -4.7838 N   0  3  0  0  0  0  0  0  0  0  0  0
  -10.9376    7.9036   -3.7425 N   0  3  0  0  0  0  0  0  0  0  0  0
  1  2  1  6  0  0  0
  1  3  1  0  0  0  0
  1 10  1  0  0  0  0
  3  4  1  6  0  0  0
  3  5  1  0  0  0  0
  5  6  1  1  0  0  0
  5  7  1  0  0  0  0
  7  8  1  6  0  0  0
  7  9  1  0  0  0  0
  9 10  1  0  0  0  0
  9 11  1  1  0  0  0
 11 35  1  0  0  0  0
 12 13  1  6  0  0  0
 12 14  1  0  0  0  0
 12 20  1  0  0  0  0
 14 15  1  0  0  0  0
 14 40  1  6  0  0  0
 15 16  1  6  0  0  0
 15 17  1  0  0  0  0
 17  2  1  1  0  0  0
 17 18  1  0  0  0  0
 18 19  1  1  0  0  0
 18 20  1  0  0  0  0
 21 16  1  6  0  0  0
 21 22  1  0  0  0  0
 21 25  1  0  0  0  0
 22 23  1  0  0  0  0
 22 36  1  1  0  0  0
 23 24  1  0  0  0  0
 23 31  1  6  0  0  0
 24 25  1  0  0  0  0
 24 26  1  6  0  0  0
 26 39  1  0  0  0  0
 27 28  1  0  0  0  0
 27 32  1  0  0  0  0
 27 38  1  1  0  0  0
 28 29  1  0  0  0  0
 28 37  1  6  0  0  0
 29 30  1  0  0  0  0
 29 42  1  1  0  0  0
 30 31  1  1  0  0  0
 30 33  1  0  0  0  0
 32 33  1  0  0  0  0
 32 34  1  1  0  0  0
 34 41  1  0  0  0  0
M  CHG  6   4   1  13   1  19   1  35   1  41   1  42   1
M  END
>  <CHROM.1>
-172.07036371,-60.05762342,87.80022052,63.12745558,-60.48367057,-168.03834341
-179.37842257,-164.95585591,66.01828503,-164.95341152,136.18271713,148.85786081
159.02576975,65.36231330,-54.20271307,-173.47868243,-53.94221669,-56.40229231
-87.28087317,159.34391017,-173.22438301,57.07113088,-6.96226413,5.03283897
0.19364549,0.79615919,-0.78678938,1.03142020

>  <Name>


>  <RI>
0

>  <Rbt.Current_Directory>
/home/itssahil/PROJECTS/Mol_Feturizer/New_Systems/rnas/1ei2

>  <Rbt.Executable>
rbdock ($Id: //depot/dev/client3/rdock/2013.1/src/exe/rbdock.cxx#4 $)

>  <Rbt.Library>
libRbt.so (2013.1, Build901 2013/11/27)

>  <Rbt.Parameter_File>
/export/apps/rDock/src/rDock_2013.1_src/data/scripts/dock_solv.prm

>  <Rbt.Receptor>
prm/pocket_docking_7.prm

>  <SCORE>
-45.9449

>  <SCORE.INTER>
-24.4865

>  <SCORE.INTER.CONST>
1

>  <SCORE.INTER.POLAR>
-4.19891

>  <SCORE.INTER.ROT>
9

>  <SCORE.INTER.SOLV>
23.0007

>  <SCORE.INTER.VDW>
-19.5949

>  <SCORE.INTER.norm>
-0.583012

>  <SCORE.INTRA>
-21.4584

>  <SCORE.INTRA.DIHEDRAL>
-21.9372

>  <SCORE.INTRA.DIHEDRAL.0>
40.8761

>  <SCORE.INTRA.POLAR>
-0.21875

>  <SCORE.INTRA.POLAR.0>
-0.0268208

>  <SCORE.INTRA.REPUL>
-0.641615

>  <SCORE.INTRA.REPUL.0>
0.641615

>  <SCORE.INTRA.SOLV>
-13.5391

>  <SCORE.INTRA.SOLV.lig_0>
-162.567

>  <SCORE.INTRA.VDW>
0.231597

>  <SCORE.INTRA.VDW.0>
-4.80338

>  <SCORE.INTRA.norm>
-0.510914

>  <SCORE.RESTR>
0

>  <SCORE.RESTR.CAVITY>
0

>  <SCORE.RESTR.norm>
0

>  <SCORE.SYSTEM>
0

>  <SCORE.SYSTEM.CONST>
0

>  <SCORE.SYSTEM.DIHEDRAL>
0

>  <SCORE.SYSTEM.SOLV>
0

>  <SCORE.SYSTEM.norm>
0

>  <SCORE.heavy>
42

>  <SCORE.norm>
-1.09393

>  <RMSD>
5.625

$$$$

 OpenBabel11021811393D
libRbt.so/2013.1/901 2013/11/27
 42 45  0  0  0  0  0  0  0  0999 V2000
   -5.3753    4.6063    2.7926 C   0  0  2  0  0  0  0  0  0  0  0  0
   -6.6831    4.0477    2.4591 O   0  0  0  0  0  0  0  0  0  0  0  0
   -5.0960    4.5406    4.3293 C   0  0  2  0  0  0  0  0  0  0  0  0
   -6.0387    3.6294    5.0180 N   0  3  0  0  0  0  0  0  0  0  0  0
   -5.1526    5.9646    4.9602 C   0  0  1  0  0  0  0  0  0  0  0  0
   -4.8864    5.8931    6.3593 O   0  0  0  0  0  0  0  0  0  0  0  0
   -4.1195    6.9241    4.3111 C   0  0  2  0  0  0  0  0  0  0  0  0
   -4.4154    8.2560    4.7161 O   0  0  0  0  0  0  0  0  0  0  0  0
   -4.1494    6.8191    2.7517 C   0  0  2  0  0  0  0  0  0  0  0  0
   -5.2824    5.9952    2.3240 O   0  0  0  0  0  0  0  0  0  0  0  0
   -2.8857    6.1843    2.1271 C   0  0  0  0  0  0  0  0  0  0  0  0
   -9.5339    3.6630   -0.7572 C   0  0  1  0  0  0  0  0  0  0  0  0
  -10.1910    3.7254   -2.0819 N   0  3  0  0  0  0  0  0  0  0  0  0
   -8.3489    2.6621   -0.7562 C   0  0  1  0  0  0  0  0  0  0  0  0
   -7.5208    2.6640    0.5757 C   0  0  1  0  0  0  0  0  0  0  0  0
   -6.2782    1.9493    0.3385 O   0  0  0  0  0  0  0  0  0  0  0  0
   -7.1494    4.1082    1.0762 C   0  0  1  0  0  0  0  0  0  0  0  0
   -8.3736    5.0786    1.0257 C   0  0  1  0  0  0  0  0  0  0  0  0
   -7.9937    6.4681    1.3524 N   0  3  0  0  0  0  0  0  0  0  0  0
   -9.0528    5.0748   -0.3623 C   0  0  0  0  0  0  0  0  0  0  0  0
   -6.3066    0.5069    0.1350 C   0  0  1  0  0  0  0  0  0  0  0  0
   -6.2190    0.2260   -1.3604 C   0  0  1  0  0  0  0  0  0  0  0  0
   -4.7193    0.3821   -1.5731 C   0  0  1  0  0  0  0  0  0  0  0  0
   -4.1552   -0.3101   -0.3241 C   0  0  2  0  0  0  0  0  0  0  0  0
   -5.1382   -0.0945    0.7165 O   0  0  0  0  0  0  0  0  0  0  0  0
   -2.7903    0.2528    0.1114 C   0  0  0  0  0  0  0  0  0  0  0  0
   -1.7278    1.8070   -4.7728 C   0  0  1  0  0  0  0  0  0  0  0  0
   -1.9725    0.2826   -4.9507 C   0  0  1  0  0  0  0  0  0  0  0  0
   -3.4672   -0.1021   -5.1481 C   0  0  2  0  0  0  0  0  0  0  0  0
   -4.3614    0.5120   -4.0233 C   0  0  1  0  0  0  0  0  0  0  0  0
   -4.2816   -0.2716   -2.7990 O   0  0  0  0  0  0  0  0  0  0  0  0
   -3.0793    2.5794   -4.6883 C   0  0  1  0  0  0  0  0  0  0  0  0
   -3.9679    1.9104   -3.7346 O   0  0  0  0  0  0  0  0  0  0  0  0
   -2.8912    4.0578   -4.2607 C   0  0  0  0  0  0  0  0  0  0  0  0
   -2.9268    6.0626    0.6592 N   0  3  0  0  0  0  0  0  0  0  0  0
   -6.6492   -1.1091   -1.6271 O   0  0  0  0  0  0  0  0  0  0  0  0
   -1.2346   -0.1614   -6.0886 O   0  0  0  0  0  0  0  0  0  0  0  0
   -0.9709    2.0066   -3.5770 O   0  0  0  0  0  0  0  0  0  0  0  0
   -2.9059    0.9763    1.3246 O   0  0  0  0  0  0  0  0  0  0  0  0
   -8.8593    1.3468   -0.9728 O   0  0  0  0  0  0  0  0  0  0  0  0
   -4.1644    4.7284   -3.9395 N   0  3  0  0  0  0  0  0  0  0  0  0
   -3.6366   -1.5710   -5.2742 N   0  3  0  0  0  0  0  0  0  0  0  0
  1  2  1  1  0  0  0
  1  3  1  0  0  0  0
  1 10  1  0  0  0  0
  3  4  1  1  0  0  0
  3  5  1  0  0  0  0
  5  6  1  1  0  0  0
  5  7  1  0  0  0  0
  7  8  1  6  0  0  0
  7  9  1  0  0  0  0
  9 10  1  0  0  0  0
  9 11  1  1  0  0  0
 11 35  1  0  0  0  0
 12 13  1  6  0  0  0
 12 14  1  0  0  0  0
 12 20  1  0  0  0  0
 14 15  1  0  0  0  0
 14 40  1  1  0  0  0
 15 16  1  6  0  0  0
 15 17  1  0  0  0  0
 17  2  1  1  0  0  0
 17 18  1  0  0  0  0
 18 19  1  6  0  0  0
 18 20  1  0  0  0  0
 21 16  1  6  0  0  0
 21 22  1  0  0  0  0
 21 25  1  0  0  0  0
 22 23  1  0  0  0  0
 22 36  1  1  0  0  0
 23 24  1  0  0  0  0
 23 31  1  6  0  0  0
 24 25  1  0  0  0  0
 24 26  1  1  0  0  0
 26 39  1  0  0  0  0
 27 28  1  0  0  0  0
 27 32  1  0  0  0  0
 27 38  1  1  0  0  0
 28 29  1  0  0  0  0
 28 37  1  6  0  0  0
 29 30  1  0  0  0  0
 29 42  1  1  0  0  0
 30 31  1  1  0  0  0
 30 33  1  0  0  0  0
 32 33  1  0  0  0  0
 32 34  1  1  0  0  0
 34 41  1  0  0  0  0
M  CHG  6   4   1  13   1  19   1  35   1  41   1  42   1
M  END
>  <CHROM.1>
175.94061115,124.90216394,-45.36287108,-177.20721616,73.35736532,178.88390656
57.79681209,64.42757995,-61.03695930,-69.88894473,99.98711545,-152.43421885
-47.96254741,86.78316167,110.18873791,179.64046026,60.96140868,171.49765095
-59.36784375,161.86770489,-169.52609486,27.20377235,-5.10742670,2.91258990
-0.31680982,-1.82048032,-0.17777749,-2.22543208

>  <Name>


>  <RI>
0

>  <Rbt.Current_Directory>
/home/itssahil/PROJECTS/Mol_Feturizer/New_Systems/rnas/1ei2

>  <Rbt.Executable>
rbdock ($Id: //depot/dev/client3/rdock/2013.1/src/exe/rbdock.cxx#4 $)

>  <Rbt.Library>
libRbt.so (2013.1, Build901 2013/11/27)

>  <Rbt.Parameter_File>
/export/apps/rDock/src/rDock_2013.1_src/data/scripts/dock_solv.prm

>  <Rbt.Receptor>
prm/pocket_docking_8.prm

>  <SCORE>
-57.4443

>  <SCORE.INTER>
-39.0157

>  <SCORE.INTER.CONST>
1

>  <SCORE.INTER.POLAR>
-6.26213

>  <SCORE.INTER.ROT>
9

>  <SCORE.INTER.SOLV>
20.8433

>  <SCORE.INTER.VDW>
-21.6845

>  <SCORE.INTER.norm>
-0.928946

>  <SCORE.INTRA>
-18.4286

>  <SCORE.INTRA.DIHEDRAL>
-11.2055

>  <SCORE.INTRA.DIHEDRAL.0>
40.8761

>  <SCORE.INTRA.POLAR>
-1.33832

>  <SCORE.INTRA.POLAR.0>
-0.0268208

>  <SCORE.INTRA.REPUL>
-0.628748

>  <SCORE.INTRA.REPUL.0>
0.641615

>  <SCORE.INTRA.SOLV>
-11.8355

>  <SCORE.INTRA.SOLV.lig_0>
-162.567

>  <SCORE.INTRA.VDW>
0.785949

>  <SCORE.INTRA.VDW.0>
-4.80338

>  <SCORE.INTRA.norm>
-0.438776

>  <SCORE.RESTR>
0

>  <SCORE.RESTR.CAVITY>
0

>  <SCORE.RESTR.norm>
0

>  <SCORE.SYSTEM>
0

>  <SCORE.SYSTEM.CONST>
0

>  <SCORE.SYSTEM.DIHEDRAL>
0

>  <SCORE.SYSTEM.SOLV>
0

>  <SCORE.SYSTEM.norm>
0

>  <SCORE.heavy>
42

>  <SCORE.norm>
-1.36772

>  <RMSD>
5.649

$$$$

 OpenBabel11021811393D
libRbt.so/2013.1/901 2013/11/27
 42 45  0  0  0  0  0  0  0  0999 V2000
   -4.5104    3.2591    0.9009 C   0  0  2  0  0  0  0  0  0  0  0  0
   -5.8884    3.7304    1.0142 O   0  0  0  0  0  0  0  0  0  0  0  0
   -4.2640    1.9856    1.7736 C   0  0  2  0  0  0  0  0  0  0  0  0
   -5.5368    1.3678    2.2111 N   0  3  0  0  0  0  0  0  0  0  0  0
   -3.3702    2.3263    3.0040 C   0  0  1  0  0  0  0  0  0  0  0  0
   -3.1441    1.1557    3.7863 O   0  0  0  0  0  0  0  0  0  0  0  0
   -1.9951    2.9048    2.5751 C   0  0  2  0  0  0  0  0  0  0  0  0
   -1.3549    3.4579    3.7196 O   0  0  0  0  0  0  0  0  0  0  0  0
   -2.1596    3.9998    1.4717 C   0  0  2  0  0  0  0  0  0  0  0  0
   -3.5765    4.3236    1.2906 O   0  0  0  0  0  0  0  0  0  0  0  0
   -1.6216    3.5942    0.0802 C   0  0  0  0  0  0  0  0  0  0  0  0
   -8.3798    7.1493    0.1636 C   0  0  1  0  0  0  0  0  0  0  0  0
   -8.8930    8.4280   -0.3768 N   0  3  0  0  0  0  0  0  0  0  0  0
   -8.2991    6.0582   -0.9360 C   0  0  1  0  0  0  0  0  0  0  0  0
   -7.6220    4.7269   -0.4572 C   0  0  1  0  0  0  0  0  0  0  0  0
   -7.3138    3.9271   -1.6304 O   0  0  0  0  0  0  0  0  0  0  0  0
   -6.2776    4.9585    0.3258 C   0  0  1  0  0  0  0  0  0  0  0  0
   -6.4114    6.0870    1.3988 C   0  0  1  0  0  0  0  0  0  0  0  0
   -5.1153    6.4081    2.0304 N   0  3  0  0  0  0  0  0  0  0  0  0
   -6.9930    7.3860    0.7969 C   0  0  0  0  0  0  0  0  0  0  0  0
   -6.5578    2.6909   -1.4788 C   0  0  1  0  0  0  0  0  0  0  0  0
   -6.9730    1.7293   -2.5859 C   0  0  1  0  0  0  0  0  0  0  0  0
   -6.1432    2.2769   -3.7392 C   0  0  1  0  0  0  0  0  0  0  0  0
   -4.8110    2.5882   -3.0424 C   0  0  2  0  0  0  0  0  0  0  0  0
   -5.1578    2.9430   -1.6825 O   0  0  0  0  0  0  0  0  0  0  0  0
   -4.0371    3.7394   -3.7096 C   0  0  0  0  0  0  0  0  0  0  0  0
   -3.3724   -0.8236   -6.6576 C   0  0  1  0  0  0  0  0  0  0  0  0
   -4.8554   -0.6480   -7.0882 C   0  0  1  0  0  0  0  0  0  0  0  0
   -5.3251    0.8338   -7.1588 C   0  0  2  0  0  0  0  0  0  0  0  0
   -5.0019    1.5924   -5.8314 C   0  0  1  0  0  0  0  0  0  0  0  0
   -5.9829    1.2905   -4.7990 O   0  0  0  0  0  0  0  0  0  0  0  0
   -2.7465    0.5457   -6.2531 C   0  0  1  0  0  0  0  0  0  0  0  0
   -3.6496    1.2461   -5.3363 O   0  0  0  0  0  0  0  0  0  0  0  0
   -1.3583    0.3871   -5.5810 C   0  0  0  0  0  0  0  0  0  0  0  0
   -2.2816    2.4155   -0.5084 N   0  3  0  0  0  0  0  0  0  0  0  0
   -6.5801    0.4000   -2.2435 O   0  0  0  0  0  0  0  0  0  0  0  0
   -5.0228   -1.2400   -8.3757 O   0  0  0  0  0  0  0  0  0  0  0  0
   -3.3267   -1.7312   -5.5544 O   0  0  0  0  0  0  0  0  0  0  0  0
   -2.9444    4.1472   -2.9044 O   0  0  0  0  0  0  0  0  0  0  0  0
   -9.6210    5.7606   -1.3848 O   0  0  0  0  0  0  0  0  0  0  0  0
   -0.2949    0.0315   -6.5383 N   0  3  0  0  0  0  0  0  0  0  0  0
   -6.7564    0.9310   -7.5382 N   0  3  0  0  0  0  0  0  0  0  0  0
  1  2  1  1  0  0  0
  1  3  1  0  0  0  0
  1 10  1  0  0  0  0
  3  4  1  1  0  0  0
  3  5  1  0  0  0  0
  5  6  1  6  0  0  0
  5  7  1  0  0  0  0
  7  8  1  1  0  0  0
  7  9  1  0  0  0  0
  9 10  1  0  0  0  0
  9 11  1  6  0  0  0
 11 35  1  0  0  0  0
 12 13  1  6  0  0  0
 12 14  1  0  0  0  0
 12 20  1  0  0  0  0
 14 15  1  0  0  0  0
 14 40  1  1  0  0  0
 15 16  1  6  0  0  0
 15 17  1  0  0  0  0
 17  2  1  1  0  0  0
 17 18  1  0  0  0  0
 18 19  1  6  0  0  0
 18 20  1  0  0  0  0
 21 16  1  6  0  0  0
 21 22  1  0  0  0  0
 21 25  1  0  0  0  0
 22 23  1  0  0  0  0
 22 36  1  1  0  0  0
 23 24  1  0  0  0  0
 23 31  1  6  0  0  0
 24 25  1  0  0  0  0
 24 26  1  6  0  0  0
 26 39  1  0  0  0  0
 27 28  1  0  0  0  0
 27 32  1  0  0  0  0
 27 38  1  1  0  0  0
 28 29  1  0  0  0  0
 28 37  1  6  0  0  0
 29 30  1  0  0  0  0
 29 42  1  1  0  0  0
 30 31  1  1  0  0  0
 30 33  1  0  0  0  0
 32 33  1  0  0  0  0
 32 34  1  1  0  0  0
 34 41  1  0  0  0  0
M  CHG  6   4   1  13   1  19   1  35   1  41   1  42   1
M  END
>  <CHROM.1>
176.47100686,132.50672480,56.70742587,55.34706493,-62.28399776,60.90341193
77.61626757,51.07322022,64.72250106,174.01708563,150.68648218,-35.98651942
-170.61624904,-168.38512982,169.59652743,-63.22508426,173.30795655,59.29518549
-168.45571733,-156.08721140,73.66300037,-47.65499286,-4.87873617,2.79273019
-1.83349028,-1.75449083,0.58823177,-2.01098309

>  <Name>


>  <RI>
0

>  <Rbt.Current_Directory>
/home/itssahil/PROJECTS/Mol_Feturizer/New_Systems/rnas/1ei2

>  <Rbt.Executable>
rbdock ($Id: //depot/dev/client3/rdock/2013.1/src/exe/rbdock.cxx#4 $)

>  <Rbt.Library>
libRbt.so (2013.1, Build901 2013/11/27)

>  <Rbt.Parameter_File>
/export/apps/rDock/src/rDock_2013.1_src/data/scripts/dock_solv.prm

>  <Rbt.Receptor>
prm/pocket_docking_4.prm

>  <SCORE>
-41.8462

>  <SCORE.INTER>
-20.0226

>  <SCORE.INTER.CONST>
1

>  <SCORE.INTER.POLAR>
-3.5147

>  <SCORE.INTER.ROT>
9

>  <SCORE.INTER.SOLV>
22.6284

>  <SCORE.INTER.VDW>
-18.7755

>  <SCORE.INTER.norm>
-0.476729

>  <SCORE.INTRA>
-21.8236

>  <SCORE.INTRA.DIHEDRAL>
-21.7133

>  <SCORE.INTRA.DIHEDRAL.0>
40.8761

>  <SCORE.INTRA.POLAR>
-2.25167

>  <SCORE.INTRA.POLAR.0>
-0.0268208

>  <SCORE.INTRA.REPUL>
-0.641615

>  <SCORE.INTRA.REPUL.0>
0.641615

>  <SCORE.INTRA.SOLV>
-2.61691

>  <SCORE.INTRA.SOLV.lig_0>
-162.567

>  <SCORE.INTRA.VDW>
1.20523

>  <SCORE.INTRA.VDW.0>
-4.80338

>  <SCORE.INTRA.norm>
-0.519609

>  <SCORE.RESTR>
0

>  <SCORE.RESTR.CAVITY>
0

>  <SCORE.RESTR.norm>
0

>  <SCORE.SYSTEM>
0

>  <SCORE.SYSTEM.CONST>
0

>  <SCORE.SYSTEM.DIHEDRAL>
0

>  <SCORE.SYSTEM.SOLV>
0

>  <SCORE.SYSTEM.norm>
0

>  <SCORE.heavy>
42

>  <SCORE.norm>
-0.996338

>  <RMSD>
5.653

$$$$

 OpenBabel11021811393D
libRbt.so/2013.1/901 2013/11/27
 42 45  0  0  0  0  0  0  0  0999 V2000
   -1.1301    2.7700    2.0798 C   0  0  2  0  0  0  0  0  0  0  0  0
   -0.6952    3.8007    1.1405 O   0  0  0  0  0  0  0  0  0  0  0  0
   -1.4202    1.4157    1.3548 C   0  0  2  0  0  0  0  0  0  0  0  0
   -0.8574    1.3972   -0.0149 N   0  3  0  0  0  0  0  0  0  0  0  0
   -2.9513    1.1267    1.3208 C   0  0  1  0  0  0  0  0  0  0  0  0
   -3.2025   -0.1151    0.6666 O   0  0  0  0  0  0  0  0  0  0  0  0
   -3.5576    1.0626    2.7483 C   0  0  2  0  0  0  0  0  0  0  0  0
   -4.9767    1.0887    2.6436 O   0  0  0  0  0  0  0  0  0  0  0  0
   -3.0633    2.2558    3.6287 C   0  0  2  0  0  0  0  0  0  0  0  0
   -2.3258    3.2173    2.8059 O   0  0  0  0  0  0  0  0  0  0  0  0
   -2.1183    1.8524    4.7839 C   0  0  0  0  0  0  0  0  0  0  0  0
   -3.4007    6.8690    2.5137 C   0  0  1  0  0  0  0  0  0  0  0  0
   -4.1817    8.1210    2.6267 N   0  3  0  0  0  0  0  0  0  0  0  0
   -3.8798    6.0054    1.3175 C   0  0  1  0  0  0  0  0  0  0  0  0
   -2.9923    4.7388    1.0566 C   0  0  1  0  0  0  0  0  0  0  0  0
   -3.3334    4.2074   -0.2519 O   0  0  0  0  0  0  0  0  0  0  0  0
   -1.4501    5.0483    1.0558 C   0  0  1  0  0  0  0  0  0  0  0  0
   -1.0316    5.9443    2.2662 C   0  0  1  0  0  0  0  0  0  0  0  0
    0.3840    6.3585    2.1862 N   0  3  0  0  0  0  0  0  0  0  0  0
   -1.9042    7.2154    2.3687 C   0  0  0  0  0  0  0  0  0  0  0  0
   -3.0329    4.9878   -1.4450 C   0  0  1  0  0  0  0  0  0  0  0  0
   -3.2349    4.1015   -2.6683 C   0  0  1  0  0  0  0  0  0  0  0  0
   -4.7489    4.1824   -2.8085 C   0  0  1  0  0  0  0  0  0  0  0  0
   -5.0089    5.6665   -2.5135 C   0  0  2  0  0  0  0  0  0  0  0  0
   -3.9766    6.0632   -1.5793 O   0  0  0  0  0  0  0  0  0  0  0  0
   -6.3999    5.9252   -1.9074 C   0  0  0  0  0  0  0  0  0  0  0  0
   -7.8662    1.0754   -3.9331 C   0  0  1  0  0  0  0  0  0  0  0  0
   -7.6433    2.0187   -5.1479 C   0  0  1  0  0  0  0  0  0  0  0  0
   -6.1694    2.0792   -5.6431 C   0  0  2  0  0  0  0  0  0  0  0  0
   -5.1907    2.3916   -4.4657 C   0  0  1  0  0  0  0  0  0  0  0  0
   -5.1828    3.8124   -4.1489 O   0  0  0  0  0  0  0  0  0  0  0  0
   -6.5083    0.5212   -3.4048 C   0  0  1  0  0  0  0  0  0  0  0  0
   -5.5545    1.6229   -3.2531 O   0  0  0  0  0  0  0  0  0  0  0  0
   -6.6565   -0.2166   -2.0492 C   0  0  0  0  0  0  0  0  0  0  0  0
   -2.6990    0.8924    5.7392 N   0  3  0  0  0  0  0  0  0  0  0  0
   -2.5734    4.6762   -3.7956 O   0  0  0  0  0  0  0  0  0  0  0  0
   -8.4664    1.5689   -6.2234 O   0  0  0  0  0  0  0  0  0  0  0  0
   -8.5308    1.8127   -2.9046 O   0  0  0  0  0  0  0  0  0  0  0  0
   -7.4230    5.5957   -2.8313 O   0  0  0  0  0  0  0  0  0  0  0  0
   -5.2190    5.5790    1.5668 O   0  0  0  0  0  0  0  0  0  0  0  0
   -6.7056   -1.6828   -2.1966 N   0  3  0  0  0  0  0  0  0  0  0  0
   -6.0174    3.0233   -6.7779 N   0  3  0  0  0  0  0  0  0  0  0  0
  1  2  1  6  0  0  0
  1  3  1  0  0  0  0
  1 10  1  0  0  0  0
  3  4  1  6  0  0  0
  3  5  1  0  0  0  0
  5  6  1  1  0  0  0
  5  7  1  0  0  0  0
  7  8  1  6  0  0  0
  7  9  1  0  0  0  0
  9 10  1  0  0  0  0
  9 11  1  1  0  0  0
 11 35  1  0  0  0  0
 12 13  1  6  0  0  0
 12 14  1  0  0  0  0
 12 20  1  0  0  0  0
 14 15  1  0  0  0  0
 14 40  1  1  0  0  0
 15 16  1  6  0  0  0
 15 17  1  0  0  0  0
 17  2  1  1  0  0  0
 17 18  1  0  0  0  0
 18 19  1  6  0  0  0
 18 20  1  0  0  0  0
 21 16  1  1  0  0  0
 21 22  1  0  0  0  0
 21 25  1  0  0  0  0
 22 23  1  0  0  0  0
 22 36  1  6  0  0  0
 23 24  1  0  0  0  0
 23 31  1  6  0  0  0
 24 25  1  0  0  0  0
 24 26  1  1  0  0  0
 26 39  1  0  0  0  0
 27 28  1  0  0  0  0
 27 32  1  0  0  0  0
 27 38  1  1  0  0  0
 28 29  1  0  0  0  0
 28 37  1  6  0  0  0
 29 30  1  0  0  0  0
 29 42  1  6  0  0  0
 30 31  1  1  0  0  0
 30 33  1  0  0  0  0
 32 33  1  0  0  0  0
 32 34  1  1  0  0  0
 34 41  1  0  0  0  0
M  CHG  6   4   1  13   1  19   1  35   1  41   1  42   1
M  END
>  <CHROM.1>
122.63123772,-43.57904963,-60.25264071,-155.33422874,65.80065692,-58.86082389
-50.33877887,-171.73722969,172.47573619,66.19085056,169.05179895,-79.00431877
-48.74725298,76.65359856,-64.71488758,66.73340248,173.92124300,174.80946538
64.91878902,157.25369544,99.60413952,56.30728190,-4.14684920,3.31608933,-0.59011423
0.12570242,1.00394634,2.72966361

>  <Name>


>  <RI>
0

>  <Rbt.Current_Directory>
/home/itssahil/PROJECTS/Mol_Feturizer/New_Systems/rnas/1ei2

>  <Rbt.Executable>
rbdock ($Id: //depot/dev/client3/rdock/2013.1/src/exe/rbdock.cxx#4 $)

>  <Rbt.Library>
libRbt.so (2013.1, Build901 2013/11/27)

>  <Rbt.Parameter_File>
/export/apps/rDock/src/rDock_2013.1_src/data/scripts/dock_solv.prm

>  <Rbt.Receptor>
prm/pocket_docking_5.prm

>  <SCORE>
-56.0026

>  <SCORE.INTER>
-40.9294

>  <SCORE.INTER.CONST>
1

>  <SCORE.INTER.POLAR>
-6.67591

>  <SCORE.INTER.ROT>
9

>  <SCORE.INTER.SOLV>
34.7271

>  <SCORE.INTER.VDW>
-26.2089

>  <SCORE.INTER.norm>
-0.974509

>  <SCORE.INTRA>
-15.1321

>  <SCORE.INTRA.DIHEDRAL>
-17.8733

>  <SCORE.INTRA.DIHEDRAL.0>
40.8761

>  <SCORE.INTRA.POLAR>
0.0268208

>  <SCORE.INTRA.POLAR.0>
-0.0268208

>  <SCORE.INTRA.REPUL>
-0.641615

>  <SCORE.INTRA.REPUL.0>
0.641615

>  <SCORE.INTRA.SOLV>
-13.6408

>  <SCORE.INTRA.SOLV.lig_0>
-162.567

>  <SCORE.INTRA.VDW>
3.74186

>  <SCORE.INTRA.VDW.0>
-4.80338

>  <SCORE.INTRA.norm>
-0.360287

>  <SCORE.RESTR>
0.0588663

>  <SCORE.RESTR.CAVITY>
0.0588663

>  <SCORE.RESTR.norm>
0.00140158

>  <SCORE.SYSTEM>
0

>  <SCORE.SYSTEM.CONST>
0

>  <SCORE.SYSTEM.DIHEDRAL>
0

>  <SCORE.SYSTEM.SOLV>
0

>  <SCORE.SYSTEM.norm>
0

>  <SCORE.heavy>
42

>  <SCORE.norm>
-1.3334

>  <RMSD>
5.659

$$$$

 OpenBabel11021811393D
libRbt.so/2013.1/901 2013/11/27
 42 45  0  0  0  0  0  0  0  0999 V2000
   -5.4787    6.1076    3.8370 C   0  0  2  0  0  0  0  0  0  0  0  0
   -5.6752    4.7295    3.3945 O   0  0  0  0  0  0  0  0  0  0  0  0
   -6.5743    6.5448    4.8628 C   0  0  2  0  0  0  0  0  0  0  0  0
   -7.3163    5.3811    5.3996 N   0  3  0  0  0  0  0  0  0  0  0  0
   -7.5560    7.5684    4.2166 C   0  0  1  0  0  0  0  0  0  0  0  0
   -8.5440    7.9673    5.1643 O   0  0  0  0  0  0  0  0  0  0  0  0
   -6.8167    8.8369    3.7128 C   0  0  2  0  0  0  0  0  0  0  0  0
   -7.7031    9.5851    2.8881 O   0  0  0  0  0  0  0  0  0  0  0  0
   -5.5278    8.4619    2.9119 C   0  0  2  0  0  0  0  0  0  0  0  0
   -5.4799    7.0161    2.6829 O   0  0  0  0  0  0  0  0  0  0  0  0
   -4.2034    8.8381    3.6151 C   0  0  0  0  0  0  0  0  0  0  0  0
   -1.6028    4.0770    2.1261 C   0  0  1  0  0  0  0  0  0  0  0  0
   -0.3794    3.4824    1.5427 N   0  3  0  0  0  0  0  0  0  0  0  0
   -2.6149    4.4908    1.0258 C   0  0  1  0  0  0  0  0  0  0  0  0
   -3.9918    4.9885    1.5883 C   0  0  1  0  0  0  0  0  0  0  0  0
   -4.9421    5.0306    0.4900 O   0  0  0  0  0  0  0  0  0  0  0  0
   -4.5892    4.0460    2.6968 C   0  0  1  0  0  0  0  0  0  0  0  0
   -3.5179    3.6397    3.7600 C   0  0  1  0  0  0  0  0  0  0  0  0
   -4.0362    2.6389    4.7149 N   0  3  0  0  0  0  0  0  0  0  0  0
   -2.2429    3.0670    3.1010 C   0  0  0  0  0  0  0  0  0  0  0  0
   -4.8838    4.0119   -0.5499 C   0  0  1  0  0  0  0  0  0  0  0  0
   -6.2309    3.9669   -1.2613 C   0  0  1  0  0  0  0  0  0  0  0  0
   -6.0757    5.1551   -2.2007 C   0  0  1  0  0  0  0  0  0  0  0  0
   -4.6205    4.9964   -2.6638 C   0  0  2  0  0  0  0  0  0  0  0  0
   -3.9235    4.3862   -1.5513 O   0  0  0  0  0  0  0  0  0  0  0  0
   -3.9573    6.3349   -3.0348 C   0  0  0  0  0  0  0  0  0  0  0  0
  -10.0835    6.3503   -5.2350 C   0  0  1  0  0  0  0  0  0  0  0  0
   -9.8733    6.4688   -3.6997 C   0  0  1  0  0  0  0  0  0  0  0  0
   -8.5010    7.0782   -3.2916 C   0  0  2  0  0  0  0  0  0  0  0  0
   -7.3208    6.3321   -3.9932 C   0  0  1  0  0  0  0  0  0  0  0  0
   -7.0101    5.0816   -3.3158 O   0  0  0  0  0  0  0  0  0  0  0  0
   -8.7858    6.7434   -6.0043 C   0  0  1  0  0  0  0  0  0  0  0  0
   -7.6368    6.0530   -5.4130 O   0  0  0  0  0  0  0  0  0  0  0  0
   -8.8657    6.4014   -7.5144 C   0  0  0  0  0  0  0  0  0  0  0  0
   -3.1490    9.3253    2.7084 N   0  3  0  0  0  0  0  0  0  0  0  0
   -6.3551    2.7414   -1.9835 O   0  0  0  0  0  0  0  0  0  0  0  0
  -10.9120    7.2887   -3.1656 O   0  0  0  0  0  0  0  0  0  0  0  0
  -10.4466    5.0017   -5.5386 O   0  0  0  0  0  0  0  0  0  0  0  0
   -2.6052    6.3637   -2.6108 O   0  0  0  0  0  0  0  0  0  0  0  0
   -2.0389    5.5357    0.2423 O   0  0  0  0  0  0  0  0  0  0  0  0
   -7.6392    6.7609   -8.2496 N   0  3  0  0  0  0  0  0  0  0  0  0
   -8.3479    7.1292   -1.8164 N   0  3  0  0  0  0  0  0  0  0  0  0
  1  2  1  6  0  0  0
  1  3  1  0  0  0  0
  1 10  1  0  0  0  0
  3  4  1  6  0  0  0
  3  5  1  0  0  0  0
  5  6  1  1  0  0  0
  5  7  1  0  0  0  0
  7  8  1  6  0  0  0
  7  9  1  0  0  0  0
  9 10  1  0  0  0  0
  9 11  1  1  0  0  0
 11 35  1  0  0  0  0
 12 13  1  6  0  0  0
 12 14  1  0  0  0  0
 12 20  1  0  0  0  0
 14 15  1  0  0  0  0
 14 40  1  1  0  0  0
 15 16  1  6  0  0  0
 15 17  1  0  0  0  0
 17  2  1  1  0  0  0
 17 18  1  0  0  0  0
 18 19  1  1  0  0  0
 18 20  1  0  0  0  0
 21 16  1  1  0  0  0
 21 22  1  0  0  0  0
 21 25  1  0  0  0  0
 22 23  1  0  0  0  0
 22 36  1  6  0  0  0
 23 24  1  0  0  0  0
 23 31  1  6  0  0  0
 24 25  1  0  0  0  0
 24 26  1  1  0  0  0
 26 39  1  0  0  0  0
 27 28  1  0  0  0  0
 27 32  1  0  0  0  0
 27 38  1  1  0  0  0
 28 29  1  0  0  0  0
 28 37  1  6  0  0  0
 29 30  1  0  0  0  0
 29 42  1  1  0  0  0
 30 31  1  1  0  0  0
 30 33  1  0  0  0  0
 32 33  1  0  0  0  0
 32 34  1  6  0  0  0
 34 41  1  0  0  0  0
M  CHG  6   4   1  13   1  19   1  35   1  41   1  42   1
M  END
>  <CHROM.1>
-165.44357116,-46.34870420,63.91695262,-68.33871574,63.53211192,-142.18533734
-157.94629845,175.19546495,163.85387774,36.19313901,159.61713554,66.99188987
62.83258716,158.04291981,141.44418533,69.60180960,58.17380963,-57.45052579
60.34288892,-86.81315168,-179.60346676,62.68582976,-5.91333631,5.86169478
-0.16217023,1.07945295,-0.52309442,1.36130981

>  <Name>


>  <RI>
0

>  <Rbt.Current_Directory>
/home/itssahil/PROJECTS/Mol_Feturizer/New_Systems/rnas/1ei2

>  <Rbt.Executable>
rbdock ($Id: //depot/dev/client3/rdock/2013.1/src/exe/rbdock.cxx#4 $)

>  <Rbt.Library>
libRbt.so (2013.1, Build901 2013/11/27)

>  <Rbt.Parameter_File>
/export/apps/rDock/src/rDock_2013.1_src/data/scripts/dock_solv.prm

>  <Rbt.Receptor>
prm/pocket_docking_7.prm

>  <SCORE>
-51.581

>  <SCORE.INTER>
-30.1955

>  <SCORE.INTER.CONST>
1

>  <SCORE.INTER.POLAR>
-5.45412

>  <SCORE.INTER.ROT>
9

>  <SCORE.INTER.SOLV>
23.5375

>  <SCORE.INTER.VDW>
-19.3958

>  <SCORE.INTER.norm>
-0.71894

>  <SCORE.INTRA>
-21.3855

>  <SCORE.INTRA.DIHEDRAL>
-17.6687

>  <SCORE.INTRA.DIHEDRAL.0>
40.8761

>  <SCORE.INTRA.POLAR>
-1.45528

>  <SCORE.INTRA.POLAR.0>
-0.0268208

>  <SCORE.INTRA.REPUL>
-0.454001

>  <SCORE.INTRA.REPUL.0>
0.641615

>  <SCORE.INTRA.SOLV>
-12.0425

>  <SCORE.INTRA.SOLV.lig_0>
-162.567

>  <SCORE.INTRA.VDW>
0.688026

>  <SCORE.INTRA.VDW.0>
-4.80338

>  <SCORE.INTRA.norm>
-0.509179

>  <SCORE.RESTR>
0

>  <SCORE.RESTR.CAVITY>
0

>  <SCORE.RESTR.norm>
0

>  <SCORE.SYSTEM>
0

>  <SCORE.SYSTEM.CONST>
0

>  <SCORE.SYSTEM.DIHEDRAL>
0

>  <SCORE.SYSTEM.SOLV>
0

>  <SCORE.SYSTEM.norm>
0

>  <SCORE.heavy>
42

>  <SCORE.norm>
-1.22812

>  <RMSD>
5.668

$$$$

 OpenBabel11021811393D
libRbt.so/2013.1/901 2013/11/27
 42 45  0  0  0  0  0  0  0  0999 V2000
   -4.5800    4.8081    1.5493 C   0  0  2  0  0  0  0  0  0  0  0  0
   -5.1684    5.5980    0.4706 O   0  0  0  0  0  0  0  0  0  0  0  0
   -3.0209    4.9220    1.5619 C   0  0  2  0  0  0  0  0  0  0  0  0
   -2.5485    6.0525    0.7301 N   0  3  0  0  0  0  0  0  0  0  0  0
   -2.3680    3.5871    1.0920 C   0  0  1  0  0  0  0  0  0  0  0  0
   -0.9467    3.6997    1.1174 O   0  0  0  0  0  0  0  0  0  0  0  0
   -2.7833    2.3937    1.9934 C   0  0  2  0  0  0  0  0  0  0  0  0
   -2.3996    1.1820    1.3529 O   0  0  0  0  0  0  0  0  0  0  0  0
   -4.3234    2.3939    2.2609 C   0  0  2  0  0  0  0  0  0  0  0  0
   -4.9800    3.4005    1.4236 O   0  0  0  0  0  0  0  0  0  0  0  0
   -4.7209    2.7115    3.7208 C   0  0  0  0  0  0  0  0  0  0  0  0
   -9.2214    5.2511    1.9104 C   0  0  1  0  0  0  0  0  0  0  0  0
  -10.6855    5.3992    2.0684 N   0  3  0  0  0  0  0  0  0  0  0  0
   -8.8654    4.4412    0.6362 C   0  0  1  0  0  0  0  0  0  0  0  0
   -7.3274    4.3797    0.3352 C   0  0  1  0  0  0  0  0  0  0  0  0
   -7.1497    3.8914   -1.0216 O   0  0  0  0  0  0  0  0  0  0  0  0
   -6.6172    5.7799    0.4325 C   0  0  1  0  0  0  0  0  0  0  0  0
   -7.0358    6.5609    1.7200 C   0  0  1  0  0  0  0  0  0  0  0  0
   -6.4879    7.9326    1.7391 N   0  3  0  0  0  0  0  0  0  0  0  0
   -8.5717    6.6498    1.8642 C   0  0  0  0  0  0  0  0  0  0  0  0
   -7.7775    2.6393   -1.4225 C   0  0  1  0  0  0  0  0  0  0  0  0
   -7.2945    2.2807   -2.8228 C   0  0  1  0  0  0  0  0  0  0  0  0
   -5.9387    1.6734   -2.4894 C   0  0  1  0  0  0  0  0  0  0  0  0
   -6.2663    0.8540   -1.2330 C   0  0  2  0  0  0  0  0  0  0  0  0
   -7.3338    1.5717   -0.5690 O   0  0  0  0  0  0  0  0  0  0  0  0
   -5.0633    0.6975   -0.2855 C   0  0  0  0  0  0  0  0  0  0  0  0
   -3.2966   -0.4770   -6.4701 C   0  0  1  0  0  0  0  0  0  0  0  0
   -4.8210   -0.1842   -6.5463 C   0  0  1  0  0  0  0  0  0  0  0  0
   -5.2242    1.2247   -6.0230 C   0  0  2  0  0  0  0  0  0  0  0  0
   -4.6438    1.4841   -4.5956 C   0  0  1  0  0  0  0  0  0  0  0  0
   -5.4481    0.8318   -3.5724 O   0  0  0  0  0  0  0  0  0  0  0  0
   -2.5460    0.6777   -5.7397 C   0  0  1  0  0  0  0  0  0  0  0  0
   -3.2452    1.0071   -4.4950 O   0  0  0  0  0  0  0  0  0  0  0  0
   -1.0729    0.3165   -5.4179 C   0  0  0  0  0  0  0  0  0  0  0  0
   -4.2222    1.7427    4.7127 N   0  3  0  0  0  0  0  0  0  0  0  0
   -8.1717    1.3156   -3.4039 O   0  0  0  0  0  0  0  0  0  0  0  0
   -5.2334   -0.2990   -7.9076 O   0  0  0  0  0  0  0  0  0  0  0  0
   -3.1075   -1.7083   -5.7693 O   0  0  0  0  0  0  0  0  0  0  0  0
   -5.3009   -0.3233    0.6685 O   0  0  0  0  0  0  0  0  0  0  0  0
   -9.3529    3.1083    0.7888 O   0  0  0  0  0  0  0  0  0  0  0  0
   -0.2879   -0.0154   -6.6211 N   0  3  0  0  0  0  0  0  0  0  0  0
   -6.6929    1.4269   -6.0878 N   0  3  0  0  0  0  0  0  0  0  0  0
  1  2  1  6  0  0  0
  1  3  1  0  0  0  0
  1 10  1  0  0  0  0
  3  4  1  6  0  0  0
  3  5  1  0  0  0  0
  5  6  1  1  0  0  0
  5  7  1  0  0  0  0
  7  8  1  6  0  0  0
  7  9  1  0  0  0  0
  9 10  1  0  0  0  0
  9 11  1  1  0  0  0
 11 35  1  0  0  0  0
 12 13  1  6  0  0  0
 12 14  1  0  0  0  0
 12 20  1  0  0  0  0
 14 15  1  0  0  0  0
 14 40  1  1  0  0  0
 15 16  1  6  0  0  0
 15 17  1  0  0  0  0
 17  2  1  1  0  0  0
 17 18  1  0  0  0  0
 18 19  1  6  0  0  0
 18 20  1  0  0  0  0
 21 16  1  1  0  0  0
 21 22  1  0  0  0  0
 21 25  1  0  0  0  0
 22 23  1  0  0  0  0
 22 36  1  1  0  0  0
 23 24  1  0  0  0  0
 23 31  1  6  0  0  0
 24 25  1  0  0  0  0
 24 26  1  1  0  0  0
 26 39  1  0  0  0  0
 27 28  1  0  0  0  0
 27 32  1  0  0  0  0
 27 38  1  1  0  0  0
 28 29  1  0  0  0  0
 28 37  1  6  0  0  0
 29 30  1  0  0  0  0
 29 42  1  1  0  0  0
 30 31  1  1  0  0  0
 30 33  1  0  0  0  0
 32 33  1  0  0  0  0
 32 34  1  1  0  0  0
 34 41  1  0  0  0  0
M  CHG  6   4   1  13   1  19   1  35   1  41   1  42   1
M  END
>  <CHROM.1>
-170.49770727,-59.41325326,16.03582814,67.41974318,64.21394739,-61.91624006
-40.77024907,177.68261017,70.70555035,-53.62887079,-173.17891266,-162.40014570
-45.90223367,89.59250530,-165.26467768,63.62017379,-53.94361856,166.25128937
-38.44548601,-125.81041621,58.77316220,-47.47413797,-5.27543937,2.61103576
-1.15642025,-1.88048554,0.25876228,-2.03773757

>  <Name>


>  <RI>
0

>  <Rbt.Current_Directory>
/home/itssahil/PROJECTS/Mol_Feturizer/New_Systems/rnas/1ei2

>  <Rbt.Executable>
rbdock ($Id: //depot/dev/client3/rdock/2013.1/src/exe/rbdock.cxx#4 $)

>  <Rbt.Library>
libRbt.so (2013.1, Build901 2013/11/27)

>  <Rbt.Parameter_File>
/export/apps/rDock/src/rDock_2013.1_src/data/scripts/dock_solv.prm

>  <Rbt.Receptor>
prm/pocket_docking_6.prm

>  <SCORE>
-51.1176

>  <SCORE.INTER>
-30.4213

>  <SCORE.INTER.CONST>
1

>  <SCORE.INTER.POLAR>
-5.23768

>  <SCORE.INTER.ROT>
9

>  <SCORE.INTER.SOLV>
29.2391

>  <SCORE.INTER.VDW>
-22.1683

>  <SCORE.INTER.norm>
-0.724316

>  <SCORE.INTRA>
-20.6963

>  <SCORE.INTRA.DIHEDRAL>
-18.9085

>  <SCORE.INTRA.DIHEDRAL.0>
40.8761

>  <SCORE.INTRA.POLAR>
-1.41619

>  <SCORE.INTRA.POLAR.0>
-0.0268208

>  <SCORE.INTRA.REPUL>
-0.544642

>  <SCORE.INTRA.REPUL.0>
0.641615

>  <SCORE.INTRA.SOLV>
-8.42324

>  <SCORE.INTRA.SOLV.lig_0>
-162.567

>  <SCORE.INTRA.VDW>
0.507793

>  <SCORE.INTRA.VDW.0>
-4.80338

>  <SCORE.INTRA.norm>
-0.49277

>  <SCORE.RESTR>
0

>  <SCORE.RESTR.CAVITY>
0

>  <SCORE.RESTR.norm>
0

>  <SCORE.SYSTEM>
0

>  <SCORE.SYSTEM.CONST>
0

>  <SCORE.SYSTEM.DIHEDRAL>
0

>  <SCORE.SYSTEM.SOLV>
0

>  <SCORE.SYSTEM.norm>
0

>  <SCORE.heavy>
42

>  <SCORE.norm>
-1.21709

>  <RMSD>
5.678

$$$$

 OpenBabel11021811393D
libRbt.so/2013.1/901 2013/11/27
 42 45  0  0  0  0  0  0  0  0999 V2000
   -2.4551    3.9148    2.4452 C   0  0  2  0  0  0  0  0  0  0  0  0
   -2.4531    4.9538    1.4185 O   0  0  0  0  0  0  0  0  0  0  0  0
   -2.5246    2.4849    1.8172 C   0  0  2  0  0  0  0  0  0  0  0  0
   -2.2174    2.5083    0.3687 N   0  3  0  0  0  0  0  0  0  0  0  0
   -3.9210    1.8404    2.0695 C   0  0  1  0  0  0  0  0  0  0  0  0
   -3.9688    0.5333    1.5014 O   0  0  0  0  0  0  0  0  0  0  0  0
   -4.2397    1.7303    3.5847 C   0  0  2  0  0  0  0  0  0  0  0  0
   -5.6184    1.4130    3.7398 O   0  0  0  0  0  0  0  0  0  0  0  0
   -3.9093    3.0629    4.3321 C   0  0  2  0  0  0  0  0  0  0  0  0
   -3.5816    4.1142    3.3664 O   0  0  0  0  0  0  0  0  0  0  0  0
   -2.7111    2.9727    5.3049 C   0  0  0  0  0  0  0  0  0  0  0  0
   -6.6903    5.7365    1.6495 C   0  0  1  0  0  0  0  0  0  0  0  0
   -8.0392    6.3047    1.4307 N   0  3  0  0  0  0  0  0  0  0  0  0
   -6.1965    4.9481    0.4083 C   0  0  1  0  0  0  0  0  0  0  0  0
   -4.7137    4.4502    0.5243 C   0  0  1  0  0  0  0  0  0  0  0  0
   -4.2727    4.0268   -0.7937 O   0  0  0  0  0  0  0  0  0  0  0  0
   -3.7200    5.5632    1.0224 C   0  0  1  0  0  0  0  0  0  0  0  0
   -4.2829    6.3420    2.2551 C   0  0  1  0  0  0  0  0  0  0  0  0
   -3.4220    7.4820    2.6310 N   0  3  0  0  0  0  0  0  0  0  0  0
   -5.7093    6.8763    1.9947 C   0  0  0  0  0  0  0  0  0  0  0  0
   -3.7149    5.0086   -1.7144 C   0  0  1  0  0  0  0  0  0  0  0  0
   -3.6865    4.4019   -3.1123 C   0  0  1  0  0  0  0  0  0  0  0  0
   -5.1375    4.6123   -3.5232 C   0  0  1  0  0  0  0  0  0  0  0  0
   -5.4130    6.0211   -2.9786 C   0  0  2  0  0  0  0  0  0  0  0  0
   -4.5827    6.1508   -1.7999 O   0  0  0  0  0  0  0  0  0  0  0  0
   -6.8911    6.2470   -2.6132 C   0  0  0  0  0  0  0  0  0  0  0  0
   -6.4807    3.2377   -8.3785 C   0  0  1  0  0  0  0  0  0  0  0  0
   -5.0481    3.7512   -8.0630 C   0  0  1  0  0  0  0  0  0  0  0  0
   -4.4077    3.1099   -6.7982 C   0  0  2  0  0  0  0  0  0  0  0  0
   -5.3602    3.2222   -5.5644 C   0  0  1  0  0  0  0  0  0  0  0  0
   -5.2987    4.5495   -4.9696 O   0  0  0  0  0  0  0  0  0  0  0  0
   -6.9936    2.2953   -7.2476 C   0  0  1  0  0  0  0  0  0  0  0  0
   -6.7600    2.9214   -5.9437 O   0  0  0  0  0  0  0  0  0  0  0  0
   -8.5010    1.9626   -7.3917 C   0  0  0  0  0  0  0  0  0  0  0  0
   -2.9066    2.0385    6.4276 N   0  3  0  0  0  0  0  0  0  0  0  0
   -2.7942    5.1448   -3.9432 O   0  0  0  0  0  0  0  0  0  0  0  0
   -4.2132    3.4729   -9.1863 O   0  0  0  0  0  0  0  0  0  0  0  0
   -7.3469    4.3672   -8.5091 O   0  0  0  0  0  0  0  0  0  0  0  0
   -7.6928    6.3307   -3.7789 O   0  0  0  0  0  0  0  0  0  0  0  0
   -7.0434    3.8150    0.2179 O   0  0  0  0  0  0  0  0  0  0  0  0
   -8.7682    0.9505   -8.4302 N   0  3  0  0  0  0  0  0  0  0  0  0
   -3.0591    3.6685   -6.5312 N   0  3  0  0  0  0  0  0  0  0  0  0
  1  2  1  6  0  0  0
  1  3  1  0  0  0  0
  1 10  1  0  0  0  0
  3  4  1  6  0  0  0
  3  5  1  0  0  0  0
  5  6  1  1  0  0  0
  5  7  1  0  0  0  0
  7  8  1  6  0  0  0
  7  9  1  0  0  0  0
  9 10  1  0  0  0  0
  9 11  1  1  0  0  0
 11 35  1  0  0  0  0
 12 13  1  6  0  0  0
 12 14  1  0  0  0  0
 12 20  1  0  0  0  0
 14 15  1  0  0  0  0
 14 40  1  1  0  0  0
 15 16  1  6  0  0  0
 15 17  1  0  0  0  0
 17  2  1  1  0  0  0
 17 18  1  0  0  0  0
 18 19  1  6  0  0  0
 18 20  1  0  0  0  0
 21 16  1  1  0  0  0
 21 22  1  0  0  0  0
 21 25  1  0  0  0  0
 22 23  1  0  0  0  0
 22 36  1  6  0  0  0
 23 24  1  0  0  0  0
 23 31  1  6  0  0  0
 24 25  1  0  0  0  0
 24 26  1  1  0  0  0
 26 39  1  0  0  0  0
 27 28  1  0  0  0  0
 27 32  1  0  0  0  0
 27 38  1  1  0  0  0
 28 29  1  0  0  0  0
 28 37  1  6  0  0  0
 29 30  1  0  0  0  0
 29 42  1  1  0  0  0
 30 31  1  6  0  0  0
 30 33  1  0  0  0  0
 32 33  1  0  0  0  0
 32 34  1  6  0  0  0
 34 41  1  0  0  0  0
M  CHG  6   4   1  13   1  19   1  35   1  41   1  42   1
M  END
>  <CHROM.1>
93.88582176,-57.13094719,162.39216892,-61.64448310,-57.89030430,-63.02631967
-31.35406631,-52.48236529,179.57115457,86.34441111,-165.01964165,62.37153590
-47.26102074,80.24566091,-71.30858499,-173.59019226,-58.02323874,62.15725750
149.99804994,-131.96059892,77.44855661,-56.03590183,-4.93809992,4.00666085
-1.52094112,-1.07343349,1.10940560,-2.05118601

>  <Name>


>  <RI>
0

>  <Rbt.Current_Directory>
/home/itssahil/PROJECTS/Mol_Feturizer/New_Systems/rnas/1ei2

>  <Rbt.Executable>
rbdock ($Id: //depot/dev/client3/rdock/2013.1/src/exe/rbdock.cxx#4 $)

>  <Rbt.Library>
libRbt.so (2013.1, Build901 2013/11/27)

>  <Rbt.Parameter_File>
/export/apps/rDock/src/rDock_2013.1_src/data/scripts/dock_solv.prm

>  <Rbt.Receptor>
prm/pocket_docking_6.prm

>  <SCORE>
-52.5439

>  <SCORE.INTER>
-32.0722

>  <SCORE.INTER.CONST>
1

>  <SCORE.INTER.POLAR>
-5.25718

>  <SCORE.INTER.ROT>
9

>  <SCORE.INTER.SOLV>
20.2732

>  <SCORE.INTER.VDW>
-20.2152

>  <SCORE.INTER.norm>
-0.763623

>  <SCORE.INTRA>
-20.4717

>  <SCORE.INTRA.DIHEDRAL>
-16.604

>  <SCORE.INTRA.DIHEDRAL.0>
40.8761

>  <SCORE.INTRA.POLAR>
-1.75975

>  <SCORE.INTRA.POLAR.0>
-0.0268208

>  <SCORE.INTRA.REPUL>
-0.609712

>  <SCORE.INTRA.REPUL.0>
0.641615

>  <SCORE.INTRA.SOLV>
-7.30806

>  <SCORE.INTRA.SOLV.lig_0>
-162.567

>  <SCORE.INTRA.VDW>
0.516003

>  <SCORE.INTRA.VDW.0>
-4.80338

>  <SCORE.INTRA.norm>
-0.487422

>  <SCORE.RESTR>
0

>  <SCORE.RESTR.CAVITY>
0

>  <SCORE.RESTR.norm>
0

>  <SCORE.SYSTEM>
0

>  <SCORE.SYSTEM.CONST>
0

>  <SCORE.SYSTEM.DIHEDRAL>
0

>  <SCORE.SYSTEM.SOLV>
0

>  <SCORE.SYSTEM.norm>
0

>  <SCORE.heavy>
42

>  <SCORE.norm>
-1.25105

>  <RMSD>
5.689

$$$$

 OpenBabel11021811393D
libRbt.so/2013.1/901 2013/11/27
 42 45  0  0  0  0  0  0  0  0999 V2000
   -8.3750    5.3650   -2.1815 C   0  0  2  0  0  0  0  0  0  0  0  0
   -7.1478    5.7864   -2.8523 O   0  0  0  0  0  0  0  0  0  0  0  0
   -9.1212    6.5758   -1.5324 C   0  0  2  0  0  0  0  0  0  0  0  0
   -8.6124    7.8693   -2.0434 N   0  3  0  0  0  0  0  0  0  0  0  0
   -9.0121    6.5206    0.0213 C   0  0  1  0  0  0  0  0  0  0  0  0
   -9.7047    7.6236    0.6020 O   0  0  0  0  0  0  0  0  0  0  0  0
   -9.6091    5.2075    0.5947 C   0  0  2  0  0  0  0  0  0  0  0  0
   -9.2228    5.0876    1.9593 O   0  0  0  0  0  0  0  0  0  0  0  0
   -9.1191    3.9617   -0.2123 C   0  0  2  0  0  0  0  0  0  0  0  0
   -8.0731    4.3545   -1.1593 O   0  0  0  0  0  0  0  0  0  0  0  0
  -10.2199    3.2608   -1.0413 C   0  0  0  0  0  0  0  0  0  0  0  0
   -8.0487    4.1161   -6.7277 C   0  0  1  0  0  0  0  0  0  0  0  0
   -7.9320    3.6144   -8.1152 N   0  3  0  0  0  0  0  0  0  0  0  0
   -7.3201    3.1856   -5.7229 C   0  0  1  0  0  0  0  0  0  0  0  0
   -7.2812    3.7442   -4.2578 C   0  0  1  0  0  0  0  0  0  0  0  0
   -6.3143    2.9671   -3.5014 O   0  0  0  0  0  0  0  0  0  0  0  0
   -6.8441    5.2531   -4.1778 C   0  0  1  0  0  0  0  0  0  0  0  0
   -7.5891    6.1355   -5.2311 C   0  0  1  0  0  0  0  0  0  0  0  0
   -7.0739    7.5196   -5.2588 N   0  3  0  0  0  0  0  0  0  0  0  0
   -7.4769    5.5473   -6.6557 C   0  0  0  0  0  0  0  0  0  0  0  0
   -6.3603    1.5119   -3.5577 C   0  0  1  0  0  0  0  0  0  0  0  0
   -4.9346    0.9781   -3.4845 C   0  0  1  0  0  0  0  0  0  0  0  0
   -4.6939    1.0668   -1.9836 C   0  0  1  0  0  0  0  0  0  0  0  0
   -6.0410    0.5873   -1.4246 C   0  0  2  0  0  0  0  0  0  0  0  0
   -7.0324    0.9962   -2.3969 O   0  0  0  0  0  0  0  0  0  0  0  0
   -6.3699    1.1899   -0.0469 C   0  0  0  0  0  0  0  0  0  0  0  0
   -2.1721    3.5105   -2.9015 C   0  0  1  0  0  0  0  0  0  0  0  0
   -2.4176    3.1805   -1.4027 C   0  0  1  0  0  0  0  0  0  0  0  0
   -1.8080    1.8248   -0.9427 C   0  0  2  0  0  0  0  0  0  0  0  0
   -2.2501    0.6585   -1.8841 C   0  0  1  0  0  0  0  0  0  0  0  0
   -3.5963    0.2050   -1.5657 O   0  0  0  0  0  0  0  0  0  0  0  0
   -1.4877    2.3130   -3.6281 C   0  0  1  0  0  0  0  0  0  0  0  0
   -2.1976    1.0727   -3.3051 O   0  0  0  0  0  0  0  0  0  0  0  0
   -1.4527    2.4956   -5.1673 C   0  0  0  0  0  0  0  0  0  0  0  0
  -11.2113    4.1755   -1.6344 N   0  3  0  0  0  0  0  0  0  0  0  0
   -4.9012   -0.3743   -3.9410 O   0  0  0  0  0  0  0  0  0  0  0  0
   -1.8503    4.2254   -0.6136 O   0  0  0  0  0  0  0  0  0  0  0  0
   -3.4311    3.8025   -3.5119 O   0  0  0  0  0  0  0  0  0  0  0  0
   -5.2454    1.1276    0.8135 O   0  0  0  0  0  0  0  0  0  0  0  0
   -7.9786    1.9194   -5.7098 O   0  0  0  0  0  0  0  0  0  0  0  0
   -1.2766    1.2237   -5.8919 N   0  3  0  0  0  0  0  0  0  0  0  0
   -2.1088    1.5519    0.4846 N   0  3  0  0  0  0  0  0  0  0  0  0
  1  2  1  1  0  0  0
  1  3  1  0  0  0  0
  1 10  1  0  0  0  0
  3  4  1  6  0  0  0
  3  5  1  0  0  0  0
  5  6  1  1  0  0  0
  5  7  1  0  0  0  0
  7  8  1  1  0  0  0
  7  9  1  0  0  0  0
  9 10  1  0  0  0  0
  9 11  1  6  0  0  0
 11 35  1  0  0  0  0
 12 13  1  6  0  0  0
 12 14  1  0  0  0  0
 12 20  1  0  0  0  0
 14 15  1  0  0  0  0
 14 40  1  1  0  0  0
 15 16  1  1  0  0  0
 15 17  1  0  0  0  0
 17  2  1  1  0  0  0
 17 18  1  0  0  0  0
 18 19  1  6  0  0  0
 18 20  1  0  0  0  0
 21 16  1  1  0  0  0
 21 22  1  0  0  0  0
 21 25  1  0  0  0  0
 22 23  1  0  0  0  0
 22 36  1  1  0  0  0
 23 24  1  0  0  0  0
 23 31  1  1  0  0  0
 24 25  1  0  0  0  0
 24 26  1  1  0  0  0
 26 39  1  0  0  0  0
 27 28  1  0  0  0  0
 27 32  1  0  0  0  0
 27 38  1  6  0  0  0
 28 29  1  0  0  0  0
 28 37  1  1  0  0  0
 29 30  1  0  0  0  0
 29 42  1  1  0  0  0
 30 31  1  1  0  0  0
 30 33  1  0  0  0  0
 32 33  1  0  0  0  0
 32 34  1  6  0  0  0
 34 41  1  0  0  0  0
M  CHG  6   4   1  13   1  19   1  35   1  41   1  42   1
M  END
>  <CHROM.1>
-135.51991215,-37.60886145,-60.13987866,56.76830827,-177.79289427,36.09205222
-70.02884093,77.89873244,-56.35826428,-48.59956498,145.27608328,-64.33852528
68.37815417,74.89245459,-45.66574377,-173.63352777,175.63509748,62.09736743
-58.56745873,74.78429859,-159.13722935,54.75587336,-6.07685222,3.41321496
-2.64009952,-3.04858734,0.58141649,-1.48233722

>  <Name>


>  <RI>
0

>  <Rbt.Current_Directory>
/home/itssahil/PROJECTS/Mol_Feturizer/New_Systems/rnas/1ei2

>  <Rbt.Executable>
rbdock ($Id: //depot/dev/client3/rdock/2013.1/src/exe/rbdock.cxx#4 $)

>  <Rbt.Library>
libRbt.so (2013.1, Build901 2013/11/27)

>  <Rbt.Parameter_File>
/export/apps/rDock/src/rDock_2013.1_src/data/scripts/dock_solv.prm

>  <Rbt.Receptor>
prm/pocket_docking_5.prm

>  <SCORE>
-39.0964

>  <SCORE.INTER>
-24.4528

>  <SCORE.INTER.CONST>
1

>  <SCORE.INTER.POLAR>
-3.56915

>  <SCORE.INTER.ROT>
9

>  <SCORE.INTER.SOLV>
19.9448

>  <SCORE.INTER.VDW>
-20.653

>  <SCORE.INTER.norm>
-0.58221

>  <SCORE.INTRA>
-14.6436

>  <SCORE.INTRA.DIHEDRAL>
-18.8621

>  <SCORE.INTRA.DIHEDRAL.0>
40.8761

>  <SCORE.INTRA.POLAR>
-1.13458

>  <SCORE.INTRA.POLAR.0>
-0.0268208

>  <SCORE.INTRA.REPUL>
0.103304

>  <SCORE.INTRA.REPUL.0>
0.641615

>  <SCORE.INTRA.SOLV>
-2.68165

>  <SCORE.INTRA.SOLV.lig_0>
-162.567

>  <SCORE.INTRA.VDW>
-0.530714

>  <SCORE.INTRA.VDW.0>
-4.80338

>  <SCORE.INTRA.norm>
-0.348657

>  <SCORE.RESTR>
0

>  <SCORE.RESTR.CAVITY>
0

>  <SCORE.RESTR.norm>
0

>  <SCORE.SYSTEM>
0

>  <SCORE.SYSTEM.CONST>
0

>  <SCORE.SYSTEM.DIHEDRAL>
0

>  <SCORE.SYSTEM.SOLV>
0

>  <SCORE.SYSTEM.norm>
0

>  <SCORE.heavy>
42

>  <SCORE.norm>
-0.930868

>  <RMSD>
5.717

$$$$

 OpenBabel11021811393D
libRbt.so/2013.1/901 2013/11/27
 42 45  0  0  0  0  0  0  0  0999 V2000
   -2.6599    4.1086    2.2019 C   0  0  2  0  0  0  0  0  0  0  0  0
   -2.9608    5.3734    1.5360 O   0  0  0  0  0  0  0  0  0  0  0  0
   -1.6930    3.2246    1.3490 C   0  0  2  0  0  0  0  0  0  0  0  0
   -1.0461    4.0061    0.2702 N   0  3  0  0  0  0  0  0  0  0  0  0
   -2.4484    1.9966    0.7569 C   0  0  1  0  0  0  0  0  0  0  0  0
   -1.5544    1.1929   -0.0101 O   0  0  0  0  0  0  0  0  0  0  0  0
   -3.0732    1.1129    1.8697 C   0  0  2  0  0  0  0  0  0  0  0  0
   -3.9772    0.1926    1.2686 O   0  0  0  0  0  0  0  0  0  0  0  0
   -3.8212    1.9826    2.9316 C   0  0  2  0  0  0  0  0  0  0  0  0
   -3.9009    3.3731    2.4782 O   0  0  0  0  0  0  0  0  0  0  0  0
   -3.1495    2.0135    4.3237 C   0  0  0  0  0  0  0  0  0  0  0  0
   -5.5726    6.8467    4.6389 C   0  0  1  0  0  0  0  0  0  0  0  0
   -6.3918    7.7292    5.4993 N   0  3  0  0  0  0  0  0  0  0  0  0
   -6.1902    6.6986    3.2236 C   0  0  1  0  0  0  0  0  0  0  0  0
   -5.2889    5.8970    2.2212 C   0  0  1  0  0  0  0  0  0  0  0  0
   -5.8066    6.1047    0.8796 O   0  0  0  0  0  0  0  0  0  0  0  0
   -3.7859    6.3609    2.2269 C   0  0  1  0  0  0  0  0  0  0  0  0
   -3.2275    6.5204    3.6780 C   0  0  1  0  0  0  0  0  0  0  0  0
   -1.8677    7.0973    3.6886 N   0  3  0  0  0  0  0  0  0  0  0  0
   -4.1398    7.4123    4.5499 C   0  0  0  0  0  0  0  0  0  0  0  0
   -7.1700    5.6987    0.5648 C   0  0  1  0  0  0  0  0  0  0  0  0
   -7.4592    6.0551   -0.8885 C   0  0  1  0  0  0  0  0  0  0  0  0
   -6.7840    4.8839   -1.5891 C   0  0  1  0  0  0  0  0  0  0  0  0
   -7.1782    3.7102   -0.6812 C   0  0  2  0  0  0  0  0  0  0  0  0
   -7.2890    4.2692    0.6496 O   0  0  0  0  0  0  0  0  0  0  0  0
   -6.1466    2.5678   -0.6919 C   0  0  0  0  0  0  0  0  0  0  0  0
   -5.6965    2.9609   -5.9715 C   0  0  1  0  0  0  0  0  0  0  0  0
   -7.1123    3.6016   -5.9475 C   0  0  1  0  0  0  0  0  0  0  0  0
   -7.1399    5.0612   -5.4091 C   0  0  2  0  0  0  0  0  0  0  0  0
   -6.4208    5.1664   -4.0257 C   0  0  1  0  0  0  0  0  0  0  0  0
   -7.2847    4.7110   -2.9461 O   0  0  0  0  0  0  0  0  0  0  0  0
   -4.6502    3.9027   -5.3017 C   0  0  1  0  0  0  0  0  0  0  0  0
   -5.1684    4.3757   -4.0155 O   0  0  0  0  0  0  0  0  0  0  0  0
   -3.2838    3.2054   -5.0767 C   0  0  0  0  0  0  0  0  0  0  0  0
   -3.9232    2.7226    5.3580 N   0  3  0  0  0  0  0  0  0  0  0  0
   -8.8691    6.0575   -1.1139 O   0  0  0  0  0  0  0  0  0  0  0  0
   -7.6302    3.5975   -7.2772 O   0  0  0  0  0  0  0  0  0  0  0  0
   -5.7531    1.7137   -5.2757 O   0  0  0  0  0  0  0  0  0  0  0  0
   -4.8551    3.0499   -0.3629 O   0  0  0  0  0  0  0  0  0  0  0  0
   -7.4468    6.0316    3.3391 O   0  0  0  0  0  0  0  0  0  0  0  0
   -2.2330    3.6956   -5.9874 N   0  3  0  0  0  0  0  0  0  0  0  0
   -8.5220    5.6008   -5.3767 N   0  3  0  0  0  0  0  0  0  0  0  0
  1  2  1  6  0  0  0
  1  3  1  0  0  0  0
  1 10  1  0  0  0  0
  3  4  1  6  0  0  0
  3  5  1  0  0  0  0
  5  6  1  1  0  0  0
  5  7  1  0  0  0  0
  7  8  1  6  0  0  0
  7  9  1  0  0  0  0
  9 10  1  0  0  0  0
  9 11  1  1  0  0  0
 11 35  1  0  0  0  0
 12 13  1  1  0  0  0
 12 14  1  0  0  0  0
 12 20  1  0  0  0  0
 14 15  1  0  0  0  0
 14 40  1  1  0  0  0
 15 16  1  6  0  0  0
 15 17  1  0  0  0  0
 17  2  1  6  0  0  0
 17 18  1  0  0  0  0
 18 19  1  6  0  0  0
 18 20  1  0  0  0  0
 21 16  1  6  0  0  0
 21 22  1  0  0  0  0
 21 25  1  0  0  0  0
 22 23  1  0  0  0  0
 22 36  1  1  0  0  0
 23 24  1  0  0  0  0
 23 31  1  6  0  0  0
 24 25  1  0  0  0  0
 24 26  1  1  0  0  0
 26 39  1  0  0  0  0
 27 28  1  0  0  0  0
 27 32  1  0  0  0  0
 27 38  1  1  0  0  0
 28 29  1  0  0  0  0
 28 37  1  6  0  0  0
 29 30  1  0  0  0  0
 29 42  1  1  0  0  0
 30 31  1  1  0  0  0
 30 33  1  0  0  0  0
 32 33  1  0  0  0  0
 32 34  1  1  0  0  0
 34 41  1  0  0  0  0
M  CHG  6   4   1  13   1  19   1  35   1  41   1  42   1
M  END
>  <CHROM.1>
-176.30416923,-74.36975870,-144.07308197,58.35673603,41.40030066,-174.25877173
-40.59233093,179.09060950,72.23482434,-60.15806172,178.85940425,177.32304784
-50.88195174,103.82671815,54.75516112,70.36793392,-60.86590682,177.00726451
-65.37754092,-173.97445453,108.14768021,35.17003564,-5.01347936,4.31932724
-0.21325764,-1.27256068,0.66401074,-1.88884841

>  <Name>


>  <RI>
0

>  <Rbt.Current_Directory>
/home/itssahil/PROJECTS/Mol_Feturizer/New_Systems/rnas/1ei2

>  <Rbt.Executable>
rbdock ($Id: //depot/dev/client3/rdock/2013.1/src/exe/rbdock.cxx#4 $)

>  <Rbt.Library>
libRbt.so (2013.1, Build901 2013/11/27)

>  <Rbt.Parameter_File>
/export/apps/rDock/src/rDock_2013.1_src/data/scripts/dock_solv.prm

>  <Rbt.Receptor>
prm/pocket_docking_7.prm

>  <SCORE>
-44.2067

>  <SCORE.INTER>
-20.2506

>  <SCORE.INTER.CONST>
1

>  <SCORE.INTER.POLAR>
-4.45411

>  <SCORE.INTER.ROT>
9

>  <SCORE.INTER.SOLV>
19.3468

>  <SCORE.INTER.VDW>
-14.7023

>  <SCORE.INTER.norm>
-0.482157

>  <SCORE.INTRA>
-23.9561

>  <SCORE.INTRA.DIHEDRAL>
-20.1123

>  <SCORE.INTRA.DIHEDRAL.0>
40.8761

>  <SCORE.INTRA.POLAR>
-1.31142

>  <SCORE.INTRA.POLAR.0>
-0.0268208

>  <SCORE.INTRA.REPUL>
-0.641615

>  <SCORE.INTRA.REPUL.0>
0.641615

>  <SCORE.INTRA.SOLV>
-10.5756

>  <SCORE.INTRA.SOLV.lig_0>
-162.567

>  <SCORE.INTRA.VDW>
-0.945194

>  <SCORE.INTRA.VDW.0>
-4.80338

>  <SCORE.INTRA.norm>
-0.570382

>  <SCORE.RESTR>
0

>  <SCORE.RESTR.CAVITY>
0

>  <SCORE.RESTR.norm>
0

>  <SCORE.SYSTEM>
0

>  <SCORE.SYSTEM.CONST>
0

>  <SCORE.SYSTEM.DIHEDRAL>
0

>  <SCORE.SYSTEM.SOLV>
0

>  <SCORE.SYSTEM.norm>
0

>  <SCORE.heavy>
42

>  <SCORE.norm>
-1.05254

>  <RMSD>
5.730

$$$$

 OpenBabel11021811393D
libRbt.so/2013.1/901 2013/11/27
 42 45  0  0  0  0  0  0  0  0999 V2000
   -4.0273    4.0883    2.7680 C   0  0  2  0  0  0  0  0  0  0  0  0
   -3.6010    5.1269    1.8334 O   0  0  0  0  0  0  0  0  0  0  0  0
   -3.2496    4.1771    4.1212 C   0  0  2  0  0  0  0  0  0  0  0  0
   -2.5458    5.4722    4.2635 N   0  3  0  0  0  0  0  0  0  0  0  0
   -2.2469    2.9919    4.2584 C   0  0  1  0  0  0  0  0  0  0  0  0
   -1.5514    3.0779    5.5003 O   0  0  0  0  0  0  0  0  0  0  0  0
   -2.9659    1.6179    4.1912 C   0  0  2  0  0  0  0  0  0  0  0  0
   -1.9871    0.5973    4.0298 O   0  0  0  0  0  0  0  0  0  0  0  0
   -3.9892    1.5702    3.0104 C   0  0  2  0  0  0  0  0  0  0  0  0
   -3.8429    2.7600    2.1688 O   0  0  0  0  0  0  0  0  0  0  0  0
   -5.4713    1.5224    3.4476 C   0  0  0  0  0  0  0  0  0  0  0  0
   -7.1406    4.8974   -0.6240 C   0  0  1  0  0  0  0  0  0  0  0  0
   -8.1786    5.1768   -1.6413 N   0  3  0  0  0  0  0  0  0  0  0  0
   -5.8101    4.4419   -1.2785 C   0  0  1  0  0  0  0  0  0  0  0  0
   -4.6288    4.2760   -0.2602 C   0  0  1  0  0  0  0  0  0  0  0  0
   -3.3911    4.1719   -1.0141 O   0  0  0  0  0  0  0  0  0  0  0  0
   -4.4822    5.4917    0.7271 C   0  0  1  0  0  0  0  0  0  0  0  0
   -5.8569    5.9239    1.3324 C   0  0  1  0  0  0  0  0  0  0  0  0
   -5.7442    7.1548    2.1412 N   0  3  0  0  0  0  0  0  0  0  0  0
   -6.9191    6.1598    0.2351 C   0  0  0  0  0  0  0  0  0  0  0  0
   -2.4487    3.1048   -0.7042 C   0  0  1  0  0  0  0  0  0  0  0  0
   -3.1866    1.7727   -0.7657 C   0  0  1  0  0  0  0  0  0  0  0  0
   -3.1925    1.5409   -2.2706 C   0  0  1  0  0  0  0  0  0  0  0  0
   -1.7783    1.9944   -2.6599 C   0  0  2  0  0  0  0  0  0  0  0  0
   -1.4321    3.0375   -1.7176 O   0  0  0  0  0  0  0  0  0  0  0  0
   -1.6933    2.5315   -4.0999 C   0  0  0  0  0  0  0  0  0  0  0  0
   -3.6664   -0.8737   -6.2902 C   0  0  1  0  0  0  0  0  0  0  0  0
   -3.4937   -1.8582   -5.1001 C   0  0  1  0  0  0  0  0  0  0  0  0
   -4.5158   -1.6455   -3.9463 C   0  0  2  0  0  0  0  0  0  0  0  0
   -4.5387   -0.1541   -3.4802 C   0  0  1  0  0  0  0  0  0  0  0  0
   -3.4206    0.1393   -2.5954 O   0  0  0  0  0  0  0  0  0  0  0  0
   -4.7485    0.2012   -5.9682 C   0  0  1  0  0  0  0  0  0  0  0  0
   -4.4984    0.7665   -4.6398 O   0  0  0  0  0  0  0  0  0  0  0  0
   -4.7762    1.3459   -7.0136 C   0  0  0  0  0  0  0  0  0  0  0  0
   -5.7562    2.2210    4.7133 N   0  3  0  0  0  0  0  0  0  0  0  0
   -2.4314    0.7704   -0.0847 O   0  0  0  0  0  0  0  0  0  0  0  0
   -3.6357   -3.1896   -5.5938 O   0  0  0  0  0  0  0  0  0  0  0  0
   -2.4077   -0.2452   -6.5429 O   0  0  0  0  0  0  0  0  0  0  0  0
   -0.4001    2.3239   -4.6412 O   0  0  0  0  0  0  0  0  0  0  0  0
   -6.0254    3.1919   -1.9332 O   0  0  0  0  0  0  0  0  0  0  0  0
   -3.7002    2.3335   -6.8112 N   0  3  0  0  0  0  0  0  0  0  0  0
   -4.2742   -2.5898   -2.8274 N   0  3  0  0  0  0  0  0  0  0  0  0
  1  2  1  6  0  0  0
  1  3  1  0  0  0  0
  1 10  1  0  0  0  0
  3  4  1  6  0  0  0
  3  5  1  0  0  0  0
  5  6  1  1  0  0  0
  5  7  1  0  0  0  0
  7  8  1  6  0  0  0
  7  9  1  0  0  0  0
  9 10  1  0  0  0  0
  9 11  1  1  0  0  0
 11 35  1  0  0  0  0
 12 13  1  6  0  0  0
 12 14  1  0  0  0  0
 12 20  1  0  0  0  0
 14 15  1  0  0  0  0
 14 40  1  1  0  0  0
 15 16  1  6  0  0  0
 15 17  1  0  0  0  0
 17  2  1  1  0  0  0
 17 18  1  0  0  0  0
 18 19  1  6  0  0  0
 18 20  1  0  0  0  0
 21 16  1  6  0  0  0
 21 22  1  0  0  0  0
 21 25  1  0  0  0  0
 22 23  1  0  0  0  0
 22 36  1  1  0  0  0
 23 24  1  0  0  0  0
 23 31  1  1  0  0  0
 24 25  1  0  0  0  0
 24 26  1  6  0  0  0
 26 39  1  0  0  0  0
 27 28  1  0  0  0  0
 27 32  1  0  0  0  0
 27 38  1  1  0  0  0
 28 29  1  0  0  0  0
 28 37  1  6  0  0  0
 29 30  1  0  0  0  0
 29 42  1  1  0  0  0
 30 31  1  1  0  0  0
 30 33  1  0  0  0  0
 32 33  1  0  0  0  0
 32 34  1  6  0  0  0
 34 41  1  0  0  0  0
M  CHG  6   4   1  13   1  19   1  35   1  41   1  42   1
M  END
>  <CHROM.1>
-159.80438237,-65.59855933,-1.24744590,71.70966248,-177.42407200,31.23827271
62.60046692,-54.42158540,-67.40026297,-131.59817720,53.90058317,53.59731899
179.68417561,124.38738676,-151.35639026,-39.96804386,163.75415131,60.43042906
-36.15693051,169.87815975,-78.82653094,93.30041713,-3.87382711,2.30916635
-0.84733862,1.66321791,-1.02079829,1.20312139

>  <Name>


>  <RI>
0

>  <Rbt.Current_Directory>
/home/itssahil/PROJECTS/Mol_Feturizer/New_Systems/rnas/1ei2

>  <Rbt.Executable>
rbdock ($Id: //depot/dev/client3/rdock/2013.1/src/exe/rbdock.cxx#4 $)

>  <Rbt.Library>
libRbt.so (2013.1, Build901 2013/11/27)

>  <Rbt.Parameter_File>
/export/apps/rDock/src/rDock_2013.1_src/data/scripts/dock_solv.prm

>  <Rbt.Receptor>
prm/pocket_docking_5.prm

>  <SCORE>
-41.4762

>  <SCORE.INTER>
-30.672

>  <SCORE.INTER.CONST>
1

>  <SCORE.INTER.POLAR>
-4.92713

>  <SCORE.INTER.ROT>
9

>  <SCORE.INTER.SOLV>
23.0271

>  <SCORE.INTER.VDW>
-21.2999

>  <SCORE.INTER.norm>
-0.730286

>  <SCORE.INTRA>
-10.9288

>  <SCORE.INTRA.DIHEDRAL>
-6.6139

>  <SCORE.INTRA.DIHEDRAL.0>
40.8761

>  <SCORE.INTRA.POLAR>
-0.656306

>  <SCORE.INTRA.POLAR.0>
-0.0268208

>  <SCORE.INTRA.REPUL>
-0.515228

>  <SCORE.INTRA.REPUL.0>
0.641615

>  <SCORE.INTRA.SOLV>
-4.23032

>  <SCORE.INTRA.SOLV.lig_0>
-162.567

>  <SCORE.INTRA.VDW>
-0.699072

>  <SCORE.INTRA.VDW.0>
-4.80338

>  <SCORE.INTRA.norm>
-0.260209

>  <SCORE.RESTR>
0.124602

>  <SCORE.RESTR.CAVITY>
0.124602

>  <SCORE.RESTR.norm>
0.0029667

>  <SCORE.SYSTEM>
0

>  <SCORE.SYSTEM.CONST>
0

>  <SCORE.SYSTEM.DIHEDRAL>
0

>  <SCORE.SYSTEM.SOLV>
0

>  <SCORE.SYSTEM.norm>
0

>  <SCORE.heavy>
42

>  <SCORE.norm>
-0.987528

>  <RMSD>
5.740

$$$$

 OpenBabel11021811393D
libRbt.so/2013.1/901 2013/11/27
 42 45  0  0  0  0  0  0  0  0999 V2000
   -8.4681    4.5425   -1.2027 C   0  0  2  0  0  0  0  0  0  0  0  0
   -8.2645    4.0199    0.1460 O   0  0  0  0  0  0  0  0  0  0  0  0
   -8.6179    3.3914   -2.2497 C   0  0  2  0  0  0  0  0  0  0  0  0
   -8.8709    2.0869   -1.5958 N   0  3  0  0  0  0  0  0  0  0  0  0
   -7.3572    3.3101   -3.1623 C   0  0  1  0  0  0  0  0  0  0  0  0
   -7.5098    2.2639   -4.1192 O   0  0  0  0  0  0  0  0  0  0  0  0
   -7.1095    4.6404   -3.9229 C   0  0  2  0  0  0  0  0  0  0  0  0
   -5.8085    4.6020   -4.4988 O   0  0  0  0  0  0  0  0  0  0  0  0
   -7.2367    5.8717   -2.9684 C   0  0  2  0  0  0  0  0  0  0  0  0
   -7.3540    5.4223   -1.5793 O   0  0  0  0  0  0  0  0  0  0  0  0
   -8.4635    6.7718   -3.2427 C   0  0  0  0  0  0  0  0  0  0  0  0
   -8.5463    7.8539    2.1058 C   0  0  1  0  0  0  0  0  0  0  0  0
   -8.5750    8.9218    3.1301 N   0  3  0  0  0  0  0  0  0  0  0  0
   -7.1223    7.2612    1.9412 C   0  0  1  0  0  0  0  0  0  0  0  0
   -7.0596    6.0245    0.9786 C   0  0  1  0  0  0  0  0  0  0  0  0
   -5.7735    5.3732    1.1597 O   0  0  0  0  0  0  0  0  0  0  0  0
   -8.1774    4.9553    1.2644 C   0  0  1  0  0  0  0  0  0  0  0  0
   -9.5832    5.6127    1.4495 C   0  0  1  0  0  0  0  0  0  0  0  0
  -10.6048    4.6296    1.8642 N   0  3  0  0  0  0  0  0  0  0  0  0
   -9.5523    6.7506    2.4946 C   0  0  0  0  0  0  0  0  0  0  0  0
   -5.1757    5.3201    2.4873 C   0  0  1  0  0  0  0  0  0  0  0  0
   -4.5146    3.9588    2.6678 C   0  0  1  0  0  0  0  0  0  0  0  0
   -3.2093    4.1957    1.9204 C   0  0  1  0  0  0  0  0  0  0  0  0
   -2.8516    5.6211    2.3648 C   0  0  2  0  0  0  0  0  0  0  0  0
   -4.1174    6.2869    2.5887 O   0  0  0  0  0  0  0  0  0  0  0  0
   -2.0268    6.3894    1.3167 C   0  0  0  0  0  0  0  0  0  0  0  0
   -3.6269    1.7969   -0.9453 C   0  0  1  0  0  0  0  0  0  0  0  0
   -2.1620    2.2769   -0.7478 C   0  0  1  0  0  0  0  0  0  0  0  0
   -1.4606    1.6774    0.5051 C   0  0  2  0  0  0  0  0  0  0  0  0
   -2.3271    1.8820    1.7893 C   0  0  1  0  0  0  0  0  0  0  0  0
   -2.1870    3.2340    2.3104 O   0  0  0  0  0  0  0  0  0  0  0  0
   -4.0936    0.9288    0.2626 C   0  0  1  0  0  0  0  0  0  0  0  0
   -3.7570    1.6100    1.5153 O   0  0  0  0  0  0  0  0  0  0  0  0
   -5.6167    0.6401    0.2313 C   0  0  0  0  0  0  0  0  0  0  0  0
   -8.6020    7.9112   -2.3186 N   0  3  0  0  0  0  0  0  0  0  0  0
   -4.2859    3.7131    4.0555 O   0  0  0  0  0  0  0  0  0  0  0  0
   -1.4106    1.9160   -1.9060 O   0  0  0  0  0  0  0  0  0  0  0  0
   -4.4652    2.9469   -1.0784 O   0  0  0  0  0  0  0  0  0  0  0  0
   -2.7107    6.4444    0.0766 O   0  0  0  0  0  0  0  0  0  0  0  0
   -6.2583    8.2775    1.4332 O   0  0  0  0  0  0  0  0  0  0  0  0
   -5.9961   -0.3246   -0.8172 N   0  3  0  0  0  0  0  0  0  0  0  0
   -0.0811    2.2029    0.6573 N   0  3  0  0  0  0  0  0  0  0  0  0
  1  2  1  1  0  0  0
  1  3  1  0  0  0  0
  1 10  1  0  0  0  0
  3  4  1  1  0  0  0
  3  5  1  0  0  0  0
  5  6  1  6  0  0  0
  5  7  1  0  0  0  0
  7  8  1  1  0  0  0
  7  9  1  0  0  0  0
  9 10  1  0  0  0  0
  9 11  1  6  0  0  0
 11 35  1  0  0  0  0
 12 13  1  1  0  0  0
 12 14  1  0  0  0  0
 12 20  1  0  0  0  0
 14 15  1  0  0  0  0
 14 40  1  6  0  0  0
 15 16  1  1  0  0  0
 15 17  1  0  0  0  0
 17  2  1  6  0  0  0
 17 18  1  0  0  0  0
 18 19  1  1  0  0  0
 18 20  1  0  0  0  0
 21 16  1  6  0  0  0
 21 22  1  0  0  0  0
 21 25  1  0  0  0  0
 22 23  1  0  0  0  0
 22 36  1  1  0  0  0
 23 24  1  0  0  0  0
 23 31  1  1  0  0  0
 24 25  1  0  0  0  0
 24 26  1  6  0  0  0
 26 39  1  0  0  0  0
 27 28  1  0  0  0  0
 27 32  1  0  0  0  0
 27 38  1  1  0  0  0
 28 29  1  0  0  0  0
 28 37  1  6  0  0  0
 29 30  1  0  0  0  0
 29 42  1  1  0  0  0
 30 31  1  6  0  0  0
 30 33  1  0  0  0  0
 32 33  1  0  0  0  0
 32 34  1  6  0  0  0
 34 41  1  0  0  0  0
M  CHG  6   4   1  13   1  19   1  35   1  41   1  42   1
M  END
>  <CHROM.1>
-176.69447183,-54.58083424,-57.58487651,56.49882215,175.58303720,178.40703167
49.22072275,52.32253037,173.70187213,36.05730771,141.13144138,60.36144667
-173.49720992,74.88955352,56.93056179,-174.96142668,-168.13903772,63.58002514
43.68985567,96.38283655,72.34213826,-41.66910450,-5.73291895,4.35865378,0.13013785
2.87224956,-0.49975134,0.88189615

>  <Name>


>  <RI>
0

>  <Rbt.Current_Directory>
/home/itssahil/PROJECTS/Mol_Feturizer/New_Systems/rnas/1ei2

>  <Rbt.Executable>
rbdock ($Id: //depot/dev/client3/rdock/2013.1/src/exe/rbdock.cxx#4 $)

>  <Rbt.Library>
libRbt.so (2013.1, Build901 2013/11/27)

>  <Rbt.Parameter_File>
/export/apps/rDock/src/rDock_2013.1_src/data/scripts/dock_solv.prm

>  <Rbt.Receptor>
prm/pocket_docking_5.prm

>  <SCORE>
-48.1108

>  <SCORE.INTER>
-29.8049

>  <SCORE.INTER.CONST>
1

>  <SCORE.INTER.POLAR>
-5.69949

>  <SCORE.INTER.ROT>
9

>  <SCORE.INTER.SOLV>
22.1255

>  <SCORE.INTER.VDW>
-17.8468

>  <SCORE.INTER.norm>
-0.70964

>  <SCORE.INTRA>
-18.3059

>  <SCORE.INTRA.DIHEDRAL>
-22.6813

>  <SCORE.INTRA.DIHEDRAL.0>
40.8761

>  <SCORE.INTRA.POLAR>
-0.3255

>  <SCORE.INTRA.POLAR.0>
-0.0268208

>  <SCORE.INTRA.REPUL>
-0.261357

>  <SCORE.INTRA.REPUL.0>
0.641615

>  <SCORE.INTRA.SOLV>
-8.13502

>  <SCORE.INTRA.SOLV.lig_0>
-162.567

>  <SCORE.INTRA.VDW>
-0.484264

>  <SCORE.INTRA.VDW.0>
-4.80338

>  <SCORE.INTRA.norm>
-0.435855

>  <SCORE.RESTR>
0

>  <SCORE.RESTR.CAVITY>
0

>  <SCORE.RESTR.norm>
0

>  <SCORE.SYSTEM>
0

>  <SCORE.SYSTEM.CONST>
0

>  <SCORE.SYSTEM.DIHEDRAL>
0

>  <SCORE.SYSTEM.SOLV>
0

>  <SCORE.SYSTEM.norm>
0

>  <SCORE.heavy>
42

>  <SCORE.norm>
-1.14549

>  <RMSD>
5.786

$$$$

 OpenBabel11021811393D
libRbt.so/2013.1/901 2013/11/27
 42 45  0  0  0  0  0  0  0  0999 V2000
   -5.6774    4.1894    1.5792 C   0  0  2  0  0  0  0  0  0  0  0  0
   -7.0945    3.8388    1.6300 O   0  0  0  0  0  0  0  0  0  0  0  0
   -5.0372    4.2071    3.0053 C   0  0  2  0  0  0  0  0  0  0  0  0
   -5.9020    3.5341    4.0013 N   0  3  0  0  0  0  0  0  0  0  0  0
   -4.7251    5.6678    3.4502 C   0  0  1  0  0  0  0  0  0  0  0  0
   -4.1326    5.6704    4.7473 O   0  0  0  0  0  0  0  0  0  0  0  0
   -3.7568    6.3760    2.4653 C   0  0  2  0  0  0  0  0  0  0  0  0
   -3.7437    7.7685    2.7592 O   0  0  0  0  0  0  0  0  0  0  0  0
   -4.1890    6.1458    0.9808 C   0  0  2  0  0  0  0  0  0  0  0  0
   -5.5011    5.4966    0.9331 O   0  0  0  0  0  0  0  0  0  0  0  0
   -3.2279    5.2517    0.1641 C   0  0  0  0  0  0  0  0  0  0  0  0
  -10.8211    4.6672   -0.3814 C   0  0  1  0  0  0  0  0  0  0  0  0
  -11.8270    5.0613   -1.3929 N   0  3  0  0  0  0  0  0  0  0  0  0
  -10.0896    3.3603   -0.7853 C   0  0  1  0  0  0  0  0  0  0  0  0
   -8.9090    2.9746    0.1725 C   0  0  1  0  0  0  0  0  0  0  0  0
   -8.1148    1.9462   -0.4774 O   0  0  0  0  0  0  0  0  0  0  0  0
   -7.9513    4.1794    0.4972 C   0  0  1  0  0  0  0  0  0  0  0  0
   -8.7439    5.4743    0.8687 C   0  0  1  0  0  0  0  0  0  0  0  0
   -7.8541    6.6425    1.0281 N   0  3  0  0  0  0  0  0  0  0  0  0
   -9.8117    5.8190   -0.1938 C   0  0  0  0  0  0  0  0  0  0  0  0
   -8.2495    1.7342   -1.9126 C   0  0  1  0  0  0  0  0  0  0  0  0
   -7.1194    2.4723   -2.6204 C   0  0  1  0  0  0  0  0  0  0  0  0
   -5.9857    1.4753   -2.4231 C   0  0  1  0  0  0  0  0  0  0  0  0
   -6.7018    0.1391   -2.6658 C   0  0  2  0  0  0  0  0  0  0  0  0
   -8.0650    0.3434   -2.2234 O   0  0  0  0  0  0  0  0  0  0  0  0
   -6.0655   -1.0334   -1.8979 C   0  0  0  0  0  0  0  0  0  0  0  0
   -1.3307    1.6052   -4.7688 C   0  0  1  0  0  0  0  0  0  0  0  0
   -1.7197    2.0091   -3.3193 C   0  0  1  0  0  0  0  0  0  0  0  0
   -2.6482    0.9867   -2.6025 C   0  0  2  0  0  0  0  0  0  0  0  0
   -3.8985    0.6498   -3.4771 C   0  0  1  0  0  0  0  0  0  0  0  0
   -4.9082    1.6939   -3.3787 O   0  0  0  0  0  0  0  0  0  0  0  0
   -2.0972    0.3219   -5.2114 C   0  0  1  0  0  0  0  0  0  0  0  0
   -3.5209    0.4681   -4.8977 O   0  0  0  0  0  0  0  0  0  0  0  0
   -1.9352    0.0275   -6.7250 C   0  0  0  0  0  0  0  0  0  0  0  0
   -1.8193    5.6831    0.1961 N   0  3  0  0  0  0  0  0  0  0  0  0
   -7.4394    2.6343   -4.0024 O   0  0  0  0  0  0  0  0  0  0  0  0
   -0.5227    2.1499   -2.5553 O   0  0  0  0  0  0  0  0  0  0  0  0
   -1.6461    2.6928   -5.6409 O   0  0  0  0  0  0  0  0  0  0  0  0
   -6.9926   -2.0927   -1.7339 O   0  0  0  0  0  0  0  0  0  0  0  0
  -11.0344    2.2905   -0.7966 O   0  0  0  0  0  0  0  0  0  0  0  0
   -2.4907   -1.2807   -7.1175 N   0  3  0  0  0  0  0  0  0  0  0  0
   -3.0121    1.4479   -1.2397 N   0  3  0  0  0  0  0  0  0  0  0  0
  1  2  1  1  0  0  0
  1  3  1  0  0  0  0
  1 10  1  0  0  0  0
  3  4  1  1  0  0  0
  3  5  1  0  0  0  0
  5  6  1  1  0  0  0
  5  7  1  0  0  0  0
  7  8  1  1  0  0  0
  7  9  1  0  0  0  0
  9 10  1  0  0  0  0
  9 11  1  1  0  0  0
 11 35  1  0  0  0  0
 12 13  1  6  0  0  0
 12 14  1  0  0  0  0
 12 20  1  0  0  0  0
 14 15  1  0  0  0  0
 14 40  1  1  0  0  0
 15 16  1  6  0  0  0
 15 17  1  0  0  0  0
 17  2  1  1  0  0  0
 17 18  1  0  0  0  0
 18 19  1  6  0  0  0
 18 20  1  0  0  0  0
 21 16  1  1  0  0  0
 21 22  1  0  0  0  0
 21 25  1  0  0  0  0
 22 23  1  0  0  0  0
 22 36  1  6  0  0  0
 23 24  1  0  0  0  0
 23 31  1  6  0  0  0
 24 25  1  0  0  0  0
 24 26  1  1  0  0  0
 26 39  1  0  0  0  0
 27 28  1  0  0  0  0
 27 32  1  0  0  0  0
 27 38  1  6  0  0  0
 28 29  1  0  0  0  0
 28 37  1  1  0  0  0
 29 30  1  0  0  0  0
 29 42  1  1  0  0  0
 30 31  1  6  0  0  0
 30 33  1  0  0  0  0
 32 33  1  0  0  0  0
 32 34  1  6  0  0  0
 34 41  1  0  0  0  0
M  CHG  6   4   1  13   1  19   1  35   1  41   1  42   1
M  END
>  <CHROM.1>
160.53760483,137.14315018,-36.93010192,-177.72358591,-150.85618674,-52.90638644
172.94267715,60.78159859,176.12181536,17.22619827,97.88979447,12.24650684
62.35078307,-167.84022148,158.11265882,-162.25934324,-177.25683438,47.71702685
-62.42530175,-96.48491980,171.75939628,107.08640640,-5.60887687,2.97176867
-1.09524656,-2.05799020,-0.08900160,-2.26175518

>  <Name>


>  <RI>
0

>  <Rbt.Current_Directory>
/home/itssahil/PROJECTS/Mol_Feturizer/New_Systems/rnas/1ei2

>  <Rbt.Executable>
rbdock ($Id: //depot/dev/client3/rdock/2013.1/src/exe/rbdock.cxx#4 $)

>  <Rbt.Library>
libRbt.so (2013.1, Build901 2013/11/27)

>  <Rbt.Parameter_File>
/export/apps/rDock/src/rDock_2013.1_src/data/scripts/dock_solv.prm

>  <Rbt.Receptor>
prm/pocket_docking_7.prm

>  <SCORE>
-44.6588

>  <SCORE.INTER>
-35.7368

>  <SCORE.INTER.CONST>
1

>  <SCORE.INTER.POLAR>
-5.34503

>  <SCORE.INTER.ROT>
9

>  <SCORE.INTER.SOLV>
24.6479

>  <SCORE.INTER.VDW>
-23.8237

>  <SCORE.INTER.norm>
-0.850875

>  <SCORE.INTRA>
-8.92204

>  <SCORE.INTRA.DIHEDRAL>
-0.736535

>  <SCORE.INTRA.DIHEDRAL.0>
40.8761

>  <SCORE.INTRA.POLAR>
-1.24838

>  <SCORE.INTRA.POLAR.0>
-0.0268208

>  <SCORE.INTRA.REPUL>
-0.641615

>  <SCORE.INTRA.REPUL.0>
0.641615

>  <SCORE.INTRA.SOLV>
-9.73451

>  <SCORE.INTRA.SOLV.lig_0>
-162.567

>  <SCORE.INTRA.VDW>
3.76605

>  <SCORE.INTRA.VDW.0>
-4.80338

>  <SCORE.INTRA.norm>
-0.212429

>  <SCORE.RESTR>
0

>  <SCORE.RESTR.CAVITY>
0

>  <SCORE.RESTR.norm>
0

>  <SCORE.SYSTEM>
0

>  <SCORE.SYSTEM.CONST>
0

>  <SCORE.SYSTEM.DIHEDRAL>
0

>  <SCORE.SYSTEM.SOLV>
0

>  <SCORE.SYSTEM.norm>
0

>  <SCORE.heavy>
42

>  <SCORE.norm>
-1.0633

>  <RMSD>
5.788

$$$$

 OpenBabel11021811393D
libRbt.so/2013.1/901 2013/11/27
 42 45  0  0  0  0  0  0  0  0999 V2000
   -8.5845    4.5817   -1.4217 C   0  0  2  0  0  0  0  0  0  0  0  0
   -7.4103    3.7383   -1.6303 O   0  0  0  0  0  0  0  0  0  0  0  0
   -8.1948    5.9751   -0.8295 C   0  0  2  0  0  0  0  0  0  0  0  0
   -6.7422    6.2352   -0.9541 N   0  3  0  0  0  0  0  0  0  0  0  0
   -8.6443    6.0857    0.6586 C   0  0  1  0  0  0  0  0  0  0  0  0
   -8.2928    7.3637    1.1844 O   0  0  0  0  0  0  0  0  0  0  0  0
  -10.1769    5.8945    0.8135 C   0  0  2  0  0  0  0  0  0  0  0  0
  -10.4782    5.7169    2.1931 O   0  0  0  0  0  0  0  0  0  0  0  0
  -10.6808    4.6635   -0.0076 C   0  0  2  0  0  0  0  0  0  0  0  0
   -9.5414    3.9084   -0.5338 O   0  0  0  0  0  0  0  0  0  0  0  0
  -11.5674    5.0220   -1.2224 C   0  0  0  0  0  0  0  0  0  0  0  0
   -9.6544    0.1950   -2.6445 C   0  0  1  0  0  0  0  0  0  0  0  0
  -10.0229   -1.1803   -3.0482 N   0  3  0  0  0  0  0  0  0  0  0  0
   -8.9884    0.2179   -1.2437 C   0  0  1  0  0  0  0  0  0  0  0  0
   -8.4406    1.6272   -0.8271 C   0  0  1  0  0  0  0  0  0  0  0  0
   -7.5715    1.4540    0.3242 O   0  0  0  0  0  0  0  0  0  0  0  0
   -7.5986    2.3271   -1.9564 C   0  0  1  0  0  0  0  0  0  0  0  0
   -8.3048    2.2473   -3.3484 C   0  0  1  0  0  0  0  0  0  0  0  0
   -7.4508    2.7704   -4.4342 N   0  3  0  0  0  0  0  0  0  0  0  0
   -8.7104    0.7994   -3.7048 C   0  0  0  0  0  0  0  0  0  0  0  0
   -6.6441    0.3309    0.3618 C   0  0  1  0  0  0  0  0  0  0  0  0
   -5.5308    0.5868   -0.6470 C   0  0  1  0  0  0  0  0  0  0  0  0
   -4.6549    1.5368    0.1585 C   0  0  1  0  0  0  0  0  0  0  0  0
   -4.7026    0.8958    1.5528 C   0  0  2  0  0  0  0  0  0  0  0  0
   -6.0027    0.2660    1.6461 O   0  0  0  0  0  0  0  0  0  0  0  0
   -4.5253    1.9167    2.6911 C   0  0  0  0  0  0  0  0  0  0  0  0
   -1.5445    4.0198    2.0322 C   0  0  1  0  0  0  0  0  0  0  0  0
   -0.8436    2.8839    1.2360 C   0  0  1  0  0  0  0  0  0  0  0  0
   -1.1681    2.8812   -0.2858 C   0  0  2  0  0  0  0  0  0  0  0  0
   -2.7106    2.9111   -0.5341 C   0  0  1  0  0  0  0  0  0  0  0  0
   -3.2975    1.5893   -0.3675 O   0  0  0  0  0  0  0  0  0  0  0  0
   -2.5352    4.8060    1.1207 C   0  0  1  0  0  0  0  0  0  0  0  0
   -3.3792    3.8615    0.3843 O   0  0  0  0  0  0  0  0  0  0  0  0
   -3.4372    5.7770    1.9254 C   0  0  0  0  0  0  0  0  0  0  0  0
  -12.4919    6.1460   -0.9914 N   0  3  0  0  0  0  0  0  0  0  0  0
   -4.8503   -0.6348   -0.9355 O   0  0  0  0  0  0  0  0  0  0  0  0
    0.5670    3.0244    1.3999 O   0  0  0  0  0  0  0  0  0  0  0  0
   -2.2456    3.4346    3.1318 O   0  0  0  0  0  0  0  0  0  0  0  0
   -5.6664    2.7494    2.8055 O   0  0  0  0  0  0  0  0  0  0  0  0
   -9.9468   -0.2030   -0.2733 O   0  0  0  0  0  0  0  0  0  0  0  0
   -2.7867    7.0721    2.1968 N   0  3  0  0  0  0  0  0  0  0  0  0
   -0.4996    1.7530   -0.9804 N   0  3  0  0  0  0  0  0  0  0  0  0
  1  2  1  1  0  0  0
  1  3  1  0  0  0  0
  1 10  1  0  0  0  0
  3  4  1  1  0  0  0
  3  5  1  0  0  0  0
  5  6  1  6  0  0  0
  5  7  1  0  0  0  0
  7  8  1  1  0  0  0
  7  9  1  0  0  0  0
  9 10  1  0  0  0  0
  9 11  1  6  0  0  0
 11 35  1  0  0  0  0
 12 13  1  6  0  0  0
 12 14  1  0  0  0  0
 12 20  1  0  0  0  0
 14 15  1  0  0  0  0
 14 40  1  1  0  0  0
 15 16  1  1  0  0  0
 15 17  1  0  0  0  0
 17  2  1  1  0  0  0
 17 18  1  0  0  0  0
 18 19  1  6  0  0  0
 18 20  1  0  0  0  0
 21 16  1  1  0  0  0
 21 22  1  0  0  0  0
 21 25  1  0  0  0  0
 22 23  1  0  0  0  0
 22 36  1  1  0  0  0
 23 24  1  0  0  0  0
 23 31  1  6  0  0  0
 24 25  1  0  0  0  0
 24 26  1  1  0  0  0
 26 39  1  0  0  0  0
 27 28  1  0  0  0  0
 27 32  1  0  0  0  0
 27 38  1  1  0  0  0
 28 29  1  0  0  0  0
 28 37  1  6  0  0  0
 29 30  1  0  0  0  0
 29 42  1  1  0  0  0
 30 31  1  1  0  0  0
 30 33  1  0  0  0  0
 32 33  1  0  0  0  0
 32 34  1  1  0  0  0
 34 41  1  0  0  0  0
M  CHG  6   4   1  13   1  19   1  35   1  41   1  42   1
M  END
>  <CHROM.1>
169.48172466,-57.59716173,123.49578653,63.21953428,68.30100499,-38.05344513
-176.70884368,159.56010606,-165.62222928,41.64920839,71.28772701,-60.37246186
179.74810346,133.57613666,70.53528876,57.77916773,66.31554771,179.99793217
-179.34385041,147.07718048,83.68056127,-146.80248692,-6.31967054,3.04829684
-0.09969483,3.05515415,0.26962253,-2.72072090

>  <Name>


>  <RI>
0

>  <Rbt.Current_Directory>
/home/itssahil/PROJECTS/Mol_Feturizer/New_Systems/rnas/1ei2

>  <Rbt.Executable>
rbdock ($Id: //depot/dev/client3/rdock/2013.1/src/exe/rbdock.cxx#4 $)

>  <Rbt.Library>
libRbt.so (2013.1, Build901 2013/11/27)

>  <Rbt.Parameter_File>
/export/apps/rDock/src/rDock_2013.1_src/data/scripts/dock_solv.prm

>  <Rbt.Receptor>
prm/pocket_docking_6.prm

>  <SCORE>
-56.0544

>  <SCORE.INTER>
-41.1357

>  <SCORE.INTER.CONST>
1

>  <SCORE.INTER.POLAR>
-7.71023

>  <SCORE.INTER.ROT>
9

>  <SCORE.INTER.SOLV>
34.8498

>  <SCORE.INTER.VDW>
-22.9396

>  <SCORE.INTER.norm>
-0.979421

>  <SCORE.INTRA>
-14.978

>  <SCORE.INTRA.DIHEDRAL>
-15.1735

>  <SCORE.INTRA.DIHEDRAL.0>
40.8761

>  <SCORE.INTRA.POLAR>
-0.358864

>  <SCORE.INTRA.POLAR.0>
-0.0268208

>  <SCORE.INTRA.REPUL>
-0.641615

>  <SCORE.INTRA.REPUL.0>
0.641615

>  <SCORE.INTRA.SOLV>
-11.8503

>  <SCORE.INTRA.SOLV.lig_0>
-162.567

>  <SCORE.INTRA.VDW>
2.96213

>  <SCORE.INTRA.VDW.0>
-4.80338

>  <SCORE.INTRA.norm>
-0.356618

>  <SCORE.RESTR>
0.0592338

>  <SCORE.RESTR.CAVITY>
0.0592338

>  <SCORE.RESTR.norm>
0.00141033

>  <SCORE.SYSTEM>
0

>  <SCORE.SYSTEM.CONST>
0

>  <SCORE.SYSTEM.DIHEDRAL>
0

>  <SCORE.SYSTEM.SOLV>
0

>  <SCORE.SYSTEM.norm>
0

>  <SCORE.heavy>
42

>  <SCORE.norm>
-1.33463

>  <RMSD>
5.799

$$$$

 OpenBabel11021811393D
libRbt.so/2013.1/901 2013/11/27
 42 45  0  0  0  0  0  0  0  0999 V2000
   -8.4687    6.6318   -4.0978 C   0  0  2  0  0  0  0  0  0  0  0  0
   -8.2567    6.8256   -2.6656 O   0  0  0  0  0  0  0  0  0  0  0  0
   -8.3609    7.9791   -4.8833 C   0  0  2  0  0  0  0  0  0  0  0  0
   -7.7327    9.0409   -4.0641 N   0  3  0  0  0  0  0  0  0  0  0  0
   -9.7630    8.4354   -5.3881 C   0  0  1  0  0  0  0  0  0  0  0  0
   -9.6505    9.6593   -6.1113 O   0  0  0  0  0  0  0  0  0  0  0  0
  -10.4155    7.3745   -6.3144 C   0  0  2  0  0  0  0  0  0  0  0  0
  -11.7857    7.7113   -6.5006 O   0  0  0  0  0  0  0  0  0  0  0  0
  -10.2943    5.9394   -5.7067 C   0  0  2  0  0  0  0  0  0  0  0  0
   -9.7794    6.0140   -4.3376 O   0  0  0  0  0  0  0  0  0  0  0  0
   -9.3471    4.9933   -6.4800 C   0  0  0  0  0  0  0  0  0  0  0  0
   -9.8195    5.7246    1.2029 C   0  0  1  0  0  0  0  0  0  0  0  0
  -10.5933    5.0764    2.2852 N   0  3  0  0  0  0  0  0  0  0  0  0
   -8.8114    4.7395    0.5553 C   0  0  1  0  0  0  0  0  0  0  0  0
   -8.0695    5.3258   -0.6961 C   0  0  1  0  0  0  0  0  0  0  0  0
   -7.4182    4.2295   -1.3923 O   0  0  0  0  0  0  0  0  0  0  0  0
   -9.0346    6.0308   -1.7187 C   0  0  1  0  0  0  0  0  0  0  0  0
  -10.0449    6.9877   -1.0068 C   0  0  1  0  0  0  0  0  0  0  0  0
  -11.0458    7.5349   -1.9452 N   0  3  0  0  0  0  0  0  0  0  0  0
  -10.7947    6.2787    0.1434 C   0  0  0  0  0  0  0  0  0  0  0  0
   -8.2291    3.2036   -2.0349 C   0  0  1  0  0  0  0  0  0  0  0  0
   -7.7726    3.0598   -3.4818 C   0  0  1  0  0  0  0  0  0  0  0  0
   -6.5423    2.1841   -3.2870 C   0  0  1  0  0  0  0  0  0  0  0  0
   -7.0322    1.1937   -2.2209 C   0  0  2  0  0  0  0  0  0  0  0  0
   -7.9872    1.9283   -1.4184 O   0  0  0  0  0  0  0  0  0  0  0  0
   -5.8965    0.6551   -1.3323 C   0  0  0  0  0  0  0  0  0  0  0  0
   -2.5433    1.5538   -5.7937 C   0  0  1  0  0  0  0  0  0  0  0  0
   -3.6795    0.6536   -6.3542 C   0  0  1  0  0  0  0  0  0  0  0  0
   -4.9824    1.4248   -6.7130 C   0  0  2  0  0  0  0  0  0  0  0  0
   -5.4641    2.3069   -5.5165 C   0  0  1  0  0  0  0  0  0  0  0  0
   -6.1651    1.5086   -4.5212 O   0  0  0  0  0  0  0  0  0  0  0  0
   -3.0447    3.0154   -5.5871 C   0  0  1  0  0  0  0  0  0  0  0  0
   -4.3237    2.9988   -4.8726 O   0  0  0  0  0  0  0  0  0  0  0  0
   -2.0305    3.8839   -4.7990 C   0  0  0  0  0  0  0  0  0  0  0  0
   -9.8370    4.5951   -7.8114 N   0  3  0  0  0  0  0  0  0  0  0  0
   -8.7782    2.3881   -4.2410 O   0  0  0  0  0  0  0  0  0  0  0  0
   -3.1984    0.0019   -7.5290 O   0  0  0  0  0  0  0  0  0  0  0  0
   -2.1030    1.0038   -4.5501 O   0  0  0  0  0  0  0  0  0  0  0  0
   -5.3894    1.6738   -0.4874 O   0  0  0  0  0  0  0  0  0  0  0  0
   -7.8369    4.3726    1.5315 O   0  0  0  0  0  0  0  0  0  0  0  0
   -2.5179    5.2536   -4.5530 N   0  3  0  0  0  0  0  0  0  0  0  0
   -6.0379    0.5055   -7.2060 N   0  3  0  0  0  0  0  0  0  0  0  0
  1  2  1  1  0  0  0
  1  3  1  0  0  0  0
  1 10  1  0  0  0  0
  3  4  1  1  0  0  0
  3  5  1  0  0  0  0
  5  6  1  6  0  0  0
  5  7  1  0  0  0  0
  7  8  1  1  0  0  0
  7  9  1  0  0  0  0
  9 10  1  0  0  0  0
  9 11  1  6  0  0  0
 11 35  1  0  0  0  0
 12 13  1  1  0  0  0
 12 14  1  0  0  0  0
 12 20  1  0  0  0  0
 14 15  1  0  0  0  0
 14 40  1  1  0  0  0
 15 16  1  6  0  0  0
 15 17  1  0  0  0  0
 17  2  1  6  0  0  0
 17 18  1  0  0  0  0
 18 19  1  6  0  0  0
 18 20  1  0  0  0  0
 21 16  1  1  0  0  0
 21 22  1  0  0  0  0
 21 25  1  0  0  0  0
 22 23  1  0  0  0  0
 22 36  1  6  0  0  0
 23 24  1  0  0  0  0
 23 31  1  6  0  0  0
 24 25  1  0  0  0  0
 24 26  1  1  0  0  0
 26 39  1  0  0  0  0
 27 28  1  0  0  0  0
 27 32  1  0  0  0  0
 27 38  1  1  0  0  0
 28 29  1  0  0  0  0
 28 37  1  6  0  0  0
 29 30  1  0  0  0  0
 29 42  1  1  0  0  0
 30 31  1  1  0  0  0
 30 33  1  0  0  0  0
 32 33  1  0  0  0  0
 32 34  1  1  0  0  0
 34 41  1  0  0  0  0
M  CHG  6   4   1  13   1  19   1  35   1  41   1  42   1
M  END
>  <CHROM.1>
143.41881001,127.66001477,133.45116785,-69.35925289,-176.73876705,-68.72714062
-60.31583612,-63.56895381,57.13052399,66.56789790,127.62457444,-123.47655058
64.18424486,77.55336815,69.34831893,-61.38686377,175.77752854,60.28005351
64.98139736,173.68109438,-177.78180761,17.17621748,-7.40174890,4.33548579
-3.62766666,3.00259323,-0.77894484,1.85802868

>  <Name>


>  <RI>
0

>  <Rbt.Current_Directory>
/home/itssahil/PROJECTS/Mol_Feturizer/New_Systems/rnas/1ei2

>  <Rbt.Executable>
rbdock ($Id: //depot/dev/client3/rdock/2013.1/src/exe/rbdock.cxx#4 $)

>  <Rbt.Library>
libRbt.so (2013.1, Build901 2013/11/27)

>  <Rbt.Parameter_File>
/export/apps/rDock/src/rDock_2013.1_src/data/scripts/dock_solv.prm

>  <Rbt.Receptor>
prm/pocket_docking_7.prm

>  <SCORE>
-39.3439

>  <SCORE.INTER>
-21.6145

>  <SCORE.INTER.CONST>
1

>  <SCORE.INTER.POLAR>
-4.1791

>  <SCORE.INTER.ROT>
9

>  <SCORE.INTER.SOLV>
23.442

>  <SCORE.INTER.VDW>
-17.8933

>  <SCORE.INTER.norm>
-0.51463

>  <SCORE.INTRA>
-17.7294

>  <SCORE.INTRA.DIHEDRAL>
-8.91311

>  <SCORE.INTRA.DIHEDRAL.0>
40.8761

>  <SCORE.INTRA.POLAR>
-1.41884

>  <SCORE.INTRA.POLAR.0>
-0.0268208

>  <SCORE.INTRA.REPUL>
-0.641615

>  <SCORE.INTRA.REPUL.0>
0.641615

>  <SCORE.INTRA.SOLV>
-10.9913

>  <SCORE.INTRA.SOLV.lig_0>
-162.567

>  <SCORE.INTRA.VDW>
0.254932

>  <SCORE.INTRA.VDW.0>
-4.80338

>  <SCORE.INTRA.norm>
-0.422129

>  <SCORE.RESTR>
0

>  <SCORE.RESTR.CAVITY>
0

>  <SCORE.RESTR.norm>
0

>  <SCORE.SYSTEM>
0

>  <SCORE.SYSTEM.CONST>
0

>  <SCORE.SYSTEM.DIHEDRAL>
0

>  <SCORE.SYSTEM.SOLV>
0

>  <SCORE.SYSTEM.norm>
0

>  <SCORE.heavy>
42

>  <SCORE.norm>
-0.93676

>  <RMSD>
5.801

$$$$

 OpenBabel11021811393D
libRbt.so/2013.1/901 2013/11/27
 42 45  0  0  0  0  0  0  0  0999 V2000
   -4.9114    4.9954    1.9165 C   0  0  2  0  0  0  0  0  0  0  0  0
   -5.0929    5.2926    0.4980 O   0  0  0  0  0  0  0  0  0  0  0  0
   -3.4702    5.3586    2.4011 C   0  0  2  0  0  0  0  0  0  0  0  0
   -2.7677    6.2248    1.4267 N   0  3  0  0  0  0  0  0  0  0  0  0
   -2.6425    4.0682    2.6817 C   0  0  1  0  0  0  0  0  0  0  0  0
   -1.3340    4.4120    3.1324 O   0  0  0  0  0  0  0  0  0  0  0  0
   -3.3150    3.1748    3.7582 C   0  0  2  0  0  0  0  0  0  0  0  0
   -2.6798    1.9011    3.7569 O   0  0  0  0  0  0  0  0  0  0  0  0
   -4.8452    3.0106    3.4841 C   0  0  2  0  0  0  0  0  0  0  0  0
   -5.1862    3.5763    2.1768 O   0  0  0  0  0  0  0  0  0  0  0  0
   -5.7603    3.7093    4.5159 C   0  0  0  0  0  0  0  0  0  0  0  0
   -9.1789    3.9138    0.3444 C   0  0  1  0  0  0  0  0  0  0  0  0
  -10.5552    3.6115   -0.1081 N   0  3  0  0  0  0  0  0  0  0  0  0
   -8.1295    3.0618   -0.4166 C   0  0  1  0  0  0  0  0  0  0  0  0
   -6.6448    3.4451   -0.0870 C   0  0  1  0  0  0  0  0  0  0  0  0
   -5.7846    2.8230   -1.0790 O   0  0  0  0  0  0  0  0  0  0  0  0
   -6.3769    4.9945   -0.1314 C   0  0  1  0  0  0  0  0  0  0  0  0
   -7.4803    5.8018    0.6260 C   0  0  1  0  0  0  0  0  0  0  0  0
   -7.3130    7.2600    0.4597 N   0  3  0  0  0  0  0  0  0  0  0  0
   -8.9001    5.4190    0.1511 C   0  0  0  0  0  0  0  0  0  0  0  0
   -5.6015    1.3776   -1.0660 C   0  0  1  0  0  0  0  0  0  0  0  0
   -5.7916    0.8515   -2.4837 C   0  0  1  0  0  0  0  0  0  0  0  0
   -4.4253    1.1746   -3.0729 C   0  0  1  0  0  0  0  0  0  0  0  0
   -3.4910    0.7997   -1.9137 C   0  0  2  0  0  0  0  0  0  0  0  0
   -4.2476    1.0570   -0.7066 O   0  0  0  0  0  0  0  0  0  0  0  0
   -2.1854    1.6150   -1.9047 C   0  0  0  0  0  0  0  0  0  0  0  0
   -4.1971    2.3811   -7.5417 C   0  0  1  0  0  0  0  0  0  0  0  0
   -3.5694    0.9710   -7.3596 C   0  0  1  0  0  0  0  0  0  0  0  0
   -4.5177   -0.0647   -6.6893 C   0  0  2  0  0  0  0  0  0  0  0  0
   -5.1117    0.4937   -5.3563 C   0  0  1  0  0  0  0  0  0  0  0  0
   -4.1551    0.3817   -4.2646 O   0  0  0  0  0  0  0  0  0  0  0  0
   -5.5990    2.4557   -6.8640 C   0  0  1  0  0  0  0  0  0  0  0  0
   -5.5174    1.9103   -5.5066 O   0  0  0  0  0  0  0  0  0  0  0  0
   -6.1501    3.9035   -6.8005 C   0  0  0  0  0  0  0  0  0  0  0  0
   -6.3285    2.8090    5.5346 N   0  3  0  0  0  0  0  0  0  0  0  0
   -6.0269   -0.5563   -2.4490 O   0  0  0  0  0  0  0  0  0  0  0  0
   -3.1921    0.4775   -8.6443 O   0  0  0  0  0  0  0  0  0  0  0  0
   -3.3171    3.3459   -6.9606 O   0  0  0  0  0  0  0  0  0  0  0  0
   -2.4251    2.9484   -1.4885 O   0  0  0  0  0  0  0  0  0  0  0  0
   -8.3285    1.6873   -0.0871 O   0  0  0  0  0  0  0  0  0  0  0  0
   -6.7068    4.3622   -8.0865 N   0  3  0  0  0  0  0  0  0  0  0  0
   -3.8475   -1.3766   -6.5106 N   0  3  0  0  0  0  0  0  0  0  0  0
  1  2  1  6  0  0  0
  1  3  1  0  0  0  0
  1 10  1  0  0  0  0
  3  4  1  6  0  0  0
  3  5  1  0  0  0  0
  5  6  1  1  0  0  0
  5  7  1  0  0  0  0
  7  8  1  6  0  0  0
  7  9  1  0  0  0  0
  9 10  1  0  0  0  0
  9 11  1  1  0  0  0
 11 35  1  0  0  0  0
 12 13  1  6  0  0  0
 12 14  1  0  0  0  0
 12 20  1  0  0  0  0
 14 15  1  0  0  0  0
 14 40  1  1  0  0  0
 15 16  1  6  0  0  0
 15 17  1  0  0  0  0
 17  2  1  1  0  0  0
 17 18  1  0  0  0  0
 18 19  1  6  0  0  0
 18 20  1  0  0  0  0
 21 16  1  6  0  0  0
 21 22  1  0  0  0  0
 21 25  1  0  0  0  0
 22 23  1  0  0  0  0
 22 36  1  1  0  0  0
 23 24  1  0  0  0  0
 23 31  1  6  0  0  0
 24 25  1  0  0  0  0
 24 26  1  1  0  0  0
 26 39  1  0  0  0  0
 27 28  1  0  0  0  0
 27 32  1  0  0  0  0
 27 38  1  1  0  0  0
 28 29  1  0  0  0  0
 28 37  1  6  0  0  0
 29 30  1  0  0  0  0
 29 42  1  1  0  0  0
 30 31  1  1  0  0  0
 30 33  1  0  0  0  0
 32 33  1  0  0  0  0
 32 34  1  1  0  0  0
 34 41  1  0  0  0  0
M  CHG  6   4   1  13   1  19   1  35   1  41   1  42   1
M  END
>  <CHROM.1>
178.98513765,-63.16036275,55.75747536,-70.74272161,-60.17843878,-100.34534966
-57.52873900,-70.60318487,159.51812509,-70.52019418,132.02235649,175.93972260
63.79084277,57.32870376,73.06791837,-175.03765042,66.02878162,64.43900024
-175.88882847,163.94135351,78.24955675,-179.13485938,-5.15016525,2.83343757
-1.45810054,1.63875813,-0.41057113,1.31284179

>  <Name>


>  <RI>
0

>  <Rbt.Current_Directory>
/home/itssahil/PROJECTS/Mol_Feturizer/New_Systems/rnas/1ei2

>  <Rbt.Executable>
rbdock ($Id: //depot/dev/client3/rdock/2013.1/src/exe/rbdock.cxx#4 $)

>  <Rbt.Library>
libRbt.so (2013.1, Build901 2013/11/27)

>  <Rbt.Parameter_File>
/export/apps/rDock/src/rDock_2013.1_src/data/scripts/dock_solv.prm

>  <Rbt.Receptor>
prm/pocket_docking_4.prm

>  <SCORE>
-47.0244

>  <SCORE.INTER>
-26.8584

>  <SCORE.INTER.CONST>
1

>  <SCORE.INTER.POLAR>
-5.34021

>  <SCORE.INTER.ROT>
9

>  <SCORE.INTER.SOLV>
22.5764

>  <SCORE.INTER.VDW>
-17.2304

>  <SCORE.INTER.norm>
-0.639486

>  <SCORE.INTRA>
-20.1829

>  <SCORE.INTRA.DIHEDRAL>
-22.8054

>  <SCORE.INTRA.DIHEDRAL.0>
40.8761

>  <SCORE.INTRA.POLAR>
0.0268208

>  <SCORE.INTRA.POLAR.0>
-0.0268208

>  <SCORE.INTRA.REPUL>
-0.466176

>  <SCORE.INTRA.REPUL.0>
0.641615

>  <SCORE.INTRA.SOLV>
-14.4516

>  <SCORE.INTRA.SOLV.lig_0>
-162.567

>  <SCORE.INTRA.VDW>
0.685347

>  <SCORE.INTRA.VDW.0>
-4.80338

>  <SCORE.INTRA.norm>
-0.480544

>  <SCORE.RESTR>
0.016848

>  <SCORE.RESTR.CAVITY>
0.016848

>  <SCORE.RESTR.norm>
0.000401142

>  <SCORE.SYSTEM>
0

>  <SCORE.SYSTEM.CONST>
0

>  <SCORE.SYSTEM.DIHEDRAL>
0

>  <SCORE.SYSTEM.SOLV>
0

>  <SCORE.SYSTEM.norm>
0

>  <SCORE.heavy>
42

>  <SCORE.norm>
-1.11963

>  <RMSD>
5.809

$$$$

 OpenBabel11021811393D
libRbt.so/2013.1/901 2013/11/27
 42 45  0  0  0  0  0  0  0  0999 V2000
   -8.5762    4.3615   -2.4181 C   0  0  2  0  0  0  0  0  0  0  0  0
   -7.5748    5.1335   -3.1495 O   0  0  0  0  0  0  0  0  0  0  0  0
   -9.9057    5.1645   -2.2410 C   0  0  2  0  0  0  0  0  0  0  0  0
   -9.9586    6.3398   -3.1405 N   0  3  0  0  0  0  0  0  0  0  0  0
  -10.0902    5.6030   -0.7569 C   0  0  1  0  0  0  0  0  0  0  0  0
  -11.3104    6.3253   -0.6060 O   0  0  0  0  0  0  0  0  0  0  0  0
  -10.1170    4.3850    0.2049 C   0  0  2  0  0  0  0  0  0  0  0  0
   -9.9945    4.8561    1.5423 O   0  0  0  0  0  0  0  0  0  0  0  0
   -8.9624    3.3819   -0.1176 C   0  0  2  0  0  0  0  0  0  0  0  0
   -8.0508    3.9639   -1.1054 O   0  0  0  0  0  0  0  0  0  0  0  0
   -9.4321    2.0285   -0.6989 C   0  0  0  0  0  0  0  0  0  0  0  0
   -5.6687    1.8325   -5.1720 C   0  0  1  0  0  0  0  0  0  0  0  0
   -4.7019    0.9982   -5.9202 N   0  3  0  0  0  0  0  0  0  0  0  0
   -5.1491    2.1687   -3.7496 C   0  0  1  0  0  0  0  0  0  0  0  0
   -6.0619    3.1738   -2.9643 C   0  0  1  0  0  0  0  0  0  0  0  0
   -5.3206    3.6536   -1.8105 O   0  0  0  0  0  0  0  0  0  0  0  0
   -6.4815    4.4290   -3.8143 C   0  0  1  0  0  0  0  0  0  0  0  0
   -6.9682    4.0313   -5.2454 C   0  0  1  0  0  0  0  0  0  0  0  0
   -7.2205    5.2139   -6.0938 N   0  3  0  0  0  0  0  0  0  0  0  0
   -5.9469    3.1245   -5.9682 C   0  0  0  0  0  0  0  0  0  0  0  0
   -4.2895    4.6672   -1.9898 C   0  0  1  0  0  0  0  0  0  0  0  0
   -3.6771    4.9824   -0.6302 C   0  0  1  0  0  0  0  0  0  0  0  0
   -2.7171    3.8086   -0.4921 C   0  0  1  0  0  0  0  0  0  0  0  0
   -2.1524    3.7005   -1.9157 C   0  0  2  0  0  0  0  0  0  0  0  0
   -3.2180    4.1418   -2.7905 O   0  0  0  0  0  0  0  0  0  0  0  0
   -1.7213    2.2699   -2.2855 C   0  0  0  0  0  0  0  0  0  0  0  0
   -2.7235    1.2918    2.9025 C   0  0  1  0  0  0  0  0  0  0  0  0
   -1.2605    1.7436    2.6361 C   0  0  1  0  0  0  0  0  0  0  0  0
   -1.0379    3.2789    2.7570 C   0  0  2  0  0  0  0  0  0  0  0  0
   -2.0675    4.0689    1.8867 C   0  0  1  0  0  0  0  0  0  0  0  0
   -1.6728    4.0833    0.4856 O   0  0  0  0  0  0  0  0  0  0  0  0
   -3.6598    2.5245    3.0865 C   0  0  1  0  0  0  0  0  0  0  0  0
   -3.4237    3.4855    2.0060 O   0  0  0  0  0  0  0  0  0  0  0  0
   -5.1597    2.1322    3.1024 C   0  0  0  0  0  0  0  0  0  0  0  0
   -8.4946    0.9130   -0.4798 N   0  3  0  0  0  0  0  0  0  0  0  0
   -2.9780    6.2258   -0.6919 O   0  0  0  0  0  0  0  0  0  0  0  0
   -0.4090    1.0854    3.5732 O   0  0  0  0  0  0  0  0  0  0  0  0
   -3.1612    0.5018    1.7947 O   0  0  0  0  0  0  0  0  0  0  0  0
   -0.5088    1.9241   -1.6382 O   0  0  0  0  0  0  0  0  0  0  0  0
   -5.0532    0.9588   -2.9985 O   0  0  0  0  0  0  0  0  0  0  0  0
   -5.6051    1.5169    1.8386 N   0  3  0  0  0  0  0  0  0  0  0  0
    0.3673    3.6481    2.4551 N   0  3  0  0  0  0  0  0  0  0  0  0
  1  2  1  1  0  0  0
  1  3  1  0  0  0  0
  1 10  1  0  0  0  0
  3  4  1  6  0  0  0
  3  5  1  0  0  0  0
  5  6  1  6  0  0  0
  5  7  1  0  0  0  0
  7  8  1  1  0  0  0
  7  9  1  0  0  0  0
  9 10  1  0  0  0  0
  9 11  1  6  0  0  0
 11 35  1  0  0  0  0
 12 13  1  6  0  0  0
 12 14  1  0  0  0  0
 12 20  1  0  0  0  0
 14 15  1  0  0  0  0
 14 40  1  1  0  0  0
 15 16  1  1  0  0  0
 15 17  1  0  0  0  0
 17  2  1  1  0  0  0
 17 18  1  0  0  0  0
 18 19  1  6  0  0  0
 18 20  1  0  0  0  0
 21 16  1  1  0  0  0
 21 22  1  0  0  0  0
 21 25  1  0  0  0  0
 22 23  1  0  0  0  0
 22 36  1  6  0  0  0
 23 24  1  0  0  0  0
 23 31  1  1  0  0  0
 24 25  1  0  0  0  0
 24 26  1  6  0  0  0
 26 39  1  0  0  0  0
 27 28  1  0  0  0  0
 27 32  1  0  0  0  0
 27 38  1  6  0  0  0
 28 29  1  0  0  0  0
 28 37  1  1  0  0  0
 29 30  1  0  0  0  0
 29 42  1  6  0  0  0
 30 31  1  6  0  0  0
 30 33  1  0  0  0  0
 32 33  1  0  0  0  0
 32 34  1  6  0  0  0
 34 41  1  0  0  0  0
M  CHG  6   4   1  13   1  19   1  35   1  41   1  42   1
M  END
>  <CHROM.1>
-158.67599307,-34.94002172,-42.48982909,64.31258861,-174.00676221,-155.44430967
-53.33052766,-65.18705207,177.96658171,77.29554830,-179.93408454,-64.56559984
93.20386064,73.11238589,-74.40491452,-98.23120543,-47.01288523,-59.69383381
101.33725004,134.92389308,-62.09950996,55.45278884,-5.27810513,3.39656525
-0.96190363,2.59725393,0.24557894,-1.53488432

>  <Name>


>  <RI>
0

>  <Rbt.Current_Directory>
/home/itssahil/PROJECTS/Mol_Feturizer/New_Systems/rnas/1ei2

>  <Rbt.Executable>
rbdock ($Id: //depot/dev/client3/rdock/2013.1/src/exe/rbdock.cxx#4 $)

>  <Rbt.Library>
libRbt.so (2013.1, Build901 2013/11/27)

>  <Rbt.Parameter_File>
/export/apps/rDock/src/rDock_2013.1_src/data/scripts/dock_solv.prm

>  <Rbt.Receptor>
prm/pocket_docking_3.prm

>  <SCORE>
-52.7927

>  <SCORE.INTER>
-40.0029

>  <SCORE.INTER.CONST>
1

>  <SCORE.INTER.POLAR>
-6.81171

>  <SCORE.INTER.ROT>
9

>  <SCORE.INTER.SOLV>
21.9384

>  <SCORE.INTER.VDW>
-20.8757

>  <SCORE.INTER.norm>
-0.952449

>  <SCORE.INTRA>
-13.349

>  <SCORE.INTRA.DIHEDRAL>
-10.4563

>  <SCORE.INTRA.DIHEDRAL.0>
40.8761

>  <SCORE.INTRA.POLAR>
-0.762326

>  <SCORE.INTRA.POLAR.0>
-0.0268208

>  <SCORE.INTRA.REPUL>
-0.547659

>  <SCORE.INTRA.REPUL.0>
0.641615

>  <SCORE.INTRA.SOLV>
-5.77017

>  <SCORE.INTRA.SOLV.lig_0>
-162.567

>  <SCORE.INTRA.VDW>
0.0944052

>  <SCORE.INTRA.VDW.0>
-4.80338

>  <SCORE.INTRA.norm>
-0.317834

>  <SCORE.RESTR>
0.559161

>  <SCORE.RESTR.CAVITY>
0.559161

>  <SCORE.RESTR.norm>
0.0133134

>  <SCORE.SYSTEM>
0

>  <SCORE.SYSTEM.CONST>
0

>  <SCORE.SYSTEM.DIHEDRAL>
0

>  <SCORE.SYSTEM.SOLV>
0

>  <SCORE.SYSTEM.norm>
0

>  <SCORE.heavy>
42

>  <SCORE.norm>
-1.25697

>  <RMSD>
5.811

$$$$

 OpenBabel11021811393D
libRbt.so/2013.1/901 2013/11/27
 42 45  0  0  0  0  0  0  0  0999 V2000
   -2.9676    5.8767    4.4301 C   0  0  2  0  0  0  0  0  0  0  0  0
   -3.9198    4.8320    4.7982 O   0  0  0  0  0  0  0  0  0  0  0  0
   -3.1580    7.1617    5.2998 C   0  0  2  0  0  0  0  0  0  0  0  0
   -3.9914    6.8948    6.4945 N   0  3  0  0  0  0  0  0  0  0  0  0
   -3.7730    8.3148    4.4506 C   0  0  1  0  0  0  0  0  0  0  0  0
   -3.9323    9.4838    5.2516 O   0  0  0  0  0  0  0  0  0  0  0  0
   -2.8812    8.6714    3.2313 C   0  0  2  0  0  0  0  0  0  0  0  0
   -3.6233    9.5087    2.3517 O   0  0  0  0  0  0  0  0  0  0  0  0
   -2.4108    7.3855    2.4771 C   0  0  2  0  0  0  0  0  0  0  0  0
   -3.1047    6.2091    3.0060 O   0  0  0  0  0  0  0  0  0  0  0  0
   -0.8976    7.0908    2.5938 C   0  0  0  0  0  0  0  0  0  0  0  0
   -1.0987    2.0070    6.4354 C   0  0  1  0  0  0  0  0  0  0  0  0
   -0.4644    0.7655    6.9321 N   0  3  0  0  0  0  0  0  0  0  0  0
   -1.3173    1.9597    4.9004 C   0  0  1  0  0  0  0  0  0  0  0  0
   -2.1214    3.1834    4.3383 C   0  0  1  0  0  0  0  0  0  0  0  0
   -2.5369    2.8690    2.9820 O   0  0  0  0  0  0  0  0  0  0  0  0
   -3.4172    3.5112    5.1676 C   0  0  1  0  0  0  0  0  0  0  0  0
   -3.1424    3.5166    6.7062 C   0  0  1  0  0  0  0  0  0  0  0  0
   -4.3838    3.6762    7.4906 N   0  3  0  0  0  0  0  0  0  0  0  0
   -2.4393    2.2206    7.1687 C   0  0  0  0  0  0  0  0  0  0  0  0
   -3.0332    1.5343    2.6738 C   0  0  1  0  0  0  0  0  0  0  0  0
   -4.2427    1.6662    1.7559 C   0  0  1  0  0  0  0  0  0  0  0  0
   -3.5419    1.8820    0.4215 C   0  0  1  0  0  0  0  0  0  0  0  0
   -2.3802    0.8826    0.5160 C   0  0  2  0  0  0  0  0  0  0  0  0
   -2.0485    0.8051    1.9230 O   0  0  0  0  0  0  0  0  0  0  0  0
   -1.1463    1.3151   -0.2963 C   0  0  0  0  0  0  0  0  0  0  0  0
   -4.6282    0.2395   -4.2899 C   0  0  1  0  0  0  0  0  0  0  0  0
   -5.7565    1.0186   -3.5582 C   0  0  1  0  0  0  0  0  0  0  0  0
   -5.2885    2.3520   -2.9070 C   0  0  2  0  0  0  0  0  0  0  0  0
   -4.0395    2.1271   -1.9953 C   0  0  1  0  0  0  0  0  0  0  0  0
   -4.4226    1.5844   -0.7000 O   0  0  0  0  0  0  0  0  0  0  0  0
   -3.2458    0.9241   -4.0648 C   0  0  1  0  0  0  0  0  0  0  0  0
   -3.0679    1.2135   -2.6396 O   0  0  0  0  0  0  0  0  0  0  0  0
   -2.0644    0.0506   -4.5600 C   0  0  0  0  0  0  0  0  0  0  0  0
   -0.0356    8.0243    1.8475 N   0  3  0  0  0  0  0  0  0  0  0  0
   -4.9901    0.4497    1.7639 O   0  0  0  0  0  0  0  0  0  0  0  0
   -6.7864    1.3103   -4.5020 O   0  0  0  0  0  0  0  0  0  0  0  0
   -4.6032   -1.0981   -3.7868 O   0  0  0  0  0  0  0  0  0  0  0  0
    0.0229    1.2815    0.5041 O   0  0  0  0  0  0  0  0  0  0  0  0
   -0.0440    1.9175    4.2568 O   0  0  0  0  0  0  0  0  0  0  0  0
   -0.8628    0.8413   -4.8839 N   0  3  0  0  0  0  0  0  0  0  0  0
   -6.4015    3.0270   -2.1944 N   0  3  0  0  0  0  0  0  0  0  0  0
  1  2  1  1  0  0  0
  1  3  1  0  0  0  0
  1 10  1  0  0  0  0
  3  4  1  1  0  0  0
  3  5  1  0  0  0  0
  5  6  1  1  0  0  0
  5  7  1  0  0  0  0
  7  8  1  6  0  0  0
  7  9  1  0  0  0  0
  9 10  1  0  0  0  0
  9 11  1  1  0  0  0
 11 35  1  0  0  0  0
 12 13  1  1  0  0  0
 12 14  1  0  0  0  0
 12 20  1  0  0  0  0
 14 15  1  0  0  0  0
 14 40  1  6  0  0  0
 15 16  1  6  0  0  0
 15 17  1  0  0  0  0
 17  2  1  6  0  0  0
 17 18  1  0  0  0  0
 18 19  1  1  0  0  0
 18 20  1  0  0  0  0
 21 16  1  6  0  0  0
 21 22  1  0  0  0  0
 21 25  1  0  0  0  0
 22 23  1  0  0  0  0
 22 36  1  6  0  0  0
 23 24  1  0  0  0  0
 23 31  1  6  0  0  0
 24 25  1  0  0  0  0
 24 26  1  6  0  0  0
 26 39  1  0  0  0  0
 27 28  1  0  0  0  0
 27 32  1  0  0  0  0
 27 38  1  1  0  0  0
 28 29  1  0  0  0  0
 28 37  1  6  0  0  0
 29 30  1  0  0  0  0
 29 42  1  1  0  0  0
 30 31  1  1  0  0  0
 30 33  1  0  0  0  0
 32 33  1  0  0  0  0
 32 34  1  1  0  0  0
 34 41  1  0  0  0  0
M  CHG  6   4   1  13   1  19   1  35   1  41   1  42   1
M  END
>  <CHROM.1>
-124.94713535,-33.53361536,66.33129147,-162.97575554,-73.62081098,-70.81133040
-40.32727672,-141.76073859,69.80432795,41.57388288,138.05015563,67.70606312
172.65376166,161.66806588,128.47093285,179.48986011,-53.09809403,70.51593025
-53.84756886,-152.74912473,156.00887683,-38.20471928,-3.05174692,3.30248759
1.69836763,1.17571961,-1.26004738,0.65828550

>  <Name>


>  <RI>
0

>  <Rbt.Current_Directory>
/home/itssahil/PROJECTS/Mol_Feturizer/New_Systems/rnas/1ei2

>  <Rbt.Executable>
rbdock ($Id: //depot/dev/client3/rdock/2013.1/src/exe/rbdock.cxx#4 $)

>  <Rbt.Library>
libRbt.so (2013.1, Build901 2013/11/27)

>  <Rbt.Parameter_File>
/export/apps/rDock/src/rDock_2013.1_src/data/scripts/dock_solv.prm

>  <Rbt.Receptor>
prm/pocket_docking_7.prm

>  <SCORE>
-60.0146

>  <SCORE.INTER>
-51.0727

>  <SCORE.INTER.CONST>
1

>  <SCORE.INTER.POLAR>
-9.82688

>  <SCORE.INTER.ROT>
9

>  <SCORE.INTER.SOLV>
32.3312

>  <SCORE.INTER.VDW>
-21.6693

>  <SCORE.INTER.norm>
-1.21602

>  <SCORE.INTRA>
-8.94187

>  <SCORE.INTRA.DIHEDRAL>
-2.13502

>  <SCORE.INTRA.DIHEDRAL.0>
40.8761

>  <SCORE.INTRA.POLAR>
0.0112814

>  <SCORE.INTRA.POLAR.0>
-0.0268208

>  <SCORE.INTRA.REPUL>
-0.641615

>  <SCORE.INTRA.REPUL.0>
0.641615

>  <SCORE.INTRA.SOLV>
-10.5141

>  <SCORE.INTRA.SOLV.lig_0>
-162.567

>  <SCORE.INTRA.VDW>
0.552426

>  <SCORE.INTRA.VDW.0>
-4.80338

>  <SCORE.INTRA.norm>
-0.212902

>  <SCORE.RESTR>
0

>  <SCORE.RESTR.CAVITY>
0

>  <SCORE.RESTR.norm>
0

>  <SCORE.SYSTEM>
0

>  <SCORE.SYSTEM.CONST>
0

>  <SCORE.SYSTEM.DIHEDRAL>
0

>  <SCORE.SYSTEM.SOLV>
0

>  <SCORE.SYSTEM.norm>
0

>  <SCORE.heavy>
42

>  <SCORE.norm>
-1.42892

>  <RMSD>
5.867

$$$$

 OpenBabel11021811393D
libRbt.so/2013.1/901 2013/11/27
 42 45  0  0  0  0  0  0  0  0999 V2000
   -8.3453    5.9830    0.5071 C   0  0  2  0  0  0  0  0  0  0  0  0
   -8.8273    6.0317   -0.8710 O   0  0  0  0  0  0  0  0  0  0  0  0
   -9.1575    4.9593    1.3652 C   0  0  2  0  0  0  0  0  0  0  0  0
   -9.9595    4.0488    0.5162 N   0  3  0  0  0  0  0  0  0  0  0  0
  -10.0713    5.7006    2.3871 C   0  0  1  0  0  0  0  0  0  0  0  0
  -10.7989    4.7570    3.1704 O   0  0  0  0  0  0  0  0  0  0  0  0
   -9.2499    6.6055    3.3442 C   0  0  2  0  0  0  0  0  0  0  0  0
  -10.1456    7.4615    4.0446 O   0  0  0  0  0  0  0  0  0  0  0  0
   -8.1999    7.4563    2.5587 C   0  0  2  0  0  0  0  0  0  0  0  0
   -8.4161    7.3174    1.1167 O   0  0  0  0  0  0  0  0  0  0  0  0
   -6.7284    7.0610    2.8211 C   0  0  0  0  0  0  0  0  0  0  0  0
   -8.5402    8.3017   -4.5295 C   0  0  1  0  0  0  0  0  0  0  0  0
   -8.1435    9.2959   -5.5515 N   0  3  0  0  0  0  0  0  0  0  0  0
   -7.4014    7.2859   -4.2514 C   0  0  1  0  0  0  0  0  0  0  0  0
   -7.7078    6.3001   -3.0706 C   0  0  1  0  0  0  0  0  0  0  0  0
   -6.4696    5.6360   -2.7010 O   0  0  0  0  0  0  0  0  0  0  0  0
   -8.2621    7.0197   -1.7864 C   0  0  1  0  0  0  0  0  0  0  0  0
   -9.3851    8.0507   -2.1311 C   0  0  1  0  0  0  0  0  0  0  0  0
   -9.8018    8.8326   -0.9492 N   0  3  0  0  0  0  0  0  0  0  0  0
   -8.9401    9.0377   -3.2337 C   0  0  0  0  0  0  0  0  0  0  0  0
   -5.9331    4.5872   -3.5583 C   0  0  1  0  0  0  0  0  0  0  0  0
   -4.4817    4.3355   -3.1671 C   0  0  1  0  0  0  0  0  0  0  0  0
   -4.6851    3.4480   -1.9467 C   0  0  1  0  0  0  0  0  0  0  0  0
   -5.8361    2.5433   -2.4095 C   0  0  2  0  0  0  0  0  0  0  0  0
   -6.6251    3.3516   -3.3148 O   0  0  0  0  0  0  0  0  0  0  0  0
   -6.7117    2.0410   -1.2474 C   0  0  0  0  0  0  0  0  0  0  0  0
   -1.2777    3.1959    1.4625 C   0  0  1  0  0  0  0  0  0  0  0  0
   -1.1313    2.0350    0.4396 C   0  0  1  0  0  0  0  0  0  0  0  0
   -1.0717    2.4997   -1.0442 C   0  0  2  0  0  0  0  0  0  0  0  0
   -2.2690    3.4427   -1.3890 C   0  0  1  0  0  0  0  0  0  0  0  0
   -3.4856    2.6822   -1.6359 O   0  0  0  0  0  0  0  0  0  0  0  0
   -1.4794    4.5576    0.7309 C   0  0  1  0  0  0  0  0  0  0  0  0
   -2.5132    4.4136   -0.2974 O   0  0  0  0  0  0  0  0  0  0  0  0
   -1.8798    5.6982    1.7017 C   0  0  0  0  0  0  0  0  0  0  0  0
   -5.7483    8.1139    2.5014 N   0  3  0  0  0  0  0  0  0  0  0  0
   -3.8128    3.6365   -4.2170 O   0  0  0  0  0  0  0  0  0  0  0  0
    0.0660    1.3191    0.7404 O   0  0  0  0  0  0  0  0  0  0  0  0
   -2.3993    2.9179    2.3038 O   0  0  0  0  0  0  0  0  0  0  0  0
   -7.6993    1.1373   -1.7127 O   0  0  0  0  0  0  0  0  0  0  0  0
   -7.1700    6.5211   -5.4342 O   0  0  0  0  0  0  0  0  0  0  0  0
   -1.9487    7.0151    1.0420 N   0  3  0  0  0  0  0  0  0  0  0  0
   -0.9698    1.3444   -1.9701 N   0  3  0  0  0  0  0  0  0  0  0  0
  1  2  1  6  0  0  0
  1  3  1  0  0  0  0
  1 10  1  0  0  0  0
  3  4  1  6  0  0  0
  3  5  1  0  0  0  0
  5  6  1  1  0  0  0
  5  7  1  0  0  0  0
  7  8  1  6  0  0  0
  7  9  1  0  0  0  0
  9 10  1  0  0  0  0
  9 11  1  6  0  0  0
 11 35  1  0  0  0  0
 12 13  1  6  0  0  0
 12 14  1  0  0  0  0
 12 20  1  0  0  0  0
 14 15  1  0  0  0  0
 14 40  1  6  0  0  0
 15 16  1  1  0  0  0
 15 17  1  0  0  0  0
 17  2  1  1  0  0  0
 17 18  1  0  0  0  0
 18 19  1  1  0  0  0
 18 20  1  0  0  0  0
 21 16  1  1  0  0  0
 21 22  1  0  0  0  0
 21 25  1  0  0  0  0
 22 23  1  0  0  0  0
 22 36  1  6  0  0  0
 23 24  1  0  0  0  0
 23 31  1  6  0  0  0
 24 25  1  0  0  0  0
 24 26  1  1  0  0  0
 26 39  1  0  0  0  0
 27 28  1  0  0  0  0
 27 32  1  0  0  0  0
 27 38  1  1  0  0  0
 28 29  1  0  0  0  0
 28 37  1  1  0  0  0
 29 30  1  0  0  0  0
 29 42  1  6  0  0  0
 30 31  1  1  0  0  0
 30 33  1  0  0  0  0
 32 33  1  0  0  0  0
 32 34  1  1  0  0  0
 34 41  1  0  0  0  0
M  CHG  6   4   1  13   1  19   1  35   1  41   1  42   1
M  END
>  <CHROM.1>
174.64923260,125.21116557,54.61890642,-64.88522756,-179.77116375,-158.94831232
15.86407220,52.91218088,150.01226648,-74.80928043,164.67424747,-28.70104998
-57.04230336,57.56829051,-175.86813571,179.53918761,175.77140552,-68.21524458
2.37975026,178.98522397,174.56575822,-160.53697828,-6.03821111,5.18284589
-0.69617143,3.13430112,0.53435299,-1.53533624

>  <Name>


>  <RI>
0

>  <Rbt.Current_Directory>
/home/itssahil/PROJECTS/Mol_Feturizer/New_Systems/rnas/1ei2

>  <Rbt.Executable>
rbdock ($Id: //depot/dev/client3/rdock/2013.1/src/exe/rbdock.cxx#4 $)

>  <Rbt.Library>
libRbt.so (2013.1, Build901 2013/11/27)

>  <Rbt.Parameter_File>
/export/apps/rDock/src/rDock_2013.1_src/data/scripts/dock_solv.prm

>  <Rbt.Receptor>
prm/pocket_docking_6.prm

>  <SCORE>
-54.5016

>  <SCORE.INTER>
-35.0666

>  <SCORE.INTER.CONST>
1

>  <SCORE.INTER.POLAR>
-6.3487

>  <SCORE.INTER.ROT>
9

>  <SCORE.INTER.SOLV>
21.1896

>  <SCORE.INTER.VDW>
-18.8786

>  <SCORE.INTER.norm>
-0.83492

>  <SCORE.INTRA>
-19.435

>  <SCORE.INTRA.DIHEDRAL>
-15.4098

>  <SCORE.INTRA.DIHEDRAL.0>
40.8761

>  <SCORE.INTRA.POLAR>
-1.14293

>  <SCORE.INTRA.POLAR.0>
-0.0268208

>  <SCORE.INTRA.REPUL>
-0.641615

>  <SCORE.INTRA.REPUL.0>
0.641615

>  <SCORE.INTRA.SOLV>
-11.8318

>  <SCORE.INTRA.SOLV.lig_0>
-162.567

>  <SCORE.INTRA.VDW>
1.27987

>  <SCORE.INTRA.VDW.0>
-4.80338

>  <SCORE.INTRA.norm>
-0.462737

>  <SCORE.RESTR>
0

>  <SCORE.RESTR.CAVITY>
0

>  <SCORE.RESTR.norm>
0

>  <SCORE.SYSTEM>
0

>  <SCORE.SYSTEM.CONST>
0

>  <SCORE.SYSTEM.DIHEDRAL>
0

>  <SCORE.SYSTEM.SOLV>
0

>  <SCORE.SYSTEM.norm>
0

>  <SCORE.heavy>
42

>  <SCORE.norm>
-1.29766

>  <RMSD>
5.881

$$$$

 OpenBabel11021811393D
libRbt.so/2013.1/901 2013/11/27
 42 45  0  0  0  0  0  0  0  0999 V2000
   -2.7818    5.8165    4.1668 C   0  0  2  0  0  0  0  0  0  0  0  0
   -3.9783    4.9994    4.3524 O   0  0  0  0  0  0  0  0  0  0  0  0
   -2.9729    7.2567    4.7440 C   0  0  2  0  0  0  0  0  0  0  0  0
   -4.1531    7.3366    5.6349 N   0  3  0  0  0  0  0  0  0  0  0  0
   -3.0857    8.3005    3.5922 C   0  0  1  0  0  0  0  0  0  0  0  0
   -3.2493    9.6107    4.1307 O   0  0  0  0  0  0  0  0  0  0  0  0
   -1.8267    8.2953    2.6843 C   0  0  2  0  0  0  0  0  0  0  0  0
   -2.1091    9.0436    1.5070 O   0  0  0  0  0  0  0  0  0  0  0  0
   -1.4068    6.8382    2.3050 C   0  0  2  0  0  0  0  0  0  0  0  0
   -2.4326    5.8885    2.7420 O   0  0  0  0  0  0  0  0  0  0  0  0
   -0.0768    6.3685    2.9382 C   0  0  0  0  0  0  0  0  0  0  0  0
   -1.9233    1.4914    5.7985 C   0  0  1  0  0  0  0  0  0  0  0  0
   -1.6166    0.1167    6.2529 N   0  3  0  0  0  0  0  0  0  0  0  0
   -2.2471    1.5307    4.2820 C   0  0  1  0  0  0  0  0  0  0  0  0
   -2.7261    2.9351    3.7740 C   0  0  1  0  0  0  0  0  0  0  0  0
   -3.2993    2.7673    2.4495 O   0  0  0  0  0  0  0  0  0  0  0  0
   -3.8278    3.5860    4.6888 C   0  0  1  0  0  0  0  0  0  0  0  0
   -3.4610    3.4911    6.2052 C   0  0  1  0  0  0  0  0  0  0  0  0
   -4.5588    3.9661    7.0719 N   0  3  0  0  0  0  0  0  0  0  0  0
   -3.1051    2.0460    6.6209 C   0  0  0  0  0  0  0  0  0  0  0  0
   -3.8460    1.4735    2.0619 C   0  0  1  0  0  0  0  0  0  0  0  0
   -5.1192    1.7061    1.2571 C   0  0  1  0  0  0  0  0  0  0  0  0
   -4.5182    2.0331   -0.1031 C   0  0  1  0  0  0  0  0  0  0  0  0
   -3.3741    1.0130   -0.1902 C   0  0  2  0  0  0  0  0  0  0  0  0
   -2.9374    0.8022    1.1738 O   0  0  0  0  0  0  0  0  0  0  0  0
   -2.1972    1.5004   -1.0542 C   0  0  0  0  0  0  0  0  0  0  0  0
   -5.1793    1.8297   -5.0011 C   0  0  1  0  0  0  0  0  0  0  0  0
   -6.4973    1.6122   -4.2067 C   0  0  1  0  0  0  0  0  0  0  0  0
   -6.7775    2.7010   -3.1309 C   0  0  2  0  0  0  0  0  0  0  0  0
   -5.5456    2.8943   -2.1891 C   0  0  1  0  0  0  0  0  0  0  0  0
   -5.4883    1.8519   -1.1746 O   0  0  0  0  0  0  0  0  0  0  0  0
   -4.3708    3.0276   -4.4168 C   0  0  1  0  0  0  0  0  0  0  0  0
   -4.2811    2.8951   -2.9604 O   0  0  0  0  0  0  0  0  0  0  0  0
   -2.9416    3.1235   -5.0100 C   0  0  0  0  0  0  0  0  0  0  0  0
    1.0568    7.2855    2.7252 N   0  3  0  0  0  0  0  0  0  0  0  0
   -5.8895    0.5047    1.2138 O   0  0  0  0  0  0  0  0  0  0  0  0
   -7.5831    1.5976   -5.1325 O   0  0  0  0  0  0  0  0  0  0  0  0
   -4.4048    0.6306   -4.9284 O   0  0  0  0  0  0  0  0  0  0  0  0
   -0.9694    0.9773   -0.5771 O   0  0  0  0  0  0  0  0  0  0  0  0
   -1.0777    1.1578    3.5535 O   0  0  0  0  0  0  0  0  0  0  0  0
   -2.9251    3.6636   -6.3819 N   0  3  0  0  0  0  0  0  0  0  0  0
   -8.0279    2.4158   -2.3843 N   0  3  0  0  0  0  0  0  0  0  0  0
  1  2  1  6  0  0  0
  1  3  1  0  0  0  0
  1 10  1  0  0  0  0
  3  4  1  6  0  0  0
  3  5  1  0  0  0  0
  5  6  1  1  0  0  0
  5  7  1  0  0  0  0
  7  8  1  6  0  0  0
  7  9  1  0  0  0  0
  9 10  1  0  0  0  0
  9 11  1  1  0  0  0
 11 35  1  0  0  0  0
 12 13  1  1  0  0  0
 12 14  1  0  0  0  0
 12 20  1  0  0  0  0
 14 15  1  0  0  0  0
 14 40  1  6  0  0  0
 15 16  1  6  0  0  0
 15 17  1  0  0  0  0
 17  2  1  6  0  0  0
 17 18  1  0  0  0  0
 18 19  1  1  0  0  0
 18 20  1  0  0  0  0
 21 16  1  6  0  0  0
 21 22  1  0  0  0  0
 21 25  1  0  0  0  0
 22 23  1  0  0  0  0
 22 36  1  6  0  0  0
 23 24  1  0  0  0  0
 23 31  1  6  0  0  0
 24 25  1  0  0  0  0
 24 26  1  6  0  0  0
 26 39  1  0  0  0  0
 27 28  1  0  0  0  0
 27 32  1  0  0  0  0
 27 38  1  1  0  0  0
 28 29  1  0  0  0  0
 28 37  1  6  0  0  0
 29 30  1  0  0  0  0
 29 42  1  1  0  0  0
 30 31  1  1  0  0  0
 30 33  1  0  0  0  0
 32 33  1  0  0  0  0
 32 34  1  6  0  0  0
 34 41  1  0  0  0  0
M  CHG  6   4   1  13   1  19   1  35   1  41   1  42   1
M  END
>  <CHROM.1>
-141.97278481,-45.07096544,-30.01907860,-176.94606280,-173.90685567,-52.00224042
-83.74307206,-71.32916015,-54.82916420,25.10958408,140.49697464,-151.23855109
-50.44809006,135.81036093,148.38253062,-48.27632599,64.59478118,56.85137598
48.95504932,-170.36459988,75.70878255,-33.47157959,-3.51251592,3.53621507
1.14812541,-0.41631057,-1.26960144,-0.80577418

>  <Name>


>  <RI>
0

>  <Rbt.Current_Directory>
/home/itssahil/PROJECTS/Mol_Feturizer/New_Systems/rnas/1ei2

>  <Rbt.Executable>
rbdock ($Id: //depot/dev/client3/rdock/2013.1/src/exe/rbdock.cxx#4 $)

>  <Rbt.Library>
libRbt.so (2013.1, Build901 2013/11/27)

>  <Rbt.Parameter_File>
/export/apps/rDock/src/rDock_2013.1_src/data/scripts/dock_solv.prm

>  <Rbt.Receptor>
prm/pocket_docking_6.prm

>  <SCORE>
-55.5394

>  <SCORE.INTER>
-45.9415

>  <SCORE.INTER.CONST>
1

>  <SCORE.INTER.POLAR>
-8.81325

>  <SCORE.INTER.ROT>
9

>  <SCORE.INTER.SOLV>
31.6909

>  <SCORE.INTER.VDW>
-21.4138

>  <SCORE.INTER.norm>
-1.09385

>  <SCORE.INTRA>
-10.3334

>  <SCORE.INTRA.DIHEDRAL>
-5.57806

>  <SCORE.INTRA.DIHEDRAL.0>
40.8761

>  <SCORE.INTRA.POLAR>
-0.496679

>  <SCORE.INTRA.POLAR.0>
-0.0268208

>  <SCORE.INTRA.REPUL>
-0.38573

>  <SCORE.INTRA.REPUL.0>
0.641615

>  <SCORE.INTRA.SOLV>
-12.1304

>  <SCORE.INTRA.SOLV.lig_0>
-162.567

>  <SCORE.INTRA.VDW>
2.13814

>  <SCORE.INTRA.VDW.0>
-4.80338

>  <SCORE.INTRA.norm>
-0.246034

>  <SCORE.RESTR>
0.735613

>  <SCORE.RESTR.CAVITY>
0.735613

>  <SCORE.RESTR.norm>
0.0175146

>  <SCORE.SYSTEM>
0

>  <SCORE.SYSTEM.CONST>
0

>  <SCORE.SYSTEM.DIHEDRAL>
0

>  <SCORE.SYSTEM.SOLV>
0

>  <SCORE.SYSTEM.norm>
0

>  <SCORE.heavy>
42

>  <SCORE.norm>
-1.32237

>  <RMSD>
5.912

$$$$

 OpenBabel11021811393D
libRbt.so/2013.1/901 2013/11/27
 42 45  0  0  0  0  0  0  0  0999 V2000
   -6.3848    3.7948    0.3175 C   0  0  2  0  0  0  0  0  0  0  0  0
   -7.2186    2.6027    0.4491 O   0  0  0  0  0  0  0  0  0  0  0  0
   -5.9874    4.3764    1.7130 C   0  0  2  0  0  0  0  0  0  0  0  0
   -6.2416    3.4060    2.8024 N   0  3  0  0  0  0  0  0  0  0  0  0
   -6.7392    5.7141    1.9860 C   0  0  1  0  0  0  0  0  0  0  0  0
   -6.3612    6.2399    3.2564 O   0  0  0  0  0  0  0  0  0  0  0  0
   -6.4312    6.7802    0.9006 C   0  0  2  0  0  0  0  0  0  0  0  0
   -7.3547    7.8542    1.0400 O   0  0  0  0  0  0  0  0  0  0  0  0
   -6.5296    6.1721   -0.5360 C   0  0  2  0  0  0  0  0  0  0  0  0
   -7.0827    4.8173   -0.4727 O   0  0  0  0  0  0  0  0  0  0  0  0
   -5.1783    6.0592   -1.2787 C   0  0  0  0  0  0  0  0  0  0  0  0
   -9.4383   -0.3268   -1.8116 C   0  0  1  0  0  0  0  0  0  0  0  0
  -10.1086   -1.0558   -2.9115 N   0  3  0  0  0  0  0  0  0  0  0  0
   -7.8954   -0.3507   -1.9702 C   0  0  1  0  0  0  0  0  0  0  0  0
   -7.1380    0.5318   -0.9178 C   0  0  1  0  0  0  0  0  0  0  0  0
   -5.7633    0.6877   -1.3617 O   0  0  0  0  0  0  0  0  0  0  0  0
   -7.7505    1.9716   -0.7560 C   0  0  1  0  0  0  0  0  0  0  0  0
   -9.3079    1.9349   -0.6298 C   0  0  1  0  0  0  0  0  0  0  0  0
   -9.8961    3.2898   -0.6276 N   0  3  0  0  0  0  0  0  0  0  0  0
   -9.9582    1.1254   -1.7743 C   0  0  0  0  0  0  0  0  0  0  0  0
   -4.7071   -0.0760   -0.7105 C   0  0  1  0  0  0  0  0  0  0  0  0
   -4.5330   -1.3950   -1.4539 C   0  0  1  0  0  0  0  0  0  0  0  0
   -3.6839   -0.9284   -2.6285 C   0  0  1  0  0  0  0  0  0  0  0  0
   -2.7138    0.0444   -1.9431 C   0  0  2  0  0  0  0  0  0  0  0  0
   -3.4529    0.6140   -0.8363 O   0  0  0  0  0  0  0  0  0  0  0  0
   -2.2184    1.1607   -2.8799 C   0  0  0  0  0  0  0  0  0  0  0  0
   -1.6031   -2.9000   -6.7349 C   0  0  1  0  0  0  0  0  0  0  0  0
   -1.5950   -3.8519   -5.5064 C   0  0  1  0  0  0  0  0  0  0  0  0
   -2.9759   -3.9938   -4.8036 C   0  0  2  0  0  0  0  0  0  0  0  0
   -3.5821   -2.5946   -4.4621 C   0  0  1  0  0  0  0  0  0  0  0  0
   -2.9827   -2.0398   -3.2570 O   0  0  0  0  0  0  0  0  0  0  0  0
   -2.9848   -2.1927   -6.8791 C   0  0  1  0  0  0  0  0  0  0  0  0
   -3.3933   -1.6450   -5.5830 O   0  0  0  0  0  0  0  0  0  0  0  0
   -2.9603   -1.0532   -7.9304 C   0  0  0  0  0  0  0  0  0  0  0  0
   -5.2935    5.6909   -2.7008 N   0  3  0  0  0  0  0  0  0  0  0  0
   -3.8244   -2.3228   -0.6318 O   0  0  0  0  0  0  0  0  0  0  0  0
   -1.1711   -5.1433   -5.9412 O   0  0  0  0  0  0  0  0  0  0  0  0
   -0.5686   -1.9292   -6.5611 O   0  0  0  0  0  0  0  0  0  0  0  0
   -1.0058    1.7189   -2.4038 O   0  0  0  0  0  0  0  0  0  0  0  0
   -7.4422   -1.6983   -1.8444 O   0  0  0  0  0  0  0  0  0  0  0  0
   -2.6061    0.2550   -7.3499 N   0  3  0  0  0  0  0  0  0  0  0  0
   -2.8924   -4.8843   -3.6194 N   0  3  0  0  0  0  0  0  0  0  0  0
  1  2  1  1  0  0  0
  1  3  1  0  0  0  0
  1 10  1  0  0  0  0
  3  4  1  1  0  0  0
  3  5  1  0  0  0  0
  5  6  1  1  0  0  0
  5  7  1  0  0  0  0
  7  8  1  6  0  0  0
  7  9  1  0  0  0  0
  9 10  1  0  0  0  0
  9 11  1  1  0  0  0
 11 35  1  0  0  0  0
 12 13  1  6  0  0  0
 12 14  1  0  0  0  0
 12 20  1  0  0  0  0
 14 15  1  0  0  0  0
 14 40  1  1  0  0  0
 15 16  1  6  0  0  0
 15 17  1  0  0  0  0
 17  2  1  1  0  0  0
 17 18  1  0  0  0  0
 18 19  1  6  0  0  0
 18 20  1  0  0  0  0
 21 16  1  6  0  0  0
 21 22  1  0  0  0  0
 21 25  1  0  0  0  0
 22 23  1  0  0  0  0
 22 36  1  1  0  0  0
 23 24  1  0  0  0  0
 23 31  1  1  0  0  0
 24 25  1  0  0  0  0
 24 26  1  6  0  0  0
 26 39  1  0  0  0  0
 27 28  1  0  0  0  0
 27 32  1  0  0  0  0
 27 38  1  1  0  0  0
 28 29  1  0  0  0  0
 28 37  1  6  0  0  0
 29 30  1  0  0  0  0
 29 42  1  1  0  0  0
 30 31  1  1  0  0  0
 30 33  1  0  0  0  0
 32 33  1  0  0  0  0
 32 34  1  6  0  0  0
 34 41  1  0  0  0  0
M  CHG  6   4   1  13   1  19   1  35   1  41   1  42   1
M  END
>  <CHROM.1>
176.36636518,115.25358206,134.02261202,63.88832523,-173.87137693,-170.72026594
-46.97191823,150.17739547,73.93539089,-104.07996456,90.50550139,-127.13857026
72.32099207,98.79520295,-158.61613544,95.58037848,176.52675181,-176.47224159
-104.18171534,-164.25106039,-90.30788328,38.57462757,-5.14455933,0.87351615
-2.12686438,-2.07618072,-0.40849307,-2.69128388

>  <Name>


>  <RI>
0

>  <Rbt.Current_Directory>
/home/itssahil/PROJECTS/Mol_Feturizer/New_Systems/rnas/1ei2

>  <Rbt.Executable>
rbdock ($Id: //depot/dev/client3/rdock/2013.1/src/exe/rbdock.cxx#4 $)

>  <Rbt.Library>
libRbt.so (2013.1, Build901 2013/11/27)

>  <Rbt.Parameter_File>
/export/apps/rDock/src/rDock_2013.1_src/data/scripts/dock_solv.prm

>  <Rbt.Receptor>
prm/pocket_docking_8.prm

>  <SCORE>
-51.7596

>  <SCORE.INTER>
-44.0494

>  <SCORE.INTER.CONST>
1

>  <SCORE.INTER.POLAR>
-7.07807

>  <SCORE.INTER.ROT>
9

>  <SCORE.INTER.SOLV>
44.376

>  <SCORE.INTER.VDW>
-30.1647

>  <SCORE.INTER.norm>
-1.04879

>  <SCORE.INTRA>
-7.91154

>  <SCORE.INTRA.DIHEDRAL>
6.31642

>  <SCORE.INTRA.DIHEDRAL.0>
40.8761

>  <SCORE.INTRA.POLAR>
-1.11585

>  <SCORE.INTRA.POLAR.0>
-0.0268208

>  <SCORE.INTRA.REPUL>
-0.641615

>  <SCORE.INTRA.REPUL.0>
0.641615

>  <SCORE.INTRA.SOLV>
-10.3964

>  <SCORE.INTRA.SOLV.lig_0>
-162.567

>  <SCORE.INTRA.VDW>
1.13044

>  <SCORE.INTRA.VDW.0>
-4.80338

>  <SCORE.INTRA.norm>
-0.18837

>  <SCORE.RESTR>
0.201309

>  <SCORE.RESTR.CAVITY>
0.201309

>  <SCORE.RESTR.norm>
0.00479308

>  <SCORE.SYSTEM>
0

>  <SCORE.SYSTEM.CONST>
0

>  <SCORE.SYSTEM.DIHEDRAL>
0

>  <SCORE.SYSTEM.SOLV>
0

>  <SCORE.SYSTEM.norm>
0

>  <SCORE.heavy>
42

>  <SCORE.norm>
-1.23237

>  <RMSD>
5.914

$$$$

 OpenBabel11021811393D
libRbt.so/2013.1/901 2013/11/27
 42 45  0  0  0  0  0  0  0  0999 V2000
   -5.2215    4.4853    1.5773 C   0  0  2  0  0  0  0  0  0  0  0  0
   -6.6394    4.6662    1.2764 O   0  0  0  0  0  0  0  0  0  0  0  0
   -5.0102    3.5631    2.8218 C   0  0  2  0  0  0  0  0  0  0  0  0
   -6.2451    2.8238    3.1706 N   0  3  0  0  0  0  0  0  0  0  0  0
   -4.5061    4.3920    4.0416 C   0  0  1  0  0  0  0  0  0  0  0  0
   -4.3074    3.5390    5.1669 O   0  0  0  0  0  0  0  0  0  0  0  0
   -3.1696    5.1181    3.7323 C   0  0  2  0  0  0  0  0  0  0  0  0
   -2.9190    6.0711    4.7592 O   0  0  0  0  0  0  0  0  0  0  0  0
   -3.2193    5.8299    2.3414 C   0  0  2  0  0  0  0  0  0  0  0  0
   -4.5804    5.7874    1.8023 O   0  0  0  0  0  0  0  0  0  0  0  0
   -2.3025    5.2021    1.2664 C   0  0  0  0  0  0  0  0  0  0  0  0
   -9.4157    4.2536   -2.0011 C   0  0  1  0  0  0  0  0  0  0  0  0
  -10.0386    4.2960   -3.3430 N   0  3  0  0  0  0  0  0  0  0  0  0
   -8.2479    3.2339   -1.9477 C   0  0  1  0  0  0  0  0  0  0  0  0
   -7.4531    3.2532   -0.5957 C   0  0  1  0  0  0  0  0  0  0  0  0
   -6.2172    2.5132   -0.7853 O   0  0  0  0  0  0  0  0  0  0  0  0
   -7.0702    4.7023   -0.1188 C   0  0  1  0  0  0  0  0  0  0  0  0
   -8.2764    5.6910   -0.2221 C   0  0  1  0  0  0  0  0  0  0  0  0
   -7.8814    7.0813    0.0825 N   0  3  0  0  0  0  0  0  0  0  0  0
   -8.9210    5.6661   -1.6263 C   0  0  0  0  0  0  0  0  0  0  0  0
   -6.2205    1.0625   -0.6503 C   0  0  1  0  0  0  0  0  0  0  0  0
   -6.0452    0.4460   -2.0331 C   0  0  1  0  0  0  0  0  0  0  0  0
   -4.5375    0.5822   -2.1962 C   0  0  1  0  0  0  0  0  0  0  0  0
   -4.0388    0.2098   -0.7927 C   0  0  2  0  0  0  0  0  0  0  0  0
   -5.0814    0.6377    0.1159 O   0  0  0  0  0  0  0  0  0  0  0  0
   -2.7063    0.8883   -0.4275 C   0  0  0  0  0  0  0  0  0  0  0  0
   -2.1944    1.1593   -6.2421 C   0  0  1  0  0  0  0  0  0  0  0  0
   -2.1881   -0.3415   -5.8383 C   0  0  1  0  0  0  0  0  0  0  0  0
   -3.6035   -0.9387   -5.5910 C   0  0  2  0  0  0  0  0  0  0  0  0
   -4.4193   -0.0609   -4.5880 C   0  0  1  0  0  0  0  0  0  0  0  0
   -4.0246   -0.3269   -3.2122 O   0  0  0  0  0  0  0  0  0  0  0  0
   -3.6345    1.7502   -6.1579 C   0  0  1  0  0  0  0  0  0  0  0  0
   -4.2421    1.3810   -4.8768 O   0  0  0  0  0  0  0  0  0  0  0  0
   -3.6513    3.2935   -6.3053 C   0  0  0  0  0  0  0  0  0  0  0  0
   -0.8634    5.2760    1.5743 N   0  3  0  0  0  0  0  0  0  0  0  0
   -6.4471   -0.9238   -2.0057 O   0  0  0  0  0  0  0  0  0  0  0  0
   -1.5566   -1.0847   -6.8800 O   0  0  0  0  0  0  0  0  0  0  0  0
   -1.3191    1.8677   -5.3618 O   0  0  0  0  0  0  0  0  0  0  0  0
   -2.5725    1.0159    0.9777 O   0  0  0  0  0  0  0  0  0  0  0  0
   -8.7748    1.9224   -2.1472 O   0  0  0  0  0  0  0  0  0  0  0  0
   -3.0968    3.9881   -5.1289 N   0  3  0  0  0  0  0  0  0  0  0  0
   -3.5264   -2.3606   -5.1734 N   0  3  0  0  0  0  0  0  0  0  0  0
  1  2  1  1  0  0  0
  1  3  1  0  0  0  0
  1 10  1  0  0  0  0
  3  4  1  1  0  0  0
  3  5  1  0  0  0  0
  5  6  1  1  0  0  0
  5  7  1  0  0  0  0
  7  8  1  1  0  0  0
  7  9  1  0  0  0  0
  9 10  1  0  0  0  0
  9 11  1  6  0  0  0
 11 35  1  0  0  0  0
 12 13  1  6  0  0  0
 12 14  1  0  0  0  0
 12 20  1  0  0  0  0
 14 15  1  0  0  0  0
 14 40  1  1  0  0  0
 15 16  1  6  0  0  0
 15 17  1  0  0  0  0
 17  2  1  1  0  0  0
 17 18  1  0  0  0  0
 18 19  1  6  0  0  0
 18 20  1  0  0  0  0
 21 16  1  6  0  0  0
 21 22  1  0  0  0  0
 21 25  1  0  0  0  0
 22 23  1  0  0  0  0
 22 36  1  1  0  0  0
 23 24  1  0  0  0  0
 23 31  1  6  0  0  0
 24 25  1  0  0  0  0
 24 26  1  1  0  0  0
 26 39  1  0  0  0  0
 27 28  1  0  0  0  0
 27 32  1  0  0  0  0
 27 38  1  1  0  0  0
 28 29  1  0  0  0  0
 28 37  1  6  0  0  0
 29 30  1  0  0  0  0
 29 42  1  1  0  0  0
 30 31  1  1  0  0  0
 30 33  1  0  0  0  0
 32 33  1  0  0  0  0
 32 34  1  1  0  0  0
 34 41  1  0  0  0  0
M  CHG  6   4   1  13   1  19   1  35   1  41   1  42   1
M  END
>  <CHROM.1>
-141.49889148,91.39448719,175.51476459,-167.64049384,70.06914662,-63.80304719
175.88570219,-121.97604469,57.59399688,-83.92292319,108.75755853,-59.83369132
-175.51751240,67.62991832,154.43595373,56.09989692,-52.68094644,166.61132249
-51.30452083,169.71624608,-71.19859728,-166.63594909,-4.88880131,2.64830806
-1.20838667,-1.76008291,0.33571705,-2.05108899

>  <Name>


>  <RI>
0

>  <Rbt.Current_Directory>
/home/itssahil/PROJECTS/Mol_Feturizer/New_Systems/rnas/1ei2

>  <Rbt.Executable>
rbdock ($Id: //depot/dev/client3/rdock/2013.1/src/exe/rbdock.cxx#4 $)

>  <Rbt.Library>
libRbt.so (2013.1, Build901 2013/11/27)

>  <Rbt.Parameter_File>
/export/apps/rDock/src/rDock_2013.1_src/data/scripts/dock_solv.prm

>  <Rbt.Receptor>
prm/pocket_docking_5.prm

>  <SCORE>
-41.7133

>  <SCORE.INTER>
-26.703

>  <SCORE.INTER.CONST>
1

>  <SCORE.INTER.POLAR>
-4.61641

>  <SCORE.INTER.ROT>
9

>  <SCORE.INTER.SOLV>
28.287

>  <SCORE.INTER.VDW>
-21.443

>  <SCORE.INTER.norm>
-0.635787

>  <SCORE.INTRA>
-15.0102

>  <SCORE.INTRA.DIHEDRAL>
-11.8405

>  <SCORE.INTRA.DIHEDRAL.0>
40.8761

>  <SCORE.INTRA.POLAR>
-0.273187

>  <SCORE.INTRA.POLAR.0>
-0.0268208

>  <SCORE.INTRA.REPUL>
-0.641615

>  <SCORE.INTRA.REPUL.0>
0.641615

>  <SCORE.INTRA.SOLV>
-9.29974

>  <SCORE.INTRA.SOLV.lig_0>
-162.567

>  <SCORE.INTRA.VDW>
-0.303158

>  <SCORE.INTRA.VDW.0>
-4.80338

>  <SCORE.INTRA.norm>
-0.357386

>  <SCORE.RESTR>
0

>  <SCORE.RESTR.CAVITY>
0

>  <SCORE.RESTR.norm>
0

>  <SCORE.SYSTEM>
0

>  <SCORE.SYSTEM.CONST>
0

>  <SCORE.SYSTEM.DIHEDRAL>
0

>  <SCORE.SYSTEM.SOLV>
0

>  <SCORE.SYSTEM.norm>
0

>  <SCORE.heavy>
42

>  <SCORE.norm>
-0.993173

>  <RMSD>
5.921

$$$$

 OpenBabel11021811393D
libRbt.so/2013.1/901 2013/11/27
 42 45  0  0  0  0  0  0  0  0999 V2000
   -3.6588    1.9121    1.6232 C   0  0  2  0  0  0  0  0  0  0  0  0
   -4.6028    2.0434    0.5164 O   0  0  0  0  0  0  0  0  0  0  0  0
   -4.3531    2.1502    3.0035 C   0  0  2  0  0  0  0  0  0  0  0  0
   -5.8287    2.0975    2.8897 N   0  3  0  0  0  0  0  0  0  0  0  0
   -3.9004    3.5080    3.6202 C   0  0  1  0  0  0  0  0  0  0  0  0
   -4.5320    3.7092    4.8827 O   0  0  0  0  0  0  0  0  0  0  0  0
   -2.3627    3.5641    3.8246 C   0  0  2  0  0  0  0  0  0  0  0  0
   -1.9882    4.9075    4.1089 O   0  0  0  0  0  0  0  0  0  0  0  0
   -1.6030    3.0528    2.5578 C   0  0  2  0  0  0  0  0  0  0  0  0
   -2.5435    2.8526    1.4530 O   0  0  0  0  0  0  0  0  0  0  0  0
   -0.8631    1.7093    2.7522 C   0  0  0  0  0  0  0  0  0  0  0  0
   -1.7257    2.6964   -2.6325 C   0  0  1  0  0  0  0  0  0  0  0  0
   -1.0322    2.6927   -3.9400 N   0  3  0  0  0  0  0  0  0  0  0  0
   -3.0067    3.5705   -2.6701 C   0  0  1  0  0  0  0  0  0  0  0  0
   -3.8638    3.4927   -1.3589 C   0  0  1  0  0  0  0  0  0  0  0  0
   -5.1666    4.0745   -1.6333 O   0  0  0  0  0  0  0  0  0  0  0  0
   -4.0979    2.0215   -0.8540 C   0  0  1  0  0  0  0  0  0  0  0  0
   -2.7798    1.1816   -0.8653 C   0  0  1  0  0  0  0  0  0  0  0  0
   -3.0236   -0.2373   -0.5348 N   0  3  0  0  0  0  0  0  0  0  0  0
   -2.0695    1.2455   -2.2362 C   0  0  0  0  0  0  0  0  0  0  0  0
   -5.2628    5.4824   -1.9956 C   0  0  1  0  0  0  0  0  0  0  0  0
   -6.2832    5.6259   -3.1186 C   0  0  1  0  0  0  0  0  0  0  0  0
   -7.5741    5.5857   -2.3121 C   0  0  1  0  0  0  0  0  0  0  0  0
   -7.2046    6.4420   -1.0924 C   0  0  2  0  0  0  0  0  0  0  0  0
   -5.7854    6.2393   -0.8915 O   0  0  0  0  0  0  0  0  0  0  0  0
   -7.9811    6.0485    0.1770 C   0  0  0  0  0  0  0  0  0  0  0  0
   -7.6835    2.7842   -4.5928 C   0  0  1  0  0  0  0  0  0  0  0  0
   -8.6990    2.9735   -3.4316 C   0  0  1  0  0  0  0  0  0  0  0  0
   -9.8049    4.0292   -3.7205 C   0  0  2  0  0  0  0  0  0  0  0  0
   -9.1832    5.3846   -4.1879 C   0  0  1  0  0  0  0  0  0  0  0  0
   -8.6886    6.1560   -3.0568 O   0  0  0  0  0  0  0  0  0  0  0  0
   -7.9393    3.8220   -5.7277 C   0  0  1  0  0  0  0  0  0  0  0  0
   -8.0771    5.1600   -5.1470 O   0  0  0  0  0  0  0  0  0  0  0  0
   -6.8036    3.8377   -6.7832 C   0  0  0  0  0  0  0  0  0  0  0  0
   -0.6415    1.3338    4.1597 N   0  3  0  0  0  0  0  0  0  0  0  0
   -6.1115    6.8852   -3.7692 O   0  0  0  0  0  0  0  0  0  0  0  0
   -9.3255    1.7177   -3.1730 O   0  0  0  0  0  0  0  0  0  0  0  0
   -6.3632    2.9427   -4.0688 O   0  0  0  0  0  0  0  0  0  0  0  0
   -7.8566    7.0466    1.1754 O   0  0  0  0  0  0  0  0  0  0  0  0
   -2.6283    4.9297   -2.8865 O   0  0  0  0  0  0  0  0  0  0  0  0
   -6.7175    5.1153   -7.5140 N   0  3  0  0  0  0  0  0  0  0  0  0
  -10.7175    4.1892   -2.5613 N   0  3  0  0  0  0  0  0  0  0  0  0
  1  2  1  6  0  0  0
  1  3  1  0  0  0  0
  1 10  1  0  0  0  0
  3  4  1  6  0  0  0
  3  5  1  0  0  0  0
  5  6  1  1  0  0  0
  5  7  1  0  0  0  0
  7  8  1  6  0  0  0
  7  9  1  0  0  0  0
  9 10  1  0  0  0  0
  9 11  1  1  0  0  0
 11 35  1  0  0  0  0
 12 13  1  6  0  0  0
 12 14  1  0  0  0  0
 12 20  1  0  0  0  0
 14 15  1  0  0  0  0
 14 40  1  1  0  0  0
 15 16  1  6  0  0  0
 15 17  1  0  0  0  0
 17  2  1  1  0  0  0
 17 18  1  0  0  0  0
 18 19  1  6  0  0  0
 18 20  1  0  0  0  0
 21 16  1  1  0  0  0
 21 22  1  0  0  0  0
 21 25  1  0  0  0  0
 22 23  1  0  0  0  0
 22 36  1  1  0  0  0
 23 24  1  0  0  0  0
 23 31  1  6  0  0  0
 24 25  1  0  0  0  0
 24 26  1  1  0  0  0
 26 39  1  0  0  0  0
 27 28  1  0  0  0  0
 27 32  1  0  0  0  0
 27 38  1  1  0  0  0
 28 29  1  0  0  0  0
 28 37  1  6  0  0  0
 29 30  1  0  0  0  0
 29 42  1  1  0  0  0
 30 31  1  1  0  0  0
 30 33  1  0  0  0  0
 32 33  1  0  0  0  0
 32 34  1  6  0  0  0
 34 41  1  0  0  0  0
M  CHG  6   4   1  13   1  19   1  35   1  41   1  42   1
M  END
>  <CHROM.1>
172.31426905,-94.63991480,50.09120687,-64.58041412,-53.51534350,-17.68502100
173.27466109,38.32884036,-67.50972443,-63.11956248,138.76231656,-65.00873711
73.58257408,70.68269363,-165.93726561,-50.12977466,177.46929080,172.49607146
122.20688097,65.05300294,-156.28647592,-124.00810448,-5.24789806,3.72550320
-1.17324164,0.83213705,-0.47349799,1.46955457

>  <Name>


>  <RI>
0

>  <Rbt.Current_Directory>
/home/itssahil/PROJECTS/Mol_Feturizer/New_Systems/rnas/1ei2

>  <Rbt.Executable>
rbdock ($Id: //depot/dev/client3/rdock/2013.1/src/exe/rbdock.cxx#4 $)

>  <Rbt.Library>
libRbt.so (2013.1, Build901 2013/11/27)

>  <Rbt.Parameter_File>
/export/apps/rDock/src/rDock_2013.1_src/data/scripts/dock_solv.prm

>  <Rbt.Receptor>
prm/pocket_docking_8.prm

>  <SCORE>
-44.0435

>  <SCORE.INTER>
-32.4445

>  <SCORE.INTER.CONST>
1

>  <SCORE.INTER.POLAR>
-5.73568

>  <SCORE.INTER.ROT>
9

>  <SCORE.INTER.SOLV>
33.1466

>  <SCORE.INTER.VDW>
-23.1596

>  <SCORE.INTER.norm>
-0.772488

>  <SCORE.INTRA>
-11.599

>  <SCORE.INTRA.DIHEDRAL>
-11.9355

>  <SCORE.INTRA.DIHEDRAL.0>
40.8761

>  <SCORE.INTRA.POLAR>
-0.16935

>  <SCORE.INTRA.POLAR.0>
-0.0268208

>  <SCORE.INTRA.REPUL>
-0.635904

>  <SCORE.INTRA.REPUL.0>
0.641615

>  <SCORE.INTRA.SOLV>
-8.17926

>  <SCORE.INTRA.SOLV.lig_0>
-162.567

>  <SCORE.INTRA.VDW>
2.2137

>  <SCORE.INTRA.VDW.0>
-4.80338

>  <SCORE.INTRA.norm>
-0.276167

>  <SCORE.RESTR>
0

>  <SCORE.RESTR.CAVITY>
0

>  <SCORE.RESTR.norm>
0

>  <SCORE.SYSTEM>
0

>  <SCORE.SYSTEM.CONST>
0

>  <SCORE.SYSTEM.DIHEDRAL>
0

>  <SCORE.SYSTEM.SOLV>
0

>  <SCORE.SYSTEM.norm>
0

>  <SCORE.heavy>
42

>  <SCORE.norm>
-1.04866

>  <RMSD>
5.932

$$$$

 OpenBabel11021811393D
libRbt.so/2013.1/901 2013/11/27
 42 45  0  0  0  0  0  0  0  0999 V2000
  -10.0714    4.5662   -1.0875 C   0  0  2  0  0  0  0  0  0  0  0  0
   -9.9812    4.0725   -2.4593 O   0  0  0  0  0  0  0  0  0  0  0  0
  -11.4170    4.1461   -0.4117 C   0  0  2  0  0  0  0  0  0  0  0  0
  -12.1015    3.0769   -1.1742 N   0  3  0  0  0  0  0  0  0  0  0  0
  -12.3539    5.3793   -0.2379 C   0  0  1  0  0  0  0  0  0  0  0  0
  -13.5731    4.9858    0.3884 O   0  0  0  0  0  0  0  0  0  0  0  0
  -11.6932    6.4882    0.6243 C   0  0  2  0  0  0  0  0  0  0  0  0
  -12.4620    7.6799    0.5034 O   0  0  0  0  0  0  0  0  0  0  0  0
  -10.2196    6.7534    0.1752 C   0  0  2  0  0  0  0  0  0  0  0  0
   -9.9325    6.0281   -1.0644 O   0  0  0  0  0  0  0  0  0  0  0  0
   -9.1480    6.3129    1.1988 C   0  0  0  0  0  0  0  0  0  0  0  0
   -7.7047    4.4160   -6.1089 C   0  0  1  0  0  0  0  0  0  0  0  0
   -6.7170    4.8377   -7.1272 N   0  3  0  0  0  0  0  0  0  0  0  0
   -7.0258    3.6622   -4.9354 C   0  0  1  0  0  0  0  0  0  0  0  0
   -8.0002    3.3225   -3.7542 C   0  0  1  0  0  0  0  0  0  0  0  0
   -7.2017    2.9250   -2.6073 O   0  0  0  0  0  0  0  0  0  0  0  0
   -8.8919    4.5406   -3.3124 C   0  0  1  0  0  0  0  0  0  0  0  0
   -9.5252    5.2776   -4.5366 C   0  0  1  0  0  0  0  0  0  0  0  0
  -10.2394    6.5067   -4.1351 N   0  3  0  0  0  0  0  0  0  0  0  0
   -8.4620    5.6569   -5.5918 C   0  0  0  0  0  0  0  0  0  0  0  0
   -6.5235    1.6355   -2.6163 C   0  0  1  0  0  0  0  0  0  0  0  0
   -5.0218    1.8776   -2.7124 C   0  0  1  0  0  0  0  0  0  0  0  0
   -4.7114    2.2049   -1.2581 C   0  0  1  0  0  0  0  0  0  0  0  0
   -5.5798    1.1784   -0.5169 C   0  0  2  0  0  0  0  0  0  0  0  0
   -6.7330    0.9615   -1.3646 O   0  0  0  0  0  0  0  0  0  0  0  0
   -6.0279    1.6615    0.8742 C   0  0  0  0  0  0  0  0  0  0  0  0
   -4.0310    5.7389   -1.6383 C   0  0  1  0  0  0  0  0  0  0  0  0
   -4.0384    5.0646   -0.2381 C   0  0  1  0  0  0  0  0  0  0  0  0
   -2.7597    4.2348    0.0741 C   0  0  2  0  0  0  0  0  0  0  0  0
   -2.4548    3.2155   -1.0704 C   0  0  1  0  0  0  0  0  0  0  0  0
   -3.2958    2.0323   -0.9610 O   0  0  0  0  0  0  0  0  0  0  0  0
   -2.7852    5.2924   -2.4622 C   0  0  1  0  0  0  0  0  0  0  0  0
   -2.6535    3.8345   -2.4012 O   0  0  0  0  0  0  0  0  0  0  0  0
   -2.8656    5.7365   -3.9455 C   0  0  0  0  0  0  0  0  0  0  0  0
   -9.2938    6.9203    2.5334 N   0  3  0  0  0  0  0  0  0  0  0  0
   -4.3655    0.6807   -3.1311 O   0  0  0  0  0  0  0  0  0  0  0  0
   -4.1716    6.0843    0.7513 O   0  0  0  0  0  0  0  0  0  0  0  0
   -5.2312    5.3725   -2.3226 O   0  0  0  0  0  0  0  0  0  0  0  0
   -6.3533    0.5639    1.7097 O   0  0  0  0  0  0  0  0  0  0  0  0
   -6.4711    2.4445   -5.4322 O   0  0  0  0  0  0  0  0  0  0  0  0
   -2.4061    4.6943   -4.8819 N   0  3  0  0  0  0  0  0  0  0  0  0
   -2.8454    3.5880    1.4070 N   0  3  0  0  0  0  0  0  0  0  0  0
  1  2  1  6  0  0  0
  1  3  1  0  0  0  0
  1 10  1  0  0  0  0
  3  4  1  6  0  0  0
  3  5  1  0  0  0  0
  5  6  1  1  0  0  0
  5  7  1  0  0  0  0
  7  8  1  6  0  0  0
  7  9  1  0  0  0  0
  9 10  1  0  0  0  0
  9 11  1  1  0  0  0
 11 35  1  0  0  0  0
 12 13  1  6  0  0  0
 12 14  1  0  0  0  0
 12 20  1  0  0  0  0
 14 15  1  0  0  0  0
 14 40  1  6  0  0  0
 15 16  1  1  0  0  0
 15 17  1  0  0  0  0
 17  2  1  1  0  0  0
 17 18  1  0  0  0  0
 18 19  1  1  0  0  0
 18 20  1  0  0  0  0
 21 16  1  1  0  0  0
 21 22  1  0  0  0  0
 21 25  1  0  0  0  0
 22 23  1  0  0  0  0
 22 36  1  1  0  0  0
 23 24  1  0  0  0  0
 23 31  1  6  0  0  0
 24 25  1  0  0  0  0
 24 26  1  1  0  0  0
 26 39  1  0  0  0  0
 27 28  1  0  0  0  0
 27 32  1  0  0  0  0
 27 38  1  6  0  0  0
 28 29  1  0  0  0  0
 28 37  1  1  0  0  0
 29 30  1  0  0  0  0
 29 42  1  1  0  0  0
 30 31  1  1  0  0  0
 30 33  1  0  0  0  0
 32 33  1  0  0  0  0
 32 34  1  6  0  0  0
 34 41  1  0  0  0  0
M  CHG  6   4   1  13   1  19   1  35   1  41   1  42   1
M  END
>  <CHROM.1>
170.58009062,118.78317990,57.15131682,-54.73729238,-69.87589303,-56.67519572
-175.37477663,177.28708468,-60.45886295,-71.94727290,110.68034511,126.84079957
-63.97370982,93.83074739,-157.21991147,62.51195287,66.72937837,171.16187444
-178.33721935,70.30444395,-138.58764434,84.90888134,-7.09296327,4.17720226
-1.77656820,-2.95195779,0.28818487,-1.56276992

>  <Name>


>  <RI>
0

>  <Rbt.Current_Directory>
/home/itssahil/PROJECTS/Mol_Feturizer/New_Systems/rnas/1ei2

>  <Rbt.Executable>
rbdock ($Id: //depot/dev/client3/rdock/2013.1/src/exe/rbdock.cxx#4 $)

>  <Rbt.Library>
libRbt.so (2013.1, Build901 2013/11/27)

>  <Rbt.Parameter_File>
/export/apps/rDock/src/rDock_2013.1_src/data/scripts/dock_solv.prm

>  <Rbt.Receptor>
prm/pocket_docking_4.prm

>  <SCORE>
-39.9466

>  <SCORE.INTER>
-25.2002

>  <SCORE.INTER.CONST>
1

>  <SCORE.INTER.POLAR>
-4.68266

>  <SCORE.INTER.ROT>
9

>  <SCORE.INTER.SOLV>
28.4035

>  <SCORE.INTER.VDW>
-20.2591

>  <SCORE.INTER.norm>
-0.600006

>  <SCORE.INTRA>
-14.8264

>  <SCORE.INTRA.DIHEDRAL>
-8.30801

>  <SCORE.INTRA.DIHEDRAL.0>
40.8761

>  <SCORE.INTRA.POLAR>
-1.02506

>  <SCORE.INTRA.POLAR.0>
-0.0268208

>  <SCORE.INTRA.REPUL>
-0.548569

>  <SCORE.INTRA.REPUL.0>
0.641615

>  <SCORE.INTRA.SOLV>
-8.53935

>  <SCORE.INTRA.SOLV.lig_0>
-162.567

>  <SCORE.INTRA.VDW>
-0.174682

>  <SCORE.INTRA.VDW.0>
-4.80338

>  <SCORE.INTRA.norm>
-0.353009

>  <SCORE.RESTR>
0.0800572

>  <SCORE.RESTR.CAVITY>
0.0800572

>  <SCORE.RESTR.norm>
0.00190612

>  <SCORE.SYSTEM>
0

>  <SCORE.SYSTEM.CONST>
0

>  <SCORE.SYSTEM.DIHEDRAL>
0

>  <SCORE.SYSTEM.SOLV>
0

>  <SCORE.SYSTEM.norm>
0

>  <SCORE.heavy>
42

>  <SCORE.norm>
-0.951109

>  <RMSD>
5.960

$$$$

 OpenBabel11021811393D
libRbt.so/2013.1/901 2013/11/27
 42 45  0  0  0  0  0  0  0  0999 V2000
   -8.2986    5.9405   -0.0161 C   0  0  2  0  0  0  0  0  0  0  0  0
   -8.9257    6.5595   -1.1811 O   0  0  0  0  0  0  0  0  0  0  0  0
   -9.3583    5.2855    0.9282 C   0  0  2  0  0  0  0  0  0  0  0  0
  -10.6708    5.1379    0.2583 N   0  3  0  0  0  0  0  0  0  0  0  0
   -9.5055    6.1076    2.2441 C   0  0  1  0  0  0  0  0  0  0  0  0
  -10.4667    5.4953    3.1011 O   0  0  0  0  0  0  0  0  0  0  0  0
   -8.1600    6.2144    3.0105 C   0  0  2  0  0  0  0  0  0  0  0  0
   -8.2905    7.2016    4.0275 O   0  0  0  0  0  0  0  0  0  0  0  0
   -6.9869    6.5890    2.0478 C   0  0  2  0  0  0  0  0  0  0  0  0
   -7.5118    6.9350    0.7249 O   0  0  0  0  0  0  0  0  0  0  0  0
   -5.9528    5.4610    1.8274 C   0  0  0  0  0  0  0  0  0  0  0  0
   -7.9151    7.2392   -5.3207 C   0  0  1  0  0  0  0  0  0  0  0  0
   -7.2312    7.6783   -6.5577 N   0  3  0  0  0  0  0  0  0  0  0  0
   -7.1018    6.1471   -4.5777 C   0  0  1  0  0  0  0  0  0  0  0  0
   -7.7019    5.7505   -3.1840 C   0  0  1  0  0  0  0  0  0  0  0  0
   -6.7013    4.9848   -2.4605 O   0  0  0  0  0  0  0  0  0  0  0  0
   -8.0849    6.9904   -2.2950 C   0  0  1  0  0  0  0  0  0  0  0  0
   -8.8766    8.0686   -3.1034 C   0  0  1  0  0  0  0  0  0  0  0  0
   -9.1070    9.2954   -2.3136 N   0  3  0  0  0  0  0  0  0  0  0  0
   -8.1455    8.4609   -4.4071 C   0  0  0  0  0  0  0  0  0  0  0  0
   -6.2680    3.6951   -2.9818 C   0  0  1  0  0  0  0  0  0  0  0  0
   -4.7908    3.5109   -2.6549 C   0  0  1  0  0  0  0  0  0  0  0  0
   -4.8933    3.0637   -1.2030 C   0  0  1  0  0  0  0  0  0  0  0  0
   -6.0993    2.1150   -1.2550 C   0  0  2  0  0  0  0  0  0  0  0  0
   -6.9561    2.6334   -2.3003 O   0  0  0  0  0  0  0  0  0  0  0  0
   -6.8694    2.0466    0.0761 C   0  0  0  0  0  0  0  0  0  0  0  0
   -0.8313    3.0660    1.7087 C   0  0  1  0  0  0  0  0  0  0  0  0
   -0.9258    1.8311    0.7699 C   0  0  1  0  0  0  0  0  0  0  0  0
   -1.1997    2.1854   -0.7202 C   0  0  2  0  0  0  0  0  0  0  0  0
   -2.4386    3.1277   -0.8579 C   0  0  1  0  0  0  0  0  0  0  0  0
   -3.6837    2.3789   -0.7672 O   0  0  0  0  0  0  0  0  0  0  0  0
   -1.1851    4.3753    0.9400 C   0  0  1  0  0  0  0  0  0  0  0  0
   -2.4249    4.1804    0.1840 O   0  0  0  0  0  0  0  0  0  0  0  0
   -1.3500    5.5920    1.8867 C   0  0  0  0  0  0  0  0  0  0  0  0
   -4.6037    5.9327    1.4684 N   0  3  0  0  0  0  0  0  0  0  0  0
   -4.2376    2.4858   -3.4805 O   0  0  0  0  0  0  0  0  0  0  0  0
    0.3045    1.1121    0.8477 O   0  0  0  0  0  0  0  0  0  0  0  0
   -1.7358    2.8751    2.7988 O   0  0  0  0  0  0  0  0  0  0  0  0
   -6.0771    1.4492    1.0881 O   0  0  0  0  0  0  0  0  0  0  0  0
   -7.0452    4.9800   -5.3975 O   0  0  0  0  0  0  0  0  0  0  0  0
   -0.5575    6.7607    1.4620 N   0  3  0  0  0  0  0  0  0  0  0  0
   -1.3156    0.9641   -1.5552 N   0  3  0  0  0  0  0  0  0  0  0  0
  1  2  1  6  0  0  0
  1  3  1  0  0  0  0
  1 10  1  0  0  0  0
  3  4  1  6  0  0  0
  3  5  1  0  0  0  0
  5  6  1  1  0  0  0
  5  7  1  0  0  0  0
  7  8  1  1  0  0  0
  7  9  1  0  0  0  0
  9 10  1  0  0  0  0
  9 11  1  6  0  0  0
 11 35  1  0  0  0  0
 12 13  1  6  0  0  0
 12 14  1  0  0  0  0
 12 20  1  0  0  0  0
 14 15  1  0  0  0  0
 14 40  1  6  0  0  0
 15 16  1  1  0  0  0
 15 17  1  0  0  0  0
 17  2  1  1  0  0  0
 17 18  1  0  0  0  0
 18 19  1  1  0  0  0
 18 20  1  0  0  0  0
 21 16  1  1  0  0  0
 21 22  1  0  0  0  0
 21 25  1  0  0  0  0
 22 23  1  0  0  0  0
 22 36  1  6  0  0  0
 23 24  1  0  0  0  0
 23 31  1  6  0  0  0
 24 25  1  0  0  0  0
 24 26  1  1  0  0  0
 26 39  1  0  0  0  0
 27 28  1  0  0  0  0
 27 32  1  0  0  0  0
 27 38  1  1  0  0  0
 28 29  1  0  0  0  0
 28 37  1  6  0  0  0
 29 30  1  0  0  0  0
 29 42  1  6  0  0  0
 30 31  1  1  0  0  0
 30 33  1  0  0  0  0
 32 33  1  0  0  0  0
 32 34  1  1  0  0  0
 34 41  1  0  0  0  0
M  CHG  6   4   1  13   1  19   1  35   1  41   1  42   1
M  END
>  <CHROM.1>
-168.26555572,79.31260284,59.86059133,54.27876202,65.85823664,-153.63745852
-172.21733817,-155.76584486,64.35267953,-64.03142805,145.66230372,170.97904140
-58.62383509,58.55718497,-66.54153912,-169.41133783,170.87527641,-178.88191091
113.41646968,-165.29873572,129.11308159,67.69971521,-5.70523419,4.79736884
-0.62813247,2.85610835,0.51754369,-1.57102970

>  <Name>


>  <RI>
0

>  <Rbt.Current_Directory>
/home/itssahil/PROJECTS/Mol_Feturizer/New_Systems/rnas/1ei2

>  <Rbt.Executable>
rbdock ($Id: //depot/dev/client3/rdock/2013.1/src/exe/rbdock.cxx#4 $)

>  <Rbt.Library>
libRbt.so (2013.1, Build901 2013/11/27)

>  <Rbt.Parameter_File>
/export/apps/rDock/src/rDock_2013.1_src/data/scripts/dock_solv.prm

>  <Rbt.Receptor>
prm/pocket_docking_5.prm

>  <SCORE>
-58.004

>  <SCORE.INTER>
-36.9142

>  <SCORE.INTER.CONST>
1

>  <SCORE.INTER.POLAR>
-7.18646

>  <SCORE.INTER.ROT>
9

>  <SCORE.INTER.SOLV>
22.7024

>  <SCORE.INTER.VDW>
-17.8221

>  <SCORE.INTER.norm>
-0.878911

>  <SCORE.INTRA>
-21.1354

>  <SCORE.INTRA.DIHEDRAL>
-18.1536

>  <SCORE.INTRA.DIHEDRAL.0>
40.8761

>  <SCORE.INTRA.POLAR>
-1.2272

>  <SCORE.INTRA.POLAR.0>
-0.0268208

>  <SCORE.INTRA.REPUL>
-0.641615

>  <SCORE.INTRA.REPUL.0>
0.641615

>  <SCORE.INTRA.SOLV>
-9.69604

>  <SCORE.INTRA.SOLV.lig_0>
-162.567

>  <SCORE.INTRA.VDW>
0.169939

>  <SCORE.INTRA.VDW.0>
-4.80338

>  <SCORE.INTRA.norm>
-0.503224

>  <SCORE.RESTR>
0.0456185

>  <SCORE.RESTR.CAVITY>
0.0456185

>  <SCORE.RESTR.norm>
0.00108615

>  <SCORE.SYSTEM>
0

>  <SCORE.SYSTEM.CONST>
0

>  <SCORE.SYSTEM.DIHEDRAL>
0

>  <SCORE.SYSTEM.SOLV>
0

>  <SCORE.SYSTEM.norm>
0

>  <SCORE.heavy>
42

>  <SCORE.norm>
-1.38105

>  <RMSD>
5.980

$$$$

 OpenBabel11021811393D
libRbt.so/2013.1/901 2013/11/27
 42 45  0  0  0  0  0  0  0  0999 V2000
   -2.6825    4.5374    2.7563 C   0  0  2  0  0  0  0  0  0  0  0  0
   -3.0626    5.1684    1.4949 O   0  0  0  0  0  0  0  0  0  0  0  0
   -1.1294    4.4431    2.9078 C   0  0  2  0  0  0  0  0  0  0  0  0
   -0.4311    5.3129    1.9337 N   0  3  0  0  0  0  0  0  0  0  0  0
   -0.6510    2.9669    2.7638 C   0  0  1  0  0  0  0  0  0  0  0  0
    0.7651    2.8923    2.9139 O   0  0  0  0  0  0  0  0  0  0  0  0
   -1.3077    2.0422    3.8235 C   0  0  2  0  0  0  0  0  0  0  0  0
   -1.0635    0.6874    3.4621 O   0  0  0  0  0  0  0  0  0  0  0  0
   -2.8460    2.3002    3.9264 C   0  0  2  0  0  0  0  0  0  0  0  0
   -3.2789    3.1987    2.8537 O   0  0  0  0  0  0  0  0  0  0  0  0
   -3.2999    2.9513    5.2531 C   0  0  0  0  0  0  0  0  0  0  0  0
   -7.2879    5.2444    2.3672 C   0  0  1  0  0  0  0  0  0  0  0  0
   -8.7390    5.5311    2.3174 N   0  3  0  0  0  0  0  0  0  0  0  0
   -6.8411    4.3604    1.1734 C   0  0  1  0  0  0  0  0  0  0  0  0
   -5.2894    4.1481    1.0898 C   0  0  1  0  0  0  0  0  0  0  0  0
   -4.9765    3.5974   -0.2177 O   0  0  0  0  0  0  0  0  0  0  0  0
   -4.4688    5.4802    1.2524 C   0  0  1  0  0  0  0  0  0  0  0  0
   -4.9819    6.3418    2.4513 C   0  0  1  0  0  0  0  0  0  0  0  0
   -4.3135    7.6575    2.5147 N   0  3  0  0  0  0  0  0  0  0  0  0
   -6.5077    6.5755    2.3794 C   0  0  0  0  0  0  0  0  0  0  0  0
   -3.5941    3.2813   -0.5522 C   0  0  1  0  0  0  0  0  0  0  0  0
   -3.5899    2.2461   -1.6707 C   0  0  1  0  0  0  0  0  0  0  0  0
   -3.8359    3.1501   -2.8710 C   0  0  1  0  0  0  0  0  0  0  0  0
   -2.9515    4.3593   -2.5351 C   0  0  2  0  0  0  0  0  0  0  0  0
   -2.9407    4.4427   -1.0899 O   0  0  0  0  0  0  0  0  0  0  0  0
   -3.4759    5.6749   -3.1380 C   0  0  0  0  0  0  0  0  0  0  0  0
   -5.9039    3.0170   -7.0063 C   0  0  1  0  0  0  0  0  0  0  0  0
   -4.4253    2.5638   -7.1605 C   0  0  1  0  0  0  0  0  0  0  0  0
   -4.0289    1.3681   -6.2471 C   0  0  2  0  0  0  0  0  0  0  0  0
   -4.4089    1.6457   -4.7570 C   0  0  1  0  0  0  0  0  0  0  0  0
   -3.4295    2.5105   -4.1150 O   0  0  0  0  0  0  0  0  0  0  0  0
   -6.6030    2.2435   -5.8473 C   0  0  1  0  0  0  0  0  0  0  0  0
   -5.7495    2.2674   -4.6567 O   0  0  0  0  0  0  0  0  0  0  0  0
   -7.9913    2.8356   -5.4926 C   0  0  0  0  0  0  0  0  0  0  0  0
   -4.7611    3.0579    5.4110 N   0  3  0  0  0  0  0  0  0  0  0  0
   -2.3098    1.6177   -1.7424 O   0  0  0  0  0  0  0  0  0  0  0  0
   -4.2096    2.1884   -8.5203 O   0  0  0  0  0  0  0  0  0  0  0  0
   -5.9207    4.4215   -6.7416 O   0  0  0  0  0  0  0  0  0  0  0  0
   -2.5811    6.7425   -2.8769 O   0  0  0  0  0  0  0  0  0  0  0  0
   -7.4695    3.0839    1.2875 O   0  0  0  0  0  0  0  0  0  0  0  0
   -9.0165    2.5437   -6.5113 N   0  3  0  0  0  0  0  0  0  0  0  0
   -2.5986    1.0093   -6.4143 N   0  3  0  0  0  0  0  0  0  0  0  0
  1  2  1  6  0  0  0
  1  3  1  0  0  0  0
  1 10  1  0  0  0  0
  3  4  1  6  0  0  0
  3  5  1  0  0  0  0
  5  6  1  1  0  0  0
  5  7  1  0  0  0  0
  7  8  1  6  0  0  0
  7  9  1  0  0  0  0
  9 10  1  0  0  0  0
  9 11  1  1  0  0  0
 11 35  1  0  0  0  0
 12 13  1  6  0  0  0
 12 14  1  0  0  0  0
 12 20  1  0  0  0  0
 14 15  1  0  0  0  0
 14 40  1  1  0  0  0
 15 16  1  6  0  0  0
 15 17  1  0  0  0  0
 17  2  1  1  0  0  0
 17 18  1  0  0  0  0
 18 19  1  6  0  0  0
 18 20  1  0  0  0  0
 21 16  1  6  0  0  0
 21 22  1  0  0  0  0
 21 25  1  0  0  0  0
 22 23  1  0  0  0  0
 22 36  1  6  0  0  0
 23 24  1  0  0  0  0
 23 31  1  6  0  0  0
 24 25  1  0  0  0  0
 24 26  1  6  0  0  0
 26 39  1  0  0  0  0
 27 28  1  0  0  0  0
 27 32  1  0  0  0  0
 27 38  1  1  0  0  0
 28 29  1  0  0  0  0
 28 37  1  6  0  0  0
 29 30  1  0  0  0  0
 29 42  1  1  0  0  0
 30 31  1  6  0  0  0
 30 33  1  0  0  0  0
 32 33  1  0  0  0  0
 32 34  1  1  0  0  0
 34 41  1  0  0  0  0
M  CHG  6   4   1  13   1  19   1  35   1  41   1  42   1
M  END
>  <CHROM.1>
-172.97887003,-68.19358450,-115.23525030,62.53389828,143.66661476,-173.58838700
-146.57515194,-37.95063409,-174.52293166,-178.96507945,157.43313203,178.50927249
-173.25767917,85.74291780,-176.07241586,-165.88381370,178.27430985,173.66456126
135.72126065,163.28135640,72.76255786,58.28177927,-4.14100763,3.61609634
-0.82440486,-1.33566358,0.35419517,-1.79627185

>  <Name>


>  <RI>
0

>  <Rbt.Current_Directory>
/home/itssahil/PROJECTS/Mol_Feturizer/New_Systems/rnas/1ei2

>  <Rbt.Executable>
rbdock ($Id: //depot/dev/client3/rdock/2013.1/src/exe/rbdock.cxx#4 $)

>  <Rbt.Library>
libRbt.so (2013.1, Build901 2013/11/27)

>  <Rbt.Parameter_File>
/export/apps/rDock/src/rDock_2013.1_src/data/scripts/dock_solv.prm

>  <Rbt.Receptor>
prm/pocket_docking_4.prm

>  <SCORE>
-63.2237

>  <SCORE.INTER>
-46.6941

>  <SCORE.INTER.CONST>
1

>  <SCORE.INTER.POLAR>
-9.22579

>  <SCORE.INTER.ROT>
9

>  <SCORE.INTER.SOLV>
25.8739

>  <SCORE.INTER.VDW>
-18.6014

>  <SCORE.INTER.norm>
-1.11176

>  <SCORE.INTRA>
-17.2767

>  <SCORE.INTRA.DIHEDRAL>
-16.4274

>  <SCORE.INTRA.DIHEDRAL.0>
40.8761

>  <SCORE.INTRA.POLAR>
-0.289606

>  <SCORE.INTRA.POLAR.0>
-0.0268208

>  <SCORE.INTRA.REPUL>
-0.488433

>  <SCORE.INTRA.REPUL.0>
0.641615

>  <SCORE.INTRA.SOLV>
-13.2217

>  <SCORE.INTRA.SOLV.lig_0>
-162.567

>  <SCORE.INTRA.VDW>
0.974617

>  <SCORE.INTRA.VDW.0>
-4.80338

>  <SCORE.INTRA.norm>
-0.411351

>  <SCORE.RESTR>
0.74713

>  <SCORE.RESTR.CAVITY>
0.74713

>  <SCORE.RESTR.norm>
0.0177888

>  <SCORE.SYSTEM>
0

>  <SCORE.SYSTEM.CONST>
0

>  <SCORE.SYSTEM.DIHEDRAL>
0

>  <SCORE.SYSTEM.SOLV>
0

>  <SCORE.SYSTEM.norm>
0

>  <SCORE.heavy>
42

>  <SCORE.norm>
-1.50533

>  <RMSD>
5.990

$$$$

 OpenBabel11021811393D
libRbt.so/2013.1/901 2013/11/27
 42 45  0  0  0  0  0  0  0  0999 V2000
   -2.3087    5.0989    3.1333 C   0  0  2  0  0  0  0  0  0  0  0  0
   -2.6001    5.8203    1.8970 O   0  0  0  0  0  0  0  0  0  0  0  0
   -0.7937    4.7288    3.2405 C   0  0  2  0  0  0  0  0  0  0  0  0
    0.0248    5.4878    2.2673 N   0  3  0  0  0  0  0  0  0  0  0  0
   -0.5870    3.1958    3.0508 C   0  0  1  0  0  0  0  0  0  0  0  0
    0.7968    2.8692    3.1608 O   0  0  0  0  0  0  0  0  0  0  0  0
   -1.3723    2.3732    4.1072 C   0  0  2  0  0  0  0  0  0  0  0  0
   -1.3794    1.0067    3.7093 O   0  0  0  0  0  0  0  0  0  0  0  0
   -2.8381    2.8950    4.2575 C   0  0  2  0  0  0  0  0  0  0  0  0
   -3.1298    3.8839    3.2172 O   0  0  0  0  0  0  0  0  0  0  0  0
   -3.1395    3.5803    5.6102 C   0  0  0  0  0  0  0  0  0  0  0  0
   -6.5904    6.9765    3.0635 C   0  0  1  0  0  0  0  0  0  0  0  0
   -7.9372    7.5896    3.0864 N   0  3  0  0  0  0  0  0  0  0  0  0
   -6.4762    5.8947    1.9576 C   0  0  1  0  0  0  0  0  0  0  0  0
   -5.0285    5.3162    1.7862 C   0  0  1  0  0  0  0  0  0  0  0  0
   -4.9805    4.5764    0.5367 O   0  0  0  0  0  0  0  0  0  0  0  0
   -3.9171    6.4274    1.7227 C   0  0  1  0  0  0  0  0  0  0  0  0
   -4.1001    7.5036    2.8414 C   0  0  1  0  0  0  0  0  0  0  0  0
   -3.1498    8.6247    2.6930 N   0  3  0  0  0  0  0  0  0  0  0  0
   -5.5334    8.0808    2.8543 C   0  0  0  0  0  0  0  0  0  0  0  0
   -5.0189    5.2989   -0.7280 C   0  0  1  0  0  0  0  0  0  0  0  0
   -3.7825    4.9263   -1.5375 C   0  0  1  0  0  0  0  0  0  0  0  0
   -4.2324    3.5891   -2.1103 C   0  0  1  0  0  0  0  0  0  0  0  0
   -5.6949    3.8835   -2.4734 C   0  0  2  0  0  0  0  0  0  0  0  0
   -6.1446    4.8642   -1.5083 O   0  0  0  0  0  0  0  0  0  0  0  0
   -6.5924    2.6343   -2.4172 C   0  0  0  0  0  0  0  0  0  0  0  0
   -2.9263    1.3343   -6.5849 C   0  0  1  0  0  0  0  0  0  0  0  0
   -1.7938    1.7805   -5.6186 C   0  0  1  0  0  0  0  0  0  0  0  0
   -2.0213    1.3622   -4.1373 C   0  0  2  0  0  0  0  0  0  0  0  0
   -3.4335    1.8052   -3.6360 C   0  0  1  0  0  0  0  0  0  0  0  0
   -3.4482    3.2167   -3.2799 O   0  0  0  0  0  0  0  0  0  0  0  0
   -4.1070    0.6911   -5.7959 C   0  0  1  0  0  0  0  0  0  0  0  0
   -4.4675    1.5505   -4.6654 O   0  0  0  0  0  0  0  0  0  0  0  0
   -5.3578    0.4627   -6.6832 C   0  0  0  0  0  0  0  0  0  0  0  0
   -3.0290    2.6925    6.7810 N   0  3  0  0  0  0  0  0  0  0  0  0
   -3.5705    5.8921   -2.5675 O   0  0  0  0  0  0  0  0  0  0  0  0
   -0.5667    1.2082   -6.0695 O   0  0  0  0  0  0  0  0  0  0  0  0
   -3.3826    2.4808   -7.3062 O   0  0  0  0  0  0  0  0  0  0  0  0
   -7.9371    2.9640   -2.7203 O   0  0  0  0  0  0  0  0  0  0  0  0
   -7.3611    4.8203    2.2739 O   0  0  0  0  0  0  0  0  0  0  0  0
   -5.1543   -0.5822   -7.7034 N   0  3  0  0  0  0  0  0  0  0  0  0
   -0.9261    1.8494   -3.2624 N   0  3  0  0  0  0  0  0  0  0  0  0
  1  2  1  6  0  0  0
  1  3  1  0  0  0  0
  1 10  1  0  0  0  0
  3  4  1  6  0  0  0
  3  5  1  0  0  0  0
  5  6  1  1  0  0  0
  5  7  1  0  0  0  0
  7  8  1  6  0  0  0
  7  9  1  0  0  0  0
  9 10  1  0  0  0  0
  9 11  1  1  0  0  0
 11 35  1  0  0  0  0
 12 13  1  6  0  0  0
 12 14  1  0  0  0  0
 12 20  1  0  0  0  0
 14 15  1  0  0  0  0
 14 40  1  1  0  0  0
 15 16  1  6  0  0  0
 15 17  1  0  0  0  0
 17  2  1  1  0  0  0
 17 18  1  0  0  0  0
 18 19  1  6  0  0  0
 18 20  1  0  0  0  0
 21 16  1  1  0  0  0
 21 22  1  0  0  0  0
 21 25  1  0  0  0  0
 22 23  1  0  0  0  0
 22 36  1  6  0  0  0
 23 24  1  0  0  0  0
 23 31  1  6  0  0  0
 24 25  1  0  0  0  0
 24 26  1  1  0  0  0
 26 39  1  0  0  0  0
 27 28  1  0  0  0  0
 27 32  1  0  0  0  0
 27 38  1  1  0  0  0
 28 29  1  0  0  0  0
 28 37  1  6  0  0  0
 29 30  1  0  0  0  0
 29 42  1  1  0  0  0
 30 31  1  6  0  0  0
 30 33  1  0  0  0  0
 32 33  1  0  0  0  0
 32 34  1  6  0  0  0
 34 41  1  0  0  0  0
M  CHG  6   4   1  13   1  19   1  35   1  41   1  42   1
M  END
>  <CHROM.1>
-170.52899053,-60.35174868,-106.70444474,-56.78952126,179.50411489,-63.72733961
175.67106644,62.15877561,63.79643484,71.19862589,123.15902976,-71.04768937
-58.90616478,158.94774711,178.23593741,73.36382198,-59.01023191,65.52037484
177.03619520,-141.73643097,68.57595360,-33.32806063,-3.70596225,3.81487078
-0.34282176,-1.53906048,0.53053397,-1.96015995

>  <Name>


>  <RI>
0

>  <Rbt.Current_Directory>
/home/itssahil/PROJECTS/Mol_Feturizer/New_Systems/rnas/1ei2

>  <Rbt.Executable>
rbdock ($Id: //depot/dev/client3/rdock/2013.1/src/exe/rbdock.cxx#4 $)

>  <Rbt.Library>
libRbt.so (2013.1, Build901 2013/11/27)

>  <Rbt.Parameter_File>
/export/apps/rDock/src/rDock_2013.1_src/data/scripts/dock_solv.prm

>  <Rbt.Receptor>
prm/pocket_docking_6.prm

>  <SCORE>
-56.1818

>  <SCORE.INTER>
-37.464

>  <SCORE.INTER.CONST>
1

>  <SCORE.INTER.POLAR>
-7.07157

>  <SCORE.INTER.ROT>
9

>  <SCORE.INTER.SOLV>
26.3675

>  <SCORE.INTER.VDW>
-19.7933

>  <SCORE.INTER.norm>
-0.892

>  <SCORE.INTRA>
-18.7179

>  <SCORE.INTRA.DIHEDRAL>
-18.5032

>  <SCORE.INTRA.DIHEDRAL.0>
40.8761

>  <SCORE.INTRA.POLAR>
-0.187861

>  <SCORE.INTRA.POLAR.0>
-0.0268208

>  <SCORE.INTRA.REPUL>
-0.641615

>  <SCORE.INTRA.REPUL.0>
0.641615

>  <SCORE.INTRA.SOLV>
-13.7309

>  <SCORE.INTRA.SOLV.lig_0>
-162.567

>  <SCORE.INTRA.VDW>
1.24595

>  <SCORE.INTRA.VDW.0>
-4.80338

>  <SCORE.INTRA.norm>
-0.445663

>  <SCORE.RESTR>
0

>  <SCORE.RESTR.CAVITY>
0

>  <SCORE.RESTR.norm>
0

>  <SCORE.SYSTEM>
0

>  <SCORE.SYSTEM.CONST>
0

>  <SCORE.SYSTEM.DIHEDRAL>
0

>  <SCORE.SYSTEM.SOLV>
0

>  <SCORE.SYSTEM.norm>
0

>  <SCORE.heavy>
42

>  <SCORE.norm>
-1.33766

>  <RMSD>
5.990

$$$$

 OpenBabel11021811393D
libRbt.so/2013.1/901 2013/11/27
 42 45  0  0  0  0  0  0  0  0999 V2000
   -8.3185    4.2289   -2.3741 C   0  0  2  0  0  0  0  0  0  0  0  0
   -7.0708    4.8946   -2.7398 O   0  0  0  0  0  0  0  0  0  0  0  0
   -9.5605    5.1314   -2.6687 C   0  0  2  0  0  0  0  0  0  0  0  0
   -9.2138    6.2666   -3.5544 N   0  3  0  0  0  0  0  0  0  0  0  0
  -10.1932    5.6471   -1.3411 C   0  0  1  0  0  0  0  0  0  0  0  0
  -11.3305    6.4602   -1.6222 O   0  0  0  0  0  0  0  0  0  0  0  0
  -10.6391    4.4778   -0.4228 C   0  0  2  0  0  0  0  0  0  0  0  0
  -10.9320    4.9977    0.8693 O   0  0  0  0  0  0  0  0  0  0  0  0
   -9.5292    3.3819   -0.3204 C   0  0  2  0  0  0  0  0  0  0  0  0
   -8.2958    3.8533   -0.9544 O   0  0  0  0  0  0  0  0  0  0  0  0
   -9.8869    2.0409   -1.0016 C   0  0  0  0  0  0  0  0  0  0  0  0
   -5.0259    1.2779   -3.9049 C   0  0  1  0  0  0  0  0  0  0  0  0
   -4.0084    0.3223   -4.3968 N   0  3  0  0  0  0  0  0  0  0  0  0
   -4.6092    1.9051   -2.5487 C   0  0  1  0  0  0  0  0  0  0  0  0
   -5.5755    3.0361   -2.0517 C   0  0  1  0  0  0  0  0  0  0  0  0
   -4.9184    3.7521   -0.9717 O   0  0  0  0  0  0  0  0  0  0  0  0
   -5.9330    4.0850   -3.1681 C   0  0  1  0  0  0  0  0  0  0  0  0
   -6.3163    3.3964   -4.5178 C   0  0  1  0  0  0  0  0  0  0  0  0
   -6.5070    4.3770   -5.6060 N   0  3  0  0  0  0  0  0  0  0  0  0
   -5.2462    2.3758   -4.9663 C   0  0  0  0  0  0  0  0  0  0  0  0
   -3.6961    4.4973   -1.2429 C   0  0  1  0  0  0  0  0  0  0  0  0
   -3.2966    5.2506    0.0203 C   0  0  1  0  0  0  0  0  0  0  0  0
   -2.6233    4.1279    0.7980 C   0  0  1  0  0  0  0  0  0  0  0  0
   -1.8368    3.4119   -0.3092 C   0  0  2  0  0  0  0  0  0  0  0  0
   -2.6169    3.5885   -1.5158 O   0  0  0  0  0  0  0  0  0  0  0  0
   -1.6289    1.9131   -0.0272 C   0  0  0  0  0  0  0  0  0  0  0  0
   -4.1308    2.0950    3.4260 C   0  0  1  0  0  0  0  0  0  0  0  0
   -2.6483    1.8222    3.0475 C   0  0  1  0  0  0  0  0  0  0  0  0
   -1.6482    2.8824    3.5924 C   0  0  2  0  0  0  0  0  0  0  0  0
   -2.0976    4.3301    3.2128 C   0  0  1  0  0  0  0  0  0  0  0  0
   -1.7447    4.6484    1.8368 O   0  0  0  0  0  0  0  0  0  0  0  0
   -4.2746    3.4683    4.1498 C   0  0  1  0  0  0  0  0  0  0  0  0
   -3.5580    4.4986    3.3939 O   0  0  0  0  0  0  0  0  0  0  0  0
   -5.7552    3.8963    4.3196 C   0  0  0  0  0  0  0  0  0  0  0  0
   -8.9911    0.9235   -0.6553 N   0  3  0  0  0  0  0  0  0  0  0  0
   -2.3718    6.2877   -0.3079 O   0  0  0  0  0  0  0  0  0  0  0  0
   -2.2808    0.5432    3.5627 O   0  0  0  0  0  0  0  0  0  0  0  0
   -4.9120    2.0849    2.2291 O   0  0  0  0  0  0  0  0  0  0  0  0
   -0.4248    1.6957    0.6881 O   0  0  0  0  0  0  0  0  0  0  0  0
   -4.5675    0.8756   -1.5609 O   0  0  0  0  0  0  0  0  0  0  0  0
   -6.4615    3.1196    5.3550 N   0  3  0  0  0  0  0  0  0  0  0  0
   -0.2582    2.5857    3.1658 N   0  3  0  0  0  0  0  0  0  0  0  0
  1  2  1  1  0  0  0
  1  3  1  0  0  0  0
  1 10  1  0  0  0  0
  3  4  1  6  0  0  0
  3  5  1  0  0  0  0
  5  6  1  6  0  0  0
  5  7  1  0  0  0  0
  7  8  1  1  0  0  0
  7  9  1  0  0  0  0
  9 10  1  0  0  0  0
  9 11  1  6  0  0  0
 11 35  1  0  0  0  0
 12 13  1  6  0  0  0
 12 14  1  0  0  0  0
 12 20  1  0  0  0  0
 14 15  1  0  0  0  0
 14 40  1  1  0  0  0
 15 16  1  1  0  0  0
 15 17  1  0  0  0  0
 17  2  1  1  0  0  0
 17 18  1  0  0  0  0
 18 19  1  6  0  0  0
 18 20  1  0  0  0  0
 21 16  1  1  0  0  0
 21 22  1  0  0  0  0
 21 25  1  0  0  0  0
 22 23  1  0  0  0  0
 22 36  1  6  0  0  0
 23 24  1  0  0  0  0
 23 31  1  1  0  0  0
 24 25  1  0  0  0  0
 24 26  1  1  0  0  0
 26 39  1  0  0  0  0
 27 28  1  0  0  0  0
 27 32  1  0  0  0  0
 27 38  1  6  0  0  0
 28 29  1  0  0  0  0
 28 37  1  1  0  0  0
 29 30  1  0  0  0  0
 29 42  1  6  0  0  0
 30 31  1  6  0  0  0
 30 33  1  0  0  0  0
 32 33  1  0  0  0  0
 32 34  1  6  0  0  0
 34 41  1  0  0  0  0
M  CHG  6   4   1  13   1  19   1  35   1  41   1  42   1
M  END
>  <CHROM.1>
-150.13788305,-56.64558439,-31.37550063,51.96799090,58.62251902,-167.00387267
-69.31782995,-54.27333665,67.60155373,64.09764349,174.77083584,53.34445843
129.93196404,116.56589322,-90.22205055,-81.74491214,-59.24205725,42.37957113
-101.43664963,79.80744435,73.45560794,150.39406707,-5.35360034,3.42832424
-0.25671948,2.53494566,0.26368319,-1.63677265

>  <Name>


>  <RI>
0

>  <Rbt.Current_Directory>
/home/itssahil/PROJECTS/Mol_Feturizer/New_Systems/rnas/1ei2

>  <Rbt.Executable>
rbdock ($Id: //depot/dev/client3/rdock/2013.1/src/exe/rbdock.cxx#4 $)

>  <Rbt.Library>
libRbt.so (2013.1, Build901 2013/11/27)

>  <Rbt.Parameter_File>
/export/apps/rDock/src/rDock_2013.1_src/data/scripts/dock_solv.prm

>  <Rbt.Receptor>
prm/pocket_docking_4.prm

>  <SCORE>
-52.1298

>  <SCORE.INTER>
-36.1391

>  <SCORE.INTER.CONST>
1

>  <SCORE.INTER.POLAR>
-6.50418

>  <SCORE.INTER.ROT>
9

>  <SCORE.INTER.SOLV>
20.0946

>  <SCORE.INTER.VDW>
-18.7104

>  <SCORE.INTER.norm>
-0.860456

>  <SCORE.INTRA>
-15.9906

>  <SCORE.INTRA.DIHEDRAL>
-7.00724

>  <SCORE.INTRA.DIHEDRAL.0>
40.8761

>  <SCORE.INTRA.POLAR>
-1.40731

>  <SCORE.INTRA.POLAR.0>
-0.0268208

>  <SCORE.INTRA.REPUL>
-0.641615

>  <SCORE.INTRA.REPUL.0>
0.641615

>  <SCORE.INTRA.SOLV>
-5.88177

>  <SCORE.INTRA.SOLV.lig_0>
-162.567

>  <SCORE.INTRA.VDW>
-1.55318

>  <SCORE.INTRA.VDW.0>
-4.80338

>  <SCORE.INTRA.norm>
-0.380729

>  <SCORE.RESTR>
0

>  <SCORE.RESTR.CAVITY>
0

>  <SCORE.RESTR.norm>
0

>  <SCORE.SYSTEM>
0

>  <SCORE.SYSTEM.CONST>
0

>  <SCORE.SYSTEM.DIHEDRAL>
0

>  <SCORE.SYSTEM.SOLV>
0

>  <SCORE.SYSTEM.norm>
0

>  <SCORE.heavy>
42

>  <SCORE.norm>
-1.24119

>  <RMSD>
5.995

$$$$

 OpenBabel11021811393D
libRbt.so/2013.1/901 2013/11/27
 42 45  0  0  0  0  0  0  0  0999 V2000
   -7.6661    4.5751   -3.4987 C   0  0  2  0  0  0  0  0  0  0  0  0
   -8.1891    5.4074   -2.4182 O   0  0  0  0  0  0  0  0  0  0  0  0
   -7.0043    5.4383   -4.6216 C   0  0  2  0  0  0  0  0  0  0  0  0
   -6.7513    6.8251   -4.1678 N   0  3  0  0  0  0  0  0  0  0  0  0
   -7.8842    5.4360   -5.9080 C   0  0  1  0  0  0  0  0  0  0  0  0
   -7.2657    6.2177   -6.9278 O   0  0  0  0  0  0  0  0  0  0  0  0
   -8.1033    3.9995   -6.4538 C   0  0  2  0  0  0  0  0  0  0  0  0
   -9.1332    4.0358   -7.4355 O   0  0  0  0  0  0  0  0  0  0  0  0
   -8.4907    3.0100   -5.3074 C   0  0  2  0  0  0  0  0  0  0  0  0
   -8.7388    3.7484   -4.0670 O   0  0  0  0  0  0  0  0  0  0  0  0
   -7.4106    1.9535   -4.9796 C   0  0  0  0  0  0  0  0  0  0  0  0
  -10.1660    5.2452    1.4139 C   0  0  1  0  0  0  0  0  0  0  0  0
  -10.8371    4.7629    2.6417 N   0  3  0  0  0  0  0  0  0  0  0  0
   -8.6687    4.8405    1.3873 C   0  0  1  0  0  0  0  0  0  0  0  0
   -7.9422    5.1934    0.0428 C   0  0  1  0  0  0  0  0  0  0  0  0
   -6.6723    4.4881    0.0146 O   0  0  0  0  0  0  0  0  0  0  0  0
   -8.7526    4.7630   -1.2347 C   0  0  1  0  0  0  0  0  0  0  0  0
  -10.2583    5.1711   -1.1385 C   0  0  1  0  0  0  0  0  0  0  0  0
  -11.0503    4.6387   -2.2660 N   0  3  0  0  0  0  0  0  0  0  0  0
  -10.9023    4.6847    0.1793 C   0  0  0  0  0  0  0  0  0  0  0  0
   -5.4740    5.1455    0.5193 C   0  0  1  0  0  0  0  0  0  0  0  0
   -4.5140    4.0782    1.0313 C   0  0  1  0  0  0  0  0  0  0  0  0
   -3.8972    3.6221   -0.2840 C   0  0  1  0  0  0  0  0  0  0  0  0
   -3.7122    4.9572   -1.0193 C   0  0  2  0  0  0  0  0  0  0  0  0
   -4.7874    5.8081   -0.5552 O   0  0  0  0  0  0  0  0  0  0  0  0
   -3.7727    4.8145   -2.5507 C   0  0  0  0  0  0  0  0  0  0  0  0
   -5.4817    0.7500    1.2684 C   0  0  1  0  0  0  0  0  0  0  0  0
   -4.8230    0.6064   -0.1318 C   0  0  1  0  0  0  0  0  0  0  0  0
   -3.2691    0.5322   -0.0982 C   0  0  2  0  0  0  0  0  0  0  0  0
   -2.6648    1.7188    0.7196 C   0  0  1  0  0  0  0  0  0  0  0  0
   -2.6276    2.9401   -0.0718 O   0  0  0  0  0  0  0  0  0  0  0  0
   -4.3988    0.9346    2.3745 C   0  0  1  0  0  0  0  0  0  0  0  0
   -3.4414    1.9622    1.9571 O   0  0  0  0  0  0  0  0  0  0  0  0
   -5.0107    1.3320    3.7425 C   0  0  0  0  0  0  0  0  0  0  0  0
   -6.8862    1.2337   -6.1535 N   0  3  0  0  0  0  0  0  0  0  0  0
   -3.5396    4.6754    1.8871 O   0  0  0  0  0  0  0  0  0  0  0  0
   -5.3219   -0.5824   -0.7436 O   0  0  0  0  0  0  0  0  0  0  0  0
   -6.3567    1.8800    1.2424 O   0  0  0  0  0  0  0  0  0  0  0  0
   -3.9796    6.0735   -3.1678 O   0  0  0  0  0  0  0  0  0  0  0  0
   -7.9951    5.5042    2.4564 O   0  0  0  0  0  0  0  0  0  0  0  0
   -3.9904    1.5669    4.7807 N   0  3  0  0  0  0  0  0  0  0  0  0
   -2.7016    0.4337   -1.4658 N   0  3  0  0  0  0  0  0  0  0  0  0
  1  2  1  1  0  0  0
  1  3  1  0  0  0  0
  1 10  1  0  0  0  0
  3  4  1  1  0  0  0
  3  5  1  0  0  0  0
  5  6  1  6  0  0  0
  5  7  1  0  0  0  0
  7  8  1  6  0  0  0
  7  9  1  0  0  0  0
  9 10  1  0  0  0  0
  9 11  1  1  0  0  0
 11 35  1  0  0  0  0
 12 13  1  1  0  0  0
 12 14  1  0  0  0  0
 12 20  1  0  0  0  0
 14 15  1  0  0  0  0
 14 40  1  1  0  0  0
 15 16  1  1  0  0  0
 15 17  1  0  0  0  0
 17  2  1  6  0  0  0
 17 18  1  0  0  0  0
 18 19  1  6  0  0  0
 18 20  1  0  0  0  0
 21 16  1  6  0  0  0
 21 22  1  0  0  0  0
 21 25  1  0  0  0  0
 22 23  1  0  0  0  0
 22 36  1  1  0  0  0
 23 24  1  0  0  0  0
 23 31  1  1  0  0  0
 24 25  1  0  0  0  0
 24 26  1  6  0  0  0
 26 39  1  0  0  0  0
 27 28  1  0  0  0  0
 27 32  1  0  0  0  0
 27 38  1  6  0  0  0
 28 29  1  0  0  0  0
 28 37  1  1  0  0  0
 29 30  1  0  0  0  0
 29 42  1  6  0  0  0
 30 31  1  6  0  0  0
 30 33  1  0  0  0  0
 32 33  1  0  0  0  0
 32 34  1  1  0  0  0
 34 41  1  0  0  0  0
M  CHG  6   4   1  13   1  19   1  35   1  41   1  42   1
M  END
>  <CHROM.1>
-175.42329570,119.71806435,80.78271490,39.63094040,-77.24996739,-49.78923107
65.27598389,46.41456563,78.00257592,-92.18479151,151.82268138,98.52822128
-179.61306540,61.69155906,163.37596852,178.79967846,158.87598271,63.15903582
-34.92940116,74.62359287,-177.47769265,-164.68299070,-6.43751466,3.67838786
-1.18202684,-2.12943376,-0.49409674,1.62578420

>  <Name>


>  <RI>
0

>  <Rbt.Current_Directory>
/home/itssahil/PROJECTS/Mol_Feturizer/New_Systems/rnas/1ei2

>  <Rbt.Executable>
rbdock ($Id: //depot/dev/client3/rdock/2013.1/src/exe/rbdock.cxx#4 $)

>  <Rbt.Library>
libRbt.so (2013.1, Build901 2013/11/27)

>  <Rbt.Parameter_File>
/export/apps/rDock/src/rDock_2013.1_src/data/scripts/dock_solv.prm

>  <Rbt.Receptor>
prm/pocket_docking_4.prm

>  <SCORE>
-55.493

>  <SCORE.INTER>
-36.3469

>  <SCORE.INTER.CONST>
1

>  <SCORE.INTER.POLAR>
-5.53485

>  <SCORE.INTER.ROT>
9

>  <SCORE.INTER.SOLV>
26.3846

>  <SCORE.INTER.VDW>
-24.1767

>  <SCORE.INTER.norm>
-0.865403

>  <SCORE.INTRA>
-20.0958

>  <SCORE.INTRA.DIHEDRAL>
-10.1775

>  <SCORE.INTRA.DIHEDRAL.0>
40.8761

>  <SCORE.INTRA.POLAR>
-2.80029

>  <SCORE.INTRA.POLAR.0>
-0.0268208

>  <SCORE.INTRA.REPUL>
-0.19291

>  <SCORE.INTRA.REPUL.0>
0.641615

>  <SCORE.INTRA.SOLV>
-7.07381

>  <SCORE.INTRA.SOLV.lig_0>
-162.567

>  <SCORE.INTRA.VDW>
-0.984646

>  <SCORE.INTRA.VDW.0>
-4.80338

>  <SCORE.INTRA.norm>
-0.478473

>  <SCORE.RESTR>
0.949783

>  <SCORE.RESTR.CAVITY>
0.949783

>  <SCORE.RESTR.norm>
0.0226139

>  <SCORE.SYSTEM>
0

>  <SCORE.SYSTEM.CONST>
0

>  <SCORE.SYSTEM.DIHEDRAL>
0

>  <SCORE.SYSTEM.SOLV>
0

>  <SCORE.SYSTEM.norm>
0

>  <SCORE.heavy>
42

>  <SCORE.norm>
-1.32126

>  <RMSD>
6.009

$$$$

 OpenBabel11021811393D
libRbt.so/2013.1/901 2013/11/27
 42 45  0  0  0  0  0  0  0  0999 V2000
   -1.4335    6.3085    3.8298 C   0  0  2  0  0  0  0  0  0  0  0  0
   -0.8366    5.2251    4.6066 O   0  0  0  0  0  0  0  0  0  0  0  0
   -0.3660    7.0504    2.9615 C   0  0  2  0  0  0  0  0  0  0  0  0
    0.8913    6.2745    2.8599 N   0  3  0  0  0  0  0  0  0  0  0  0
   -0.0856    8.4736    3.5316 C   0  0  1  0  0  0  0  0  0  0  0  0
    0.8815    9.1438    2.7260 O   0  0  0  0  0  0  0  0  0  0  0  0
   -1.3729    9.3397    3.5781 C   0  0  2  0  0  0  0  0  0  0  0  0
   -1.1158   10.4985    4.3635 O   0  0  0  0  0  0  0  0  0  0  0  0
   -2.5733    8.5399    4.1803 C   0  0  2  0  0  0  0  0  0  0  0  0
   -2.1059    7.2619    4.7221 O   0  0  0  0  0  0  0  0  0  0  0  0
   -3.6923    8.2035    3.1680 C   0  0  0  0  0  0  0  0  0  0  0  0
   -1.5788    1.2408    6.0878 C   0  0  1  0  0  0  0  0  0  0  0  0
   -2.2458   -0.0066    6.5231 N   0  3  0  0  0  0  0  0  0  0  0  0
   -1.6986    1.4452    4.5548 C   0  0  1  0  0  0  0  0  0  0  0  0
   -1.1417    2.8237    4.0554 C   0  0  1  0  0  0  0  0  0  0  0  0
   -1.5983    3.0303    2.6916 O   0  0  0  0  0  0  0  0  0  0  0  0
   -1.6403    4.0445    4.9129 C   0  0  1  0  0  0  0  0  0  0  0  0
   -1.5227    3.7699    6.4470 C   0  0  1  0  0  0  0  0  0  0  0  0
   -2.1265    4.8514    7.2518 N   0  3  0  0  0  0  0  0  0  0  0  0
   -2.1938    2.4361    6.8451 C   0  0  0  0  0  0  0  0  0  0  0  0
   -3.0263    3.1243    2.4185 C   0  0  1  0  0  0  0  0  0  0  0  0
   -3.2410    4.1378    1.3007 C   0  0  1  0  0  0  0  0  0  0  0  0
   -2.9093    3.2744    0.0912 C   0  0  1  0  0  0  0  0  0  0  0  0
   -3.5784    1.9445    0.4665 C   0  0  2  0  0  0  0  0  0  0  0  0
   -3.5130    1.8711    1.9108 O   0  0  0  0  0  0  0  0  0  0  0  0
   -2.8815    0.7225   -0.1583 C   0  0  0  0  0  0  0  0  0  0  0  0
   -3.3656    2.1311   -4.5736 C   0  0  1  0  0  0  0  0  0  0  0  0
   -4.1493    3.4307   -4.2385 C   0  0  1  0  0  0  0  0  0  0  0  0
   -3.2979    4.5195   -3.5239 C   0  0  2  0  0  0  0  0  0  0  0  0
   -2.5651    3.9332   -2.2744 C   0  0  1  0  0  0  0  0  0  0  0  0
   -3.4645    3.8334   -1.1340 O   0  0  0  0  0  0  0  0  0  0  0  0
   -1.9287    2.1790   -3.9708 C   0  0  1  0  0  0  0  0  0  0  0  0
   -1.9988    2.5965   -2.5682 O   0  0  0  0  0  0  0  0  0  0  0  0
   -1.2023    0.8123   -4.0613 C   0  0  0  0  0  0  0  0  0  0  0  0
   -4.4484    9.3723    2.6847 N   0  3  0  0  0  0  0  0  0  0  0  0
   -4.6055    4.5581    1.2853 O   0  0  0  0  0  0  0  0  0  0  0  0
   -4.6565    3.9762   -5.4557 O   0  0  0  0  0  0  0  0  0  0  0  0
   -4.0867    1.0183   -4.0400 O   0  0  0  0  0  0  0  0  0  0  0  0
   -1.4778    0.7933    0.0238 O   0  0  0  0  0  0  0  0  0  0  0  0
   -0.9843    0.4000    3.8955 O   0  0  0  0  0  0  0  0  0  0  0  0
   -1.0974    0.3089   -5.4432 N   0  3  0  0  0  0  0  0  0  0  0  0
   -4.1118    5.7170   -3.1989 N   0  3  0  0  0  0  0  0  0  0  0  0
  1  2  1  1  0  0  0
  1  3  1  0  0  0  0
  1 10  1  0  0  0  0
  3  4  1  1  0  0  0
  3  5  1  0  0  0  0
  5  6  1  6  0  0  0
  5  7  1  0  0  0  0
  7  8  1  1  0  0  0
  7  9  1  0  0  0  0
  9 10  1  0  0  0  0
  9 11  1  6  0  0  0
 11 35  1  0  0  0  0
 12 13  1  1  0  0  0
 12 14  1  0  0  0  0
 12 20  1  0  0  0  0
 14 15  1  0  0  0  0
 14 40  1  6  0  0  0
 15 16  1  6  0  0  0
 15 17  1  0  0  0  0
 17  2  1  6  0  0  0
 17 18  1  0  0  0  0
 18 19  1  1  0  0  0
 18 20  1  0  0  0  0
 21 16  1  6  0  0  0
 21 22  1  0  0  0  0
 21 25  1  0  0  0  0
 22 23  1  0  0  0  0
 22 36  1  6  0  0  0
 23 24  1  0  0  0  0
 23 31  1  6  0  0  0
 24 25  1  0  0  0  0
 24 26  1  6  0  0  0
 26 39  1  0  0  0  0
 27 28  1  0  0  0  0
 27 32  1  0  0  0  0
 27 38  1  1  0  0  0
 28 29  1  0  0  0  0
 28 37  1  6  0  0  0
 29 30  1  0  0  0  0
 29 42  1  1  0  0  0
 30 31  1  1  0  0  0
 30 33  1  0  0  0  0
 32 33  1  0  0  0  0
 32 34  1  1  0  0  0
 34 41  1  0  0  0  0
M  CHG  6   4   1  13   1  19   1  35   1  41   1  42   1
M  END
>  <CHROM.1>
-149.04072284,107.74889419,-159.33901925,166.92997112,-60.99953678,-68.03999208
-100.00913800,61.84007852,37.60589255,62.18134224,144.36125663,68.25234186
-175.00779068,131.71148060,47.30960083,-166.75170355,76.87808876,-51.51217136
57.69246649,178.80096017,57.61634498,-54.26251510,-2.24477322,4.16361177
1.38792104,0.35279961,-1.40352102,-0.06828495

>  <Name>


>  <RI>
0

>  <Rbt.Current_Directory>
/home/itssahil/PROJECTS/Mol_Feturizer/New_Systems/rnas/1ei2

>  <Rbt.Executable>
rbdock ($Id: //depot/dev/client3/rdock/2013.1/src/exe/rbdock.cxx#4 $)

>  <Rbt.Library>
libRbt.so (2013.1, Build901 2013/11/27)

>  <Rbt.Parameter_File>
/export/apps/rDock/src/rDock_2013.1_src/data/scripts/dock_solv.prm

>  <Rbt.Receptor>
prm/pocket_docking_7.prm

>  <SCORE>
-60.7444

>  <SCORE.INTER>
-47.5881

>  <SCORE.INTER.CONST>
1

>  <SCORE.INTER.POLAR>
-8.12084

>  <SCORE.INTER.ROT>
9

>  <SCORE.INTER.SOLV>
38.2778

>  <SCORE.INTER.VDW>
-27.0151

>  <SCORE.INTER.norm>
-1.13305

>  <SCORE.INTRA>
-14.0146

>  <SCORE.INTRA.DIHEDRAL>
-8.43236

>  <SCORE.INTRA.DIHEDRAL.0>
40.8761

>  <SCORE.INTRA.POLAR>
-0.214183

>  <SCORE.INTRA.POLAR.0>
-0.0268208

>  <SCORE.INTRA.REPUL>
-0.567405

>  <SCORE.INTRA.REPUL.0>
0.641615

>  <SCORE.INTRA.SOLV>
-11.8343

>  <SCORE.INTRA.SOLV.lig_0>
-162.567

>  <SCORE.INTRA.VDW>
-0.316054

>  <SCORE.INTRA.VDW.0>
-4.80338

>  <SCORE.INTRA.norm>
-0.333681

>  <SCORE.RESTR>
0.85827

>  <SCORE.RESTR.CAVITY>
0.85827

>  <SCORE.RESTR.norm>
0.020435

>  <SCORE.SYSTEM>
0

>  <SCORE.SYSTEM.CONST>
0

>  <SCORE.SYSTEM.DIHEDRAL>
0

>  <SCORE.SYSTEM.SOLV>
0

>  <SCORE.SYSTEM.norm>
0

>  <SCORE.heavy>
42

>  <SCORE.norm>
-1.4463

>  <RMSD>
6.054

$$$$

 OpenBabel11021811393D
libRbt.so/2013.1/901 2013/11/27
 42 45  0  0  0  0  0  0  0  0999 V2000
   -3.1052    7.6314    3.8713 C   0  0  2  0  0  0  0  0  0  0  0  0
   -4.3543    7.5268    3.1212 O   0  0  0  0  0  0  0  0  0  0  0  0
   -2.1127    8.6353    3.1997 C   0  0  2  0  0  0  0  0  0  0  0  0
   -2.7914    9.4859    2.1952 N   0  3  0  0  0  0  0  0  0  0  0  0
   -0.9150    7.8758    2.5535 C   0  0  1  0  0  0  0  0  0  0  0  0
   -0.0120    8.8020    1.9534 O   0  0  0  0  0  0  0  0  0  0  0  0
   -0.1347    7.0343    3.5986 C   0  0  2  0  0  0  0  0  0  0  0  0
    0.7462    6.1534    2.9104 O   0  0  0  0  0  0  0  0  0  0  0  0
   -1.1073    6.2162    4.5087 C   0  0  2  0  0  0  0  0  0  0  0  0
   -2.4760    6.3101    3.9956 O   0  0  0  0  0  0  0  0  0  0  0  0
   -1.1578    6.6875    5.9802 C   0  0  0  0  0  0  0  0  0  0  0  0
   -6.0461    4.4536    5.6337 C   0  0  1  0  0  0  0  0  0  0  0  0
   -6.9751    3.4782    6.2468 N   0  3  0  0  0  0  0  0  0  0  0  0
   -5.6466    4.0326    4.1952 C   0  0  1  0  0  0  0  0  0  0  0  0
   -4.7834    5.1024    3.4400 C   0  0  1  0  0  0  0  0  0  0  0  0
   -4.7534    4.7489    2.0311 O   0  0  0  0  0  0  0  0  0  0  0  0
   -5.3620    6.5609    3.5512 C   0  0  1  0  0  0  0  0  0  0  0  0
   -5.7732    6.9180    5.0162 C   0  0  1  0  0  0  0  0  0  0  0  0
   -6.4524    8.2271    5.0980 N   0  3  0  0  0  0  0  0  0  0  0  0
   -6.7057    5.8484    5.6281 C   0  0  0  0  0  0  0  0  0  0  0  0
   -4.3068    5.7321    1.0530 C   0  0  1  0  0  0  0  0  0  0  0  0
   -3.7404    4.9935   -0.1538 C   0  0  1  0  0  0  0  0  0  0  0  0
   -5.0318    4.6336   -0.8757 C   0  0  1  0  0  0  0  0  0  0  0  0
   -5.8528    5.9194   -0.7025 C   0  0  2  0  0  0  0  0  0  0  0  0
   -5.4300    6.4824    0.5624 O   0  0  0  0  0  0  0  0  0  0  0  0
   -7.3712    5.6670   -0.6891 C   0  0  0  0  0  0  0  0  0  0  0  0
   -5.2272    1.3269   -4.6338 C   0  0  1  0  0  0  0  0  0  0  0  0
   -4.5809    2.6856   -5.0231 C   0  0  1  0  0  0  0  0  0  0  0  0
   -3.4713    3.1651   -4.0433 C   0  0  2  0  0  0  0  0  0  0  0  0
   -3.9799    3.1552   -2.5658 C   0  0  1  0  0  0  0  0  0  0  0  0
   -4.7930    4.3284   -2.2799 O   0  0  0  0  0  0  0  0  0  0  0  0
   -4.6982    0.8370   -3.2516 C   0  0  1  0  0  0  0  0  0  0  0  0
   -4.7684    1.9338   -2.2827 O   0  0  0  0  0  0  0  0  0  0  0  0
   -5.4956   -0.3765   -2.7082 C   0  0  0  0  0  0  0  0  0  0  0  0
    0.1569    6.7631    6.6414 N   0  3  0  0  0  0  0  0  0  0  0  0
   -2.9368    5.8821   -0.9305 O   0  0  0  0  0  0  0  0  0  0  0  0
   -4.0125    2.5562   -6.3257 O   0  0  0  0  0  0  0  0  0  0  0  0
   -6.6453    1.4984   -4.5857 O   0  0  0  0  0  0  0  0  0  0  0  0
   -7.8182    5.2072   -1.9529 O   0  0  0  0  0  0  0  0  0  0  0  0
   -4.9049    2.8149    4.2630 O   0  0  0  0  0  0  0  0  0  0  0  0
   -6.8885   -0.0390   -2.3620 N   0  3  0  0  0  0  0  0  0  0  0  0
   -2.9221    4.4826   -4.4494 N   0  3  0  0  0  0  0  0  0  0  0  0
  1  2  1  6  0  0  0
  1  3  1  0  0  0  0
  1 10  1  0  0  0  0
  3  4  1  6  0  0  0
  3  5  1  0  0  0  0
  5  6  1  1  0  0  0
  5  7  1  0  0  0  0
  7  8  1  6  0  0  0
  7  9  1  0  0  0  0
  9 10  1  0  0  0  0
  9 11  1  1  0  0  0
 11 35  1  0  0  0  0
 12 13  1  6  0  0  0
 12 14  1  0  0  0  0
 12 20  1  0  0  0  0
 14 15  1  0  0  0  0
 14 40  1  1  0  0  0
 15 16  1  6  0  0  0
 15 17  1  0  0  0  0
 17  2  1  1  0  0  0
 17 18  1  0  0  0  0
 18 19  1  6  0  0  0
 18 20  1  0  0  0  0
 21 16  1  1  0  0  0
 21 22  1  0  0  0  0
 21 25  1  0  0  0  0
 22 23  1  0  0  0  0
 22 36  1  6  0  0  0
 23 24  1  0  0  0  0
 23 31  1  6  0  0  0
 24 25  1  0  0  0  0
 24 26  1  1  0  0  0
 26 39  1  0  0  0  0
 27 28  1  0  0  0  0
 27 32  1  0  0  0  0
 27 38  1  1  0  0  0
 28 29  1  0  0  0  0
 28 37  1  6  0  0  0
 29 30  1  0  0  0  0
 29 42  1  6  0  0  0
 30 31  1  6  0  0  0
 30 33  1  0  0  0  0
 32 33  1  0  0  0  0
 32 34  1  1  0  0  0
 34 41  1  0  0  0  0
M  CHG  6   4   1  13   1  19   1  35   1  41   1  42   1
M  END
>  <CHROM.1>
175.65592421,-62.75183984,78.57828592,48.22552318,174.55791740,-53.53093505
64.26978692,177.62804091,67.53052188,164.98315564,153.25459005,61.29648507
-43.84437449,64.67291282,-66.47608698,59.99037978,63.99389192,67.57686698
160.05829799,-164.07684813,-66.97601373,172.15147920,-4.15942920,5.03654293
0.96342983,-1.29211593,-0.55427157,-1.92236575

>  <Name>


>  <RI>
0

>  <Rbt.Current_Directory>
/home/itssahil/PROJECTS/Mol_Feturizer/New_Systems/rnas/1ei2

>  <Rbt.Executable>
rbdock ($Id: //depot/dev/client3/rdock/2013.1/src/exe/rbdock.cxx#4 $)

>  <Rbt.Library>
libRbt.so (2013.1, Build901 2013/11/27)

>  <Rbt.Parameter_File>
/export/apps/rDock/src/rDock_2013.1_src/data/scripts/dock_solv.prm

>  <Rbt.Receptor>
prm/pocket_docking_8.prm

>  <SCORE>
-54.1357

>  <SCORE.INTER>
-29.708

>  <SCORE.INTER.CONST>
1

>  <SCORE.INTER.POLAR>
-5.33217

>  <SCORE.INTER.ROT>
9

>  <SCORE.INTER.SOLV>
27.1438

>  <SCORE.INTER.VDW>
-20.6794

>  <SCORE.INTER.norm>
-0.707334

>  <SCORE.INTRA>
-24.4277

>  <SCORE.INTRA.DIHEDRAL>
-29.6392

>  <SCORE.INTRA.DIHEDRAL.0>
40.8761

>  <SCORE.INTRA.POLAR>
-0.793674

>  <SCORE.INTRA.POLAR.0>
-0.0268208

>  <SCORE.INTRA.REPUL>
-0.636943

>  <SCORE.INTRA.REPUL.0>
0.641615

>  <SCORE.INTRA.SOLV>
-9.96962

>  <SCORE.INTRA.SOLV.lig_0>
-162.567

>  <SCORE.INTRA.VDW>
1.25997

>  <SCORE.INTRA.VDW.0>
-4.80338

>  <SCORE.INTRA.norm>
-0.581611

>  <SCORE.RESTR>
0

>  <SCORE.RESTR.CAVITY>
0

>  <SCORE.RESTR.norm>
0

>  <SCORE.SYSTEM>
0

>  <SCORE.SYSTEM.CONST>
0

>  <SCORE.SYSTEM.DIHEDRAL>
0

>  <SCORE.SYSTEM.SOLV>
0

>  <SCORE.SYSTEM.norm>
0

>  <SCORE.heavy>
42

>  <SCORE.norm>
-1.28894

>  <RMSD>
6.059

$$$$

 OpenBabel11021811393D
libRbt.so/2013.1/901 2013/11/27
 42 45  0  0  0  0  0  0  0  0999 V2000
   -2.3255    4.6063    3.4773 C   0  0  2  0  0  0  0  0  0  0  0  0
   -2.4566    5.3255    2.2127 O   0  0  0  0  0  0  0  0  0  0  0  0
   -0.8616    4.1087    3.7076 C   0  0  2  0  0  0  0  0  0  0  0  0
    0.0927    4.7743    2.7914 N   0  3  0  0  0  0  0  0  0  0  0  0
   -0.7764    2.5600    3.5549 C   0  0  1  0  0  0  0  0  0  0  0  0
    0.5607    2.1171    3.7770 O   0  0  0  0  0  0  0  0  0  0  0  0
   -1.7098    1.8298    4.5574 C   0  0  2  0  0  0  0  0  0  0  0  0
   -1.8064    0.4614    4.1782 O   0  0  0  0  0  0  0  0  0  0  0  0
   -3.1312    2.4795    4.5857 C   0  0  2  0  0  0  0  0  0  0  0  0
   -3.2542    3.4690    3.5128 O   0  0  0  0  0  0  0  0  0  0  0  0
   -3.4741    3.2152    5.9015 C   0  0  0  0  0  0  0  0  0  0  0  0
   -6.5952    6.4003    2.7927 C   0  0  1  0  0  0  0  0  0  0  0  0
   -7.9540    6.9553    2.6028 N   0  3  0  0  0  0  0  0  0  0  0  0
   -6.3114    5.2390    1.8043 C   0  0  1  0  0  0  0  0  0  0  0  0
   -4.8355    4.7109    1.8564 C   0  0  1  0  0  0  0  0  0  0  0  0
   -4.6109    3.8758    0.6889 O   0  0  0  0  0  0  0  0  0  0  0  0
   -3.7615    5.8599    1.8317 C   0  0  1  0  0  0  0  0  0  0  0  0
   -4.1150    7.0137    2.8251 C   0  0  1  0  0  0  0  0  0  0  0  0
   -3.1908    8.1588    2.6964 N   0  3  0  0  0  0  0  0  0  0  0  0
   -5.5572    7.5284    2.6180 C   0  0  0  0  0  0  0  0  0  0  0  0
   -3.2755    3.3577    0.4222 C   0  0  1  0  0  0  0  0  0  0  0  0
   -3.4069    1.9636   -0.1794 C   0  0  1  0  0  0  0  0  0  0  0  0
   -3.7230    2.3259   -1.6242 C   0  0  1  0  0  0  0  0  0  0  0  0
   -2.7686    3.5043   -1.8644 C   0  0  2  0  0  0  0  0  0  0  0  0
   -2.6289    4.1586   -0.5806 O   0  0  0  0  0  0  0  0  0  0  0  0
   -3.2945    4.5011   -2.9127 C   0  0  0  0  0  0  0  0  0  0  0  0
   -3.1765    1.5940   -6.3370 C   0  0  1  0  0  0  0  0  0  0  0  0
   -2.8197    0.3112   -5.5355 C   0  0  1  0  0  0  0  0  0  0  0  0
   -3.9325   -0.1535   -4.5522 C   0  0  2  0  0  0  0  0  0  0  0  0
   -4.3884    1.0162   -3.6218 C   0  0  1  0  0  0  0  0  0  0  0  0
   -3.4503    1.2154   -2.5265 O   0  0  0  0  0  0  0  0  0  0  0  0
   -4.5277    2.1968   -5.8460 C   0  0  1  0  0  0  0  0  0  0  0  0
   -4.5253    2.2793   -4.3832 O   0  0  0  0  0  0  0  0  0  0  0  0
   -4.7979    3.6046   -6.4366 C   0  0  0  0  0  0  0  0  0  0  0  0
   -4.9044    3.5264    6.0708 N   0  3  0  0  0  0  0  0  0  0  0  0
   -2.1620    1.2725   -0.0735 O   0  0  0  0  0  0  0  0  0  0  0  0
   -2.5639   -0.7423   -6.4635 O   0  0  0  0  0  0  0  0  0  0  0  0
   -2.1219    2.5430   -6.1637 O   0  0  0  0  0  0  0  0  0  0  0  0
   -2.4333    5.6214   -3.0217 O   0  0  0  0  0  0  0  0  0  0  0  0
   -7.1928    4.1567    2.1029 O   0  0  0  0  0  0  0  0  0  0  0  0
   -6.0352    4.2163   -5.9182 N   0  3  0  0  0  0  0  0  0  0  0  0
   -3.5159   -1.3583   -3.7925 N   0  3  0  0  0  0  0  0  0  0  0  0
  1  2  1  6  0  0  0
  1  3  1  0  0  0  0
  1 10  1  0  0  0  0
  3  4  1  6  0  0  0
  3  5  1  0  0  0  0
  5  6  1  1  0  0  0
  5  7  1  0  0  0  0
  7  8  1  6  0  0  0
  7  9  1  0  0  0  0
  9 10  1  0  0  0  0
  9 11  1  1  0  0  0
 11 35  1  0  0  0  0
 12 13  1  6  0  0  0
 12 14  1  0  0  0  0
 12 20  1  0  0  0  0
 14 15  1  0  0  0  0
 14 40  1  1  0  0  0
 15 16  1  6  0  0  0
 15 17  1  0  0  0  0
 17  2  1  1  0  0  0
 17 18  1  0  0  0  0
 18 19  1  6  0  0  0
 18 20  1  0  0  0  0
 21 16  1  6  0  0  0
 21 22  1  0  0  0  0
 21 25  1  0  0  0  0
 22 23  1  0  0  0  0
 22 36  1  6  0  0  0
 23 24  1  0  0  0  0
 23 31  1  6  0  0  0
 24 25  1  0  0  0  0
 24 26  1  6  0  0  0
 26 39  1  0  0  0  0
 27 28  1  0  0  0  0
 27 32  1  0  0  0  0
 27 38  1  1  0  0  0
 28 29  1  0  0  0  0
 28 37  1  6  0  0  0
 29 30  1  0  0  0  0
 29 42  1  1  0  0  0
 30 31  1  1  0  0  0
 30 33  1  0  0  0  0
 32 33  1  0  0  0  0
 32 34  1  6  0  0  0
 34 41  1  0  0  0  0
M  CHG  6   4   1  13   1  19   1  35   1  41   1  42   1
M  END
>  <CHROM.1>
179.82778382,-54.58300351,-32.11445983,61.70902893,77.10163477,-165.20265890
-163.01539426,52.94514441,171.11962374,174.14741787,144.64833649,-178.21903402
-57.47176144,141.47132465,175.34977536,178.51717968,95.00028767,170.38914375
46.83751911,176.82235210,-176.69317270,-85.80003107,-3.50341681,3.37279808
-0.04205908,-1.54033816,0.86345802,-1.90818308

>  <Name>


>  <RI>
0

>  <Rbt.Current_Directory>
/home/itssahil/PROJECTS/Mol_Feturizer/New_Systems/rnas/1ei2

>  <Rbt.Executable>
rbdock ($Id: //depot/dev/client3/rdock/2013.1/src/exe/rbdock.cxx#4 $)

>  <Rbt.Library>
libRbt.so (2013.1, Build901 2013/11/27)

>  <Rbt.Parameter_File>
/export/apps/rDock/src/rDock_2013.1_src/data/scripts/dock_solv.prm

>  <Rbt.Receptor>
prm/pocket_docking_8.prm

>  <SCORE>
-51.8366

>  <SCORE.INTER>
-31.6736

>  <SCORE.INTER.CONST>
1

>  <SCORE.INTER.POLAR>
-5.88112

>  <SCORE.INTER.ROT>
9

>  <SCORE.INTER.SOLV>
17.9676

>  <SCORE.INTER.VDW>
-17.1012

>  <SCORE.INTER.norm>
-0.754134

>  <SCORE.INTRA>
-20.163

>  <SCORE.INTRA.DIHEDRAL>
-18.3024

>  <SCORE.INTRA.DIHEDRAL.0>
40.8761

>  <SCORE.INTRA.POLAR>
-0.280016

>  <SCORE.INTRA.POLAR.0>
-0.0268208

>  <SCORE.INTRA.REPUL>
-0.641615

>  <SCORE.INTRA.REPUL.0>
0.641615

>  <SCORE.INTRA.SOLV>
-13.7615

>  <SCORE.INTRA.SOLV.lig_0>
-162.567

>  <SCORE.INTRA.VDW>
0.0290862

>  <SCORE.INTRA.VDW.0>
-4.80338

>  <SCORE.INTRA.norm>
-0.480072

>  <SCORE.RESTR>
0

>  <SCORE.RESTR.CAVITY>
0

>  <SCORE.RESTR.norm>
0

>  <SCORE.SYSTEM>
0

>  <SCORE.SYSTEM.CONST>
0

>  <SCORE.SYSTEM.DIHEDRAL>
0

>  <SCORE.SYSTEM.SOLV>
0

>  <SCORE.SYSTEM.norm>
0

>  <SCORE.heavy>
42

>  <SCORE.norm>
-1.23421

>  <RMSD>
6.060

$$$$

 OpenBabel11021811393D
libRbt.so/2013.1/901 2013/11/27
 42 45  0  0  0  0  0  0  0  0999 V2000
   -7.9198    3.2968   -2.7418 C   0  0  2  0  0  0  0  0  0  0  0  0
   -7.4639    2.4386   -1.6512 O   0  0  0  0  0  0  0  0  0  0  0  0
   -7.0735    3.0793   -4.0380 C   0  0  2  0  0  0  0  0  0  0  0  0
   -6.2703    1.8373   -3.9646 N   0  3  0  0  0  0  0  0  0  0  0  0
   -6.1553    4.3091   -4.3085 C   0  0  1  0  0  0  0  0  0  0  0  0
   -5.3963    4.1035   -5.4981 O   0  0  0  0  0  0  0  0  0  0  0  0
   -6.9758    5.6171   -4.4681 C   0  0  2  0  0  0  0  0  0  0  0  0
   -6.0836    6.7249   -4.4203 O   0  0  0  0  0  0  0  0  0  0  0  0
   -8.0554    5.7500   -3.3455 C   0  0  2  0  0  0  0  0  0  0  0  0
   -7.8628    4.7070   -2.3353 O   0  0  0  0  0  0  0  0  0  0  0  0
   -9.5143    5.6170   -3.8397 C   0  0  0  0  0  0  0  0  0  0  0  0
   -8.9289    4.9658    1.5247 C   0  0  1  0  0  0  0  0  0  0  0  0
   -9.4098    5.4580    2.8350 N   0  3  0  0  0  0  0  0  0  0  0  0
   -7.4253    4.5879    1.5756 C   0  0  1  0  0  0  0  0  0  0  0  0
   -6.8966    3.9194    0.2590 C   0  0  1  0  0  0  0  0  0  0  0  0
   -5.6001    3.3267    0.5401 O   0  0  0  0  0  0  0  0  0  0  0  0
   -7.8340    2.7767   -0.2793 C   0  0  1  0  0  0  0  0  0  0  0  0
   -9.3374    3.2042   -0.2804 C   0  0  1  0  0  0  0  0  0  0  0  0
  -10.2315    2.0858   -0.6432 N   0  3  0  0  0  0  0  0  0  0  0  0
   -9.7798    3.7526    1.0948 C   0  0  0  0  0  0  0  0  0  0  0  0
   -5.4959    1.8870    0.7376 C   0  0  1  0  0  0  0  0  0  0  0  0
   -4.0224    1.4986    0.7092 C   0  0  1  0  0  0  0  0  0  0  0  0
   -3.6197    1.8783    2.1277 C   0  0  1  0  0  0  0  0  0  0  0  0
   -4.8334    1.3953    2.9345 C   0  0  2  0  0  0  0  0  0  0  0  0
   -5.9693    1.5352    2.0480 O   0  0  0  0  0  0  0  0  0  0  0  0
   -5.0627    2.2077    4.2217 C   0  0  0  0  0  0  0  0  0  0  0  0
   -1.6510    3.5400   -0.4185 C   0  0  1  0  0  0  0  0  0  0  0  0
   -1.7773    3.9832    1.0657 C   0  0  1  0  0  0  0  0  0  0  0  0
   -0.9129    3.1479    2.0538 C   0  0  2  0  0  0  0  0  0  0  0  0
   -1.1673    1.6170    1.8712 C   0  0  1  0  0  0  0  0  0  0  0  0
   -2.3949    1.2033    2.5353 O   0  0  0  0  0  0  0  0  0  0  0  0
   -0.7852    2.2493   -0.5400 C   0  0  1  0  0  0  0  0  0  0  0  0
   -1.2432    1.2576    0.4364 O   0  0  0  0  0  0  0  0  0  0  0  0
   -0.8400    1.6306   -1.9607 C   0  0  0  0  0  0  0  0  0  0  0  0
  -10.5273    5.6748   -2.7711 N   0  3  0  0  0  0  0  0  0  0  0  0
   -3.8974    0.0936    0.4879 O   0  0  0  0  0  0  0  0  0  0  0  0
   -1.3832    5.3514    1.1614 O   0  0  0  0  0  0  0  0  0  0  0  0
   -2.9635    3.3029   -0.9325 O   0  0  0  0  0  0  0  0  0  0  0  0
   -4.0020    2.0087    5.1404 O   0  0  0  0  0  0  0  0  0  0  0  0
   -6.6636    5.7693    1.8237 O   0  0  0  0  0  0  0  0  0  0  0  0
   -1.9647    0.6932   -2.1350 N   0  3  0  0  0  0  0  0  0  0  0  0
   -1.1066    3.5959    3.4553 N   0  3  0  0  0  0  0  0  0  0  0  0
  1  2  1  1  0  0  0
  1  3  1  0  0  0  0
  1 10  1  0  0  0  0
  3  4  1  1  0  0  0
  3  5  1  0  0  0  0
  5  6  1  6  0  0  0
  5  7  1  0  0  0  0
  7  8  1  1  0  0  0
  7  9  1  0  0  0  0
  9 10  1  0  0  0  0
  9 11  1  6  0  0  0
 11 35  1  0  0  0  0
 12 13  1  1  0  0  0
 12 14  1  0  0  0  0
 12 20  1  0  0  0  0
 14 15  1  0  0  0  0
 14 40  1  6  0  0  0
 15 16  1  1  0  0  0
 15 17  1  0  0  0  0
 17  2  1  6  0  0  0
 17 18  1  0  0  0  0
 18 19  1  1  0  0  0
 18 20  1  0  0  0  0
 21 16  1  1  0  0  0
 21 22  1  0  0  0  0
 21 25  1  0  0  0  0
 22 23  1  0  0  0  0
 22 36  1  1  0  0  0
 23 24  1  0  0  0  0
 23 31  1  1  0  0  0
 24 25  1  0  0  0  0
 24 26  1  1  0  0  0
 26 39  1  0  0  0  0
 27 28  1  0  0  0  0
 27 32  1  0  0  0  0
 27 38  1  1  0  0  0
 28 29  1  0  0  0  0
 28 37  1  6  0  0  0
 29 30  1  0  0  0  0
 29 42  1  1  0  0  0
 30 31  1  1  0  0  0
 30 33  1  0  0  0  0
 32 33  1  0  0  0  0
 32 34  1  6  0  0  0
 34 41  1  0  0  0  0
M  CHG  6   4   1  13   1  19   1  35   1  41   1  42   1
M  END
>  <CHROM.1>
161.21237432,-79.50001719,55.60369346,177.54937842,-65.56617954,177.07872728
152.93259580,168.62939260,-60.03785316,102.40735343,167.78074348,-174.40595927
176.96525029,69.10008238,-66.24774908,-88.05936567,166.52618392,63.10713284
164.34643864,57.48656221,-87.52853350,172.52589028,-5.39059518,3.26583764
-0.23432859,-2.53663190,-0.26676720,1.71894334

>  <Name>


>  <RI>
0

>  <Rbt.Current_Directory>
/home/itssahil/PROJECTS/Mol_Feturizer/New_Systems/rnas/1ei2

>  <Rbt.Executable>
rbdock ($Id: //depot/dev/client3/rdock/2013.1/src/exe/rbdock.cxx#4 $)

>  <Rbt.Library>
libRbt.so (2013.1, Build901 2013/11/27)

>  <Rbt.Parameter_File>
/export/apps/rDock/src/rDock_2013.1_src/data/scripts/dock_solv.prm

>  <Rbt.Receptor>
prm/pocket_docking_3.prm

>  <SCORE>
-49.0214

>  <SCORE.INTER>
-34.5814

>  <SCORE.INTER.CONST>
1

>  <SCORE.INTER.POLAR>
-4.90953

>  <SCORE.INTER.ROT>
9

>  <SCORE.INTER.SOLV>
20.4139

>  <SCORE.INTER.VDW>
-23.0938

>  <SCORE.INTER.norm>
-0.823368

>  <SCORE.INTRA>
-14.7716

>  <SCORE.INTRA.DIHEDRAL>
-20.5395

>  <SCORE.INTRA.DIHEDRAL.0>
40.8761

>  <SCORE.INTRA.POLAR>
-0.595507

>  <SCORE.INTRA.POLAR.0>
-0.0268208

>  <SCORE.INTRA.REPUL>
-0.21842

>  <SCORE.INTRA.REPUL.0>
0.641615

>  <SCORE.INTRA.SOLV>
-2.75982

>  <SCORE.INTRA.SOLV.lig_0>
-162.567

>  <SCORE.INTRA.VDW>
-0.00513651

>  <SCORE.INTRA.VDW.0>
-4.80338

>  <SCORE.INTRA.norm>
-0.351706

>  <SCORE.RESTR>
0.331666

>  <SCORE.RESTR.CAVITY>
0.331666

>  <SCORE.RESTR.norm>
0.00789681

>  <SCORE.SYSTEM>
0

>  <SCORE.SYSTEM.CONST>
0

>  <SCORE.SYSTEM.DIHEDRAL>
0

>  <SCORE.SYSTEM.SOLV>
0

>  <SCORE.SYSTEM.norm>
0

>  <SCORE.heavy>
42

>  <SCORE.norm>
-1.16718

>  <RMSD>
6.068

$$$$

 OpenBabel11021811393D
libRbt.so/2013.1/901 2013/11/27
 42 45  0  0  0  0  0  0  0  0999 V2000
  -12.4373    6.5624    2.3023 C   0  0  2  0  0  0  0  0  0  0  0  0
  -11.5372    5.4186    2.1783 O   0  0  0  0  0  0  0  0  0  0  0  0
  -13.5494    6.5416    1.2038 C   0  0  2  0  0  0  0  0  0  0  0  0
  -13.6404    5.2195    0.5428 N   0  3  0  0  0  0  0  0  0  0  0  0
  -13.3036    7.6638    0.1507 C   0  0  1  0  0  0  0  0  0  0  0  0
  -14.3293    7.6414   -0.8398 O   0  0  0  0  0  0  0  0  0  0  0  0
  -13.2805    9.0719    0.8035 C   0  0  2  0  0  0  0  0  0  0  0  0
  -12.7707   10.0056   -0.1420 O   0  0  0  0  0  0  0  0  0  0  0  0
  -12.4011    9.0837    2.0957 C   0  0  2  0  0  0  0  0  0  0  0  0
  -11.6773    7.8168    2.2241 O   0  0  0  0  0  0  0  0  0  0  0  0
  -13.1942    9.2702    3.4097 C   0  0  0  0  0  0  0  0  0  0  0  0
   -9.2070    6.3812    5.6802 C   0  0  1  0  0  0  0  0  0  0  0  0
   -8.2682    6.3032    6.8218 N   0  3  0  0  0  0  0  0  0  0  0  0
   -8.4547    6.3824    4.3237 C   0  0  1  0  0  0  0  0  0  0  0  0
   -9.4017    6.3122    3.0754 C   0  0  1  0  0  0  0  0  0  0  0  0
   -8.5941    5.9936    1.9105 O   0  0  0  0  0  0  0  0  0  0  0  0
  -10.5138    5.2066    3.1987 C   0  0  1  0  0  0  0  0  0  0  0  0
  -11.2162    5.2352    4.5947 C   0  0  1  0  0  0  0  0  0  0  0  0
  -12.1540    4.1070    4.7667 N   0  3  0  0  0  0  0  0  0  0  0  0
  -10.1941    5.1976    5.7530 C   0  0  0  0  0  0  0  0  0  0  0  0
   -7.4171    6.7982    1.6104 C   0  0  1  0  0  0  0  0  0  0  0  0
   -6.1808    6.0480    2.0915 C   0  0  1  0  0  0  0  0  0  0  0  0
   -5.9972    5.0704    0.9386 C   0  0  1  0  0  0  0  0  0  0  0  0
   -6.2974    5.9619   -0.2748 C   0  0  2  0  0  0  0  0  0  0  0  0
   -7.2646    6.9345    0.1880 O   0  0  0  0  0  0  0  0  0  0  0  0
   -6.8650    5.1783   -1.4719 C   0  0  0  0  0  0  0  0  0  0  0  0
   -1.6829    2.1142    0.5730 C   0  0  1  0  0  0  0  0  0  0  0  0
   -2.7485    2.0820    1.7039 C   0  0  1  0  0  0  0  0  0  0  0  0
   -4.2180    2.1009    1.1927 C   0  0  2  0  0  0  0  0  0  0  0  0
   -4.4531    3.2791    0.1935 C   0  0  1  0  0  0  0  0  0  0  0  0
   -4.6416    4.5389    0.8982 O   0  0  0  0  0  0  0  0  0  0  0  0
   -2.3573    2.3081   -0.8190 C   0  0  1  0  0  0  0  0  0  0  0  0
   -3.3183    3.4119   -0.7491 O   0  0  0  0  0  0  0  0  0  0  0  0
   -1.3274    2.5978   -1.9412 C   0  0  0  0  0  0  0  0  0  0  0  0
  -14.5177    8.6225    3.4197 N   0  3  0  0  0  0  0  0  0  0  0  0
   -5.0782    6.9494    2.1940 O   0  0  0  0  0  0  0  0  0  0  0  0
   -2.5503    0.8976    2.4748 O   0  0  0  0  0  0  0  0  0  0  0  0
   -0.7777    3.1887    0.8357 O   0  0  0  0  0  0  0  0  0  0  0  0
   -6.9335    5.9982   -2.6259 O   0  0  0  0  0  0  0  0  0  0  0  0
   -7.6717    7.5725    4.2345 O   0  0  0  0  0  0  0  0  0  0  0  0
   -1.9513    2.7399   -3.2695 N   0  3  0  0  0  0  0  0  0  0  0  0
   -5.1837    2.1065    2.3195 N   0  3  0  0  0  0  0  0  0  0  0  0
  1  2  1  6  0  0  0
  1  3  1  0  0  0  0
  1 10  1  0  0  0  0
  3  4  1  6  0  0  0
  3  5  1  0  0  0  0
  5  6  1  6  0  0  0
  5  7  1  0  0  0  0
  7  8  1  6  0  0  0
  7  9  1  0  0  0  0
  9 10  1  0  0  0  0
  9 11  1  1  0  0  0
 11 35  1  0  0  0  0
 12 13  1  1  0  0  0
 12 14  1  0  0  0  0
 12 20  1  0  0  0  0
 14 15  1  0  0  0  0
 14 40  1  6  0  0  0
 15 16  1  6  0  0  0
 15 17  1  0  0  0  0
 17  2  1  6  0  0  0
 17 18  1  0  0  0  0
 18 19  1  1  0  0  0
 18 20  1  0  0  0  0
 21 16  1  6  0  0  0
 21 22  1  0  0  0  0
 21 25  1  0  0  0  0
 22 23  1  0  0  0  0
 22 36  1  6  0  0  0
 23 24  1  0  0  0  0
 23 31  1  6  0  0  0
 24 25  1  0  0  0  0
 24 26  1  6  0  0  0
 26 39  1  0  0  0  0
 27 28  1  0  0  0  0
 27 32  1  0  0  0  0
 27 38  1  1  0  0  0
 28 29  1  0  0  0  0
 28 37  1  6  0  0  0
 29 30  1  0  0  0  0
 29 42  1  1  0  0  0
 30 31  1  1  0  0  0
 30 33  1  0  0  0  0
 32 33  1  0  0  0  0
 32 34  1  6  0  0  0
 34 41  1  0  0  0  0
M  CHG  6   4   1  13   1  19   1  35   1  41   1  42   1
M  END
>  <CHROM.1>
-174.22552041,-70.63278254,6.46422437,-175.98927281,-59.47709948,35.48021229
64.60110438,175.80909090,65.61772813,-52.54382337,100.38696098,175.28428220
-52.14351850,158.42205736,-171.06873928,-65.11212568,68.43038222,-74.56340245
179.46352683,-106.35383062,178.15384189,-66.49611348,-8.08233000,5.52135374
1.59578798,3.00984271,-0.45777762,1.73027884

>  <Name>


>  <RI>
0

>  <Rbt.Current_Directory>
/home/itssahil/PROJECTS/Mol_Feturizer/New_Systems/rnas/1ei2

>  <Rbt.Executable>
rbdock ($Id: //depot/dev/client3/rdock/2013.1/src/exe/rbdock.cxx#4 $)

>  <Rbt.Library>
libRbt.so (2013.1, Build901 2013/11/27)

>  <Rbt.Parameter_File>
/export/apps/rDock/src/rDock_2013.1_src/data/scripts/dock_solv.prm

>  <Rbt.Receptor>
prm/pocket_docking_8.prm

>  <SCORE>
-35.6317

>  <SCORE.INTER>
-19.5142

>  <SCORE.INTER.CONST>
1

>  <SCORE.INTER.POLAR>
-3.61599

>  <SCORE.INTER.ROT>
9

>  <SCORE.INTER.SOLV>
20.5418

>  <SCORE.INTER.VDW>
-17.4034

>  <SCORE.INTER.norm>
-0.464625

>  <SCORE.INTRA>
-16.1174

>  <SCORE.INTRA.DIHEDRAL>
-17.586

>  <SCORE.INTRA.DIHEDRAL.0>
40.8761

>  <SCORE.INTRA.POLAR>
-0.333527

>  <SCORE.INTRA.POLAR.0>
-0.0268208

>  <SCORE.INTRA.REPUL>
-0.641615

>  <SCORE.INTRA.REPUL.0>
0.641615

>  <SCORE.INTRA.SOLV>
-9.42459

>  <SCORE.INTRA.SOLV.lig_0>
-162.567

>  <SCORE.INTRA.VDW>
1.72995

>  <SCORE.INTRA.VDW.0>
-4.80338

>  <SCORE.INTRA.norm>
-0.383748

>  <SCORE.RESTR>
0

>  <SCORE.RESTR.CAVITY>
0

>  <SCORE.RESTR.norm>
0

>  <SCORE.SYSTEM>
0

>  <SCORE.SYSTEM.CONST>
0

>  <SCORE.SYSTEM.DIHEDRAL>
0

>  <SCORE.SYSTEM.SOLV>
0

>  <SCORE.SYSTEM.norm>
0

>  <SCORE.heavy>
42

>  <SCORE.norm>
-0.848373

>  <RMSD>
6.069

$$$$

 OpenBabel11021811393D
libRbt.so/2013.1/901 2013/11/27
 42 45  0  0  0  0  0  0  0  0999 V2000
   -6.6642    3.7593   -1.0492 C   0  0  2  0  0  0  0  0  0  0  0  0
   -6.1046    2.9227   -2.1077 O   0  0  0  0  0  0  0  0  0  0  0  0
   -7.6526    2.9563   -0.1425 C   0  0  2  0  0  0  0  0  0  0  0  0
   -7.5158    1.4956   -0.3442 N   0  3  0  0  0  0  0  0  0  0  0  0
   -9.1225    3.4080   -0.3964 C   0  0  1  0  0  0  0  0  0  0  0  0
  -10.0133    2.6763    0.4430 O   0  0  0  0  0  0  0  0  0  0  0  0
   -9.3163    4.9227   -0.1178 C   0  0  2  0  0  0  0  0  0  0  0  0
  -10.5783    5.3252   -0.6384 O   0  0  0  0  0  0  0  0  0  0  0  0
   -8.1742    5.7696   -0.7671 C   0  0  2  0  0  0  0  0  0  0  0  0
   -7.3473    4.9227   -1.6298 O   0  0  0  0  0  0  0  0  0  0  0  0
   -7.2132    6.4339    0.2456 C   0  0  0  0  0  0  0  0  0  0  0  0
   -4.2286    3.2502   -5.9798 C   0  0  1  0  0  0  0  0  0  0  0  0
   -3.4892    3.7594   -7.1565 N   0  3  0  0  0  0  0  0  0  0  0  0
   -3.2861    3.0268   -4.7683 C   0  0  1  0  0  0  0  0  0  0  0  0
   -4.0357    2.6310   -3.4486 C   0  0  1  0  0  0  0  0  0  0  0  0
   -3.1068    2.7698   -2.3401 O   0  0  0  0  0  0  0  0  0  0  0  0
   -5.2802    3.5427   -3.1419 C   0  0  1  0  0  0  0  0  0  0  0  0
   -6.1761    3.7555   -4.4048 C   0  0  1  0  0  0  0  0  0  0  0  0
   -7.2598    4.7285   -4.1583 N   0  3  0  0  0  0  0  0  0  0  0  0
   -5.3525    4.2434   -5.6179 C   0  0  0  0  0  0  0  0  0  0  0  0
   -2.1786    1.6874   -2.0407 C   0  0  1  0  0  0  0  0  0  0  0  0
   -1.5304    1.9636   -0.6893 C   0  0  1  0  0  0  0  0  0  0  0  0
   -2.6357    1.4802    0.2398 C   0  0  1  0  0  0  0  0  0  0  0  0
   -3.1067    0.2059   -0.4753 C   0  0  2  0  0  0  0  0  0  0  0  0
   -2.8971    0.4525   -1.8863 O   0  0  0  0  0  0  0  0  0  0  0  0
   -4.5869   -0.1219   -0.2088 C   0  0  0  0  0  0  0  0  0  0  0  0
   -4.1093    4.4687    1.8834 C   0  0  1  0  0  0  0  0  0  0  0  0
   -4.5231    3.1073    2.5086 C   0  0  1  0  0  0  0  0  0  0  0  0
   -3.3979    2.4194    3.3343 C   0  0  2  0  0  0  0  0  0  0  0  0
   -2.0761    2.3120    2.5077 C   0  0  1  0  0  0  0  0  0  0  0  0
   -2.1266    1.1958    1.5746 O   0  0  0  0  0  0  0  0  0  0  0  0
   -2.5941    4.7494    2.1190 C   0  0  1  0  0  0  0  0  0  0  0  0
   -1.8136    3.5628    1.7591 O   0  0  0  0  0  0  0  0  0  0  0  0
   -2.0826    5.9642    1.3025 C   0  0  0  0  0  0  0  0  0  0  0  0
   -7.4897    6.1039    1.6548 N   0  3  0  0  0  0  0  0  0  0  0  0
   -0.3480    1.1754   -0.5505 O   0  0  0  0  0  0  0  0  0  0  0  0
   -5.6446    3.3273    3.3631 O   0  0  0  0  0  0  0  0  0  0  0  0
   -4.3905    4.4267    0.4827 O   0  0  0  0  0  0  0  0  0  0  0  0
   -4.8782   -0.0534    1.1766 O   0  0  0  0  0  0  0  0  0  0  0  0
   -2.3591    1.9911   -5.0932 O   0  0  0  0  0  0  0  0  0  0  0  0
   -0.6120    6.0711    1.2937 N   0  3  0  0  0  0  0  0  0  0  0  0
   -3.8434    1.1098    3.8715 N   0  3  0  0  0  0  0  0  0  0  0  0
  1  2  1  6  0  0  0
  1  3  1  0  0  0  0
  1 10  1  0  0  0  0
  3  4  1  6  0  0  0
  3  5  1  0  0  0  0
  5  6  1  1  0  0  0
  5  7  1  0  0  0  0
  7  8  1  6  0  0  0
  7  9  1  0  0  0  0
  9 10  1  0  0  0  0
  9 11  1  1  0  0  0
 11 35  1  0  0  0  0
 12 13  1  6  0  0  0
 12 14  1  0  0  0  0
 12 20  1  0  0  0  0
 14 15  1  0  0  0  0
 14 40  1  6  0  0  0
 15 16  1  1  0  0  0
 15 17  1  0  0  0  0
 17  2  1  1  0  0  0
 17 18  1  0  0  0  0
 18 19  1  1  0  0  0
 18 20  1  0  0  0  0
 21 16  1  1  0  0  0
 21 22  1  0  0  0  0
 21 25  1  0  0  0  0
 22 23  1  0  0  0  0
 22 36  1  6  0  0  0
 23 24  1  0  0  0  0
 23 31  1  1  0  0  0
 24 25  1  0  0  0  0
 24 26  1  6  0  0  0
 26 39  1  0  0  0  0
 27 28  1  0  0  0  0
 27 32  1  0  0  0  0
 27 38  1  6  0  0  0
 28 29  1  0  0  0  0
 28 37  1  1  0  0  0
 29 30  1  0  0  0  0
 29 42  1  6  0  0  0
 30 31  1  6  0  0  0
 30 33  1  0  0  0  0
 32 33  1  0  0  0  0
 32 34  1  6  0  0  0
 34 41  1  0  0  0  0
M  CHG  6   4   1  13   1  19   1  35   1  41   1  42   1
M  END
>  <CHROM.1>
173.04638099,138.07822048,28.17355826,-69.42965687,69.08732199,2.98203559
179.78000266,63.12090741,-176.02385699,-83.17871883,-168.71298182,68.29862344
-56.76602219,87.04792453,-48.31792149,167.21575200,-175.16134800,178.25584982
166.05315787,90.87753822,-168.06118031,174.48897897,-4.80504426,3.17705422
-0.67975546,2.49653270,0.34899855,-1.56392318

>  <Name>


>  <RI>
0

>  <Rbt.Current_Directory>
/home/itssahil/PROJECTS/Mol_Feturizer/New_Systems/rnas/1ei2

>  <Rbt.Executable>
rbdock ($Id: //depot/dev/client3/rdock/2013.1/src/exe/rbdock.cxx#4 $)

>  <Rbt.Library>
libRbt.so (2013.1, Build901 2013/11/27)

>  <Rbt.Parameter_File>
/export/apps/rDock/src/rDock_2013.1_src/data/scripts/dock_solv.prm

>  <Rbt.Receptor>
prm/pocket_docking_3.prm

>  <SCORE>
-49.8291

>  <SCORE.INTER>
-35.189

>  <SCORE.INTER.CONST>
1

>  <SCORE.INTER.POLAR>
-6.59246

>  <SCORE.INTER.ROT>
9

>  <SCORE.INTER.SOLV>
24.9654

>  <SCORE.INTER.VDW>
-19.4063

>  <SCORE.INTER.norm>
-0.837834

>  <SCORE.INTRA>
-15.0111

>  <SCORE.INTRA.DIHEDRAL>
-13.8513

>  <SCORE.INTRA.DIHEDRAL.0>
40.8761

>  <SCORE.INTRA.POLAR>
-1.80625

>  <SCORE.INTRA.POLAR.0>
-0.0268208

>  <SCORE.INTRA.REPUL>
-0.252617

>  <SCORE.INTRA.REPUL.0>
0.641615

>  <SCORE.INTRA.SOLV>
1.48017

>  <SCORE.INTRA.SOLV.lig_0>
-162.567

>  <SCORE.INTRA.VDW>
-1.42113

>  <SCORE.INTRA.VDW.0>
-4.80338

>  <SCORE.INTRA.norm>
-0.357406

>  <SCORE.RESTR>
0.370926

>  <SCORE.RESTR.CAVITY>
0.370926

>  <SCORE.RESTR.norm>
0.00883158

>  <SCORE.SYSTEM>
0

>  <SCORE.SYSTEM.CONST>
0

>  <SCORE.SYSTEM.DIHEDRAL>
0

>  <SCORE.SYSTEM.SOLV>
0

>  <SCORE.SYSTEM.norm>
0

>  <SCORE.heavy>
42

>  <SCORE.norm>
-1.18641

>  <RMSD>
6.071

$$$$

 OpenBabel11021811393D
libRbt.so/2013.1/901 2013/11/27
 42 45  0  0  0  0  0  0  0  0999 V2000
   -5.6609    3.0144    0.3278 C   0  0  2  0  0  0  0  0  0  0  0  0
   -6.7836    2.4281   -0.3999 O   0  0  0  0  0  0  0  0  0  0  0  0
   -5.2859    2.1676    1.5872 C   0  0  2  0  0  0  0  0  0  0  0  0
   -5.9025    0.8218    1.5447 N   0  3  0  0  0  0  0  0  0  0  0  0
   -5.6925    2.9143    2.8933 C   0  0  1  0  0  0  0  0  0  0  0  0
   -5.3365    2.1373    4.0347 O   0  0  0  0  0  0  0  0  0  0  0  0
   -5.0000    4.2990    3.0050 C   0  0  2  0  0  0  0  0  0  0  0  0
   -5.6244    5.0394    4.0479 O   0  0  0  0  0  0  0  0  0  0  0  0
   -5.0903    5.0887    1.6591 C   0  0  2  0  0  0  0  0  0  0  0  0
   -5.9780    4.3924    0.7251 O   0  0  0  0  0  0  0  0  0  0  0  0
   -3.7396    5.2680    0.9286 C   0  0  0  0  0  0  0  0  0  0  0  0
   -9.1202    2.8744   -4.0000 C   0  0  1  0  0  0  0  0  0  0  0  0
   -9.8047    3.4437   -5.1823 N   0  3  0  0  0  0  0  0  0  0  0  0
   -7.5781    2.9069   -4.1646 C   0  0  1  0  0  0  0  0  0  0  0  0
   -6.7958    2.4554   -2.8824 C   0  0  1  0  0  0  0  0  0  0  0  0
   -5.4025    2.8341   -3.0442 O   0  0  0  0  0  0  0  0  0  0  0  0
   -7.3209    3.1306   -1.5623 C   0  0  1  0  0  0  0  0  0  0  0  0
   -8.8804    3.0936   -1.4656 C   0  0  1  0  0  0  0  0  0  0  0  0
   -9.3822    3.8558   -0.3041 N   0  3  0  0  0  0  0  0  0  0  0  0
   -9.5487    3.6557   -2.7404 C   0  0  0  0  0  0  0  0  0  0  0  0
   -4.3728    1.8033   -3.0409 C   0  0  1  0  0  0  0  0  0  0  0  0
   -4.5370    0.9492   -4.2925 C   0  0  1  0  0  0  0  0  0  0  0  0
   -3.8549    1.8451   -5.3174 C   0  0  1  0  0  0  0  0  0  0  0  0
   -2.6413    2.3536   -4.5262 C   0  0  2  0  0  0  0  0  0  0  0  0
   -3.0729    2.4069   -3.1454 O   0  0  0  0  0  0  0  0  0  0  0  0
   -2.1619    3.7422   -4.9856 C   0  0  0  0  0  0  0  0  0  0  0  0
   -4.2666    1.4718  -10.2345 C   0  0  1  0  0  0  0  0  0  0  0  0
   -3.3411    0.3831   -9.6232 C   0  0  1  0  0  0  0  0  0  0  0  0
   -3.9735   -0.3920   -8.4313 C   0  0  2  0  0  0  0  0  0  0  0  0
   -4.5250    0.5900   -7.3482 C   0  0  1  0  0  0  0  0  0  0  0  0
   -3.4548    1.0962   -6.5010 O   0  0  0  0  0  0  0  0  0  0  0  0
   -5.5720    1.6243   -9.3961 C   0  0  1  0  0  0  0  0  0  0  0  0
   -5.2327    1.7303   -7.9748 O   0  0  0  0  0  0  0  0  0  0  0  0
   -6.4046    2.8630   -9.8163 C   0  0  0  0  0  0  0  0  0  0  0  0
   -2.8927    6.3458    1.4693 N   0  3  0  0  0  0  0  0  0  0  0  0
   -3.8389   -0.2855   -4.1296 O   0  0  0  0  0  0  0  0  0  0  0  0
   -3.0086   -0.5519  -10.6487 O   0  0  0  0  0  0  0  0  0  0  0  0
   -3.5516    2.7091  -10.2622 O   0  0  0  0  0  0  0  0  0  0  0  0
   -2.4785    3.9604   -6.3497 O   0  0  0  0  0  0  0  0  0  0  0  0
   -7.2141    2.0487   -5.2455 O   0  0  0  0  0  0  0  0  0  0  0  0
   -5.7620    4.1378   -9.4479 N   0  3  0  0  0  0  0  0  0  0  0  0
   -3.0277   -1.3885   -7.8702 N   0  3  0  0  0  0  0  0  0  0  0  0
  1  2  1  1  0  0  0
  1  3  1  0  0  0  0
  1 10  1  0  0  0  0
  3  4  1  6  0  0  0
  3  5  1  0  0  0  0
  5  6  1  1  0  0  0
  5  7  1  0  0  0  0
  7  8  1  1  0  0  0
  7  9  1  0  0  0  0
  9 10  1  0  0  0  0
  9 11  1  6  0  0  0
 11 35  1  0  0  0  0
 12 13  1  6  0  0  0
 12 14  1  0  0  0  0
 12 20  1  0  0  0  0
 14 15  1  0  0  0  0
 14 40  1  6  0  0  0
 15 16  1  6  0  0  0
 15 17  1  0  0  0  0
 17  2  1  1  0  0  0
 17 18  1  0  0  0  0
 18 19  1  1  0  0  0
 18 20  1  0  0  0  0
 21 16  1  6  0  0  0
 21 22  1  0  0  0  0
 21 25  1  0  0  0  0
 22 23  1  0  0  0  0
 22 36  1  1  0  0  0
 23 24  1  0  0  0  0
 23 31  1  6  0  0  0
 24 25  1  0  0  0  0
 24 26  1  6  0  0  0
 26 39  1  0  0  0  0
 27 28  1  0  0  0  0
 27 32  1  0  0  0  0
 27 38  1  1  0  0  0
 28 29  1  0  0  0  0
 28 37  1  6  0  0  0
 29 30  1  0  0  0  0
 29 42  1  1  0  0  0
 30 31  1  6  0  0  0
 30 33  1  0  0  0  0
 32 33  1  0  0  0  0
 32 34  1  6  0  0  0
 34 41  1  0  0  0  0
M  CHG  6   4   1  13   1  19   1  35   1  41   1  42   1
M  END
>  <CHROM.1>
176.42836404,101.87436769,-65.32721967,-170.14881083,-53.34831707,-79.48323410
165.70885220,-171.60714435,74.23356526,-119.26518160,67.54712226,-51.72298683
169.04648778,68.27622891,-27.73191831,-58.64997923,-35.92331902,-54.88155672
-106.38775950,-170.19411514,-69.75394179,-65.22928910,-5.29819308,2.51313914
-3.62655046,-1.71810489,0.18946415,-1.76710271

>  <Name>


>  <RI>
0

>  <Rbt.Current_Directory>
/home/itssahil/PROJECTS/Mol_Feturizer/New_Systems/rnas/1ei2

>  <Rbt.Executable>
rbdock ($Id: //depot/dev/client3/rdock/2013.1/src/exe/rbdock.cxx#4 $)

>  <Rbt.Library>
libRbt.so (2013.1, Build901 2013/11/27)

>  <Rbt.Parameter_File>
/export/apps/rDock/src/rDock_2013.1_src/data/scripts/dock_solv.prm

>  <Rbt.Receptor>
prm/pocket_docking_7.prm

>  <SCORE>
-47.3602

>  <SCORE.INTER>
-30.8629

>  <SCORE.INTER.CONST>
1

>  <SCORE.INTER.POLAR>
-5.50323

>  <SCORE.INTER.ROT>
9

>  <SCORE.INTER.SOLV>
23.792

>  <SCORE.INTER.VDW>
-19.7618

>  <SCORE.INTER.norm>
-0.734831

>  <SCORE.INTRA>
-16.4974

>  <SCORE.INTRA.DIHEDRAL>
-12.7686

>  <SCORE.INTRA.DIHEDRAL.0>
40.8761

>  <SCORE.INTRA.POLAR>
-0.549363

>  <SCORE.INTRA.POLAR.0>
-0.0268208

>  <SCORE.INTRA.REPUL>
-0.483947

>  <SCORE.INTRA.REPUL.0>
0.641615

>  <SCORE.INTRA.SOLV>
-10.047

>  <SCORE.INTRA.SOLV.lig_0>
-162.567

>  <SCORE.INTRA.VDW>
-0.801976

>  <SCORE.INTRA.VDW.0>
-4.80338

>  <SCORE.INTRA.norm>
-0.392794

>  <SCORE.RESTR>
0

>  <SCORE.RESTR.CAVITY>
0

>  <SCORE.RESTR.norm>
0

>  <SCORE.SYSTEM>
0

>  <SCORE.SYSTEM.CONST>
0

>  <SCORE.SYSTEM.DIHEDRAL>
0

>  <SCORE.SYSTEM.SOLV>
0

>  <SCORE.SYSTEM.norm>
0

>  <SCORE.heavy>
42

>  <SCORE.norm>
-1.12762

>  <RMSD>
6.077

$$$$

 OpenBabel11021811393D
libRbt.so/2013.1/901 2013/11/27
 42 45  0  0  0  0  0  0  0  0999 V2000
   -4.2661    3.1572    2.3604 C   0  0  2  0  0  0  0  0  0  0  0  0
   -5.3734    4.0645    2.6509 O   0  0  0  0  0  0  0  0  0  0  0  0
   -3.6961    2.5087    3.6635 C   0  0  2  0  0  0  0  0  0  0  0  0
   -4.6172    2.6842    4.8098 N   0  3  0  0  0  0  0  0  0  0  0  0
   -2.2897    3.0910    3.9982 C   0  0  1  0  0  0  0  0  0  0  0  0
   -1.7760    2.4848    5.1823 O   0  0  0  0  0  0  0  0  0  0  0  0
   -1.2782    2.8533    2.8450 C   0  0  2  0  0  0  0  0  0  0  0  0
   -0.1211    3.6477    3.0812 O   0  0  0  0  0  0  0  0  0  0  0  0
   -1.9030    3.2157    1.4587 C   0  0  2  0  0  0  0  0  0  0  0  0
   -3.1994    3.8710    1.6463 O   0  0  0  0  0  0  0  0  0  0  0  0
   -2.1546    2.0040    0.5321 C   0  0  0  0  0  0  0  0  0  0  0  0
   -8.8316    5.7545    0.7003 C   0  0  1  0  0  0  0  0  0  0  0  0
   -9.7258    6.4036   -0.2843 N   0  3  0  0  0  0  0  0  0  0  0  0
   -8.3809    4.3499    0.2205 C   0  0  1  0  0  0  0  0  0  0  0  0
   -7.3136    3.6761    1.1515 C   0  0  1  0  0  0  0  0  0  0  0  0
   -6.7421    2.5444    0.4417 O   0  0  0  0  0  0  0  0  0  0  0  0
   -6.1316    4.6376    1.5417 C   0  0  1  0  0  0  0  0  0  0  0  0
   -6.6442    6.0449    1.9887 C   0  0  1  0  0  0  0  0  0  0  0  0
   -5.5347    6.9940    2.2120 N   0  3  0  0  0  0  0  0  0  0  0  0
   -7.6087    6.6613    0.9505 C   0  0  0  0  0  0  0  0  0  0  0  0
   -7.5699    1.7868   -0.4875 C   0  0  1  0  0  0  0  0  0  0  0  0
   -7.2552    2.2487   -1.9054 C   0  0  1  0  0  0  0  0  0  0  0  0
   -5.9761    1.4639   -2.1633 C   0  0  1  0  0  0  0  0  0  0  0  0
   -6.3148    0.1040   -1.5363 C   0  0  2  0  0  0  0  0  0  0  0  0
   -7.2143    0.3952   -0.4401 O   0  0  0  0  0  0  0  0  0  0  0  0
   -5.0742   -0.6461   -1.0190 C   0  0  0  0  0  0  0  0  0  0  0  0
   -3.4085    2.0183   -6.5974 C   0  0  1  0  0  0  0  0  0  0  0  0
   -3.4645    2.8790   -5.3045 C   0  0  1  0  0  0  0  0  0  0  0  0
   -3.3415    2.0575   -3.9888 C   0  0  2  0  0  0  0  0  0  0  0  0
   -4.3693    0.8809   -3.9596 C   0  0  1  0  0  0  0  0  0  0  0  0
   -5.6968    1.3490   -3.5883 O   0  0  0  0  0  0  0  0  0  0  0  0
   -3.3885    0.4984   -6.2513 C   0  0  1  0  0  0  0  0  0  0  0  0
   -4.4404    0.2037   -5.2749 O   0  0  0  0  0  0  0  0  0  0  0  0
   -3.5868   -0.3967   -7.5017 C   0  0  0  0  0  0  0  0  0  0  0  0
   -0.9303    1.3361    0.0563 N   0  3  0  0  0  0  0  0  0  0  0  0
   -8.3030    1.8465   -2.7881 O   0  0  0  0  0  0  0  0  0  0  0  0
   -2.3996    3.8278   -5.3497 O   0  0  0  0  0  0  0  0  0  0  0  0
   -4.5535    2.3266   -7.3954 O   0  0  0  0  0  0  0  0  0  0  0  0
   -4.7835   -0.2797    0.3189 O   0  0  0  0  0  0  0  0  0  0  0  0
   -9.5255    3.4999    0.1508 O   0  0  0  0  0  0  0  0  0  0  0  0
   -2.5342   -0.2059   -8.5163 N   0  3  0  0  0  0  0  0  0  0  0  0
   -3.4396    2.9313   -2.7933 N   0  3  0  0  0  0  0  0  0  0  0  0
  1  2  1  1  0  0  0
  1  3  1  0  0  0  0
  1 10  1  0  0  0  0
  3  4  1  1  0  0  0
  3  5  1  0  0  0  0
  5  6  1  1  0  0  0
  5  7  1  0  0  0  0
  7  8  1  1  0  0  0
  7  9  1  0  0  0  0
  9 10  1  0  0  0  0
  9 11  1  6  0  0  0
 11 35  1  0  0  0  0
 12 13  1  6  0  0  0
 12 14  1  0  0  0  0
 12 20  1  0  0  0  0
 14 15  1  0  0  0  0
 14 40  1  1  0  0  0
 15 16  1  6  0  0  0
 15 17  1  0  0  0  0
 17  2  1  1  0  0  0
 17 18  1  0  0  0  0
 18 19  1  6  0  0  0
 18 20  1  0  0  0  0
 21 16  1  1  0  0  0
 21 22  1  0  0  0  0
 21 25  1  0  0  0  0
 22 23  1  0  0  0  0
 22 36  1  6  0  0  0
 23 24  1  0  0  0  0
 23 31  1  6  0  0  0
 24 25  1  0  0  0  0
 24 26  1  1  0  0  0
 26 39  1  0  0  0  0
 27 28  1  0  0  0  0
 27 32  1  0  0  0  0
 27 38  1  6  0  0  0
 28 29  1  0  0  0  0
 28 37  1  6  0  0  0
 29 30  1  0  0  0  0
 29 42  1  1  0  0  0
 30 31  1  6  0  0  0
 30 33  1  0  0  0  0
 32 33  1  0  0  0  0
 32 34  1  6  0  0  0
 34 41  1  0  0  0  0
M  CHG  6   4   1  13   1  19   1  35   1  41   1  42   1
M  END
>  <CHROM.1>
-172.78601181,88.32713654,150.12655692,62.84136577,-56.95136418,-67.09497321
49.52935042,62.13929054,67.66305817,-32.65866217,99.95627955,-171.16387607
68.06010904,167.09931185,88.11692711,49.00029631,-57.88269120,178.25396822
55.23813845,-84.62408042,60.56097032,-148.86996618,-4.86837440,2.64154740
-0.84233499,-1.66159626,0.33611782,-1.86290486

>  <Name>


>  <RI>
0

>  <Rbt.Current_Directory>
/home/itssahil/PROJECTS/Mol_Feturizer/New_Systems/rnas/1ei2

>  <Rbt.Executable>
rbdock ($Id: //depot/dev/client3/rdock/2013.1/src/exe/rbdock.cxx#4 $)

>  <Rbt.Library>
libRbt.so (2013.1, Build901 2013/11/27)

>  <Rbt.Parameter_File>
/export/apps/rDock/src/rDock_2013.1_src/data/scripts/dock_solv.prm

>  <Rbt.Receptor>
prm/pocket_docking_4.prm

>  <SCORE>
-43.8466

>  <SCORE.INTER>
-28.3194

>  <SCORE.INTER.CONST>
1

>  <SCORE.INTER.POLAR>
-5.17766

>  <SCORE.INTER.ROT>
9

>  <SCORE.INTER.SOLV>
19.7774

>  <SCORE.INTER.VDW>
-17.8131

>  <SCORE.INTER.norm>
-0.67427

>  <SCORE.INTRA>
-15.6149

>  <SCORE.INTRA.DIHEDRAL>
-16.691

>  <SCORE.INTRA.DIHEDRAL.0>
40.8761

>  <SCORE.INTRA.POLAR>
-0.129789

>  <SCORE.INTRA.POLAR.0>
-0.0268208

>  <SCORE.INTRA.REPUL>
-0.641615

>  <SCORE.INTRA.REPUL.0>
0.641615

>  <SCORE.INTRA.SOLV>
-8.85427

>  <SCORE.INTRA.SOLV.lig_0>
-162.567

>  <SCORE.INTRA.VDW>
0.807079

>  <SCORE.INTRA.VDW.0>
-4.80338

>  <SCORE.INTRA.norm>
-0.371784

>  <SCORE.RESTR>
0.0876566

>  <SCORE.RESTR.CAVITY>
0.0876566

>  <SCORE.RESTR.norm>
0.00208706

>  <SCORE.SYSTEM>
0

>  <SCORE.SYSTEM.CONST>
0

>  <SCORE.SYSTEM.DIHEDRAL>
0

>  <SCORE.SYSTEM.SOLV>
0

>  <SCORE.SYSTEM.norm>
0

>  <SCORE.heavy>
42

>  <SCORE.norm>
-1.04397

>  <RMSD>
6.113

$$$$

 OpenBabel11021811393D
libRbt.so/2013.1/901 2013/11/27
 42 45  0  0  0  0  0  0  0  0999 V2000
   -4.2430    3.7701    2.8873 C   0  0  2  0  0  0  0  0  0  0  0  0
   -5.5682    4.1468    2.4020 O   0  0  0  0  0  0  0  0  0  0  0  0
   -4.2826    3.3297    4.3868 C   0  0  2  0  0  0  0  0  0  0  0  0
   -5.6663    3.0623    4.8418 N   0  3  0  0  0  0  0  0  0  0  0  0
   -3.6066    4.4022    5.2933 C   0  0  1  0  0  0  0  0  0  0  0  0
   -3.6398    3.9850    6.6565 O   0  0  0  0  0  0  0  0  0  0  0  0
   -2.1282    4.6489    4.8899 C   0  0  2  0  0  0  0  0  0  0  0  0
   -1.6645    5.8224    5.5484 O   0  0  0  0  0  0  0  0  0  0  0  0
   -1.9818    4.8099    3.3420 C   0  0  2  0  0  0  0  0  0  0  0  0
   -3.3039    4.8863    2.7162 O   0  0  0  0  0  0  0  0  0  0  0  0
   -1.2333    3.6508    2.6444 C   0  0  0  0  0  0  0  0  0  0  0  0
   -7.3620    5.6162   -1.2370 C   0  0  1  0  0  0  0  0  0  0  0  0
   -7.6646    6.4201   -2.4422 N   0  3  0  0  0  0  0  0  0  0  0  0
   -6.0187    4.8544   -1.3834 C   0  0  1  0  0  0  0  0  0  0  0  0
   -5.5717    4.1049   -0.0802 C   0  0  1  0  0  0  0  0  0  0  0  0
   -4.1801    3.7168   -0.2347 O   0  0  0  0  0  0  0  0  0  0  0  0
   -5.6762    4.9911    1.2151 C   0  0  1  0  0  0  0  0  0  0  0  0
   -7.0371    5.7558    1.2935 C   0  0  1  0  0  0  0  0  0  0  0  0
   -7.0777    6.7005    2.4283 N   0  3  0  0  0  0  0  0  0  0  0  0
   -7.3296    6.5427   -0.0038 C   0  0  0  0  0  0  0  0  0  0  0  0
   -3.6906    2.5171    0.4316 C   0  0  1  0  0  0  0  0  0  0  0  0
   -4.2745    1.2982   -0.2728 C   0  0  1  0  0  0  0  0  0  0  0  0
   -3.3348    1.2054   -1.4673 C   0  0  1  0  0  0  0  0  0  0  0  0
   -1.9775    1.5126   -0.8187 C   0  0  2  0  0  0  0  0  0  0  0  0
   -2.2657    2.4152    0.2758 O   0  0  0  0  0  0  0  0  0  0  0  0
   -0.9781    2.1624   -1.7925 C   0  0  0  0  0  0  0  0  0  0  0  0
   -4.0204   -0.5326   -5.8265 C   0  0  1  0  0  0  0  0  0  0  0  0
   -3.5071   -1.6522   -4.8786 C   0  0  1  0  0  0  0  0  0  0  0  0
   -4.3553   -1.8285   -3.5861 C   0  0  2  0  0  0  0  0  0  0  0  0
   -4.5427   -0.4664   -2.8436 C   0  0  1  0  0  0  0  0  0  0  0  0
   -3.3607   -0.1218   -2.0669 O   0  0  0  0  0  0  0  0  0  0  0  0
   -5.1961    0.2534   -5.1707 C   0  0  1  0  0  0  0  0  0  0  0  0
   -4.8335    0.6258   -3.8009 O   0  0  0  0  0  0  0  0  0  0  0  0
   -5.5709    1.5309   -5.9653 C   0  0  0  0  0  0  0  0  0  0  0  0
    0.2092    3.8837    2.4546 N   0  3  0  0  0  0  0  0  0  0  0  0
   -4.1622    0.1524    0.5717 O   0  0  0  0  0  0  0  0  0  0  0  0
   -3.5103   -2.8855   -5.5965 O   0  0  0  0  0  0  0  0  0  0  0  0
   -2.9343    0.3521   -6.1105 O   0  0  0  0  0  0  0  0  0  0  0  0
   -0.8430    1.3863   -2.9706 O   0  0  0  0  0  0  0  0  0  0  0  0
   -6.1453    3.8996   -2.4369 O   0  0  0  0  0  0  0  0  0  0  0  0
   -6.2771    1.2359   -7.2255 N   0  3  0  0  0  0  0  0  0  0  0  0
   -3.7925   -2.8846   -2.7085 N   0  3  0  0  0  0  0  0  0  0  0  0
  1  2  1  1  0  0  0
  1  3  1  0  0  0  0
  1 10  1  0  0  0  0
  3  4  1  1  0  0  0
  3  5  1  0  0  0  0
  5  6  1  1  0  0  0
  5  7  1  0  0  0  0
  7  8  1  1  0  0  0
  7  9  1  0  0  0  0
  9 10  1  0  0  0  0
  9 11  1  6  0  0  0
 11 35  1  0  0  0  0
 12 13  1  6  0  0  0
 12 14  1  0  0  0  0
 12 20  1  0  0  0  0
 14 15  1  0  0  0  0
 14 40  1  6  0  0  0
 15 16  1  6  0  0  0
 15 17  1  0  0  0  0
 17  2  1  1  0  0  0
 17 18  1  0  0  0  0
 18 19  1  1  0  0  0
 18 20  1  0  0  0  0
 21 16  1  6  0  0  0
 21 22  1  0  0  0  0
 21 25  1  0  0  0  0
 22 23  1  0  0  0  0
 22 36  1  1  0  0  0
 23 24  1  0  0  0  0
 23 31  1  1  0  0  0
 24 25  1  0  0  0  0
 24 26  1  6  0  0  0
 26 39  1  0  0  0  0
 27 28  1  0  0  0  0
 27 32  1  0  0  0  0
 27 38  1  1  0  0  0
 28 29  1  0  0  0  0
 28 37  1  6  0  0  0
 29 30  1  0  0  0  0
 29 42  1  1  0  0  0
 30 31  1  6  0  0  0
 30 33  1  0  0  0  0
 32 33  1  0  0  0  0
 32 34  1  6  0  0  0
 34 41  1  0  0  0  0
M  CHG  6   4   1  13   1  19   1  35   1  41   1  42   1
M  END
>  <CHROM.1>
159.57490637,83.25183734,50.36306247,-175.97780274,-62.58435202,-94.42776550
-90.86310935,-71.14373817,-68.37723106,-149.93293069,71.53321340,-63.32344491
-56.17438718,73.67657951,-53.12728651,-160.70756953,62.84543786,63.79421927
-61.55840437,172.19610677,73.07251395,-177.54515814,-4.13942228,2.59189484
-0.40716780,-1.53311295,0.70242020,-2.12768888

>  <Name>


>  <RI>
0

>  <Rbt.Current_Directory>
/home/itssahil/PROJECTS/Mol_Feturizer/New_Systems/rnas/1ei2

>  <Rbt.Executable>
rbdock ($Id: //depot/dev/client3/rdock/2013.1/src/exe/rbdock.cxx#4 $)

>  <Rbt.Library>
libRbt.so (2013.1, Build901 2013/11/27)

>  <Rbt.Parameter_File>
/export/apps/rDock/src/rDock_2013.1_src/data/scripts/dock_solv.prm

>  <Rbt.Receptor>
prm/pocket_docking_6.prm

>  <SCORE>
-46.8868

>  <SCORE.INTER>
-26.5869

>  <SCORE.INTER.CONST>
1

>  <SCORE.INTER.POLAR>
-4.70266

>  <SCORE.INTER.ROT>
9

>  <SCORE.INTER.SOLV>
22.9366

>  <SCORE.INTER.VDW>
-19.2946

>  <SCORE.INTER.norm>
-0.633021

>  <SCORE.INTRA>
-20.2999

>  <SCORE.INTRA.DIHEDRAL>
-21.8455

>  <SCORE.INTRA.DIHEDRAL.0>
40.8761

>  <SCORE.INTRA.POLAR>
0.0268208

>  <SCORE.INTRA.POLAR.0>
-0.0268208

>  <SCORE.INTRA.REPUL>
-0.444164

>  <SCORE.INTRA.REPUL.0>
0.641615

>  <SCORE.INTRA.SOLV>
-14.6302

>  <SCORE.INTRA.SOLV.lig_0>
-162.567

>  <SCORE.INTRA.VDW>
0.0675467

>  <SCORE.INTRA.VDW.0>
-4.80338

>  <SCORE.INTRA.norm>
-0.483332

>  <SCORE.RESTR>
0

>  <SCORE.RESTR.CAVITY>
0

>  <SCORE.RESTR.norm>
0

>  <SCORE.SYSTEM>
0

>  <SCORE.SYSTEM.CONST>
0

>  <SCORE.SYSTEM.DIHEDRAL>
0

>  <SCORE.SYSTEM.SOLV>
0

>  <SCORE.SYSTEM.norm>
0

>  <SCORE.heavy>
42

>  <SCORE.norm>
-1.11635

>  <RMSD>
6.115

$$$$

 OpenBabel11021811393D
libRbt.so/2013.1/901 2013/11/27
 42 45  0  0  0  0  0  0  0  0999 V2000
   -9.5257    5.9029    0.4969 C   0  0  2  0  0  0  0  0  0  0  0  0
   -8.1414    5.5746    0.1661 O   0  0  0  0  0  0  0  0  0  0  0  0
   -9.6084    6.9401    1.6637 C   0  0  2  0  0  0  0  0  0  0  0  0
   -8.3026    7.5950    1.9066 N   0  3  0  0  0  0  0  0  0  0  0  0
  -10.1310    6.2624    2.9662 C   0  0  1  0  0  0  0  0  0  0  0  0
  -10.2117    7.2198    4.0199 O   0  0  0  0  0  0  0  0  0  0  0  0
  -11.5353    5.6326    2.7648 C   0  0  2  0  0  0  0  0  0  0  0  0
  -11.8237    4.7935    3.8777 O   0  0  0  0  0  0  0  0  0  0  0  0
  -11.6017    4.8063    1.4395 C   0  0  2  0  0  0  0  0  0  0  0  0
  -10.2646    4.6849    0.8541 O   0  0  0  0  0  0  0  0  0  0  0  0
  -12.5049    5.4204    0.3453 C   0  0  0  0  0  0  0  0  0  0  0  0
   -9.1127    3.0785   -3.2171 C   0  0  1  0  0  0  0  0  0  0  0  0
   -9.0129    2.1763   -4.3861 N   0  3  0  0  0  0  0  0  0  0  0  0
   -8.7363    2.3487   -1.9011 C   0  0  1  0  0  0  0  0  0  0  0  0
   -8.6783    3.2919   -0.6494 C   0  0  1  0  0  0  0  0  0  0  0  0
   -8.0120    2.5779    0.4263 O   0  0  0  0  0  0  0  0  0  0  0  0
   -7.8750    4.6196   -0.9066 C   0  0  1  0  0  0  0  0  0  0  0  0
   -8.2754    5.2941   -2.2585 C   0  0  1  0  0  0  0  0  0  0  0  0
   -7.4200    6.4566   -2.5729 N   0  3  0  0  0  0  0  0  0  0  0  0
   -8.1991    4.3016   -3.4405 C   0  0  0  0  0  0  0  0  0  0  0  0
   -6.7920    1.8323    0.1462 C   0  0  1  0  0  0  0  0  0  0  0  0
   -5.7164    2.8134   -0.3047 C   0  0  1  0  0  0  0  0  0  0  0  0
   -5.2624    3.3499    1.0460 C   0  0  1  0  0  0  0  0  0  0  0  0
   -5.2500    2.0732    1.8987 C   0  0  2  0  0  0  0  0  0  0  0  0
   -6.2947    1.2323    1.3536 O   0  0  0  0  0  0  0  0  0  0  0  0
   -5.5120    2.3435    3.3912 C   0  0  0  0  0  0  0  0  0  0  0  0
   -0.7376    3.9098    3.0776 C   0  0  1  0  0  0  0  0  0  0  0  0
   -0.9465    4.7477    1.7854 C   0  0  1  0  0  0  0  0  0  0  0  0
   -2.2508    5.5961    1.7824 C   0  0  2  0  0  0  0  0  0  0  0  0
   -3.4968    4.7172    2.1239 C   0  0  1  0  0  0  0  0  0  0  0  0
   -3.9418    3.9591    0.9635 O   0  0  0  0  0  0  0  0  0  0  0  0
   -1.9810    4.0129    4.0123 C   0  0  1  0  0  0  0  0  0  0  0  0
   -3.2005    3.7822    3.2337 O   0  0  0  0  0  0  0  0  0  0  0  0
   -1.9253    3.0014    5.1861 C   0  0  0  0  0  0  0  0  0  0  0  0
  -13.9040    5.6306    0.7571 N   0  3  0  0  0  0  0  0  0  0  0  0
   -4.6666    2.1081   -0.9674 O   0  0  0  0  0  0  0  0  0  0  0  0
    0.1679    5.6261    1.6342 O   0  0  0  0  0  0  0  0  0  0  0  0
   -0.5149    2.5487    2.7024 O   0  0  0  0  0  0  0  0  0  0  0  0
   -5.6334    1.1287    4.1111 O   0  0  0  0  0  0  0  0  0  0  0  0
   -9.6980    1.3233   -1.6541 O   0  0  0  0  0  0  0  0  0  0  0  0
   -1.9404    1.5978    4.7348 N   0  3  0  0  0  0  0  0  0  0  0  0
   -2.4094    6.3416    0.5090 N   0  3  0  0  0  0  0  0  0  0  0  0
  1  2  1  1  0  0  0
  1  3  1  0  0  0  0
  1 10  1  0  0  0  0
  3  4  1  1  0  0  0
  3  5  1  0  0  0  0
  5  6  1  1  0  0  0
  5  7  1  0  0  0  0
  7  8  1  1  0  0  0
  7  9  1  0  0  0  0
  9 10  1  0  0  0  0
  9 11  1  6  0  0  0
 11 35  1  0  0  0  0
 12 13  1  6  0  0  0
 12 14  1  0  0  0  0
 12 20  1  0  0  0  0
 14 15  1  0  0  0  0
 14 40  1  1  0  0  0
 15 16  1  1  0  0  0
 15 17  1  0  0  0  0
 17  2  1  1  0  0  0
 17 18  1  0  0  0  0
 18 19  1  6  0  0  0
 18 20  1  0  0  0  0
 21 16  1  1  0  0  0
 21 22  1  0  0  0  0
 21 25  1  0  0  0  0
 22 23  1  0  0  0  0
 22 36  1  1  0  0  0
 23 24  1  0  0  0  0
 23 31  1  6  0  0  0
 24 25  1  0  0  0  0
 24 26  1  1  0  0  0
 26 39  1  0  0  0  0
 27 28  1  0  0  0  0
 27 32  1  0  0  0  0
 27 38  1  6  0  0  0
 28 29  1  0  0  0  0
 28 37  1  1  0  0  0
 29 30  1  0  0  0  0
 29 42  1  6  0  0  0
 30 31  1  6  0  0  0
 30 33  1  0  0  0  0
 32 33  1  0  0  0  0
 32 34  1  1  0  0  0
 34 41  1  0  0  0  0
M  CHG  6   4   1  13   1  19   1  35   1  41   1  42   1
M  END
>  <CHROM.1>
-179.88833797,-52.91083258,-40.69081676,-173.63585731,-174.83481046,-57.62099902
48.65998113,-64.15888078,-63.78388319,45.01328539,63.43339406,-175.12440231
173.83610210,169.39652509,173.72887600,-86.81606269,55.99680968,86.55070320
65.23936428,-165.94813870,-62.96823738,50.94233151,-6.67927501,4.10186218
1.03713537,2.92389658,0.22824012,-1.91115378

>  <Name>


>  <RI>
0

>  <Rbt.Current_Directory>
/home/itssahil/PROJECTS/Mol_Feturizer/New_Systems/rnas/1ei2

>  <Rbt.Executable>
rbdock ($Id: //depot/dev/client3/rdock/2013.1/src/exe/rbdock.cxx#4 $)

>  <Rbt.Library>
libRbt.so (2013.1, Build901 2013/11/27)

>  <Rbt.Parameter_File>
/export/apps/rDock/src/rDock_2013.1_src/data/scripts/dock_solv.prm

>  <Rbt.Receptor>
prm/pocket_docking_7.prm

>  <SCORE>
-57.1404

>  <SCORE.INTER>
-33.2164

>  <SCORE.INTER.CONST>
1

>  <SCORE.INTER.POLAR>
-5.73418

>  <SCORE.INTER.ROT>
9

>  <SCORE.INTER.SOLV>
25.8865

>  <SCORE.INTER.VDW>
-21.2592

>  <SCORE.INTER.norm>
-0.790867

>  <SCORE.INTRA>
-23.924

>  <SCORE.INTRA.DIHEDRAL>
-28.808

>  <SCORE.INTRA.DIHEDRAL.0>
40.8761

>  <SCORE.INTRA.POLAR>
-0.9134

>  <SCORE.INTRA.POLAR.0>
-0.0268208

>  <SCORE.INTRA.REPUL>
-0.641615

>  <SCORE.INTRA.REPUL.0>
0.641615

>  <SCORE.INTRA.SOLV>
-10.1358

>  <SCORE.INTRA.SOLV.lig_0>
-162.567

>  <SCORE.INTRA.VDW>
1.86157

>  <SCORE.INTRA.VDW.0>
-4.80338

>  <SCORE.INTRA.norm>
-0.569619

>  <SCORE.RESTR>
0

>  <SCORE.RESTR.CAVITY>
0

>  <SCORE.RESTR.norm>
0

>  <SCORE.SYSTEM>
0

>  <SCORE.SYSTEM.CONST>
0

>  <SCORE.SYSTEM.DIHEDRAL>
0

>  <SCORE.SYSTEM.SOLV>
0

>  <SCORE.SYSTEM.norm>
0

>  <SCORE.heavy>
42

>  <SCORE.norm>
-1.36049

>  <RMSD>
6.127

$$$$

 OpenBabel11021811393D
libRbt.so/2013.1/901 2013/11/27
 42 45  0  0  0  0  0  0  0  0999 V2000
   -2.4065    4.6033    0.9832 C   0  0  2  0  0  0  0  0  0  0  0  0
   -3.6998    4.1373    0.4895 O   0  0  0  0  0  0  0  0  0  0  0  0
   -1.3959    3.4228    1.1535 C   0  0  2  0  0  0  0  0  0  0  0  0
   -1.8583    2.2020    0.4544 N   0  3  0  0  0  0  0  0  0  0  0  0
   -1.1450    3.1267    2.6629 C   0  0  1  0  0  0  0  0  0  0  0  0
   -0.2145    2.0556    2.8055 O   0  0  0  0  0  0  0  0  0  0  0  0
   -0.5851    4.3677    3.4085 C   0  0  2  0  0  0  0  0  0  0  0  0
   -0.6535    4.1282    4.8098 O   0  0  0  0  0  0  0  0  0  0  0  0
   -1.3892    5.6581    3.0456 C   0  0  2  0  0  0  0  0  0  0  0  0
   -2.5753    5.3084    2.2606 O   0  0  0  0  0  0  0  0  0  0  0  0
   -0.6000    6.6920    2.2100 C   0  0  0  0  0  0  0  0  0  0  0  0
   -5.6189    4.1372    4.3543 C   0  0  1  0  0  0  0  0  0  0  0  0
   -6.6162    4.0067    5.4400 N   0  3  0  0  0  0  0  0  0  0  0  0
   -5.2235    2.7535    3.7754 C   0  0  1  0  0  0  0  0  0  0  0  0
   -4.2837    2.8375    2.5225 C   0  0  1  0  0  0  0  0  0  0  0  0
   -4.2533    1.5300    1.8896 O   0  0  0  0  0  0  0  0  0  0  0  0
   -4.7723    3.8748    1.4457 C   0  0  1  0  0  0  0  0  0  0  0  0
   -5.1838    5.2381    2.0899 C   0  0  1  0  0  0  0  0  0  0  0  0
   -5.7816    6.1599    1.1026 N   0  3  0  0  0  0  0  0  0  0  0  0
   -6.1904    5.0464    3.2466 C   0  0  0  0  0  0  0  0  0  0  0  0
   -5.5009    0.9070    1.4675 C   0  0  1  0  0  0  0  0  0  0  0  0
   -6.0618    1.6936    0.2888 C   0  0  1  0  0  0  0  0  0  0  0  0
   -5.2146    1.1220   -0.8399 C   0  0  1  0  0  0  0  0  0  0  0  0
   -5.1770   -0.3689   -0.4752 C   0  0  2  0  0  0  0  0  0  0  0  0
   -5.2454   -0.4167    0.9700 O   0  0  0  0  0  0  0  0  0  0  0  0
   -3.9031   -1.0776   -0.9692 C   0  0  0  0  0  0  0  0  0  0  0  0
   -4.2398    3.9984   -4.4130 C   0  0  1  0  0  0  0  0  0  0  0  0
   -5.2727    2.9302   -4.8686 C   0  0  1  0  0  0  0  0  0  0  0  0
   -6.5499    2.8631   -3.9823 C   0  0  2  0  0  0  0  0  0  0  0  0
   -6.1812    2.7206   -2.4705 C   0  0  1  0  0  0  0  0  0  0  0  0
   -5.8328    1.3464   -2.1397 O   0  0  0  0  0  0  0  0  0  0  0  0
   -4.6773    4.6548   -3.0684 C   0  0  1  0  0  0  0  0  0  0  0  0
   -5.0527    3.6103   -2.1119 O   0  0  0  0  0  0  0  0  0  0  0  0
   -3.5628    5.5374   -2.4497 C   0  0  0  0  0  0  0  0  0  0  0  0
   -1.3764    7.8831    1.8231 N   0  3  0  0  0  0  0  0  0  0  0  0
   -7.4444    1.3826    0.1146 O   0  0  0  0  0  0  0  0  0  0  0  0
   -5.6641    3.2261   -6.2087 O   0  0  0  0  0  0  0  0  0  0  0  0
   -2.9693    3.3618   -4.2599 O   0  0  0  0  0  0  0  0  0  0  0  0
   -2.7571   -0.2763   -0.7385 O   0  0  0  0  0  0  0  0  0  0  0  0
   -4.5600    2.0033    4.7924 O   0  0  0  0  0  0  0  0  0  0  0  0
   -3.0853    6.5864   -3.3693 N   0  3  0  0  0  0  0  0  0  0  0  0
   -7.4765    1.8010   -4.4467 N   0  3  0  0  0  0  0  0  0  0  0  0
  1  2  1  1  0  0  0
  1  3  1  0  0  0  0
  1 10  1  0  0  0  0
  3  4  1  6  0  0  0
  3  5  1  0  0  0  0
  5  6  1  6  0  0  0
  5  7  1  0  0  0  0
  7  8  1  1  0  0  0
  7  9  1  0  0  0  0
  9 10  1  0  0  0  0
  9 11  1  6  0  0  0
 11 35  1  0  0  0  0
 12 13  1  1  0  0  0
 12 14  1  0  0  0  0
 12 20  1  0  0  0  0
 14 15  1  0  0  0  0
 14 40  1  1  0  0  0
 15 16  1  6  0  0  0
 15 17  1  0  0  0  0
 17  2  1  6  0  0  0
 17 18  1  0  0  0  0
 18 19  1  6  0  0  0
 18 20  1  0  0  0  0
 21 16  1  6  0  0  0
 21 22  1  0  0  0  0
 21 25  1  0  0  0  0
 22 23  1  0  0  0  0
 22 36  1  6  0  0  0
 23 24  1  0  0  0  0
 23 31  1  6  0  0  0
 24 25  1  0  0  0  0
 24 26  1  1  0  0  0
 26 39  1  0  0  0  0
 27 28  1  0  0  0  0
 27 32  1  0  0  0  0
 27 38  1  1  0  0  0
 28 29  1  0  0  0  0
 28 37  1  6  0  0  0
 29 30  1  0  0  0  0
 29 42  1  6  0  0  0
 30 31  1  6  0  0  0
 30 33  1  0  0  0  0
 32 33  1  0  0  0  0
 32 34  1  1  0  0  0
 34 41  1  0  0  0  0
M  CHG  6   4   1  13   1  19   1  35   1  41   1  42   1
M  END
>  <CHROM.1>
96.25928049,-55.92869279,-56.28785305,-170.40498003,69.87182727,177.66431130
-33.18844169,54.62622430,179.78073790,56.29453863,69.24485932,151.19229451
53.04899251,54.33577690,42.87551674,178.75512759,64.45829777,66.79928580
49.64672936,168.06890044,55.84893707,-111.51795961,-4.08939293,3.25359738
0.28994051,-0.98540648,-0.90744795,-1.31451031

>  <Name>


>  <RI>
0

>  <Rbt.Current_Directory>
/home/itssahil/PROJECTS/Mol_Feturizer/New_Systems/rnas/1ei2

>  <Rbt.Executable>
rbdock ($Id: //depot/dev/client3/rdock/2013.1/src/exe/rbdock.cxx#4 $)

>  <Rbt.Library>
libRbt.so (2013.1, Build901 2013/11/27)

>  <Rbt.Parameter_File>
/export/apps/rDock/src/rDock_2013.1_src/data/scripts/dock_solv.prm

>  <Rbt.Receptor>
prm/pocket_docking_5.prm

>  <SCORE>
-62.3342

>  <SCORE.INTER>
-46.6632

>  <SCORE.INTER.CONST>
1

>  <SCORE.INTER.POLAR>
-7.69247

>  <SCORE.INTER.ROT>
9

>  <SCORE.INTER.SOLV>
29.6621

>  <SCORE.INTER.VDW>
-24.9546

>  <SCORE.INTER.norm>
-1.11103

>  <SCORE.INTRA>
-15.9541

>  <SCORE.INTRA.DIHEDRAL>
-24.4329

>  <SCORE.INTRA.DIHEDRAL.0>
40.8761

>  <SCORE.INTRA.POLAR>
-1.16125

>  <SCORE.INTRA.POLAR.0>
-0.0268208

>  <SCORE.INTRA.REPUL>
0.501491

>  <SCORE.INTRA.REPUL.0>
0.641615

>  <SCORE.INTRA.SOLV>
-4.75658

>  <SCORE.INTRA.SOLV.lig_0>
-162.567

>  <SCORE.INTRA.VDW>
0.0814586

>  <SCORE.INTRA.VDW.0>
-4.80338

>  <SCORE.INTRA.norm>
-0.379859

>  <SCORE.RESTR>
0.283108

>  <SCORE.RESTR.CAVITY>
0.283108

>  <SCORE.RESTR.norm>
0.00674065

>  <SCORE.SYSTEM>
0

>  <SCORE.SYSTEM.CONST>
0

>  <SCORE.SYSTEM.DIHEDRAL>
0

>  <SCORE.SYSTEM.SOLV>
0

>  <SCORE.SYSTEM.norm>
0

>  <SCORE.heavy>
42

>  <SCORE.norm>
-1.48415

>  <RMSD>
6.132

$$$$

 OpenBabel11021811393D
libRbt.so/2013.1/901 2013/11/27
 42 45  0  0  0  0  0  0  0  0999 V2000
   -4.7472    2.5304    2.4700 C   0  0  2  0  0  0  0  0  0  0  0  0
   -5.8223    3.4587    2.8108 O   0  0  0  0  0  0  0  0  0  0  0  0
   -4.5632    1.4341    3.5692 C   0  0  2  0  0  0  0  0  0  0  0  0
   -5.7218    1.3832    4.4901 N   0  3  0  0  0  0  0  0  0  0  0  0
   -3.2430    1.6677    4.3638 C   0  0  1  0  0  0  0  0  0  0  0  0
   -3.0811    0.6564    5.3560 O   0  0  0  0  0  0  0  0  0  0  0  0
   -1.9999    1.6489    3.4344 C   0  0  2  0  0  0  0  0  0  0  0  0
   -0.8809    2.1494    4.1577 O   0  0  0  0  0  0  0  0  0  0  0  0
   -2.2374    2.5101    2.1518 C   0  0  2  0  0  0  0  0  0  0  0  0
   -3.4886    3.2617    2.2742 O   0  0  0  0  0  0  0  0  0  0  0  0
   -2.3423    1.6951    0.8422 C   0  0  0  0  0  0  0  0  0  0  0  0
   -7.6183    7.2216    1.6997 C   0  0  1  0  0  0  0  0  0  0  0  0
   -7.8833    8.5305    1.0616 N   0  3  0  0  0  0  0  0  0  0  0  0
   -7.7700    6.0546    0.6891 C   0  0  1  0  0  0  0  0  0  0  0  0
   -7.3555    4.6578    1.2696 C   0  0  1  0  0  0  0  0  0  0  0  0
   -7.2289    3.7257    0.1623 O   0  0  0  0  0  0  0  0  0  0  0  0
   -5.9781    4.6826    2.0289 C   0  0  1  0  0  0  0  0  0  0  0  0
   -5.8718    5.8945    3.0101 C   0  0  1  0  0  0  0  0  0  0  0  0
   -4.5271    6.0047    3.6115 N   0  3  0  0  0  0  0  0  0  0  0  0
   -6.2010    7.2318    2.3092 C   0  0  0  0  0  0  0  0  0  0  0  0
   -8.4275    3.2392   -0.5080 C   0  0  1  0  0  0  0  0  0  0  0  0
   -8.2267    3.3649   -2.0135 C   0  0  1  0  0  0  0  0  0  0  0  0
   -7.3883    2.1210   -2.2749 C   0  0  1  0  0  0  0  0  0  0  0  0
   -8.0791    1.0865   -1.3749 C   0  0  2  0  0  0  0  0  0  0  0  0
   -8.5991    1.8358   -0.2507 O   0  0  0  0  0  0  0  0  0  0  0  0
   -7.1243   -0.0153   -0.8814 C   0  0  0  0  0  0  0  0  0  0  0  0
   -5.9440    1.7001   -7.2177 C   0  0  1  0  0  0  0  0  0  0  0  0
   -7.4477    1.5084   -6.8748 C   0  0  1  0  0  0  0  0  0  0  0  0
   -8.0295    2.6034   -5.9348 C   0  0  2  0  0  0  0  0  0  0  0  0
   -7.1494    2.7745   -4.6549 C   0  0  1  0  0  0  0  0  0  0  0  0
   -7.4304    1.7323   -3.6782 O   0  0  0  0  0  0  0  0  0  0  0  0
   -5.3363    2.8833   -6.4045 C   0  0  1  0  0  0  0  0  0  0  0  0
   -5.7077    2.7506   -4.9934 O   0  0  0  0  0  0  0  0  0  0  0  0
   -3.7918    2.9516   -6.5221 C   0  0  0  0  0  0  0  0  0  0  0  0
   -1.0478    1.2538    0.2938 N   0  3  0  0  0  0  0  0  0  0  0  0
   -9.4890    3.2941   -2.6768 O   0  0  0  0  0  0  0  0  0  0  0  0
   -8.1907    1.5133   -8.0932 O   0  0  0  0  0  0  0  0  0  0  0  0
   -5.2528    0.4867   -6.9129 O   0  0  0  0  0  0  0  0  0  0  0  0
   -6.5575    0.3307    0.3707 O   0  0  0  0  0  0  0  0  0  0  0  0
   -9.1322    5.9864    0.2682 O   0  0  0  0  0  0  0  0  0  0  0  0
   -3.2045    4.0494   -5.7323 N   0  3  0  0  0  0  0  0  0  0  0  0
   -9.4553    2.3426   -5.6166 N   0  3  0  0  0  0  0  0  0  0  0  0
  1  2  1  1  0  0  0
  1  3  1  0  0  0  0
  1 10  1  0  0  0  0
  3  4  1  1  0  0  0
  3  5  1  0  0  0  0
  5  6  1  1  0  0  0
  5  7  1  0  0  0  0
  7  8  1  1  0  0  0
  7  9  1  0  0  0  0
  9 10  1  0  0  0  0
  9 11  1  6  0  0  0
 11 35  1  0  0  0  0
 12 13  1  6  0  0  0
 12 14  1  0  0  0  0
 12 20  1  0  0  0  0
 14 15  1  0  0  0  0
 14 40  1  1  0  0  0
 15 16  1  6  0  0  0
 15 17  1  0  0  0  0
 17  2  1  1  0  0  0
 17 18  1  0  0  0  0
 18 19  1  6  0  0  0
 18 20  1  0  0  0  0
 21 16  1  1  0  0  0
 21 22  1  0  0  0  0
 21 25  1  0  0  0  0
 22 23  1  0  0  0  0
 22 36  1  6  0  0  0
 23 24  1  0  0  0  0
 23 31  1  6  0  0  0
 24 25  1  0  0  0  0
 24 26  1  1  0  0  0
 26 39  1  0  0  0  0
 27 28  1  0  0  0  0
 27 32  1  0  0  0  0
 27 38  1  1  0  0  0
 28 29  1  0  0  0  0
 28 37  1  6  0  0  0
 29 30  1  0  0  0  0
 29 42  1  1  0  0  0
 30 31  1  1  0  0  0
 30 33  1  0  0  0  0
 32 33  1  0  0  0  0
 32 34  1  1  0  0  0
 34 41  1  0  0  0  0
M  CHG  6   4   1  13   1  19   1  35   1  41   1  42   1
M  END
>  <CHROM.1>
168.98670254,115.75151511,76.88083060,-171.28362007,75.23442450,-78.53184451
-80.20285280,-50.59991577,-61.81009773,-72.80738916,132.24538087,128.91004622
-58.85058620,50.47404523,92.26395133,49.72882856,166.56270919,68.98876271
154.40846658,-143.76726437,-178.72265527,106.34295719,-5.92837772,2.99031136
-0.70804173,-1.20148491,0.64002234,-1.90580699

>  <Name>


>  <RI>
0

>  <Rbt.Current_Directory>
/home/itssahil/PROJECTS/Mol_Feturizer/New_Systems/rnas/1ei2

>  <Rbt.Executable>
rbdock ($Id: //depot/dev/client3/rdock/2013.1/src/exe/rbdock.cxx#4 $)

>  <Rbt.Library>
libRbt.so (2013.1, Build901 2013/11/27)

>  <Rbt.Parameter_File>
/export/apps/rDock/src/rDock_2013.1_src/data/scripts/dock_solv.prm

>  <Rbt.Receptor>
prm/pocket_docking_5.prm

>  <SCORE>
-49.1747

>  <SCORE.INTER>
-33.1738

>  <SCORE.INTER.CONST>
1

>  <SCORE.INTER.POLAR>
-5.59435

>  <SCORE.INTER.ROT>
9

>  <SCORE.INTER.SOLV>
35.5753

>  <SCORE.INTER.VDW>
-24.9264

>  <SCORE.INTER.norm>
-0.789852

>  <SCORE.INTRA>
-16.001

>  <SCORE.INTRA.DIHEDRAL>
-3.10685

>  <SCORE.INTRA.DIHEDRAL.0>
40.8761

>  <SCORE.INTRA.POLAR>
-2.0136

>  <SCORE.INTRA.POLAR.0>
-0.0268208

>  <SCORE.INTRA.REPUL>
-0.641615

>  <SCORE.INTRA.REPUL.0>
0.641615

>  <SCORE.INTRA.SOLV>
-10.9484

>  <SCORE.INTRA.SOLV.lig_0>
-162.567

>  <SCORE.INTRA.VDW>
1.08097

>  <SCORE.INTRA.VDW.0>
-4.80338

>  <SCORE.INTRA.norm>
-0.380975

>  <SCORE.RESTR>
0

>  <SCORE.RESTR.CAVITY>
0

>  <SCORE.RESTR.norm>
0

>  <SCORE.SYSTEM>
0

>  <SCORE.SYSTEM.CONST>
0

>  <SCORE.SYSTEM.DIHEDRAL>
0

>  <SCORE.SYSTEM.SOLV>
0

>  <SCORE.SYSTEM.norm>
0

>  <SCORE.heavy>
42

>  <SCORE.norm>
-1.17083

>  <RMSD>
6.146

$$$$

 OpenBabel11021811393D
libRbt.so/2013.1/901 2013/11/27
 42 45  0  0  0  0  0  0  0  0999 V2000
   -6.2088    3.6357   -1.8847 C   0  0  2  0  0  0  0  0  0  0  0  0
   -4.8127    3.6250   -2.3141 O   0  0  0  0  0  0  0  0  0  0  0  0
   -6.7952    5.0848   -1.8689 C   0  0  2  0  0  0  0  0  0  0  0  0
   -5.9341    6.0313   -2.6143 N   0  3  0  0  0  0  0  0  0  0  0  0
   -7.0087    5.5761   -0.4054 C   0  0  1  0  0  0  0  0  0  0  0  0
   -7.5531    6.8940   -0.4039 O   0  0  0  0  0  0  0  0  0  0  0  0
   -7.9707    4.6453    0.3805 C   0  0  2  0  0  0  0  0  0  0  0  0
   -7.8952    4.9729    1.7635 O   0  0  0  0  0  0  0  0  0  0  0  0
   -7.6058    3.1406    0.1657 C   0  0  2  0  0  0  0  0  0  0  0  0
   -6.3347    3.0283   -0.5534 O   0  0  0  0  0  0  0  0  0  0  0  0
   -8.6443    2.3392   -0.6525 C   0  0  0  0  0  0  0  0  0  0  0  0
   -4.3557   -0.0223   -4.5742 C   0  0  1  0  0  0  0  0  0  0  0  0
   -3.8269   -1.2907   -5.1238 N   0  3  0  0  0  0  0  0  0  0  0  0
   -4.7672   -0.1743   -3.0864 C   0  0  1  0  0  0  0  0  0  0  0  0
   -5.1941    1.1736   -2.4076 C   0  0  1  0  0  0  0  0  0  0  0  0
   -5.2367    0.9644   -0.9704 O   0  0  0  0  0  0  0  0  0  0  0  0
   -4.1937    2.3552   -2.6856 C   0  0  1  0  0  0  0  0  0  0  0  0
   -3.7931    2.4410   -4.1939 C   0  0  1  0  0  0  0  0  0  0  0  0
   -2.7426    3.4518   -4.4320 N   0  3  0  0  0  0  0  0  0  0  0  0
   -3.2907    1.0828   -4.7331 C   0  0  0  0  0  0  0  0  0  0  0  0
   -4.0762    0.4032   -0.2914 C   0  0  1  0  0  0  0  0  0  0  0  0
   -2.9566    1.4372   -0.3090 C   0  0  1  0  0  0  0  0  0  0  0  0
   -3.3966    2.3257    0.8465 C   0  0  1  0  0  0  0  0  0  0  0  0
   -3.8718    1.2873    1.8728 C   0  0  2  0  0  0  0  0  0  0  0  0
   -4.3798    0.1771    1.0949 O   0  0  0  0  0  0  0  0  0  0  0  0
   -4.9692    1.8245    2.8090 C   0  0  0  0  0  0  0  0  0  0  0  0
   -0.5128    6.2230    2.7651 C   0  0  1  0  0  0  0  0  0  0  0  0
   -1.5267    6.2293    1.5872 C   0  0  1  0  0  0  0  0  0  0  0  0
   -2.8618    5.4916    1.8944 C   0  0  2  0  0  0  0  0  0  0  0  0
   -2.5984    4.0508    2.4389 C   0  0  1  0  0  0  0  0  0  0  0  0
   -2.2918    3.1259    1.3573 O   0  0  0  0  0  0  0  0  0  0  0  0
   -1.0317    5.3376    3.9386 C   0  0  1  0  0  0  0  0  0  0  0  0
   -1.4850    4.0463    3.4157 O   0  0  0  0  0  0  0  0  0  0  0  0
    0.0500    5.0982    5.0233 C   0  0  0  0  0  0  0  0  0  0  0  0
   -9.8824    2.0202    0.0801 N   0  3  0  0  0  0  0  0  0  0  0  0
   -1.7079    0.8017   -0.0345 O   0  0  0  0  0  0  0  0  0  0  0  0
   -1.8222    7.5854    1.2557 O   0  0  0  0  0  0  0  0  0  0  0  0
    0.7358    5.7205    2.2838 O   0  0  0  0  0  0  0  0  0  0  0  0
   -5.7927    0.7711    3.2791 O   0  0  0  0  0  0  0  0  0  0  0  0
   -5.8583   -1.0909   -3.0037 O   0  0  0  0  0  0  0  0  0  0  0  0
   -0.1876    3.8739    5.8098 N   0  3  0  0  0  0  0  0  0  0  0  0
   -3.7689    5.5013    0.7200 N   0  3  0  0  0  0  0  0  0  0  0  0
  1  2  1  1  0  0  0
  1  3  1  0  0  0  0
  1 10  1  0  0  0  0
  3  4  1  1  0  0  0
  3  5  1  0  0  0  0
  5  6  1  6  0  0  0
  5  7  1  0  0  0  0
  7  8  1  1  0  0  0
  7  9  1  0  0  0  0
  9 10  1  0  0  0  0
  9 11  1  6  0  0  0
 11 35  1  0  0  0  0
 12 13  1  1  0  0  0
 12 14  1  0  0  0  0
 12 20  1  0  0  0  0
 14 15  1  0  0  0  0
 14 40  1  6  0  0  0
 15 16  1  1  0  0  0
 15 17  1  0  0  0  0
 17  2  1  6  0  0  0
 17 18  1  0  0  0  0
 18 19  1  1  0  0  0
 18 20  1  0  0  0  0
 21 16  1  6  0  0  0
 21 22  1  0  0  0  0
 21 25  1  0  0  0  0
 22 23  1  0  0  0  0
 22 36  1  1  0  0  0
 23 24  1  0  0  0  0
 23 31  1  1  0  0  0
 24 25  1  0  0  0  0
 24 26  1  6  0  0  0
 26 39  1  0  0  0  0
 27 28  1  0  0  0  0
 27 32  1  0  0  0  0
 27 38  1  6  0  0  0
 28 29  1  0  0  0  0
 28 37  1  1  0  0  0
 29 30  1  0  0  0  0
 29 42  1  6  0  0  0
 30 31  1  6  0  0  0
 30 33  1  0  0  0  0
 32 33  1  0  0  0  0
 32 34  1  1  0  0  0
 34 41  1  0  0  0  0
M  CHG  6   4   1  13   1  19   1  35   1  41   1  42   1
M  END
>  <CHROM.1>
-165.98895982,-5.16688045,-174.27353151,179.06859366,-177.57166208,-74.04731010
59.32419198,-52.15389049,177.24269306,52.76700146,69.57801823,-174.52652256
51.31253403,178.06698343,152.79704040,-98.07293805,171.65725935,-59.70221643
175.63801039,-96.44916338,-156.06670573,-62.71806996,-4.25034218,3.12961794
-0.02328308,2.15224188,0.30638254,-2.32126913

>  <Name>


>  <RI>
0

>  <Rbt.Current_Directory>
/home/itssahil/PROJECTS/Mol_Feturizer/New_Systems/rnas/1ei2

>  <Rbt.Executable>
rbdock ($Id: //depot/dev/client3/rdock/2013.1/src/exe/rbdock.cxx#4 $)

>  <Rbt.Library>
libRbt.so (2013.1, Build901 2013/11/27)

>  <Rbt.Parameter_File>
/export/apps/rDock/src/rDock_2013.1_src/data/scripts/dock_solv.prm

>  <Rbt.Receptor>
prm/pocket_docking_7.prm

>  <SCORE>
-44.9306

>  <SCORE.INTER>
-32.2408

>  <SCORE.INTER.CONST>
1

>  <SCORE.INTER.POLAR>
-5.99047

>  <SCORE.INTER.ROT>
9

>  <SCORE.INTER.SOLV>
24.9046

>  <SCORE.INTER.VDW>
-19.4271

>  <SCORE.INTER.norm>
-0.767638

>  <SCORE.INTRA>
-12.6898

>  <SCORE.INTRA.DIHEDRAL>
-15.4609

>  <SCORE.INTRA.DIHEDRAL.0>
40.8761

>  <SCORE.INTRA.POLAR>
0.0148471

>  <SCORE.INTRA.POLAR.0>
-0.0268208

>  <SCORE.INTRA.REPUL>
-0.430093

>  <SCORE.INTRA.REPUL.0>
0.641615

>  <SCORE.INTRA.SOLV>
-8.2759

>  <SCORE.INTRA.SOLV.lig_0>
-162.567

>  <SCORE.INTRA.VDW>
1.27858

>  <SCORE.INTRA.VDW.0>
-4.80338

>  <SCORE.INTRA.norm>
-0.302138

>  <SCORE.RESTR>
0

>  <SCORE.RESTR.CAVITY>
0

>  <SCORE.RESTR.norm>
0

>  <SCORE.SYSTEM>
0

>  <SCORE.SYSTEM.CONST>
0

>  <SCORE.SYSTEM.DIHEDRAL>
0

>  <SCORE.SYSTEM.SOLV>
0

>  <SCORE.SYSTEM.norm>
0

>  <SCORE.heavy>
42

>  <SCORE.norm>
-1.06978

>  <RMSD>
6.180

$$$$

 OpenBabel11021811393D
libRbt.so/2013.1/901 2013/11/27
 42 45  0  0  0  0  0  0  0  0999 V2000
   -2.8248    7.5899    3.6627 C   0  0  2  0  0  0  0  0  0  0  0  0
   -4.0428    7.4432    2.8699 O   0  0  0  0  0  0  0  0  0  0  0  0
   -1.8704    8.6701    3.0576 C   0  0  2  0  0  0  0  0  0  0  0  0
   -2.5652    9.5169    2.0609 N   0  3  0  0  0  0  0  0  0  0  0  0
   -0.6130    8.0010    2.4249 C   0  0  1  0  0  0  0  0  0  0  0  0
    0.2543    8.9962    1.8856 O   0  0  0  0  0  0  0  0  0  0  0  0
    0.1815    7.1673    3.4657 C   0  0  2  0  0  0  0  0  0  0  0  0
    1.1308    6.3612    2.7768 O   0  0  0  0  0  0  0  0  0  0  0  0
   -0.7707    6.2652    4.3160 C   0  0  2  0  0  0  0  0  0  0  0  0
   -2.1264    6.3017    3.7627 O   0  0  0  0  0  0  0  0  0  0  0  0
   -0.8920    6.6807    5.8002 C   0  0  0  0  0  0  0  0  0  0  0  0
   -5.8589    4.5440    5.4997 C   0  0  1  0  0  0  0  0  0  0  0  0
   -6.8165    3.6075    6.1292 N   0  3  0  0  0  0  0  0  0  0  0  0
   -5.3786    4.0244    4.1193 C   0  0  1  0  0  0  0  0  0  0  0  0
   -4.4792    5.0445    3.3379 C   0  0  1  0  0  0  0  0  0  0  0  0
   -4.3697    4.5914    1.9618 O   0  0  0  0  0  0  0  0  0  0  0  0
   -5.0689    6.5025    3.3120 C   0  0  1  0  0  0  0  0  0  0  0  0
   -5.5622    6.9600    4.7228 C   0  0  1  0  0  0  0  0  0  0  0  0
   -6.2501    8.2662    4.6729 N   0  3  0  0  0  0  0  0  0  0  0  0
   -6.5228    5.9295    5.3577 C   0  0  0  0  0  0  0  0  0  0  0  0
   -5.4700    3.8500    1.3598 C   0  0  1  0  0  0  0  0  0  0  0  0
   -5.5291    4.1894   -0.1249 C   0  0  1  0  0  0  0  0  0  0  0  0
   -4.4256    3.2808   -0.6497 C   0  0  1  0  0  0  0  0  0  0  0  0
   -4.6672    1.9994    0.1607 C   0  0  2  0  0  0  0  0  0  0  0  0
   -5.2079    2.4388    1.4296 O   0  0  0  0  0  0  0  0  0  0  0  0
   -3.3845    1.1791    0.3867 C   0  0  0  0  0  0  0  0  0  0  0  0
   -3.4080    2.1184   -5.6240 C   0  0  1  0  0  0  0  0  0  0  0  0
   -4.4455    3.2231   -5.2796 C   0  0  1  0  0  0  0  0  0  0  0  0
   -3.9650    4.2297   -4.1947 C   0  0  2  0  0  0  0  0  0  0  0  0
   -3.4515    3.4844   -2.9209 C   0  0  1  0  0  0  0  0  0  0  0  0
   -4.5587    3.0494   -2.0817 O   0  0  0  0  0  0  0  0  0  0  0  0
   -2.1728    2.2030   -4.6767 C   0  0  1  0  0  0  0  0  0  0  0  0
   -2.6262    2.3104   -3.2877 O   0  0  0  0  0  0  0  0  0  0  0  0
   -1.2352    0.9758   -4.8146 C   0  0  0  0  0  0  0  0  0  0  0  0
   -1.6590    5.7399    6.6356 N   0  3  0  0  0  0  0  0  0  0  0  0
   -6.8039    3.8236   -0.6536 O   0  0  0  0  0  0  0  0  0  0  0  0
   -4.7433    3.9477   -6.4723 O   0  0  0  0  0  0  0  0  0  0  0  0
   -4.0435    0.8449   -5.4922 O   0  0  0  0  0  0  0  0  0  0  0  0
   -2.2975    1.7314   -0.3360 O   0  0  0  0  0  0  0  0  0  0  0  0
   -4.6369    2.8207    4.3150 O   0  0  0  0  0  0  0  0  0  0  0  0
   -0.9339    0.6391   -6.2181 N   0  3  0  0  0  0  0  0  0  0  0  0
   -5.0129    5.2339   -3.8852 N   0  3  0  0  0  0  0  0  0  0  0  0
  1  2  1  6  0  0  0
  1  3  1  0  0  0  0
  1 10  1  0  0  0  0
  3  4  1  6  0  0  0
  3  5  1  0  0  0  0
  5  6  1  1  0  0  0
  5  7  1  0  0  0  0
  7  8  1  6  0  0  0
  7  9  1  0  0  0  0
  9 10  1  0  0  0  0
  9 11  1  1  0  0  0
 11 35  1  0  0  0  0
 12 13  1  6  0  0  0
 12 14  1  0  0  0  0
 12 20  1  0  0  0  0
 14 15  1  0  0  0  0
 14 40  1  1  0  0  0
 15 16  1  6  0  0  0
 15 17  1  0  0  0  0
 17  2  1  1  0  0  0
 17 18  1  0  0  0  0
 18 19  1  6  0  0  0
 18 20  1  0  0  0  0
 21 16  1  1  0  0  0
 21 22  1  0  0  0  0
 21 25  1  0  0  0  0
 22 23  1  0  0  0  0
 22 36  1  6  0  0  0
 23 24  1  0  0  0  0
 23 31  1  6  0  0  0
 24 25  1  0  0  0  0
 24 26  1  1  0  0  0
 26 39  1  0  0  0  0
 27 28  1  0  0  0  0
 27 32  1  0  0  0  0
 27 38  1  1  0  0  0
 28 29  1  0  0  0  0
 28 37  1  6  0  0  0
 29 30  1  0  0  0  0
 29 42  1  1  0  0  0
 30 31  1  6  0  0  0
 30 33  1  0  0  0  0
 32 33  1  0  0  0  0
 32 34  1  1  0  0  0
 34 41  1  0  0  0  0
M  CHG  6   4   1  13   1  19   1  35   1  41   1  42   1
M  END
>  <CHROM.1>
-178.21662956,-61.44174006,-155.27659079,-179.12392265,-177.99417641,-173.06301954
175.33620583,54.56659753,172.16749964,30.48970036,147.20601444,-64.11421218
175.31322297,119.28514735,-6.36514809,-62.33657579,-60.52793277,62.67061129
-81.38368752,-135.38847617,47.28402281,140.54482410,-3.54752103,4.65056599
0.75174841,-1.55891336,-0.55063593,-2.00797557

>  <Name>


>  <RI>
0

>  <Rbt.Current_Directory>
/home/itssahil/PROJECTS/Mol_Feturizer/New_Systems/rnas/1ei2

>  <Rbt.Executable>
rbdock ($Id: //depot/dev/client3/rdock/2013.1/src/exe/rbdock.cxx#4 $)

>  <Rbt.Library>
libRbt.so (2013.1, Build901 2013/11/27)

>  <Rbt.Parameter_File>
/export/apps/rDock/src/rDock_2013.1_src/data/scripts/dock_solv.prm

>  <Rbt.Receptor>
prm/pocket_docking_8.prm

>  <SCORE>
-48.0435

>  <SCORE.INTER>
-29.5563

>  <SCORE.INTER.CONST>
1

>  <SCORE.INTER.POLAR>
-4.99312

>  <SCORE.INTER.ROT>
9

>  <SCORE.INTER.SOLV>
28.3802

>  <SCORE.INTER.VDW>
-22.1206

>  <SCORE.INTER.norm>
-0.703723

>  <SCORE.INTRA>
-18.4871

>  <SCORE.INTRA.DIHEDRAL>
-8.15545

>  <SCORE.INTRA.DIHEDRAL.0>
40.8761

>  <SCORE.INTRA.POLAR>
-2.13712

>  <SCORE.INTRA.POLAR.0>
-0.0268208

>  <SCORE.INTRA.REPUL>
-0.641615

>  <SCORE.INTRA.REPUL.0>
0.641615

>  <SCORE.INTRA.SOLV>
-10.5073

>  <SCORE.INTRA.SOLV.lig_0>
-162.567

>  <SCORE.INTRA.VDW>
1.31854

>  <SCORE.INTRA.VDW.0>
-4.80338

>  <SCORE.INTRA.norm>
-0.44017

>  <SCORE.RESTR>
0

>  <SCORE.RESTR.CAVITY>
0

>  <SCORE.RESTR.norm>
0

>  <SCORE.SYSTEM>
0

>  <SCORE.SYSTEM.CONST>
0

>  <SCORE.SYSTEM.DIHEDRAL>
0

>  <SCORE.SYSTEM.SOLV>
0

>  <SCORE.SYSTEM.norm>
0

>  <SCORE.heavy>
42

>  <SCORE.norm>
-1.14389

>  <RMSD>
6.182

$$$$

 OpenBabel11021811393D
libRbt.so/2013.1/901 2013/11/27
 42 45  0  0  0  0  0  0  0  0999 V2000
   -7.9520    5.4913   -1.1060 C   0  0  2  0  0  0  0  0  0  0  0  0
   -6.7760    6.1155   -1.7069 O   0  0  0  0  0  0  0  0  0  0  0  0
   -7.5759    4.1958   -0.3160 C   0  0  2  0  0  0  0  0  0  0  0  0
   -6.1182    4.1097   -0.0692 N   0  3  0  0  0  0  0  0  0  0  0  0
   -8.0790    2.9270   -1.0683 C   0  0  1  0  0  0  0  0  0  0  0  0
   -7.7392    1.7530   -0.3335 O   0  0  0  0  0  0  0  0  0  0  0  0
   -9.6173    2.9509   -1.2740 C   0  0  2  0  0  0  0  0  0  0  0  0
   -9.9699    1.9325   -2.2036 O   0  0  0  0  0  0  0  0  0  0  0  0
  -10.0982    4.3433   -1.7967 C   0  0  2  0  0  0  0  0  0  0  0  0
   -8.9448    5.1775   -2.1420 O   0  0  0  0  0  0  0  0  0  0  0  0
  -10.9375    5.1543   -0.7828 C   0  0  0  0  0  0  0  0  0  0  0  0
   -7.5037    4.6057   -5.6832 C   0  0  1  0  0  0  0  0  0  0  0  0
   -7.3825    4.3020   -7.1266 N   0  3  0  0  0  0  0  0  0  0  0  0
   -6.4087    3.8829   -4.8556 C   0  0  1  0  0  0  0  0  0  0  0  0
   -6.3937    4.2847   -3.3395 C   0  0  1  0  0  0  0  0  0  0  0  0
   -5.1513    3.8082   -2.7561 O   0  0  0  0  0  0  0  0  0  0  0  0
   -6.4621    5.8388   -3.1063 C   0  0  1  0  0  0  0  0  0  0  0  0
   -7.5621    6.5155   -3.9866 C   0  0  1  0  0  0  0  0  0  0  0  0
   -7.5284    7.9884   -3.8809 N   0  3  0  0  0  0  0  0  0  0  0  0
   -7.4212    6.1326   -5.4771 C   0  0  0  0  0  0  0  0  0  0  0  0
   -3.9166    4.5435   -2.9957 C   0  0  1  0  0  0  0  0  0  0  0  0
   -3.3835    5.0455   -1.6590 C   0  0  1  0  0  0  0  0  0  0  0  0
   -2.7116    3.7784   -1.1477 C   0  0  1  0  0  0  0  0  0  0  0  0
   -2.0497    3.2412   -2.4246 C   0  0  2  0  0  0  0  0  0  0  0  0
   -2.9096    3.6579   -3.5122 O   0  0  0  0  0  0  0  0  0  0  0  0
   -1.8984    1.7094   -2.4258 C   0  0  0  0  0  0  0  0  0  0  0  0
   -0.0003    4.3841    3.3010 C   0  0  1  0  0  0  0  0  0  0  0  0
   -0.4240    5.5764    2.3986 C   0  0  1  0  0  0  0  0  0  0  0  0
   -1.9015    5.5132    1.9148 C   0  0  2  0  0  0  0  0  0  0  0  0
   -2.2217    4.1322    1.2572 C   0  0  1  0  0  0  0  0  0  0  0  0
   -1.7306    4.0733   -0.1120 O   0  0  0  0  0  0  0  0  0  0  0  0
   -1.1370    3.3204    3.3843 C   0  0  1  0  0  0  0  0  0  0  0  0
   -1.6287    3.0213    2.0369 O   0  0  0  0  0  0  0  0  0  0  0  0
   -0.6700    2.0060    4.0612 C   0  0  0  0  0  0  0  0  0  0  0  0
  -12.3894    5.1255   -1.0325 N   0  3  0  0  0  0  0  0  0  0  0  0
   -2.4342    6.0891   -1.8788 O   0  0  0  0  0  0  0  0  0  0  0  0
   -0.2375    6.7851    3.1338 O   0  0  0  0  0  0  0  0  0  0  0  0
    1.1823    3.7991    2.7511 O   0  0  0  0  0  0  0  0  0  0  0  0
   -0.9799    1.2916   -1.4305 O   0  0  0  0  0  0  0  0  0  0  0  0
   -6.6169    2.4740   -4.9509 O   0  0  0  0  0  0  0  0  0  0  0  0
   -1.7444    1.0018    4.1660 N   0  3  0  0  0  0  0  0  0  0  0  0
   -2.2312    6.6575    1.0292 N   0  3  0  0  0  0  0  0  0  0  0  0
  1  2  1  6  0  0  0
  1  3  1  0  0  0  0
  1 10  1  0  0  0  0
  3  4  1  6  0  0  0
  3  5  1  0  0  0  0
  5  6  1  1  0  0  0
  5  7  1  0  0  0  0
  7  8  1  6  0  0  0
  7  9  1  0  0  0  0
  9 10  1  0  0  0  0
  9 11  1  1  0  0  0
 11 35  1  0  0  0  0
 12 13  1  6  0  0  0
 12 14  1  0  0  0  0
 12 20  1  0  0  0  0
 14 15  1  0  0  0  0
 14 40  1  1  0  0  0
 15 16  1  6  0  0  0
 15 17  1  0  0  0  0
 17  2  1  1  0  0  0
 17 18  1  0  0  0  0
 18 19  1  6  0  0  0
 18 20  1  0  0  0  0
 21 16  1  1  0  0  0
 21 22  1  0  0  0  0
 21 25  1  0  0  0  0
 22 23  1  0  0  0  0
 22 36  1  6  0  0  0
 23 24  1  0  0  0  0
 23 31  1  1  0  0  0
 24 25  1  0  0  0  0
 24 26  1  1  0  0  0
 26 39  1  0  0  0  0
 27 28  1  0  0  0  0
 27 32  1  0  0  0  0
 27 38  1  6  0  0  0
 28 29  1  0  0  0  0
 28 37  1  1  0  0  0
 29 30  1  0  0  0  0
 29 42  1  6  0  0  0
 30 31  1  6  0  0  0
 30 33  1  0  0  0  0
 32 33  1  0  0  0  0
 32 34  1  6  0  0  0
 34 41  1  0  0  0  0
M  CHG  6   4   1  13   1  19   1  35   1  41   1  42   1
M  END
>  <CHROM.1>
96.81536055,-53.35023426,165.02801603,63.73775202,-73.63076905,-101.89911697
162.75418788,61.26594851,-60.06256645,77.73850389,117.92293969,83.34984924
78.32937051,87.79466700,-66.63345642,170.87379890,-70.01800229,56.63925463
164.61652917,-122.97533580,179.00294782,170.16902988,-4.93662478,4.24203343
-1.11511733,2.54316468,-0.00255848,-1.41926532

>  <Name>


>  <RI>
0

>  <Rbt.Current_Directory>
/home/itssahil/PROJECTS/Mol_Feturizer/New_Systems/rnas/1ei2

>  <Rbt.Executable>
rbdock ($Id: //depot/dev/client3/rdock/2013.1/src/exe/rbdock.cxx#4 $)

>  <Rbt.Library>
libRbt.so (2013.1, Build901 2013/11/27)

>  <Rbt.Parameter_File>
/export/apps/rDock/src/rDock_2013.1_src/data/scripts/dock_solv.prm

>  <Rbt.Receptor>
prm/pocket_docking_4.prm

>  <SCORE>
-47.7001

>  <SCORE.INTER>
-35.2412

>  <SCORE.INTER.CONST>
1

>  <SCORE.INTER.POLAR>
-5.66983

>  <SCORE.INTER.ROT>
9

>  <SCORE.INTER.SOLV>
25.8834

>  <SCORE.INTER.VDW>
-22.8225

>  <SCORE.INTER.norm>
-0.839076

>  <SCORE.INTRA>
-13.3359

>  <SCORE.INTRA.DIHEDRAL>
-5.66084

>  <SCORE.INTRA.DIHEDRAL.0>
40.8761

>  <SCORE.INTRA.POLAR>
-1.13213

>  <SCORE.INTRA.POLAR.0>
-0.0268208

>  <SCORE.INTRA.REPUL>
-0.525709

>  <SCORE.INTRA.REPUL.0>
0.641615

>  <SCORE.INTRA.SOLV>
-6.54075

>  <SCORE.INTRA.SOLV.lig_0>
-162.567

>  <SCORE.INTRA.VDW>
-0.757315

>  <SCORE.INTRA.VDW.0>
-4.80338

>  <SCORE.INTRA.norm>
-0.317521

>  <SCORE.RESTR>
0.87701

>  <SCORE.RESTR.CAVITY>
0.87701

>  <SCORE.RESTR.norm>
0.0208812

>  <SCORE.SYSTEM>
0

>  <SCORE.SYSTEM.CONST>
0

>  <SCORE.SYSTEM.DIHEDRAL>
0

>  <SCORE.SYSTEM.SOLV>
0

>  <SCORE.SYSTEM.norm>
0

>  <SCORE.heavy>
42

>  <SCORE.norm>
-1.13572

>  <RMSD>
6.230

$$$$

 OpenBabel11021811393D
libRbt.so/2013.1/901 2013/11/27
 42 45  0  0  0  0  0  0  0  0999 V2000
   -2.1182    4.2777    3.2777 C   0  0  2  0  0  0  0  0  0  0  0  0
   -2.3096    4.7694    1.9156 O   0  0  0  0  0  0  0  0  0  0  0  0
   -0.9318    3.2633    3.3623 C   0  0  2  0  0  0  0  0  0  0  0  0
   -0.0813    3.3144    2.1510 N   0  3  0  0  0  0  0  0  0  0  0  0
   -1.4607    1.8164    3.5983 C   0  0  1  0  0  0  0  0  0  0  0  0
   -0.3697    0.9022    3.6838 O   0  0  0  0  0  0  0  0  0  0  0  0
   -2.2930    1.7129    4.9044 C   0  0  2  0  0  0  0  0  0  0  0  0
   -2.9787    0.4657    4.9117 O   0  0  0  0  0  0  0  0  0  0  0  0
   -3.3173    2.8881    5.0190 C   0  0  2  0  0  0  0  0  0  0  0  0
   -3.3520    3.6498    3.7684 O   0  0  0  0  0  0  0  0  0  0  0  0
   -3.0053    3.9038    6.1420 C   0  0  0  0  0  0  0  0  0  0  0  0
   -6.3873    6.0362    2.5380 C   0  0  1  0  0  0  0  0  0  0  0  0
   -7.7346    6.6174    2.3447 N   0  3  0  0  0  0  0  0  0  0  0  0
   -6.1782    4.7781    1.6550 C   0  0  1  0  0  0  0  0  0  0  0  0
   -4.7184    4.2066    1.7045 C   0  0  1  0  0  0  0  0  0  0  0  0
   -4.5652    3.2582    0.6145 O   0  0  0  0  0  0  0  0  0  0  0  0
   -3.6111    5.3104    1.5323 C   0  0  1  0  0  0  0  0  0  0  0  0
   -3.8899    6.5639    2.4233 C   0  0  1  0  0  0  0  0  0  0  0  0
   -2.9364    7.6592    2.1534 N   0  3  0  0  0  0  0  0  0  0  0  0
   -5.3224    7.1064    2.2198 C   0  0  0  0  0  0  0  0  0  0  0  0
   -3.6549    2.1307    0.7657 C   0  0  1  0  0  0  0  0  0  0  0  0
   -4.1782    0.9689   -0.0705 C   0  0  1  0  0  0  0  0  0  0  0  0
   -3.6795    1.3861   -1.4473 C   0  0  1  0  0  0  0  0  0  0  0  0
   -2.2763    1.9170   -1.1213 C   0  0  2  0  0  0  0  0  0  0  0  0
   -2.3684    2.4609    0.2171 O   0  0  0  0  0  0  0  0  0  0  0  0
   -1.8002    3.0028   -2.1030 C   0  0  0  0  0  0  0  0  0  0  0  0
   -3.2729    0.1134   -6.1841 C   0  0  1  0  0  0  0  0  0  0  0  0
   -3.3542   -1.1220   -5.2446 C   0  0  1  0  0  0  0  0  0  0  0  0
   -4.5516   -1.0870   -4.2515 C   0  0  2  0  0  0  0  0  0  0  0  0
   -4.5897    0.2599   -3.4603 C   0  0  1  0  0  0  0  0  0  0  0  0
   -3.6314    0.2554   -2.3645 O   0  0  0  0  0  0  0  0  0  0  0  0
   -4.3462    1.1758   -5.7973 C   0  0  1  0  0  0  0  0  0  0  0  0
   -4.3071    1.4087   -4.3514 O   0  0  0  0  0  0  0  0  0  0  0  0
   -4.1404    2.5226   -6.5375 C   0  0  0  0  0  0  0  0  0  0  0  0
   -3.7714    3.6943    7.3832 N   0  3  0  0  0  0  0  0  0  0  0  0
   -3.5694   -0.2487    0.3599 O   0  0  0  0  0  0  0  0  0  0  0  0
   -3.4665   -2.2937   -6.0514 O   0  0  0  0  0  0  0  0  0  0  0  0
   -1.9631    0.6756   -6.0788 O   0  0  0  0  0  0  0  0  0  0  0  0
   -2.5672    4.1859   -1.9588 O   0  0  0  0  0  0  0  0  0  0  0  0
   -7.0804    3.7597    2.0866 O   0  0  0  0  0  0  0  0  0  0  0  0
   -5.1077    3.5566   -6.1263 N   0  3  0  0  0  0  0  0  0  0  0  0
   -4.5509   -2.2733   -3.3599 N   0  3  0  0  0  0  0  0  0  0  0  0
  1  2  1  6  0  0  0
  1  3  1  0  0  0  0
  1 10  1  0  0  0  0
  3  4  1  6  0  0  0
  3  5  1  0  0  0  0
  5  6  1  1  0  0  0
  5  7  1  0  0  0  0
  7  8  1  6  0  0  0
  7  9  1  0  0  0  0
  9 10  1  0  0  0  0
  9 11  1  1  0  0  0
 11 35  1  0  0  0  0
 12 13  1  6  0  0  0
 12 14  1  0  0  0  0
 12 20  1  0  0  0  0
 14 15  1  0  0  0  0
 14 40  1  1  0  0  0
 15 16  1  6  0  0  0
 15 17  1  0  0  0  0
 17  2  1  1  0  0  0
 17 18  1  0  0  0  0
 18 19  1  6  0  0  0
 18 20  1  0  0  0  0
 21 16  1  6  0  0  0
 21 22  1  0  0  0  0
 21 25  1  0  0  0  0
 22 23  1  0  0  0  0
 22 36  1  1  0  0  0
 23 24  1  0  0  0  0
 23 31  1  6  0  0  0
 24 25  1  0  0  0  0
 24 26  1  6  0  0  0
 26 39  1  0  0  0  0
 27 28  1  0  0  0  0
 27 32  1  0  0  0  0
 27 38  1  1  0  0  0
 28 29  1  0  0  0  0
 28 37  1  6  0  0  0
 29 30  1  0  0  0  0
 29 42  1  1  0  0  0
 30 31  1  1  0  0  0
 30 33  1  0  0  0  0
 32 33  1  0  0  0  0
 32 34  1  6  0  0  0
 34 41  1  0  0  0  0
M  CHG  6   4   1  13   1  19   1  35   1  41   1  42   1
M  END
>  <CHROM.1>
157.70933361,-60.03792646,176.66674191,70.02609194,-59.85037065,-98.60304339
123.30072457,71.53380799,-52.01037785,-149.59290197,150.24359783,-171.81006251
-175.87524218,111.21994654,67.87885606,177.69037852,-52.27052091,-75.12691651
65.33007717,-172.70520624,-176.99823491,164.55102614,-3.56392090,2.58347543
0.09832797,-1.51993491,1.03804459,-2.02752853

>  <Name>


>  <RI>
0

>  <Rbt.Current_Directory>
/home/itssahil/PROJECTS/Mol_Feturizer/New_Systems/rnas/1ei2

>  <Rbt.Executable>
rbdock ($Id: //depot/dev/client3/rdock/2013.1/src/exe/rbdock.cxx#4 $)

>  <Rbt.Library>
libRbt.so (2013.1, Build901 2013/11/27)

>  <Rbt.Parameter_File>
/export/apps/rDock/src/rDock_2013.1_src/data/scripts/dock_solv.prm

>  <Rbt.Receptor>
prm/pocket_docking_7.prm

>  <SCORE>
-47.4561

>  <SCORE.INTER>
-26.7193

>  <SCORE.INTER.CONST>
1

>  <SCORE.INTER.POLAR>
-4.86936

>  <SCORE.INTER.ROT>
9

>  <SCORE.INTER.SOLV>
24.6961

>  <SCORE.INTER.VDW>
-19.4137

>  <SCORE.INTER.norm>
-0.636175

>  <SCORE.INTRA>
-20.7367

>  <SCORE.INTRA.DIHEDRAL>
-12.8184

>  <SCORE.INTRA.DIHEDRAL.0>
40.8761

>  <SCORE.INTRA.POLAR>
-1.15689

>  <SCORE.INTRA.POLAR.0>
-0.0268208

>  <SCORE.INTRA.REPUL>
-0.638412

>  <SCORE.INTRA.REPUL.0>
0.641615

>  <SCORE.INTRA.SOLV>
-12.9088

>  <SCORE.INTRA.SOLV.lig_0>
-162.567

>  <SCORE.INTRA.VDW>
-0.747673

>  <SCORE.INTRA.VDW.0>
-4.80338

>  <SCORE.INTRA.norm>
-0.493732

>  <SCORE.RESTR>
0

>  <SCORE.RESTR.CAVITY>
0

>  <SCORE.RESTR.norm>
0

>  <SCORE.SYSTEM>
0

>  <SCORE.SYSTEM.CONST>
0

>  <SCORE.SYSTEM.DIHEDRAL>
0

>  <SCORE.SYSTEM.SOLV>
0

>  <SCORE.SYSTEM.norm>
0

>  <SCORE.heavy>
42

>  <SCORE.norm>
-1.12991

>  <RMSD>
6.254

$$$$

 OpenBabel11021811393D
libRbt.so/2013.1/901 2013/11/27
 42 45  0  0  0  0  0  0  0  0999 V2000
   -8.5541    3.3005   -3.5142 C   0  0  2  0  0  0  0  0  0  0  0  0
   -7.9737    2.4396   -2.4867 O   0  0  0  0  0  0  0  0  0  0  0  0
   -8.7257    2.5427   -4.8707 C   0  0  2  0  0  0  0  0  0  0  0  0
   -8.5991    1.0773   -4.6982 N   0  3  0  0  0  0  0  0  0  0  0  0
   -7.6997    3.0600   -5.9236 C   0  0  1  0  0  0  0  0  0  0  0  0
   -7.8726    2.3690   -7.1589 O   0  0  0  0  0  0  0  0  0  0  0  0
   -7.8591    4.5818   -6.1844 C   0  0  2  0  0  0  0  0  0  0  0  0
   -6.7286    5.0407   -6.9172 O   0  0  0  0  0  0  0  0  0  0  0  0
   -7.9877    5.3766   -4.8445 C   0  0  2  0  0  0  0  0  0  0  0  0
   -7.7194    4.4935   -3.7073 O   0  0  0  0  0  0  0  0  0  0  0  0
   -9.3822    5.9970   -4.5980 C   0  0  0  0  0  0  0  0  0  0  0  0
   -7.9471    5.4691    0.5861 C   0  0  1  0  0  0  0  0  0  0  0  0
   -7.7847    6.1759    1.8762 N   0  3  0  0  0  0  0  0  0  0  0  0
   -6.5755    5.1006   -0.0376 C   0  0  1  0  0  0  0  0  0  0  0  0
   -6.6851    4.2187   -1.3300 C   0  0  1  0  0  0  0  0  0  0  0  0
   -5.3688    3.6779   -1.6232 O   0  0  0  0  0  0  0  0  0  0  0  0
   -7.6729    3.0046   -1.1738 C   0  0  1  0  0  0  0  0  0  0  0  0
   -9.0246    3.4303   -0.5145 C   0  0  1  0  0  0  0  0  0  0  0  0
   -9.8930    2.2695   -0.2310 N   0  3  0  0  0  0  0  0  0  0  0  0
   -8.8020    4.2034    0.8048 C   0  0  0  0  0  0  0  0  0  0  0  0
   -4.2532    4.5868   -1.8515 C   0  0  1  0  0  0  0  0  0  0  0  0
   -3.5752    4.8680   -0.5158 C   0  0  1  0  0  0  0  0  0  0  0  0
   -2.7253    3.6120   -0.3791 C   0  0  1  0  0  0  0  0  0  0  0  0
   -2.2143    3.4254   -1.8148 C   0  0  2  0  0  0  0  0  0  0  0  0
   -3.2589    3.9486   -2.6696 O   0  0  0  0  0  0  0  0  0  0  0  0
   -1.9295    1.9541   -2.1660 C   0  0  0  0  0  0  0  0  0  0  0  0
   -3.0898    1.4304    3.2048 C   0  0  1  0  0  0  0  0  0  0  0  0
   -1.5772    1.6062    2.8943 C   0  0  1  0  0  0  0  0  0  0  0  0
   -1.0976    3.0864    2.8895 C   0  0  2  0  0  0  0  0  0  0  0  0
   -1.9965    3.9682    1.9642 C   0  0  1  0  0  0  0  0  0  0  0  0
   -1.6322    3.8055    0.5642 O   0  0  0  0  0  0  0  0  0  0  0  0
   -3.8021    2.8142    3.2940 C   0  0  1  0  0  0  0  0  0  0  0  0
   -3.4288    3.6335    2.1381 O   0  0  0  0  0  0  0  0  0  0  0  0
   -5.3460    2.6834    3.3503 C   0  0  0  0  0  0  0  0  0  0  0  0
  -10.5084    5.0747   -4.8266 N   0  3  0  0  0  0  0  0  0  0  0  0
   -2.7652    6.0390   -0.6223 O   0  0  0  0  0  0  0  0  0  0  0  0
   -0.8303    0.8893    3.8764 O   0  0  0  0  0  0  0  0  0  0  0  0
   -3.6754    0.6411    2.1669 O   0  0  0  0  0  0  0  0  0  0  0  0
   -1.5850    1.8186   -3.5341 O   0  0  0  0  0  0  0  0  0  0  0  0
   -5.8825    6.3046   -0.3657 O   0  0  0  0  0  0  0  0  0  0  0  0
   -5.8585    2.5256    4.7237 N   0  3  0  0  0  0  0  0  0  0  0  0
    0.3436    3.1880    2.5505 N   0  3  0  0  0  0  0  0  0  0  0  0
  1  2  1  1  0  0  0
  1  3  1  0  0  0  0
  1 10  1  0  0  0  0
  3  4  1  1  0  0  0
  3  5  1  0  0  0  0
  5  6  1  6  0  0  0
  5  7  1  0  0  0  0
  7  8  1  1  0  0  0
  7  9  1  0  0  0  0
  9 10  1  0  0  0  0
  9 11  1  1  0  0  0
 11 35  1  0  0  0  0
 12 13  1  1  0  0  0
 12 14  1  0  0  0  0
 12 20  1  0  0  0  0
 14 15  1  0  0  0  0
 14 40  1  6  0  0  0
 15 16  1  1  0  0  0
 15 17  1  0  0  0  0
 17  2  1  6  0  0  0
 17 18  1  0  0  0  0
 18 19  1  1  0  0  0
 18 20  1  0  0  0  0
 21 16  1  1  0  0  0
 21 22  1  0  0  0  0
 21 25  1  0  0  0  0
 22 23  1  0  0  0  0
 22 36  1  6  0  0  0
 23 24  1  0  0  0  0
 23 31  1  1  0  0  0
 24 25  1  0  0  0  0
 24 26  1  6  0  0  0
 26 39  1  0  0  0  0
 27 28  1  0  0  0  0
 27 32  1  0  0  0  0
 27 38  1  6  0  0  0
 28 29  1  0  0  0  0
 28 37  1  1  0  0  0
 29 30  1  0  0  0  0
 29 42  1  6  0  0  0
 30 31  1  6  0  0  0
 30 33  1  0  0  0  0
 32 33  1  0  0  0  0
 32 34  1  6  0  0  0
 34 41  1  0  0  0  0
M  CHG  6   4   1  13   1  19   1  35   1  41   1  42   1
M  END
>  <CHROM.1>
176.63013653,-57.66074893,-29.96840911,52.18203095,-76.66232481,47.47477508
-48.01360605,56.56591618,-63.31458042,-58.71510368,90.02814875,-165.72391498
96.62388584,68.02774999,174.38656018,-173.99313716,179.65887654,-65.40030044
-76.96932414,133.89802115,87.87760485,-39.31165561,-5.46376085,3.54785666
-0.99588860,2.28682792,0.15879038,-1.54057336

>  <Name>


>  <RI>
0

>  <Rbt.Current_Directory>
/home/itssahil/PROJECTS/Mol_Feturizer/New_Systems/rnas/1ei2

>  <Rbt.Executable>
rbdock ($Id: //depot/dev/client3/rdock/2013.1/src/exe/rbdock.cxx#4 $)

>  <Rbt.Library>
libRbt.so (2013.1, Build901 2013/11/27)

>  <Rbt.Parameter_File>
/export/apps/rDock/src/rDock_2013.1_src/data/scripts/dock_solv.prm

>  <Rbt.Receptor>
prm/pocket_docking_4.prm

>  <SCORE>
-50.278

>  <SCORE.INTER>
-36.7571

>  <SCORE.INTER.CONST>
1

>  <SCORE.INTER.POLAR>
-6.78616

>  <SCORE.INTER.ROT>
9

>  <SCORE.INTER.SOLV>
36.7832

>  <SCORE.INTER.VDW>
-23.7452

>  <SCORE.INTER.norm>
-0.875169

>  <SCORE.INTRA>
-13.7935

>  <SCORE.INTRA.DIHEDRAL>
-15.9123

>  <SCORE.INTRA.DIHEDRAL.0>
40.8761

>  <SCORE.INTRA.POLAR>
-0.258464

>  <SCORE.INTRA.POLAR.0>
-0.0268208

>  <SCORE.INTRA.REPUL>
-0.641615

>  <SCORE.INTRA.REPUL.0>
0.641615

>  <SCORE.INTRA.SOLV>
-10.3412

>  <SCORE.INTRA.SOLV.lig_0>
-162.567

>  <SCORE.INTRA.VDW>
3.42008

>  <SCORE.INTRA.VDW.0>
-4.80338

>  <SCORE.INTRA.norm>
-0.328417

>  <SCORE.RESTR>
0.27261

>  <SCORE.RESTR.CAVITY>
0.27261

>  <SCORE.RESTR.norm>
0.00649072

>  <SCORE.SYSTEM>
0

>  <SCORE.SYSTEM.CONST>
0

>  <SCORE.SYSTEM.DIHEDRAL>
0

>  <SCORE.SYSTEM.SOLV>
0

>  <SCORE.SYSTEM.norm>
0

>  <SCORE.heavy>
42

>  <SCORE.norm>
-1.1971

>  <RMSD>
6.273

$$$$

 OpenBabel11021811393D
libRbt.so/2013.1/901 2013/11/27
 42 45  0  0  0  0  0  0  0  0999 V2000
   -8.2782    3.7983   -3.3881 C   0  0  2  0  0  0  0  0  0  0  0  0
   -7.5358    4.8047   -4.1428 O   0  0  0  0  0  0  0  0  0  0  0  0
   -9.8088    4.1151   -3.3569 C   0  0  2  0  0  0  0  0  0  0  0  0
  -10.1779    5.1300   -4.3703 N   0  3  0  0  0  0  0  0  0  0  0  0
  -10.2459    4.5784   -1.9346 C   0  0  1  0  0  0  0  0  0  0  0  0
  -11.6448    4.8545   -1.9160 O   0  0  0  0  0  0  0  0  0  0  0  0
   -9.9424    3.5013   -0.8588 C   0  0  2  0  0  0  0  0  0  0  0  0
  -10.0903    4.0878    0.4295 O   0  0  0  0  0  0  0  0  0  0  0  0
   -8.4981    2.9265   -1.0233 C   0  0  2  0  0  0  0  0  0  0  0  0
   -7.7566    3.7045   -2.0183 O   0  0  0  0  0  0  0  0  0  0  0  0
   -8.4432    1.4534   -1.4893 C   0  0  0  0  0  0  0  0  0  0  0  0
   -4.8957    2.2573   -6.4145 C   0  0  1  0  0  0  0  0  0  0  0  0
   -3.7392    1.7391   -7.1790 N   0  3  0  0  0  0  0  0  0  0  0  0
   -4.5417    2.4667   -4.9189 C   0  0  1  0  0  0  0  0  0  0  0  0
   -5.6812    3.1551   -4.0897 C   0  0  1  0  0  0  0  0  0  0  0  0
   -5.1218    3.5855   -2.8198 O   0  0  0  0  0  0  0  0  0  0  0  0
   -6.2862    4.4236   -4.7961 C   0  0  1  0  0  0  0  0  0  0  0  0
   -6.5955    4.1620   -6.3057 C   0  0  1  0  0  0  0  0  0  0  0  0
   -7.0226    5.3908   -7.0053 N   0  3  0  0  0  0  0  0  0  0  0  0
   -5.3729    3.5797   -7.0501 C   0  0  0  0  0  0  0  0  0  0  0  0
   -4.0244    4.5438   -2.8061 C   0  0  1  0  0  0  0  0  0  0  0  0
   -3.6630    4.8471   -1.3568 C   0  0  1  0  0  0  0  0  0  0  0  0
   -2.8079    3.6289   -1.0353 C   0  0  1  0  0  0  0  0  0  0  0  0
   -1.9921    3.4730   -2.3265 C   0  0  2  0  0  0  0  0  0  0  0  0
   -2.8502    3.9545   -3.3883 O   0  0  0  0  0  0  0  0  0  0  0  0
   -1.5736    2.0176   -2.6022 C   0  0  0  0  0  0  0  0  0  0  0  0
   -2.1814    2.4989    3.7010 C   0  0  1  0  0  0  0  0  0  0  0  0
   -1.0497    3.4178    3.1623 C   0  0  1  0  0  0  0  0  0  0  0  0
   -1.5607    4.6960    2.4368 C   0  0  2  0  0  0  0  0  0  0  0  0
   -2.6065    4.3382    1.3322 C   0  0  1  0  0  0  0  0  0  0  0  0
   -1.9532    3.8649    0.1205 O   0  0  0  0  0  0  0  0  0  0  0  0
   -3.5799    3.0174    3.2475 C   0  0  1  0  0  0  0  0  0  0  0  0
   -3.5542    3.3055    1.8112 O   0  0  0  0  0  0  0  0  0  0  0  0
   -4.7132    2.0020    3.5447 C   0  0  0  0  0  0  0  0  0  0  0  0
   -9.0559    0.4948   -0.5529 N   0  3  0  0  0  0  0  0  0  0  0  0
   -2.9016    6.0531   -1.2911 O   0  0  0  0  0  0  0  0  0  0  0  0
   -0.2318    3.8154    4.2620 O   0  0  0  0  0  0  0  0  0  0  0  0
   -1.9627    1.1757    3.2067 O   0  0  0  0  0  0  0  0  0  0  0  0
   -1.3203    1.8174   -3.9822 O   0  0  0  0  0  0  0  0  0  0  0  0
   -4.2562    1.1968   -4.3330 O   0  0  0  0  0  0  0  0  0  0  0  0
   -4.6388    0.7959    2.6998 N   0  3  0  0  0  0  0  0  0  0  0  0
   -0.4346    5.5095    1.9149 N   0  3  0  0  0  0  0  0  0  0  0  0
  1  2  1  6  0  0  0
  1  3  1  0  0  0  0
  1 10  1  0  0  0  0
  3  4  1  6  0  0  0
  3  5  1  0  0  0  0
  5  6  1  6  0  0  0
  5  7  1  0  0  0  0
  7  8  1  1  0  0  0
  7  9  1  0  0  0  0
  9 10  1  0  0  0  0
  9 11  1  6  0  0  0
 11 35  1  0  0  0  0
 12 13  1  6  0  0  0
 12 14  1  0  0  0  0
 12 20  1  0  0  0  0
 14 15  1  0  0  0  0
 14 40  1  1  0  0  0
 15 16  1  1  0  0  0
 15 17  1  0  0  0  0
 17  2  1  1  0  0  0
 17 18  1  0  0  0  0
 18 19  1  6  0  0  0
 18 20  1  0  0  0  0
 21 16  1  1  0  0  0
 21 22  1  0  0  0  0
 21 25  1  0  0  0  0
 22 23  1  0  0  0  0
 22 36  1  6  0  0  0
 23 24  1  0  0  0  0
 23 31  1  1  0  0  0
 24 25  1  0  0  0  0
 24 26  1  6  0  0  0
 26 39  1  0  0  0  0
 27 28  1  0  0  0  0
 27 32  1  0  0  0  0
 27 38  1  6  0  0  0
 28 29  1  0  0  0  0
 28 37  1  1  0  0  0
 29 30  1  0  0  0  0
 29 42  1  6  0  0  0
 30 31  1  6  0  0  0
 30 33  1  0  0  0  0
 32 33  1  0  0  0  0
 32 34  1  6  0  0  0
 34 41  1  0  0  0  0
M  CHG  6   4   1  13   1  19   1  35   1  41   1  42   1
M  END
>  <CHROM.1>
-152.44945837,-23.01403628,78.15024179,-74.27144604,162.17953340,-62.43385196
63.67968449,-72.25606889,-62.75421672,60.44886184,178.38268032,58.93947645
127.62844942,52.85697891,156.54158514,-77.15819027,70.84088622,61.19884005
64.85260916,-173.82705484,-69.41229477,57.46220998,-5.10760914,3.42004227
-1.58359897,2.31134139,0.04548016,-1.52542275

>  <Name>


>  <RI>
0

>  <Rbt.Current_Directory>
/home/itssahil/PROJECTS/Mol_Feturizer/New_Systems/rnas/1ei2

>  <Rbt.Executable>
rbdock ($Id: //depot/dev/client3/rdock/2013.1/src/exe/rbdock.cxx#4 $)

>  <Rbt.Library>
libRbt.so (2013.1, Build901 2013/11/27)

>  <Rbt.Parameter_File>
/export/apps/rDock/src/rDock_2013.1_src/data/scripts/dock_solv.prm

>  <Rbt.Receptor>
prm/pocket_docking_4.prm

>  <SCORE>
-53.3715

>  <SCORE.INTER>
-32.9495

>  <SCORE.INTER.CONST>
1

>  <SCORE.INTER.POLAR>
-5.28338

>  <SCORE.INTER.ROT>
9

>  <SCORE.INTER.SOLV>
25.3477

>  <SCORE.INTER.VDW>
-22.4043

>  <SCORE.INTER.norm>
-0.784511

>  <SCORE.INTRA>
-20.9328

>  <SCORE.INTRA.DIHEDRAL>
-17.4189

>  <SCORE.INTRA.DIHEDRAL.0>
40.8761

>  <SCORE.INTRA.POLAR>
-1.73184

>  <SCORE.INTRA.POLAR.0>
-0.0268208

>  <SCORE.INTRA.REPUL>
-0.538426

>  <SCORE.INTRA.REPUL.0>
0.641615

>  <SCORE.INTRA.SOLV>
-8.10943

>  <SCORE.INTRA.SOLV.lig_0>
-162.567

>  <SCORE.INTRA.VDW>
0.411742

>  <SCORE.INTRA.VDW.0>
-4.80338

>  <SCORE.INTRA.norm>
-0.4984

>  <SCORE.RESTR>
0.510781

>  <SCORE.RESTR.CAVITY>
0.510781

>  <SCORE.RESTR.norm>
0.0121614

>  <SCORE.SYSTEM>
0

>  <SCORE.SYSTEM.CONST>
0

>  <SCORE.SYSTEM.DIHEDRAL>
0

>  <SCORE.SYSTEM.SOLV>
0

>  <SCORE.SYSTEM.norm>
0

>  <SCORE.heavy>
42

>  <SCORE.norm>
-1.27075

>  <RMSD>
6.280

$$$$

 OpenBabel11021811393D
libRbt.so/2013.1/901 2013/11/27
 42 45  0  0  0  0  0  0  0  0999 V2000
   -2.8228    6.2405    3.9874 C   0  0  2  0  0  0  0  0  0  0  0  0
   -4.0587    5.7610    4.6010 O   0  0  0  0  0  0  0  0  0  0  0  0
   -2.3665    7.6038    4.6014 C   0  0  2  0  0  0  0  0  0  0  0  0
   -3.0752    7.8976    5.8680 N   0  3  0  0  0  0  0  0  0  0  0  0
   -2.5696    8.7629    3.5796 C   0  0  1  0  0  0  0  0  0  0  0  0
   -2.1406    9.9989    4.1469 O   0  0  0  0  0  0  0  0  0  0  0  0
   -1.7750    8.5212    2.2682 C   0  0  2  0  0  0  0  0  0  0  0  0
   -2.2244    9.4464    1.2845 O   0  0  0  0  0  0  0  0  0  0  0  0
   -1.9630    7.0575    1.7526 C   0  0  2  0  0  0  0  0  0  0  0  0
   -2.9970    6.3766    2.5354 O   0  0  0  0  0  0  0  0  0  0  0  0
   -0.6949    6.1778    1.8428 C   0  0  0  0  0  0  0  0  0  0  0  0
   -2.8377    2.8924    7.5843 C   0  0  1  0  0  0  0  0  0  0  0  0
   -2.7509    1.6851    8.4359 N   0  3  0  0  0  0  0  0  0  0  0  0
   -2.4315    2.5859    6.1190 C   0  0  1  0  0  0  0  0  0  0  0  0
   -2.6473    3.7904    5.1379 C   0  0  1  0  0  0  0  0  0  0  0  0
   -2.5473    3.2909    3.7772 O   0  0  0  0  0  0  0  0  0  0  0  0
   -4.0560    4.4733    5.2904 C   0  0  1  0  0  0  0  0  0  0  0  0
   -4.4232    4.7310    6.7876 C   0  0  1  0  0  0  0  0  0  0  0  0
   -5.8036    5.2337    6.9414 N   0  3  0  0  0  0  0  0  0  0  0  0
   -4.2738    3.4534    7.6439 C   0  0  0  0  0  0  0  0  0  0  0  0
   -2.8321    1.8884    3.5040 C   0  0  1  0  0  0  0  0  0  0  0  0
   -4.0416    1.8098    2.5800 C   0  0  1  0  0  0  0  0  0  0  0  0
   -3.3731    2.0948    1.2419 C   0  0  1  0  0  0  0  0  0  0  0  0
   -2.0732    1.2874    1.3663 C   0  0  2  0  0  0  0  0  0  0  0  0
   -1.7428    1.2985    2.7757 O   0  0  0  0  0  0  0  0  0  0  0  0
   -0.9145    1.8816    0.5456 C   0  0  0  0  0  0  0  0  0  0  0  0
   -4.5309    2.1805   -3.6584 C   0  0  1  0  0  0  0  0  0  0  0  0
   -5.4999    1.3379   -2.7829 C   0  0  1  0  0  0  0  0  0  0  0  0
   -6.0143    2.0766   -1.5137 C   0  0  2  0  0  0  0  0  0  0  0  0
   -4.8285    2.6646   -0.6832 C   0  0  1  0  0  0  0  0  0  0  0  0
   -4.1908    1.6367    0.1267 O   0  0  0  0  0  0  0  0  0  0  0  0
   -4.1895    3.5333   -2.9629 C   0  0  1  0  0  0  0  0  0  0  0  0
   -3.8165    3.2872   -1.5676 O   0  0  0  0  0  0  0  0  0  0  0  0
   -3.0383    4.2909   -3.6734 C   0  0  0  0  0  0  0  0  0  0  0  0
   -0.9134    4.7582    1.5138 N   0  3  0  0  0  0  0  0  0  0  0  0
   -4.5946    0.4941    2.6190 O   0  0  0  0  0  0  0  0  0  0  0  0
   -6.6236    0.9706   -3.5821 O   0  0  0  0  0  0  0  0  0  0  0  0
   -3.3386    1.4215   -3.8713 O   0  0  0  0  0  0  0  0  0  0  0  0
   -0.5776    1.0348   -0.5398 O   0  0  0  0  0  0  0  0  0  0  0  0
   -1.0523    2.2189    6.0926 O   0  0  0  0  0  0  0  0  0  0  0  0
   -3.1243    5.7531   -3.5051 N   0  3  0  0  0  0  0  0  0  0  0  0
   -6.9031    1.2071   -0.7036 N   0  3  0  0  0  0  0  0  0  0  0  0
  1  2  1  1  0  0  0
  1  3  1  0  0  0  0
  1 10  1  0  0  0  0
  3  4  1  1  0  0  0
  3  5  1  0  0  0  0
  5  6  1  1  0  0  0
  5  7  1  0  0  0  0
  7  8  1  6  0  0  0
  7  9  1  0  0  0  0
  9 10  1  0  0  0  0
  9 11  1  1  0  0  0
 11 35  1  0  0  0  0
 12 13  1  1  0  0  0
 12 14  1  0  0  0  0
 12 20  1  0  0  0  0
 14 15  1  0  0  0  0
 14 40  1  1  0  0  0
 15 16  1  6  0  0  0
 15 17  1  0  0  0  0
 17  2  1  6  0  0  0
 17 18  1  0  0  0  0
 18 19  1  6  0  0  0
 18 20  1  0  0  0  0
 21 16  1  6  0  0  0
 21 22  1  0  0  0  0
 21 25  1  0  0  0  0
 22 23  1  0  0  0  0
 22 36  1  6  0  0  0
 23 24  1  0  0  0  0
 23 31  1  6  0  0  0
 24 25  1  0  0  0  0
 24 26  1  6  0  0  0
 26 39  1  0  0  0  0
 27 28  1  0  0  0  0
 27 32  1  0  0  0  0
 27 38  1  1  0  0  0
 28 29  1  0  0  0  0
 28 37  1  6  0  0  0
 29 30  1  0  0  0  0
 29 42  1  1  0  0  0
 30 31  1  6  0  0  0
 30 33  1  0  0  0  0
 32 33  1  0  0  0  0
 32 34  1  6  0  0  0
 34 41  1  0  0  0  0
M  CHG  6   4   1  13   1  19   1  35   1  41   1  42   1
M  END
>  <CHROM.1>
-119.80747287,-3.70869458,91.73372270,-168.36130723,173.86730006,172.85611052
149.53851728,-179.26097942,-68.74421044,24.99339063,116.96005159,-174.69495448
-175.62399069,108.49387937,-111.41285147,-159.65617937,161.90119771,-169.11731285
162.02587786,-161.23450640,151.77617282,154.54619301,-3.25472728,3.92964054
2.06351684,-0.86080857,-1.34348849,-1.24732958

>  <Name>


>  <RI>
0

>  <Rbt.Current_Directory>
/home/itssahil/PROJECTS/Mol_Feturizer/New_Systems/rnas/1ei2

>  <Rbt.Executable>
rbdock ($Id: //depot/dev/client3/rdock/2013.1/src/exe/rbdock.cxx#4 $)

>  <Rbt.Library>
libRbt.so (2013.1, Build901 2013/11/27)

>  <Rbt.Parameter_File>
/export/apps/rDock/src/rDock_2013.1_src/data/scripts/dock_solv.prm

>  <Rbt.Receptor>
prm/pocket_docking_7.prm

>  <SCORE>
-44.8872

>  <SCORE.INTER>
-41.8587

>  <SCORE.INTER.CONST>
1

>  <SCORE.INTER.POLAR>
-7.65726

>  <SCORE.INTER.ROT>
9

>  <SCORE.INTER.SOLV>
27.9054

>  <SCORE.INTER.VDW>
-21.2834

>  <SCORE.INTER.norm>
-0.996636

>  <SCORE.INTRA>
-3.5518

>  <SCORE.INTRA.DIHEDRAL>
12.2902

>  <SCORE.INTRA.DIHEDRAL.0>
40.8761

>  <SCORE.INTRA.POLAR>
-1.32215

>  <SCORE.INTRA.POLAR.0>
-0.0268208

>  <SCORE.INTRA.REPUL>
-0.635304

>  <SCORE.INTRA.REPUL.0>
0.641615

>  <SCORE.INTRA.SOLV>
-6.12914

>  <SCORE.INTRA.SOLV.lig_0>
-162.567

>  <SCORE.INTRA.VDW>
1.03949

>  <SCORE.INTRA.VDW.0>
-4.80338

>  <SCORE.INTRA.norm>
-0.0845668

>  <SCORE.RESTR>
0.523261

>  <SCORE.RESTR.CAVITY>
0.523261

>  <SCORE.RESTR.norm>
0.0124586

>  <SCORE.SYSTEM>
0

>  <SCORE.SYSTEM.CONST>
0

>  <SCORE.SYSTEM.DIHEDRAL>
0

>  <SCORE.SYSTEM.SOLV>
0

>  <SCORE.SYSTEM.norm>
0

>  <SCORE.heavy>
42

>  <SCORE.norm>
-1.06874

>  <RMSD>
6.284

$$$$

 OpenBabel11021811393D
libRbt.so/2013.1/901 2013/11/27
 42 45  0  0  0  0  0  0  0  0999 V2000
   -5.7363    3.3558    2.6614 C   0  0  2  0  0  0  0  0  0  0  0  0
   -5.9984    4.7196    3.1141 O   0  0  0  0  0  0  0  0  0  0  0  0
   -5.5834    2.3692    3.8643 C   0  0  2  0  0  0  0  0  0  0  0  0
   -6.0825    2.9633    5.1256 N   0  3  0  0  0  0  0  0  0  0  0  0
   -4.0996    1.9190    4.0215 C   0  0  1  0  0  0  0  0  0  0  0  0
   -3.9745    1.0120    5.1147 O   0  0  0  0  0  0  0  0  0  0  0  0
   -3.5701    1.2213    2.7401 C   0  0  2  0  0  0  0  0  0  0  0  0
   -2.1553    1.1004    2.8370 O   0  0  0  0  0  0  0  0  0  0  0  0
   -3.9522    2.0271    1.4563 C   0  0  2  0  0  0  0  0  0  0  0  0
   -4.5280    3.3218    1.8270 O   0  0  0  0  0  0  0  0  0  0  0  0
   -4.9902    1.3302    0.5468 C   0  0  0  0  0  0  0  0  0  0  0  0
   -7.8588    8.3566    1.7245 C   0  0  1  0  0  0  0  0  0  0  0  0
   -8.2753    9.5034    0.8868 N   0  3  0  0  0  0  0  0  0  0  0  0
   -8.4662    7.0254    1.2097 C   0  0  1  0  0  0  0  0  0  0  0  0
   -7.9406    5.7562    1.9666 C   0  0  1  0  0  0  0  0  0  0  0  0
   -8.3171    4.5817    1.1987 O   0  0  0  0  0  0  0  0  0  0  0  0
   -6.3767    5.7332    2.1328 C   0  0  1  0  0  0  0  0  0  0  0  0
   -5.8196    7.1080    2.6254 C   0  0  1  0  0  0  0  0  0  0  0  0
   -4.3428    7.1350    2.6394 N   0  3  0  0  0  0  0  0  0  0  0  0
   -6.3181    8.2778    1.7473 C   0  0  0  0  0  0  0  0  0  0  0  0
   -9.6750    4.4650    0.6835 C   0  0  1  0  0  0  0  0  0  0  0  0
   -9.7180    5.0731   -0.7134 C   0  0  1  0  0  0  0  0  0  0  0  0
   -9.1458    3.9182   -1.5241 C   0  0  1  0  0  0  0  0  0  0  0  0
   -9.8276    2.7098   -0.8667 C   0  0  2  0  0  0  0  0  0  0  0  0
  -10.0209    3.0799    0.5194 O   0  0  0  0  0  0  0  0  0  0  0  0
   -8.9900    1.4218   -0.9595 C   0  0  0  0  0  0  0  0  0  0  0  0
   -7.3329    3.0335   -5.9500 C   0  0  1  0  0  0  0  0  0  0  0  0
   -8.8048    3.5269   -6.0245 C   0  0  1  0  0  0  0  0  0  0  0  0
   -9.0708    4.8508   -5.2515 C   0  0  2  0  0  0  0  0  0  0  0  0
   -8.5526    4.7593   -3.7801 C   0  0  1  0  0  0  0  0  0  0  0  0
   -9.4893    4.0328   -2.9351 O   0  0  0  0  0  0  0  0  0  0  0  0
   -6.4980    3.9239   -4.9803 C   0  0  1  0  0  0  0  0  0  0  0  0
   -7.2286    4.0979   -3.7224 O   0  0  0  0  0  0  0  0  0  0  0  0
   -5.1001    3.3239   -4.6804 C   0  0  0  0  0  0  0  0  0  0  0  0
   -5.9420    0.4622    1.2623 N   0  3  0  0  0  0  0  0  0  0  0  0
  -11.0704    5.3493   -1.0785 O   0  0  0  0  0  0  0  0  0  0  0  0
   -9.1435    3.7254   -7.3965 O   0  0  0  0  0  0  0  0  0  0  0  0
   -7.3332    1.6779   -5.4968 O   0  0  0  0  0  0  0  0  0  0  0  0
   -9.6102    0.3634   -0.2496 O   0  0  0  0  0  0  0  0  0  0  0  0
   -9.8854    7.0840    1.3507 O   0  0  0  0  0  0  0  0  0  0  0  0
   -4.1502    3.4982   -5.7945 N   0  3  0  0  0  0  0  0  0  0  0  0
  -10.4988    5.2468   -5.3304 N   0  3  0  0  0  0  0  0  0  0  0  0
  1  2  1  1  0  0  0
  1  3  1  0  0  0  0
  1 10  1  0  0  0  0
  3  4  1  1  0  0  0
  3  5  1  0  0  0  0
  5  6  1  1  0  0  0
  5  7  1  0  0  0  0
  7  8  1  1  0  0  0
  7  9  1  0  0  0  0
  9 10  1  0  0  0  0
  9 11  1  1  0  0  0
 11 35  1  0  0  0  0
 12 13  1  6  0  0  0
 12 14  1  0  0  0  0
 12 20  1  0  0  0  0
 14 15  1  0  0  0  0
 14 40  1  1  0  0  0
 15 16  1  6  0  0  0
 15 17  1  0  0  0  0
 17  2  1  1  0  0  0
 17 18  1  0  0  0  0
 18 19  1  6  0  0  0
 18 20  1  0  0  0  0
 21 16  1  6  0  0  0
 21 22  1  0  0  0  0
 21 25  1  0  0  0  0
 22 23  1  0  0  0  0
 22 36  1  6  0  0  0
 23 24  1  0  0  0  0
 23 31  1  6  0  0  0
 24 25  1  0  0  0  0
 24 26  1  1  0  0  0
 26 39  1  0  0  0  0
 27 28  1  0  0  0  0
 27 32  1  0  0  0  0
 27 38  1  1  0  0  0
 28 29  1  0  0  0  0
 28 37  1  6  0  0  0
 29 30  1  0  0  0  0
 29 42  1  1  0  0  0
 30 31  1  1  0  0  0
 30 33  1  0  0  0  0
 32 33  1  0  0  0  0
 32 34  1  1  0  0  0
 34 41  1  0  0  0  0
M  CHG  6   4   1  13   1  19   1  35   1  41   1  42   1
M  END
>  <CHROM.1>
-170.46508988,89.63061713,-67.67617823,-58.96530631,-49.90441062,30.17549636
-143.67116276,170.82385451,-65.51789882,-46.18835515,90.84435213,84.91049014
170.38401997,90.48856048,175.39045744,-63.16377961,62.72059024,162.07252733
-78.52049560,-177.85283624,75.98852642,-66.19351773,-7.18264643,3.99174436
-0.32506271,-0.92376754,0.87744782,-2.03758678

>  <Name>


>  <RI>
0

>  <Rbt.Current_Directory>
/home/itssahil/PROJECTS/Mol_Feturizer/New_Systems/rnas/1ei2

>  <Rbt.Executable>
rbdock ($Id: //depot/dev/client3/rdock/2013.1/src/exe/rbdock.cxx#4 $)

>  <Rbt.Library>
libRbt.so (2013.1, Build901 2013/11/27)

>  <Rbt.Parameter_File>
/export/apps/rDock/src/rDock_2013.1_src/data/scripts/dock_solv.prm

>  <Rbt.Receptor>
prm/pocket_docking_5.prm

>  <SCORE>
-66.9519

>  <SCORE.INTER>
-52.3053

>  <SCORE.INTER.CONST>
1

>  <SCORE.INTER.POLAR>
-8.80217

>  <SCORE.INTER.ROT>
9

>  <SCORE.INTER.SOLV>
30.2197

>  <SCORE.INTER.VDW>
-25.2028

>  <SCORE.INTER.norm>
-1.24536

>  <SCORE.INTRA>
-14.6466

>  <SCORE.INTRA.DIHEDRAL>
-16.8064

>  <SCORE.INTRA.DIHEDRAL.0>
40.8761

>  <SCORE.INTRA.POLAR>
0.023213

>  <SCORE.INTRA.POLAR.0>
-0.0268208

>  <SCORE.INTRA.REPUL>
-0.641615

>  <SCORE.INTRA.REPUL.0>
0.641615

>  <SCORE.INTRA.SOLV>
-8.86541

>  <SCORE.INTRA.SOLV.lig_0>
-162.567

>  <SCORE.INTRA.VDW>
1.31843

>  <SCORE.INTRA.VDW.0>
-4.80338

>  <SCORE.INTRA.norm>
-0.348729

>  <SCORE.RESTR>
0

>  <SCORE.RESTR.CAVITY>
0

>  <SCORE.RESTR.norm>
0

>  <SCORE.SYSTEM>
0

>  <SCORE.SYSTEM.CONST>
0

>  <SCORE.SYSTEM.DIHEDRAL>
0

>  <SCORE.SYSTEM.SOLV>
0

>  <SCORE.SYSTEM.norm>
0

>  <SCORE.heavy>
42

>  <SCORE.norm>
-1.59409

>  <RMSD>
6.292

$$$$

 OpenBabel11021811393D
libRbt.so/2013.1/901 2013/11/27
 42 45  0  0  0  0  0  0  0  0999 V2000
   -7.6439    3.7051   -3.1317 C   0  0  2  0  0  0  0  0  0  0  0  0
   -7.2562    2.4995   -3.8596 O   0  0  0  0  0  0  0  0  0  0  0  0
   -8.1636    3.3689   -1.6962 C   0  0  2  0  0  0  0  0  0  0  0  0
   -7.8121    1.9867   -1.2972 N   0  3  0  0  0  0  0  0  0  0  0  0
   -9.7035    3.5900   -1.6027 C   0  0  1  0  0  0  0  0  0  0  0  0
  -10.1641    3.2901   -0.2869 O   0  0  0  0  0  0  0  0  0  0  0  0
  -10.0972    5.0530   -1.9405 C   0  0  2  0  0  0  0  0  0  0  0  0
  -11.5076    5.1166   -2.1212 O   0  0  0  0  0  0  0  0  0  0  0  0
   -9.3688    5.5533   -3.2299 C   0  0  2  0  0  0  0  0  0  0  0  0
   -8.6726    4.4401   -3.8791 O   0  0  0  0  0  0  0  0  0  0  0  0
   -8.3070    6.6494   -2.9824 C   0  0  0  0  0  0  0  0  0  0  0  0
   -4.8665    1.1012   -7.1693 C   0  0  1  0  0  0  0  0  0  0  0  0
   -3.9356    1.0424   -8.3184 N   0  3  0  0  0  0  0  0  0  0  0  0
   -4.1155    1.3869   -5.8425 C   0  0  1  0  0  0  0  0  0  0  0  0
   -5.0648    1.6094   -4.6139 C   0  0  1  0  0  0  0  0  0  0  0  0
   -4.2805    2.1795   -3.5319 O   0  0  0  0  0  0  0  0  0  0  0  0
   -6.2500    2.5991   -4.9137 C   0  0  1  0  0  0  0  0  0  0  0  0
   -6.9492    2.2807   -6.2748 C   0  0  1  0  0  0  0  0  0  0  0  0
   -7.9621    3.2960   -6.6287 N   0  3  0  0  0  0  0  0  0  0  0  0
   -5.9324    2.1848   -7.4344 C   0  0  0  0  0  0  0  0  0  0  0  0
   -3.2818    3.1982   -3.8278 C   0  0  1  0  0  0  0  0  0  0  0  0
   -3.1522    4.1167   -2.6185 C   0  0  1  0  0  0  0  0  0  0  0  0
   -2.2488    3.2673   -1.7348 C   0  0  1  0  0  0  0  0  0  0  0  0
   -1.2515    2.7067   -2.7586 C   0  0  2  0  0  0  0  0  0  0  0  0
   -1.9921    2.5874   -3.9968 O   0  0  0  0  0  0  0  0  0  0  0  0
   -0.6757    1.3385   -2.3516 C   0  0  0  0  0  0  0  0  0  0  0  0
   -1.9149    2.7704    2.8798 C   0  0  1  0  0  0  0  0  0  0  0  0
   -0.8785    3.8238    2.3986 C   0  0  1  0  0  0  0  0  0  0  0  0
   -1.4978    5.0022    1.5929 C   0  0  2  0  0  0  0  0  0  0  0  0
   -2.3930    4.4782    0.4243 C   0  0  1  0  0  0  0  0  0  0  0  0
   -1.5860    4.0715   -0.7171 O   0  0  0  0  0  0  0  0  0  0  0  0
   -3.3296    3.0806    2.3030 C   0  0  1  0  0  0  0  0  0  0  0  0
   -3.2275    3.3362    0.8640 O   0  0  0  0  0  0  0  0  0  0  0  0
   -4.3351    1.9259    2.5467 C   0  0  0  0  0  0  0  0  0  0  0  0
   -8.8372    7.8877   -2.3850 N   0  3  0  0  0  0  0  0  0  0  0  0
   -2.5134    5.3343   -3.0030 O   0  0  0  0  0  0  0  0  0  0  0  0
   -0.2134    4.3557    3.5436 O   0  0  0  0  0  0  0  0  0  0  0  0
   -1.4798    1.4789    2.4490 O   0  0  0  0  0  0  0  0  0  0  0  0
   -1.6879    0.3464   -2.3434 O   0  0  0  0  0  0  0  0  0  0  0  0
   -3.2528    0.2860   -5.5575 O   0  0  0  0  0  0  0  0  0  0  0  0
   -4.6411    1.7236    3.9748 N   0  3  0  0  0  0  0  0  0  0  0  0
   -0.4540    5.9508    1.1316 N   0  3  0  0  0  0  0  0  0  0  0  0
  1  2  1  6  0  0  0
  1  3  1  0  0  0  0
  1 10  1  0  0  0  0
  3  4  1  6  0  0  0
  3  5  1  0  0  0  0
  5  6  1  1  0  0  0
  5  7  1  0  0  0  0
  7  8  1  6  0  0  0
  7  9  1  0  0  0  0
  9 10  1  0  0  0  0
  9 11  1  1  0  0  0
 11 35  1  0  0  0  0
 12 13  1  6  0  0  0
 12 14  1  0  0  0  0
 12 20  1  0  0  0  0
 14 15  1  0  0  0  0
 14 40  1  1  0  0  0
 15 16  1  1  0  0  0
 15 17  1  0  0  0  0
 17  2  1  1  0  0  0
 17 18  1  0  0  0  0
 18 19  1  6  0  0  0
 18 20  1  0  0  0  0
 21 16  1  1  0  0  0
 21 22  1  0  0  0  0
 21 25  1  0  0  0  0
 22 23  1  0  0  0  0
 22 36  1  6  0  0  0
 23 24  1  0  0  0  0
 23 31  1  1  0  0  0
 24 25  1  0  0  0  0
 24 26  1  1  0  0  0
 26 39  1  0  0  0  0
 27 28  1  0  0  0  0
 27 32  1  0  0  0  0
 27 38  1  6  0  0  0
 28 29  1  0  0  0  0
 28 37  1  1  0  0  0
 29 30  1  0  0  0  0
 29 42  1  6  0  0  0
 30 31  1  6  0  0  0
 30 33  1  0  0  0  0
 32 33  1  0  0  0  0
 32 34  1  6  0  0  0
 34 41  1  0  0  0  0
M  CHG  6   4   1  13   1  19   1  35   1  41   1  42   1
M  END
>  <CHROM.1>
-153.53644042,123.99681962,-35.83739513,-177.60976228,-54.63085853,-60.75130689
173.04031765,78.31812480,-65.65215738,40.45597085,150.29352725,-42.90980770
68.98579242,76.42442278,65.85649771,-60.02581955,58.66224167,65.89122148
-79.23722894,165.34491039,66.02160343,-65.26611081,-4.83458733,3.23483152
-2.06722053,2.42199558,0.28402983,-1.84503042

>  <Name>


>  <RI>
0

>  <Rbt.Current_Directory>
/home/itssahil/PROJECTS/Mol_Feturizer/New_Systems/rnas/1ei2

>  <Rbt.Executable>
rbdock ($Id: //depot/dev/client3/rdock/2013.1/src/exe/rbdock.cxx#4 $)

>  <Rbt.Library>
libRbt.so (2013.1, Build901 2013/11/27)

>  <Rbt.Parameter_File>
/export/apps/rDock/src/rDock_2013.1_src/data/scripts/dock_solv.prm

>  <Rbt.Receptor>
prm/pocket_docking_5.prm

>  <SCORE>
-51.2999

>  <SCORE.INTER>
-28.7719

>  <SCORE.INTER.CONST>
1

>  <SCORE.INTER.POLAR>
-5.32819

>  <SCORE.INTER.ROT>
9

>  <SCORE.INTER.SOLV>
19.104

>  <SCORE.INTER.VDW>
-17.3887

>  <SCORE.INTER.norm>
-0.685046

>  <SCORE.INTRA>
-22.5279

>  <SCORE.INTRA.DIHEDRAL>
-17.5847

>  <SCORE.INTRA.DIHEDRAL.0>
40.8761

>  <SCORE.INTRA.POLAR>
-1.38345

>  <SCORE.INTRA.POLAR.0>
-0.0268208

>  <SCORE.INTRA.REPUL>
-0.641615

>  <SCORE.INTRA.REPUL.0>
0.641615

>  <SCORE.INTRA.SOLV>
-12.4787

>  <SCORE.INTRA.SOLV.lig_0>
-162.567

>  <SCORE.INTRA.VDW>
0.415553

>  <SCORE.INTRA.VDW.0>
-4.80338

>  <SCORE.INTRA.norm>
-0.53638

>  <SCORE.RESTR>
0

>  <SCORE.RESTR.CAVITY>
0

>  <SCORE.RESTR.norm>
0

>  <SCORE.SYSTEM>
0

>  <SCORE.SYSTEM.CONST>
0

>  <SCORE.SYSTEM.DIHEDRAL>
0

>  <SCORE.SYSTEM.SOLV>
0

>  <SCORE.SYSTEM.norm>
0

>  <SCORE.heavy>
42

>  <SCORE.norm>
-1.22143

>  <RMSD>
6.294

$$$$

 OpenBabel11021811393D
libRbt.so/2013.1/901 2013/11/27
 42 45  0  0  0  0  0  0  0  0999 V2000
   -2.0846    5.8088    2.6660 C   0  0  2  0  0  0  0  0  0  0  0  0
   -2.8068    6.1264    1.4367 O   0  0  0  0  0  0  0  0  0  0  0  0
   -0.5371    5.8211    2.4442 C   0  0  2  0  0  0  0  0  0  0  0  0
   -0.1724    6.4838    1.1711 N   0  3  0  0  0  0  0  0  0  0  0  0
    0.0369    4.3729    2.4908 C   0  0  1  0  0  0  0  0  0  0  0  0
    1.4495    4.3978    2.2976 O   0  0  0  0  0  0  0  0  0  0  0  0
   -0.2624    3.6776    3.8460 C   0  0  2  0  0  0  0  0  0  0  0  0
    0.0228    2.2889    3.7199 O   0  0  0  0  0  0  0  0  0  0  0  0
   -1.7525    3.8820    4.2717 C   0  0  2  0  0  0  0  0  0  0  0  0
   -2.5082    4.4996    3.1794 O   0  0  0  0  0  0  0  0  0  0  0  0
   -1.9478    4.7901    5.5076 C   0  0  0  0  0  0  0  0  0  0  0  0
   -6.7466    5.6941    3.1427 C   0  0  1  0  0  0  0  0  0  0  0  0
   -8.2040    5.7890    3.3826 N   0  3  0  0  0  0  0  0  0  0  0  0
   -6.4302    4.8255    1.8970 C   0  0  1  0  0  0  0  0  0  0  0  0
   -4.9116    4.8116    1.5052 C   0  0  1  0  0  0  0  0  0  0  0  0
   -4.7926    4.2513    0.1700 O   0  0  0  0  0  0  0  0  0  0  0  0
   -4.2621    6.2440    1.4783 C   0  0  1  0  0  0  0  0  0  0  0  0
   -4.6388    7.0819    2.7428 C   0  0  1  0  0  0  0  0  0  0  0  0
   -4.1545    8.4743    2.6498 N   0  3  0  0  0  0  0  0  0  0  0  0
   -6.1660    7.1138    2.9767 C   0  0  0  0  0  0  0  0  0  0  0  0
   -3.4969    4.2511   -0.4964 C   0  0  1  0  0  0  0  0  0  0  0  0
   -2.9766    2.8195   -0.5456 C   0  0  1  0  0  0  0  0  0  0  0  0
   -3.7630    2.2914   -1.7378 C   0  0  1  0  0  0  0  0  0  0  0  0
   -3.6981    3.4824   -2.7044 C   0  0  2  0  0  0  0  0  0  0  0  0
   -3.6483    4.6610   -1.8653 O   0  0  0  0  0  0  0  0  0  0  0  0
   -4.9097    3.5565   -3.6509 C   0  0  0  0  0  0  0  0  0  0  0  0
   -3.6407   -2.6314   -3.0533 C   0  0  1  0  0  0  0  0  0  0  0  0
   -4.4876   -1.7974   -2.0521 C   0  0  1  0  0  0  0  0  0  0  0  0
   -5.0466   -0.4712   -2.6436 C   0  0  2  0  0  0  0  0  0  0  0  0
   -3.9112    0.3750   -3.3043 C   0  0  1  0  0  0  0  0  0  0  0  0
   -3.1430    1.1005   -2.3029 O   0  0  0  0  0  0  0  0  0  0  0  0
   -3.4321   -1.8517   -4.3870 C   0  0  1  0  0  0  0  0  0  0  0  0
   -2.9976   -0.4838   -4.0928 O   0  0  0  0  0  0  0  0  0  0  0  0
   -2.3905   -2.5304   -5.3135 C   0  0  0  0  0  0  0  0  0  0  0  0
   -1.5013    4.1934    6.7788 N   0  3  0  0  0  0  0  0  0  0  0  0
   -1.5727    2.8245   -0.8055 O   0  0  0  0  0  0  0  0  0  0  0  0
   -5.5848   -2.5985   -1.6150 O   0  0  0  0  0  0  0  0  0  0  0  0
   -2.3782   -2.9183   -2.4478 O   0  0  0  0  0  0  0  0  0  0  0  0
   -6.0910    3.1303   -2.9939 O   0  0  0  0  0  0  0  0  0  0  0  0
   -6.8458    3.4846    2.1552 O   0  0  0  0  0  0  0  0  0  0  0  0
   -2.2432   -1.8445   -6.6103 N   0  3  0  0  0  0  0  0  0  0  0  0
   -5.8125    0.2943   -1.6289 N   0  3  0  0  0  0  0  0  0  0  0  0
  1  2  1  6  0  0  0
  1  3  1  0  0  0  0
  1 10  1  0  0  0  0
  3  4  1  6  0  0  0
  3  5  1  0  0  0  0
  5  6  1  1  0  0  0
  5  7  1  0  0  0  0
  7  8  1  6  0  0  0
  7  9  1  0  0  0  0
  9 10  1  0  0  0  0
  9 11  1  1  0  0  0
 11 35  1  0  0  0  0
 12 13  1  6  0  0  0
 12 14  1  0  0  0  0
 12 20  1  0  0  0  0
 14 15  1  0  0  0  0
 14 40  1  1  0  0  0
 15 16  1  6  0  0  0
 15 17  1  0  0  0  0
 17  2  1  1  0  0  0
 17 18  1  0  0  0  0
 18 19  1  6  0  0  0
 18 20  1  0  0  0  0
 21 16  1  1  0  0  0
 21 22  1  0  0  0  0
 21 25  1  0  0  0  0
 22 23  1  0  0  0  0
 22 36  1  6  0  0  0
 23 24  1  0  0  0  0
 23 31  1  6  0  0  0
 24 25  1  0  0  0  0
 24 26  1  6  0  0  0
 26 39  1  0  0  0  0
 27 28  1  0  0  0  0
 27 32  1  0  0  0  0
 27 38  1  1  0  0  0
 28 29  1  0  0  0  0
 28 37  1  6  0  0  0
 29 30  1  0  0  0  0
 29 42  1  1  0  0  0
 30 31  1  1  0  0  0
 30 33  1  0  0  0  0
 32 33  1  0  0  0  0
 32 34  1  6  0  0  0
 34 41  1  0  0  0  0
M  CHG  6   4   1  13   1  19   1  35   1  41   1  42   1
M  END
>  <CHROM.1>
-176.13416119,-77.87059419,-63.82291706,64.62439904,172.63662487,-70.35885871
74.87569800,62.44368800,54.56486589,173.61321926,108.59224182,157.00128774
64.93391099,170.24769255,35.51508914,-178.28052872,62.19273099,-89.60983531
-69.44403479,-76.55086273,176.65867984,168.15338487,-3.43170714,2.97925554
0.18550914,-1.50220845,0.34416465,-2.35861185

>  <Name>


>  <RI>
0

>  <Rbt.Current_Directory>
/home/itssahil/PROJECTS/Mol_Feturizer/New_Systems/rnas/1ei2

>  <Rbt.Executable>
rbdock ($Id: //depot/dev/client3/rdock/2013.1/src/exe/rbdock.cxx#4 $)

>  <Rbt.Library>
libRbt.so (2013.1, Build901 2013/11/27)

>  <Rbt.Parameter_File>
/export/apps/rDock/src/rDock_2013.1_src/data/scripts/dock_solv.prm

>  <Rbt.Receptor>
prm/pocket_docking_7.prm

>  <SCORE>
-53.5242

>  <SCORE.INTER>
-32.7534

>  <SCORE.INTER.CONST>
1

>  <SCORE.INTER.POLAR>
-6.62932

>  <SCORE.INTER.ROT>
9

>  <SCORE.INTER.SOLV>
26.9716

>  <SCORE.INTER.VDW>
-18.3284

>  <SCORE.INTER.norm>
-0.779842

>  <SCORE.INTRA>
-20.8863

>  <SCORE.INTRA.DIHEDRAL>
-21.4704

>  <SCORE.INTRA.DIHEDRAL.0>
40.8761

>  <SCORE.INTRA.POLAR>
-1.13307

>  <SCORE.INTRA.POLAR.0>
-0.0268208

>  <SCORE.INTRA.REPUL>
-0.531424

>  <SCORE.INTRA.REPUL.0>
0.641615

>  <SCORE.INTRA.SOLV>
-9.17071

>  <SCORE.INTRA.SOLV.lig_0>
-162.567

>  <SCORE.INTRA.VDW>
0.943872

>  <SCORE.INTRA.VDW.0>
-4.80338

>  <SCORE.INTRA.norm>
-0.497292

>  <SCORE.RESTR>
0.115484

>  <SCORE.RESTR.CAVITY>
0.115484

>  <SCORE.RESTR.norm>
0.00274961

>  <SCORE.SYSTEM>
0

>  <SCORE.SYSTEM.CONST>
0

>  <SCORE.SYSTEM.DIHEDRAL>
0

>  <SCORE.SYSTEM.SOLV>
0

>  <SCORE.SYSTEM.norm>
0

>  <SCORE.heavy>
42

>  <SCORE.norm>
-1.27438

>  <RMSD>
6.301

$$$$

 OpenBabel11021811393D
libRbt.so/2013.1/901 2013/11/27
 42 45  0  0  0  0  0  0  0  0999 V2000
   -2.6115    5.4363    3.0002 C   0  0  2  0  0  0  0  0  0  0  0  0
   -3.1116    6.3063    1.9387 O   0  0  0  0  0  0  0  0  0  0  0  0
   -1.1401    4.9835    2.7282 C   0  0  2  0  0  0  0  0  0  0  0  0
   -0.5000    5.8072    1.6771 N   0  3  0  0  0  0  0  0  0  0  0  0
   -1.0910    3.4736    2.3453 C   0  0  1  0  0  0  0  0  0  0  0  0
    0.2563    3.0700    2.1097 O   0  0  0  0  0  0  0  0  0  0  0  0
   -1.6854    2.5757    3.4633 C   0  0  2  0  0  0  0  0  0  0  0  0
   -1.8776    1.2650    2.9429 O   0  0  0  0  0  0  0  0  0  0  0  0
   -3.0418    3.1476    3.9890 C   0  0  2  0  0  0  0  0  0  0  0  0
   -3.4804    4.2609    3.1442 O   0  0  0  0  0  0  0  0  0  0  0  0
   -2.9918    3.6892    5.4362 C   0  0  0  0  0  0  0  0  0  0  0  0
   -6.6390    7.6052    4.0576 C   0  0  1  0  0  0  0  0  0  0  0  0
   -7.9318    8.2389    4.4005 N   0  3  0  0  0  0  0  0  0  0  0  0
   -6.8249    6.4441    3.0459 C   0  0  1  0  0  0  0  0  0  0  0  0
   -5.4757    5.8326    2.5305 C   0  0  1  0  0  0  0  0  0  0  0  0
   -5.7661    5.0031    1.3735 O   0  0  0  0  0  0  0  0  0  0  0  0
   -4.4293    6.9192    2.0848 C   0  0  1  0  0  0  0  0  0  0  0  0
   -4.3062    8.0766    3.1279 C   0  0  1  0  0  0  0  0  0  0  0  0
   -3.4381    9.1693    2.6438 N   0  3  0  0  0  0  0  0  0  0  0  0
   -5.6847    8.6751    3.4874 C   0  0  0  0  0  0  0  0  0  0  0  0
   -6.3969    5.5984    0.2029 C   0  0  1  0  0  0  0  0  0  0  0  0
   -6.1428    4.6946   -0.9977 C   0  0  1  0  0  0  0  0  0  0  0  0
   -7.2138    3.6374   -0.7664 C   0  0  1  0  0  0  0  0  0  0  0  0
   -8.4032    4.4951   -0.3114 C   0  0  2  0  0  0  0  0  0  0  0  0
   -7.8232    5.6296    0.3756 O   0  0  0  0  0  0  0  0  0  0  0  0
   -9.3644    3.7426    0.6262 C   0  0  0  0  0  0  0  0  0  0  0  0
   -5.2712    0.1137   -0.5938 C   0  0  1  0  0  0  0  0  0  0  0  0
   -6.6609   -0.0999   -1.2560 C   0  0  1  0  0  0  0  0  0  0  0  0
   -6.8199    0.5977   -2.6378 C   0  0  2  0  0  0  0  0  0  0  0  0
   -6.4312    2.1090   -2.5553 C   0  0  1  0  0  0  0  0  0  0  0  0
   -7.5123    2.9016   -1.9877 O   0  0  0  0  0  0  0  0  0  0  0  0
   -4.4095    1.1137   -1.4230 C   0  0  1  0  0  0  0  0  0  0  0  0
   -5.2073    2.3001   -1.7434 O   0  0  0  0  0  0  0  0  0  0  0  0
   -3.1235    1.5497   -0.6747 C   0  0  0  0  0  0  0  0  0  0  0  0
   -2.9834    2.6463    6.4772 N   0  3  0  0  0  0  0  0  0  0  0  0
   -6.3750    5.4194   -2.2057 O   0  0  0  0  0  0  0  0  0  0  0  0
   -6.8664   -1.5015   -1.4279 O   0  0  0  0  0  0  0  0  0  0  0  0
   -5.4734    0.6167    0.7287 O   0  0  0  0  0  0  0  0  0  0  0  0
  -10.5139    4.5236    0.9043 O   0  0  0  0  0  0  0  0  0  0  0  0
   -7.5846    5.4093    3.6698 O   0  0  0  0  0  0  0  0  0  0  0  0
   -2.4865    0.4436    0.0635 N   0  3  0  0  0  0  0  0  0  0  0  0
   -8.1779    0.3871   -3.1980 N   0  3  0  0  0  0  0  0  0  0  0  0
  1  2  1  6  0  0  0
  1  3  1  0  0  0  0
  1 10  1  0  0  0  0
  3  4  1  6  0  0  0
  3  5  1  0  0  0  0
  5  6  1  1  0  0  0
  5  7  1  0  0  0  0
  7  8  1  6  0  0  0
  7  9  1  0  0  0  0
  9 10  1  0  0  0  0
  9 11  1  1  0  0  0
 11 35  1  0  0  0  0
 12 13  1  6  0  0  0
 12 14  1  0  0  0  0
 12 20  1  0  0  0  0
 14 15  1  0  0  0  0
 14 40  1  1  0  0  0
 15 16  1  6  0  0  0
 15 17  1  0  0  0  0
 17  2  1  1  0  0  0
 17 18  1  0  0  0  0
 18 19  1  6  0  0  0
 18 20  1  0  0  0  0
 21 16  1  1  0  0  0
 21 22  1  0  0  0  0
 21 25  1  0  0  0  0
 22 23  1  0  0  0  0
 22 36  1  6  0  0  0
 23 24  1  0  0  0  0
 23 31  1  6  0  0  0
 24 25  1  0  0  0  0
 24 26  1  1  0  0  0
 26 39  1  0  0  0  0
 27 28  1  0  0  0  0
 27 32  1  0  0  0  0
 27 38  1  1  0  0  0
 28 29  1  0  0  0  0
 28 37  1  6  0  0  0
 29 30  1  0  0  0  0
 29 42  1  1  0  0  0
 30 31  1  1  0  0  0
 30 33  1  0  0  0  0
 32 33  1  0  0  0  0
 32 34  1  1  0  0  0
 34 41  1  0  0  0  0
M  CHG  6   4   1  13   1  19   1  35   1  41   1  42   1
M  END
>  <CHROM.1>
-174.72191472,-47.62038040,-43.81854089,179.21433440,-178.63454802,-76.17872038
62.65934933,171.76425121,68.81595918,59.31944158,160.10740242,-93.66001838
-60.55812301,63.63693710,-173.81038942,-57.16362571,65.97481960,59.53870702
-71.42984471,120.35711702,39.44464160,83.97519222,-5.07663675,3.93553047
1.21985931,-1.09309420,0.44761032,-2.54376934

>  <Name>


>  <RI>
0

>  <Rbt.Current_Directory>
/home/itssahil/PROJECTS/Mol_Feturizer/New_Systems/rnas/1ei2

>  <Rbt.Executable>
rbdock ($Id: //depot/dev/client3/rdock/2013.1/src/exe/rbdock.cxx#4 $)

>  <Rbt.Library>
libRbt.so (2013.1, Build901 2013/11/27)

>  <Rbt.Parameter_File>
/export/apps/rDock/src/rDock_2013.1_src/data/scripts/dock_solv.prm

>  <Rbt.Receptor>
prm/pocket_docking_8.prm

>  <SCORE>
-58.1918

>  <SCORE.INTER>
-38.1119

>  <SCORE.INTER.CONST>
1

>  <SCORE.INTER.POLAR>
-7.63469

>  <SCORE.INTER.ROT>
9

>  <SCORE.INTER.SOLV>
29.1316

>  <SCORE.INTER.VDW>
-19.2695

>  <SCORE.INTER.norm>
-0.907425

>  <SCORE.INTRA>
-20.08

>  <SCORE.INTRA.DIHEDRAL>
-22.632

>  <SCORE.INTRA.DIHEDRAL.0>
40.8761

>  <SCORE.INTRA.POLAR>
-1.23366

>  <SCORE.INTRA.POLAR.0>
-0.0268208

>  <SCORE.INTRA.REPUL>
-0.566047

>  <SCORE.INTRA.REPUL.0>
0.641615

>  <SCORE.INTRA.SOLV>
-9.54006

>  <SCORE.INTRA.SOLV.lig_0>
-162.567

>  <SCORE.INTRA.VDW>
3.03075

>  <SCORE.INTRA.VDW.0>
-4.80338

>  <SCORE.INTRA.norm>
-0.478094

>  <SCORE.RESTR>
0

>  <SCORE.RESTR.CAVITY>
0

>  <SCORE.RESTR.norm>
0

>  <SCORE.SYSTEM>
0

>  <SCORE.SYSTEM.CONST>
0

>  <SCORE.SYSTEM.DIHEDRAL>
0

>  <SCORE.SYSTEM.SOLV>
0

>  <SCORE.SYSTEM.norm>
0

>  <SCORE.heavy>
42

>  <SCORE.norm>
-1.38552

>  <RMSD>
6.310

$$$$

 OpenBabel11021811393D
libRbt.so/2013.1/901 2013/11/27
 42 45  0  0  0  0  0  0  0  0999 V2000
   -4.1967    2.0798    0.6149 C   0  0  2  0  0  0  0  0  0  0  0  0
   -4.2302    1.7100   -0.7978 O   0  0  0  0  0  0  0  0  0  0  0  0
   -4.1391    3.6307    0.8029 C   0  0  2  0  0  0  0  0  0  0  0  0
   -4.4854    4.3462   -0.4466 N   0  3  0  0  0  0  0  0  0  0  0  0
   -2.7341    4.0712    1.3137 C   0  0  1  0  0  0  0  0  0  0  0  0
   -2.6970    5.4856    1.4910 O   0  0  0  0  0  0  0  0  0  0  0  0
   -2.3743    3.3963    2.6645 C   0  0  2  0  0  0  0  0  0  0  0  0
   -0.9908    3.6049    2.9252 O   0  0  0  0  0  0  0  0  0  0  0  0
   -2.6891    1.8655    2.6354 C   0  0  2  0  0  0  0  0  0  0  0  0
   -3.0466    1.4504    1.2769 O   0  0  0  0  0  0  0  0  0  0  0  0
   -3.8604    1.4340    3.5477 C   0  0  0  0  0  0  0  0  0  0  0  0
   -4.2954   -1.7050   -3.4347 C   0  0  1  0  0  0  0  0  0  0  0  0
   -4.1155   -3.0608   -4.0004 N   0  3  0  0  0  0  0  0  0  0  0  0
   -5.3237   -1.7048   -2.2733 C   0  0  1  0  0  0  0  0  0  0  0  0
   -5.4445   -0.3257   -1.5361 C   0  0  1  0  0  0  0  0  0  0  0  0
   -6.1708   -0.5364   -0.2955 O   0  0  0  0  0  0  0  0  0  0  0  0
   -4.0526    0.3086   -1.1693 C   0  0  1  0  0  0  0  0  0  0  0  0
   -3.0500    0.2541   -2.3671 C   0  0  1  0  0  0  0  0  0  0  0  0
   -1.6997    0.7117   -1.9812 N   0  3  0  0  0  0  0  0  0  0  0  0
   -2.9306   -1.1712   -2.9520 C   0  0  0  0  0  0  0  0  0  0  0  0
   -7.2789    0.3454    0.0469 C   0  0  1  0  0  0  0  0  0  0  0  0
   -6.9816    1.7349   -0.5042 C   0  0  1  0  0  0  0  0  0  0  0  0
   -7.3864    1.5366   -1.9586 C   0  0  1  0  0  0  0  0  0  0  0  0
   -8.6650    0.6991   -1.8134 C   0  0  2  0  0  0  0  0  0  0  0  0
   -8.4772   -0.0913   -0.6152 O   0  0  0  0  0  0  0  0  0  0  0  0
   -8.9225   -0.2209   -3.0203 C   0  0  0  0  0  0  0  0  0  0  0  0
   -8.2245    3.0779   -6.4061 C   0  0  1  0  0  0  0  0  0  0  0  0
   -8.4506    4.2234   -5.3804 C   0  0  1  0  0  0  0  0  0  0  0  0
   -7.2435    4.4734   -4.4309 C   0  0  2  0  0  0  0  0  0  0  0  0
   -6.7820    3.1482   -3.7436 C   0  0  1  0  0  0  0  0  0  0  0  0
   -7.6439    2.8082   -2.6208 O   0  0  0  0  0  0  0  0  0  0  0  0
   -6.8742    2.3480   -6.1334 C   0  0  1  0  0  0  0  0  0  0  0  0
   -6.7706    2.0243   -4.7082 O   0  0  0  0  0  0  0  0  0  0  0  0
   -6.7251    1.0478   -6.9648 C   0  0  0  0  0  0  0  0  0  0  0  0
   -3.5635    1.4939    4.9897 N   0  3  0  0  0  0  0  0  0  0  0  0
   -7.8120    2.6992    0.1433 O   0  0  0  0  0  0  0  0  0  0  0  0
   -8.7191    5.4256   -6.1010 O   0  0  0  0  0  0  0  0  0  0  0  0
   -9.3122    2.1566   -6.3016 O   0  0  0  0  0  0  0  0  0  0  0  0
  -10.1456   -0.9209   -2.8702 O   0  0  0  0  0  0  0  0  0  0  0  0
   -6.6051   -2.0556   -2.7952 O   0  0  0  0  0  0  0  0  0  0  0  0
   -5.3674    0.4768   -6.8978 N   0  3  0  0  0  0  0  0  0  0  0  0
   -7.5366    5.5514   -3.4540 N   0  3  0  0  0  0  0  0  0  0  0  0
  1  2  1  6  0  0  0
  1  3  1  0  0  0  0
  1 10  1  0  0  0  0
  3  4  1  6  0  0  0
  3  5  1  0  0  0  0
  5  6  1  1  0  0  0
  5  7  1  0  0  0  0
  7  8  1  6  0  0  0
  7  9  1  0  0  0  0
  9 10  1  0  0  0  0
  9 11  1  1  0  0  0
 11 35  1  0  0  0  0
 12 13  1  1  0  0  0
 12 14  1  0  0  0  0
 12 20  1  0  0  0  0
 14 15  1  0  0  0  0
 14 40  1  6  0  0  0
 15 16  1  1  0  0  0
 15 17  1  0  0  0  0
 17  2  1  6  0  0  0
 17 18  1  0  0  0  0
 18 19  1  1  0  0  0
 18 20  1  0  0  0  0
 21 16  1  6  0  0  0
 21 22  1  0  0  0  0
 21 25  1  0  0  0  0
 22 23  1  0  0  0  0
 22 36  1  1  0  0  0
 23 24  1  0  0  0  0
 23 31  1  1  0  0  0
 24 25  1  0  0  0  0
 24 26  1  6  0  0  0
 26 39  1  0  0  0  0
 27 28  1  0  0  0  0
 27 32  1  0  0  0  0
 27 38  1  1  0  0  0
 28 29  1  0  0  0  0
 28 37  1  6  0  0  0
 29 30  1  0  0  0  0
 29 42  1  1  0  0  0
 30 31  1  1  0  0  0
 30 33  1  0  0  0  0
 32 33  1  0  0  0  0
 32 34  1  6  0  0  0
 34 41  1  0  0  0  0
M  CHG  6   4   1  13   1  19   1  35   1  41   1  42   1
M  END
>  <CHROM.1>
169.50898433,102.88264457,-149.83102334,61.88865991,65.00639140,-70.96477655
174.52899093,-43.71008470,-179.25933409,-131.46404771,-32.49978313,-55.33062841
36.02632074,117.50728854,-177.03321504,144.50999463,66.70444277,173.49315279
53.37773397,175.23673873,169.92330776,-37.90921453,-5.67483074,1.63021427
-1.79555356,0.32915320,-0.94454468,0.31751971

>  <Name>


>  <RI>
0

>  <Rbt.Current_Directory>
/home/itssahil/PROJECTS/Mol_Feturizer/New_Systems/rnas/1ei2

>  <Rbt.Executable>
rbdock ($Id: //depot/dev/client3/rdock/2013.1/src/exe/rbdock.cxx#4 $)

>  <Rbt.Library>
libRbt.so (2013.1, Build901 2013/11/27)

>  <Rbt.Parameter_File>
/export/apps/rDock/src/rDock_2013.1_src/data/scripts/dock_solv.prm

>  <Rbt.Receptor>
prm/pocket_docking_8.prm

>  <SCORE>
-44.209

>  <SCORE.INTER>
-33.4049

>  <SCORE.INTER.CONST>
1

>  <SCORE.INTER.POLAR>
-6.19157

>  <SCORE.INTER.ROT>
9

>  <SCORE.INTER.SOLV>
26.3594

>  <SCORE.INTER.VDW>
-20.0178

>  <SCORE.INTER.norm>
-0.795355

>  <SCORE.INTRA>
-10.8119

>  <SCORE.INTRA.DIHEDRAL>
-4.72804

>  <SCORE.INTRA.DIHEDRAL.0>
40.8761

>  <SCORE.INTRA.POLAR>
-0.288529

>  <SCORE.INTRA.POLAR.0>
-0.0268208

>  <SCORE.INTRA.REPUL>
-0.641615

>  <SCORE.INTRA.REPUL.0>
0.641615

>  <SCORE.INTRA.SOLV>
-9.71187

>  <SCORE.INTRA.SOLV.lig_0>
-162.567

>  <SCORE.INTRA.VDW>
0.597119

>  <SCORE.INTRA.VDW.0>
-4.80338

>  <SCORE.INTRA.norm>
-0.257426

>  <SCORE.RESTR>
0.00782525

>  <SCORE.RESTR.CAVITY>
0.00782525

>  <SCORE.RESTR.norm>
0.000186316

>  <SCORE.SYSTEM>
0

>  <SCORE.SYSTEM.CONST>
0

>  <SCORE.SYSTEM.DIHEDRAL>
0

>  <SCORE.SYSTEM.SOLV>
0

>  <SCORE.SYSTEM.norm>
0

>  <SCORE.heavy>
42

>  <SCORE.norm>
-1.05259

>  <RMSD>
6.313

$$$$

 OpenBabel11021811393D
libRbt.so/2013.1/901 2013/11/27
 42 45  0  0  0  0  0  0  0  0999 V2000
   -7.7653    3.5793   -3.0834 C   0  0  2  0  0  0  0  0  0  0  0  0
   -7.1918    4.6182   -3.9350 O   0  0  0  0  0  0  0  0  0  0  0  0
   -9.3205    3.5106   -3.2270 C   0  0  2  0  0  0  0  0  0  0  0  0
   -9.7923    4.2468   -4.4222 N   0  3  0  0  0  0  0  0  0  0  0  0
  -10.0163    4.0515   -1.9416 C   0  0  1  0  0  0  0  0  0  0  0  0
  -11.4334    3.9744   -2.0804 O   0  0  0  0  0  0  0  0  0  0  0  0
   -9.6008    3.2485   -0.6799 C   0  0  2  0  0  0  0  0  0  0  0  0
  -10.0298    3.9594    0.4760 O   0  0  0  0  0  0  0  0  0  0  0  0
   -8.0539    3.0295   -0.6308 C   0  0  2  0  0  0  0  0  0  0  0  0
   -7.4004    3.8147   -1.6803 O   0  0  0  0  0  0  0  0  0  0  0  0
   -7.6066    1.5640   -0.8373 C   0  0  0  0  0  0  0  0  0  0  0  0
   -5.0479    2.3304   -6.8998 C   0  0  1  0  0  0  0  0  0  0  0  0
   -4.0379    1.8821   -7.8843 N   0  3  0  0  0  0  0  0  0  0  0  0
   -4.4907    2.2871   -5.4528 C   0  0  1  0  0  0  0  0  0  0  0  0
   -5.4639    2.8925   -4.3821 C   0  0  1  0  0  0  0  0  0  0  0  0
   -4.7173    3.0925   -3.1518 O   0  0  0  0  0  0  0  0  0  0  0  0
   -6.0660    4.2833   -4.8032 C   0  0  1  0  0  0  0  0  0  0  0  0
   -6.5843    4.2751   -6.2778 C   0  0  1  0  0  0  0  0  0  0  0  0
   -7.0122    5.6171   -6.7226 N   0  3  0  0  0  0  0  0  0  0  0  0
   -5.5107    3.7572   -7.2612 C   0  0  0  0  0  0  0  0  0  0  0  0
   -3.5473    3.9607   -3.1545 C   0  0  1  0  0  0  0  0  0  0  0  0
   -3.1331    4.2213   -1.7111 C   0  0  1  0  0  0  0  0  0  0  0  0
   -2.3709    2.9365   -1.4167 C   0  0  1  0  0  0  0  0  0  0  0  0
   -1.5969    2.7280   -2.7262 C   0  0  2  0  0  0  0  0  0  0  0  0
   -2.4358    3.2855   -3.7659 O   0  0  0  0  0  0  0  0  0  0  0  0
   -1.3011    1.2465   -3.0214 C   0  0  0  0  0  0  0  0  0  0  0  0
   -3.2381    2.2863    3.0362 C   0  0  1  0  0  0  0  0  0  0  0  0
   -1.6990    2.3114    2.8218 C   0  0  1  0  0  0  0  0  0  0  0  0
   -1.1736    3.6084    2.1415 C   0  0  2  0  0  0  0  0  0  0  0  0
   -1.9581    3.9130    0.8248 C   0  0  1  0  0  0  0  0  0  0  0  0
   -1.4764    3.0936   -0.2778 O   0  0  0  0  0  0  0  0  0  0  0  0
   -3.9107    3.5267    2.3735 C   0  0  1  0  0  0  0  0  0  0  0  0
   -3.4102    3.6837    1.0055 O   0  0  0  0  0  0  0  0  0  0  0  0
   -5.4569    3.4163    2.3423 C   0  0  0  0  0  0  0  0  0  0  0  0
   -8.5345    0.5603   -0.2871 N   0  3  0  0  0  0  0  0  0  0  0  0
   -2.2771    5.3626   -1.6528 O   0  0  0  0  0  0  0  0  0  0  0  0
   -1.0657    2.1762    4.0934 O   0  0  0  0  0  0  0  0  0  0  0  0
   -3.7543    1.0821    2.4647 O   0  0  0  0  0  0  0  0  0  0  0  0
   -0.6964    1.0958   -4.2943 O   0  0  0  0  0  0  0  0  0  0  0  0
   -4.2203    0.9292   -5.1058 O   0  0  0  0  0  0  0  0  0  0  0  0
   -6.0805    3.7292    3.6412 N   0  3  0  0  0  0  0  0  0  0  0  0
    0.2945    3.5538    1.9319 N   0  3  0  0  0  0  0  0  0  0  0  0
  1  2  1  6  0  0  0
  1  3  1  0  0  0  0
  1 10  1  0  0  0  0
  3  4  1  6  0  0  0
  3  5  1  0  0  0  0
  5  6  1  6  0  0  0
  5  7  1  0  0  0  0
  7  8  1  1  0  0  0
  7  9  1  0  0  0  0
  9 10  1  0  0  0  0
  9 11  1  6  0  0  0
 11 35  1  0  0  0  0
 12 13  1  6  0  0  0
 12 14  1  0  0  0  0
 12 20  1  0  0  0  0
 14 15  1  0  0  0  0
 14 40  1  1  0  0  0
 15 16  1  1  0  0  0
 15 17  1  0  0  0  0
 17  2  1  1  0  0  0
 17 18  1  0  0  0  0
 18 19  1  6  0  0  0
 18 20  1  0  0  0  0
 21 16  1  1  0  0  0
 21 22  1  0  0  0  0
 21 25  1  0  0  0  0
 22 23  1  0  0  0  0
 22 36  1  6  0  0  0
 23 24  1  0  0  0  0
 23 31  1  1  0  0  0
 24 25  1  0  0  0  0
 24 26  1  6  0  0  0
 26 39  1  0  0  0  0
 27 28  1  0  0  0  0
 27 32  1  0  0  0  0
 27 38  1  6  0  0  0
 28 29  1  0  0  0  0
 28 37  1  1  0  0  0
 29 30  1  0  0  0  0
 29 42  1  6  0  0  0
 30 31  1  6  0  0  0
 30 33  1  0  0  0  0
 32 33  1  0  0  0  0
 32 34  1  6  0  0  0
 34 41  1  0  0  0  0
M  CHG  6   4   1  13   1  19   1  35   1  41   1  42   1
M  END
>  <CHROM.1>
-130.07316208,-13.56617534,56.53659446,-173.95376750,67.98727626,-33.89692951
-176.53402775,66.07046428,-57.08059475,59.16839290,168.48832063,58.58873657
65.83777207,37.45597218,174.63649858,-177.81775559,66.83128798,69.22878040
-81.43976283,160.16509588,78.35617253,49.88345984,-5.01517779,3.14777070
-1.78431457,2.25420172,0.11559730,-1.55589825

>  <Name>


>  <RI>
0

>  <Rbt.Current_Directory>
/home/itssahil/PROJECTS/Mol_Feturizer/New_Systems/rnas/1ei2

>  <Rbt.Executable>
rbdock ($Id: //depot/dev/client3/rdock/2013.1/src/exe/rbdock.cxx#4 $)

>  <Rbt.Library>
libRbt.so (2013.1, Build901 2013/11/27)

>  <Rbt.Parameter_File>
/export/apps/rDock/src/rDock_2013.1_src/data/scripts/dock_solv.prm

>  <Rbt.Receptor>
prm/pocket_docking_3.prm

>  <SCORE>
-45.454

>  <SCORE.INTER>
-31.1491

>  <SCORE.INTER.CONST>
1

>  <SCORE.INTER.POLAR>
-5.14195

>  <SCORE.INTER.ROT>
9

>  <SCORE.INTER.SOLV>
29.534

>  <SCORE.INTER.VDW>
-23.0709

>  <SCORE.INTER.norm>
-0.741646

>  <SCORE.INTRA>
-14.9997

>  <SCORE.INTRA.DIHEDRAL>
-16.4547

>  <SCORE.INTRA.DIHEDRAL.0>
40.8761

>  <SCORE.INTRA.POLAR>
0.0266526

>  <SCORE.INTRA.POLAR.0>
-0.0268208

>  <SCORE.INTRA.REPUL>
-0.640739

>  <SCORE.INTRA.REPUL.0>
0.641615

>  <SCORE.INTRA.SOLV>
-10.8612

>  <SCORE.INTRA.SOLV.lig_0>
-162.567

>  <SCORE.INTRA.VDW>
1.77127

>  <SCORE.INTRA.VDW.0>
-4.80338

>  <SCORE.INTRA.norm>
-0.357137

>  <SCORE.RESTR>
0.694906

>  <SCORE.RESTR.CAVITY>
0.694906

>  <SCORE.RESTR.norm>
0.0165454

>  <SCORE.SYSTEM>
0

>  <SCORE.SYSTEM.CONST>
0

>  <SCORE.SYSTEM.DIHEDRAL>
0

>  <SCORE.SYSTEM.SOLV>
0

>  <SCORE.SYSTEM.norm>
0

>  <SCORE.heavy>
42

>  <SCORE.norm>
-1.08224

>  <RMSD>
6.340

$$$$

 OpenBabel11021811393D
libRbt.so/2013.1/901 2013/11/27
 42 45  0  0  0  0  0  0  0  0999 V2000
   -7.6800    4.0140   -3.0519 C   0  0  2  0  0  0  0  0  0  0  0  0
   -7.4630    4.4220   -4.4376 O   0  0  0  0  0  0  0  0  0  0  0  0
   -9.1254    4.3622   -2.5688 C   0  0  2  0  0  0  0  0  0  0  0  0
  -10.0188    4.6851   -3.7049 N   0  3  0  0  0  0  0  0  0  0  0  0
   -9.0955    5.5374   -1.5457 C   0  0  1  0  0  0  0  0  0  0  0  0
  -10.4176    5.8390   -1.1048 O   0  0  0  0  0  0  0  0  0  0  0  0
   -8.2279    5.1986   -0.3039 C   0  0  2  0  0  0  0  0  0  0  0  0
   -8.0052    6.3929    0.4376 O   0  0  0  0  0  0  0  0  0  0  0  0
   -6.8614    4.5652   -0.7223 C   0  0  2  0  0  0  0  0  0  0  0  0
   -6.6898    4.6515   -2.1743 O   0  0  0  0  0  0  0  0  0  0  0  0
   -6.7058    3.0725   -0.3508 C   0  0  0  0  0  0  0  0  0  0  0  0
   -4.9737    1.8680   -6.8666 C   0  0  1  0  0  0  0  0  0  0  0  0
   -3.8485    1.3307   -7.6639 N   0  3  0  0  0  0  0  0  0  0  0  0
   -4.6100    1.9643   -5.3618 C   0  0  1  0  0  0  0  0  0  0  0  0
   -5.7084    2.6663   -4.4896 C   0  0  1  0  0  0  0  0  0  0  0  0
   -5.1265    2.9847   -3.1969 O   0  0  0  0  0  0  0  0  0  0  0  0
   -6.2370    4.0090   -5.1157 C   0  0  1  0  0  0  0  0  0  0  0  0
   -6.5590    3.8588   -6.6378 C   0  0  1  0  0  0  0  0  0  0  0  0
   -6.9123    5.1510   -7.2599 N   0  3  0  0  0  0  0  0  0  0  0  0
   -5.3717    3.2525   -7.4191 C   0  0  0  0  0  0  0  0  0  0  0  0
   -4.0485    3.9614   -3.1153 C   0  0  1  0  0  0  0  0  0  0  0  0
   -3.7933    4.2810   -1.6471 C   0  0  1  0  0  0  0  0  0  0  0  0
   -2.9426    3.0797   -1.2573 C   0  0  1  0  0  0  0  0  0  0  0  0
   -2.0370    2.9285   -2.4878 C   0  0  2  0  0  0  0  0  0  0  0  0
   -2.8273    3.3881   -3.6102 O   0  0  0  0  0  0  0  0  0  0  0  0
   -1.5767    1.4785   -2.7221 C   0  0  0  0  0  0  0  0  0  0  0  0
   -2.5289    2.3093    3.6342 C   0  0  1  0  0  0  0  0  0  0  0  0
   -1.4039    3.2154    3.0610 C   0  0  1  0  0  0  0  0  0  0  0  0
   -1.9217    4.3989    2.1935 C   0  0  2  0  0  0  0  0  0  0  0  0
   -2.9004    3.8988    1.0828 C   0  0  1  0  0  0  0  0  0  0  0  0
   -2.1738    3.3382   -0.0473 O   0  0  0  0  0  0  0  0  0  0  0  0
   -3.9204    2.7292    3.0706 C   0  0  1  0  0  0  0  0  0  0  0  0
   -3.8350    2.8809    1.6159 O   0  0  0  0  0  0  0  0  0  0  0  0
   -5.0322    1.7041    3.4130 C   0  0  0  0  0  0  0  0  0  0  0  0
   -7.9765    2.3323   -0.2567 N   0  3  0  0  0  0  0  0  0  0  0  0
   -3.0581    5.5001   -1.5388 O   0  0  0  0  0  0  0  0  0  0  0  0
   -0.6538    3.7460    4.1529 O   0  0  0  0  0  0  0  0  0  0  0  0
   -2.2424    0.9545    3.2798 O   0  0  0  0  0  0  0  0  0  0  0  0
   -0.4953    1.1473   -1.8679 O   0  0  0  0  0  0  0  0  0  0  0  0
   -4.4003    0.6464   -4.8553 O   0  0  0  0  0  0  0  0  0  0  0  0
   -5.5723    1.0245    2.2212 N   0  3  0  0  0  0  0  0  0  0  0  0
   -0.7996    5.2016    1.6468 N   0  3  0  0  0  0  0  0  0  0  0  0
  1  2  1  6  0  0  0
  1  3  1  0  0  0  0
  1 10  1  0  0  0  0
  3  4  1  6  0  0  0
  3  5  1  0  0  0  0
  5  6  1  1  0  0  0
  5  7  1  0  0  0  0
  7  8  1  6  0  0  0
  7  9  1  0  0  0  0
  9 10  1  0  0  0  0
  9 11  1  6  0  0  0
 11 35  1  0  0  0  0
 12 13  1  6  0  0  0
 12 14  1  0  0  0  0
 12 20  1  0  0  0  0
 14 15  1  0  0  0  0
 14 40  1  1  0  0  0
 15 16  1  1  0  0  0
 15 17  1  0  0  0  0
 17  2  1  1  0  0  0
 17 18  1  0  0  0  0
 18 19  1  6  0  0  0
 18 20  1  0  0  0  0
 21 16  1  1  0  0  0
 21 22  1  0  0  0  0
 21 25  1  0  0  0  0
 22 23  1  0  0  0  0
 22 36  1  6  0  0  0
 23 24  1  0  0  0  0
 23 31  1  1  0  0  0
 24 25  1  0  0  0  0
 24 26  1  6  0  0  0
 26 39  1  0  0  0  0
 27 28  1  0  0  0  0
 27 32  1  0  0  0  0
 27 38  1  6  0  0  0
 28 29  1  0  0  0  0
 28 37  1  1  0  0  0
 29 30  1  0  0  0  0
 29 42  1  6  0  0  0
 30 31  1  6  0  0  0
 30 33  1  0  0  0  0
 32 33  1  0  0  0  0
 32 34  1  6  0  0  0
 34 41  1  0  0  0  0
M  CHG  6   4   1  13   1  19   1  35   1  41   1  42   1
M  END
>  <CHROM.1>
-171.47208492,27.29241906,-3.70493892,179.34220925,175.16892202,26.87799388
-100.11800304,-65.94915336,-54.81023619,65.63532127,170.37040636,-66.73303259
-52.99033790,48.61479088,-79.98935287,-78.22991652,69.39052670,-54.20603060
-60.04187999,-168.18704281,-114.01254720,-8.75654311,-4.89540810,3.42347419
-1.59523181,2.13128651,0.34870407,-1.68112972

>  <Name>


>  <RI>
0

>  <Rbt.Current_Directory>
/home/itssahil/PROJECTS/Mol_Feturizer/New_Systems/rnas/1ei2

>  <Rbt.Executable>
rbdock ($Id: //depot/dev/client3/rdock/2013.1/src/exe/rbdock.cxx#4 $)

>  <Rbt.Library>
libRbt.so (2013.1, Build901 2013/11/27)

>  <Rbt.Parameter_File>
/export/apps/rDock/src/rDock_2013.1_src/data/scripts/dock_solv.prm

>  <Rbt.Receptor>
prm/pocket_docking_4.prm

>  <SCORE>
-50.1903

>  <SCORE.INTER>
-37.9602

>  <SCORE.INTER.CONST>
1

>  <SCORE.INTER.POLAR>
-7.38686

>  <SCORE.INTER.ROT>
9

>  <SCORE.INTER.SOLV>
22.3964

>  <SCORE.INTER.VDW>
-17.7494

>  <SCORE.INTER.norm>
-0.903815

>  <SCORE.INTRA>
-12.4514

>  <SCORE.INTRA.DIHEDRAL>
-11.8114

>  <SCORE.INTRA.DIHEDRAL.0>
40.8761

>  <SCORE.INTRA.POLAR>
-0.810342

>  <SCORE.INTRA.POLAR.0>
-0.0268208

>  <SCORE.INTRA.REPUL>
-0.641615

>  <SCORE.INTRA.REPUL.0>
0.641615

>  <SCORE.INTRA.SOLV>
-4.87036

>  <SCORE.INTRA.SOLV.lig_0>
-162.567

>  <SCORE.INTRA.VDW>
1.85266

>  <SCORE.INTRA.VDW.0>
-4.80338

>  <SCORE.INTRA.norm>
-0.296463

>  <SCORE.RESTR>
0.221316

>  <SCORE.RESTR.CAVITY>
0.221316

>  <SCORE.RESTR.norm>
0.00526944

>  <SCORE.SYSTEM>
0

>  <SCORE.SYSTEM.CONST>
0

>  <SCORE.SYSTEM.DIHEDRAL>
0

>  <SCORE.SYSTEM.SOLV>
0

>  <SCORE.SYSTEM.norm>
0

>  <SCORE.heavy>
42

>  <SCORE.norm>
-1.19501

>  <RMSD>
6.354

$$$$

 OpenBabel11021811393D
libRbt.so/2013.1/901 2013/11/27
 42 45  0  0  0  0  0  0  0  0999 V2000
   -3.8086    2.7554   -2.0316 C   0  0  2  0  0  0  0  0  0  0  0  0
   -3.4618    1.8059   -0.9772 O   0  0  0  0  0  0  0  0  0  0  0  0
   -4.0281    2.0379   -3.4031 C   0  0  2  0  0  0  0  0  0  0  0  0
   -4.1818    0.5745   -3.2362 N   0  3  0  0  0  0  0  0  0  0  0  0
   -2.8597    2.3566   -4.3840 C   0  0  1  0  0  0  0  0  0  0  0  0
   -3.0760    1.7054   -5.6340 O   0  0  0  0  0  0  0  0  0  0  0  0
   -2.7222    3.8813   -4.6407 C   0  0  2  0  0  0  0  0  0  0  0  0
   -1.4824    4.1244   -5.2960 O   0  0  0  0  0  0  0  0  0  0  0  0
   -2.7895    4.6898   -3.3046 C   0  0  2  0  0  0  0  0  0  0  0  0
   -2.7600    3.7757   -2.1606 O   0  0  0  0  0  0  0  0  0  0  0  0
   -4.0606    5.5547   -3.1415 C   0  0  0  0  0  0  0  0  0  0  0  0
   -3.7087    1.3426    3.3058 C   0  0  1  0  0  0  0  0  0  0  0  0
   -3.6836    1.6049    4.7622 N   0  3  0  0  0  0  0  0  0  0  0  0
   -4.8927    2.0702    2.6167 C   0  0  1  0  0  0  0  0  0  0  0  0
   -4.8836    1.9517    1.0528 C   0  0  1  0  0  0  0  0  0  0  0  0
   -5.8243    2.9217    0.5188 O   0  0  0  0  0  0  0  0  0  0  0  0
   -3.4781    2.2521    0.4135 C   0  0  1  0  0  0  0  0  0  0  0  0
   -2.3228    1.5160    1.1662 C   0  0  1  0  0  0  0  0  0  0  0  0
   -0.9920    1.9126    0.6627 N   0  3  0  0  0  0  0  0  0  0  0  0
   -2.3658    1.7839    2.6874 C   0  0  0  0  0  0  0  0  0  0  0  0
   -5.4899    4.3394    0.5499 C   0  0  1  0  0  0  0  0  0  0  0  0
   -6.0965    5.0083   -0.6779 C   0  0  1  0  0  0  0  0  0  0  0  0
   -7.5339    5.1786   -0.2053 C   0  0  1  0  0  0  0  0  0  0  0  0
   -7.3315    5.6124    1.2535 C   0  0  2  0  0  0  0  0  0  0  0  0
   -6.1102    4.9658    1.6848 O   0  0  0  0  0  0  0  0  0  0  0  0
   -8.4989    5.2052    2.1703 C   0  0  0  0  0  0  0  0  0  0  0  0
   -9.2793    2.7681   -2.3638 C   0  0  1  0  0  0  0  0  0  0  0  0
  -10.1733    3.6932   -1.4919 C   0  0  1  0  0  0  0  0  0  0  0  0
  -10.2587    5.1602   -2.0037 C   0  0  2  0  0  0  0  0  0  0  0  0
   -8.8349    5.7615   -2.2341 C   0  0  1  0  0  0  0  0  0  0  0  0
   -8.2353    6.1935   -0.9799 O   0  0  0  0  0  0  0  0  0  0  0  0
   -8.5557    3.5849   -3.4771 C   0  0  1  0  0  0  0  0  0  0  0  0
   -7.9417    4.7783   -2.8893 O   0  0  0  0  0  0  0  0  0  0  0  0
   -7.4668    2.7568   -4.2067 C   0  0  0  0  0  0  0  0  0  0  0  0
   -5.2134    5.1001   -3.9389 N   0  3  0  0  0  0  0  0  0  0  0  0
   -5.4661    6.2697   -0.9017 O   0  0  0  0  0  0  0  0  0  0  0  0
  -11.4906    3.1453   -1.4598 O   0  0  0  0  0  0  0  0  0  0  0  0
   -8.3195    2.1358   -1.5141 O   0  0  0  0  0  0  0  0  0  0  0  0
   -9.7218    5.7478    1.7025 O   0  0  0  0  0  0  0  0  0  0  0  0
   -6.1160    1.5222    3.1074 O   0  0  0  0  0  0  0  0  0  0  0  0
   -8.0237    1.8504   -5.2276 N   0  3  0  0  0  0  0  0  0  0  0  0
  -11.0947    5.9985   -1.1090 N   0  3  0  0  0  0  0  0  0  0  0  0
  1  2  1  1  0  0  0
  1  3  1  0  0  0  0
  1 10  1  0  0  0  0
  3  4  1  1  0  0  0
  3  5  1  0  0  0  0
  5  6  1  6  0  0  0
  5  7  1  0  0  0  0
  7  8  1  1  0  0  0
  7  9  1  0  0  0  0
  9 10  1  0  0  0  0
  9 11  1  6  0  0  0
 11 35  1  0  0  0  0
 12 13  1  1  0  0  0
 12 14  1  0  0  0  0
 12 20  1  0  0  0  0
 14 15  1  0  0  0  0
 14 40  1  1  0  0  0
 15 16  1  6  0  0  0
 15 17  1  0  0  0  0
 17  2  1  6  0  0  0
 17 18  1  0  0  0  0
 18 19  1  6  0  0  0
 18 20  1  0  0  0  0
 21 16  1  6  0  0  0
 21 22  1  0  0  0  0
 21 25  1  0  0  0  0
 22 23  1  0  0  0  0
 22 36  1  1  0  0  0
 23 24  1  0  0  0  0
 23 31  1  6  0  0  0
 24 25  1  0  0  0  0
 24 26  1  1  0  0  0
 26 39  1  0  0  0  0
 27 28  1  0  0  0  0
 27 32  1  0  0  0  0
 27 38  1  1  0  0  0
 28 29  1  0  0  0  0
 28 37  1  6  0  0  0
 29 30  1  0  0  0  0
 29 42  1  1  0  0  0
 30 31  1  1  0  0  0
 30 33  1  0  0  0  0
 32 33  1  0  0  0  0
 32 34  1  1  0  0  0
 34 41  1  0  0  0  0
M  CHG  6   4   1  13   1  19   1  35   1  41   1  42   1
M  END
>  <CHROM.1>
-168.06242955,92.83842645,173.16254688,-58.26655468,170.91199271,23.44902893
-85.87567719,-62.56152840,-59.19843212,72.57567539,146.76092652,-56.59056253
-43.98345756,84.67786747,-57.76365413,-53.17731214,50.38745014,-69.01809931
64.80891975,85.12502313,79.74201900,-40.07761507,-5.84299033,3.50079556,-1.09144618
-0.05359925,0.33807155,-1.48690514

>  <Name>


>  <RI>
0

>  <Rbt.Current_Directory>
/home/itssahil/PROJECTS/Mol_Feturizer/New_Systems/rnas/1ei2

>  <Rbt.Executable>
rbdock ($Id: //depot/dev/client3/rdock/2013.1/src/exe/rbdock.cxx#4 $)

>  <Rbt.Library>
libRbt.so (2013.1, Build901 2013/11/27)

>  <Rbt.Parameter_File>
/export/apps/rDock/src/rDock_2013.1_src/data/scripts/dock_solv.prm

>  <Rbt.Receptor>
prm/pocket_docking_2.prm

>  <SCORE>
-37.4227

>  <SCORE.INTER>
-24.4736

>  <SCORE.INTER.CONST>
1

>  <SCORE.INTER.POLAR>
-3.2786

>  <SCORE.INTER.ROT>
9

>  <SCORE.INTER.SOLV>
19.8693

>  <SCORE.INTER.VDW>
-21.6102

>  <SCORE.INTER.norm>
-0.582705

>  <SCORE.INTRA>
-18.1973

>  <SCORE.INTRA.DIHEDRAL>
-15.1826

>  <SCORE.INTRA.DIHEDRAL.0>
40.8761

>  <SCORE.INTRA.POLAR>
-2.17204

>  <SCORE.INTRA.POLAR.0>
-0.0268208

>  <SCORE.INTRA.REPUL>
-0.0304005

>  <SCORE.INTRA.REPUL.0>
0.641615

>  <SCORE.INTRA.SOLV>
-1.24417

>  <SCORE.INTRA.SOLV.lig_0>
-162.567

>  <SCORE.INTRA.VDW>
-2.44695

>  <SCORE.INTRA.VDW.0>
-4.80338

>  <SCORE.INTRA.norm>
-0.433268

>  <SCORE.RESTR>
5.24815

>  <SCORE.RESTR.CAVITY>
5.24815

>  <SCORE.RESTR.norm>
0.124956

>  <SCORE.SYSTEM>
0

>  <SCORE.SYSTEM.CONST>
0

>  <SCORE.SYSTEM.DIHEDRAL>
0

>  <SCORE.SYSTEM.SOLV>
0

>  <SCORE.SYSTEM.norm>
0

>  <SCORE.heavy>
42

>  <SCORE.norm>
-0.891017

>  <RMSD>
6.370

$$$$

 OpenBabel11021811393D
libRbt.so/2013.1/901 2013/11/27
 42 45  0  0  0  0  0  0  0  0999 V2000
   -8.4471    3.1949   -4.8096 C   0  0  2  0  0  0  0  0  0  0  0  0
   -7.6501    4.2120   -5.4909 O   0  0  0  0  0  0  0  0  0  0  0  0
   -9.8380    3.7545   -4.3669 C   0  0  2  0  0  0  0  0  0  0  0  0
  -10.1512    5.0360   -5.0398 N   0  3  0  0  0  0  0  0  0  0  0  0
   -9.8964    3.9214   -2.8185 C   0  0  1  0  0  0  0  0  0  0  0  0
  -11.1725    4.4224   -2.4260 O   0  0  0  0  0  0  0  0  0  0  0  0
   -9.6486    2.5766   -2.0840 C   0  0  2  0  0  0  0  0  0  0  0  0
   -9.4269    2.8438   -0.7037 O   0  0  0  0  0  0  0  0  0  0  0  0
   -8.4215    1.8188   -2.6868 C   0  0  2  0  0  0  0  0  0  0  0  0
   -7.7194    2.6774   -3.6434 O   0  0  0  0  0  0  0  0  0  0  0  0
   -8.7790    0.5195   -3.4446 C   0  0  0  0  0  0  0  0  0  0  0  0
   -4.8028    1.5130   -7.2876 C   0  0  1  0  0  0  0  0  0  0  0  0
   -3.6152    0.9611   -7.9770 N   0  3  0  0  0  0  0  0  0  0  0  0
   -4.4383    2.0768   -5.8892 C   0  0  1  0  0  0  0  0  0  0  0  0
   -5.6262    2.8096   -5.1737 C   0  0  1  0  0  0  0  0  0  0  0  0
   -5.0870    3.5598   -4.0523 O   0  0  0  0  0  0  0  0  0  0  0  0
   -6.3823    3.8267   -6.1054 C   0  0  1  0  0  0  0  0  0  0  0  0
   -6.6969    3.2138   -7.5084 C   0  0  1  0  0  0  0  0  0  0  0  0
   -7.2717    4.2118   -8.4332 N   0  3  0  0  0  0  0  0  0  0  0  0
   -5.4361    2.6107   -8.1677 C   0  0  0  0  0  0  0  0  0  0  0  0
   -4.0431    4.5491   -4.2851 C   0  0  1  0  0  0  0  0  0  0  0  0
   -3.8438    5.3545   -3.0067 C   0  0  1  0  0  0  0  0  0  0  0  0
   -2.9688    4.3897   -2.2180 C   0  0  1  0  0  0  0  0  0  0  0  0
   -2.0209    3.8690   -3.3078 C   0  0  2  0  0  0  0  0  0  0  0  0
   -2.7898    3.8916   -4.5342 O   0  0  0  0  0  0  0  0  0  0  0  0
   -1.5086    2.4444   -3.0298 C   0  0  0  0  0  0  0  0  0  0  0  0
   -2.3140    2.4758    1.6758 C   0  0  1  0  0  0  0  0  0  0  0  0
   -1.2152    3.5567    1.4768 C   0  0  1  0  0  0  0  0  0  0  0  0
   -1.7690    4.9991    1.2925 C   0  0  2  0  0  0  0  0  0  0  0  0
   -2.8551    5.0477    0.1700 C   0  0  1  0  0  0  0  0  0  0  0  0
   -2.2465    5.0712   -1.1522 O   0  0  0  0  0  0  0  0  0  0  0  0
   -3.7353    3.0898    1.4936 C   0  0  1  0  0  0  0  0  0  0  0  0
   -3.7712    3.8878    0.2654 O   0  0  0  0  0  0  0  0  0  0  0  0
   -4.8446    2.0083    1.4327 C   0  0  0  0  0  0  0  0  0  0  0  0
   -9.1570   -0.6086   -2.5753 N   0  3  0  0  0  0  0  0  0  0  0  0
   -3.1507    6.5671   -3.3028 O   0  0  0  0  0  0  0  0  0  0  0  0
   -0.3575    3.5411    2.6172 O   0  0  0  0  0  0  0  0  0  0  0  0
   -2.1013    1.4341    0.7205 O   0  0  0  0  0  0  0  0  0  0  0  0
   -2.5737    1.5890   -2.6522 O   0  0  0  0  0  0  0  0  0  0  0  0
   -4.0024    0.9999   -5.0599 O   0  0  0  0  0  0  0  0  0  0  0  0
   -6.1900    2.5512    1.6955 N   0  3  0  0  0  0  0  0  0  0  0  0
   -0.6740    5.9757    1.0703 N   0  3  0  0  0  0  0  0  0  0  0  0
  1  2  1  1  0  0  0
  1  3  1  0  0  0  0
  1 10  1  0  0  0  0
  3  4  1  6  0  0  0
  3  5  1  0  0  0  0
  5  6  1  6  0  0  0
  5  7  1  0  0  0  0
  7  8  1  1  0  0  0
  7  9  1  0  0  0  0
  9 10  1  0  0  0  0
  9 11  1  6  0  0  0
 11 35  1  0  0  0  0
 12 13  1  6  0  0  0
 12 14  1  0  0  0  0
 12 20  1  0  0  0  0
 14 15  1  0  0  0  0
 14 40  1  1  0  0  0
 15 16  1  1  0  0  0
 15 17  1  0  0  0  0
 17  2  1  1  0  0  0
 17 18  1  0  0  0  0
 18 19  1  6  0  0  0
 18 20  1  0  0  0  0
 21 16  1  1  0  0  0
 21 22  1  0  0  0  0
 21 25  1  0  0  0  0
 22 23  1  0  0  0  0
 22 36  1  6  0  0  0
 23 24  1  0  0  0  0
 23 31  1  1  0  0  0
 24 25  1  0  0  0  0
 24 26  1  1  0  0  0
 26 39  1  0  0  0  0
 27 28  1  0  0  0  0
 27 32  1  0  0  0  0
 27 38  1  6  0  0  0
 28 29  1  0  0  0  0
 28 37  1  1  0  0  0
 29 30  1  0  0  0  0
 29 42  1  6  0  0  0
 30 31  1  6  0  0  0
 30 33  1  0  0  0  0
 32 33  1  0  0  0  0
 32 34  1  6  0  0  0
 34 41  1  0  0  0  0
M  CHG  6   4   1  13   1  19   1  35   1  41   1  42   1
M  END
>  <CHROM.1>
-173.25423880,-40.11443718,101.08826213,53.65394587,-177.78184575,-73.93078051
74.34025088,-175.89784289,74.60539098,56.82192816,169.85190721,64.37634721
153.45827870,95.19201756,46.86952280,-175.28411142,68.16079109,72.04299537
135.17669314,146.30712460,161.53095755,-57.66203282,-5.20712484,3.23786274
-2.82045173,2.35466494,-0.10155726,-1.60406719

>  <Name>


>  <RI>
0

>  <Rbt.Current_Directory>
/home/itssahil/PROJECTS/Mol_Feturizer/New_Systems/rnas/1ei2

>  <Rbt.Executable>
rbdock ($Id: //depot/dev/client3/rdock/2013.1/src/exe/rbdock.cxx#4 $)

>  <Rbt.Library>
libRbt.so (2013.1, Build901 2013/11/27)

>  <Rbt.Parameter_File>
/export/apps/rDock/src/rDock_2013.1_src/data/scripts/dock_solv.prm

>  <Rbt.Receptor>
prm/pocket_docking_6.prm

>  <SCORE>
-61.4759

>  <SCORE.INTER>
-44.7876

>  <SCORE.INTER.CONST>
1

>  <SCORE.INTER.POLAR>
-7.20829

>  <SCORE.INTER.ROT>
9

>  <SCORE.INTER.SOLV>
30.3544

>  <SCORE.INTER.VDW>
-25.5489

>  <SCORE.INTER.norm>
-1.06637

>  <SCORE.INTRA>
-16.6883

>  <SCORE.INTRA.DIHEDRAL>
-14.8511

>  <SCORE.INTRA.DIHEDRAL.0>
40.8761

>  <SCORE.INTRA.POLAR>
-0.338723

>  <SCORE.INTRA.POLAR.0>
-0.0268208

>  <SCORE.INTRA.REPUL>
-0.621081

>  <SCORE.INTRA.REPUL.0>
0.641615

>  <SCORE.INTRA.SOLV>
-11.7841

>  <SCORE.INTRA.SOLV.lig_0>
-162.567

>  <SCORE.INTRA.VDW>
0.886324

>  <SCORE.INTRA.VDW.0>
-4.80338

>  <SCORE.INTRA.norm>
-0.39734

>  <SCORE.RESTR>
0

>  <SCORE.RESTR.CAVITY>
0

>  <SCORE.RESTR.norm>
0

>  <SCORE.SYSTEM>
0

>  <SCORE.SYSTEM.CONST>
0

>  <SCORE.SYSTEM.DIHEDRAL>
0

>  <SCORE.SYSTEM.SOLV>
0

>  <SCORE.SYSTEM.norm>
0

>  <SCORE.heavy>
42

>  <SCORE.norm>
-1.46371

>  <RMSD>
6.376

$$$$

 OpenBabel11021811393D
libRbt.so/2013.1/901 2013/11/27
 42 45  0  0  0  0  0  0  0  0999 V2000
   -8.0192    3.5401   -3.2169 C   0  0  2  0  0  0  0  0  0  0  0  0
   -7.3114    4.5573   -3.9901 O   0  0  0  0  0  0  0  0  0  0  0  0
   -9.5693    3.7192   -3.3125 C   0  0  2  0  0  0  0  0  0  0  0  0
   -9.9475    4.6279   -4.4191 N   0  3  0  0  0  0  0  0  0  0  0  0
  -10.1481    4.2340   -1.9602 C   0  0  1  0  0  0  0  0  0  0  0  0
  -11.5630    4.3836   -2.0565 O   0  0  0  0  0  0  0  0  0  0  0  0
   -9.8345    3.2617   -0.7916 C   0  0  2  0  0  0  0  0  0  0  0  0
  -10.1265    3.9160    0.4382 O   0  0  0  0  0  0  0  0  0  0  0  0
   -8.3383    2.8096   -0.8158 C   0  0  2  0  0  0  0  0  0  0  0  0
   -7.5942    3.5840   -1.8117 O   0  0  0  0  0  0  0  0  0  0  0  0
   -8.1240    1.3199   -1.1697 C   0  0  0  0  0  0  0  0  0  0  0  0
   -4.8064    2.0119   -6.4119 C   0  0  1  0  0  0  0  0  0  0  0  0
   -3.6990    1.4966   -7.2477 N   0  3  0  0  0  0  0  0  0  0  0  0
   -4.3549    2.2377   -4.9452 C   0  0  1  0  0  0  0  0  0  0  0  0
   -5.4427    2.9239   -4.0474 C   0  0  1  0  0  0  0  0  0  0  0  0
   -4.8034    3.3704   -2.8215 O   0  0  0  0  0  0  0  0  0  0  0  0
   -6.1049    4.1809   -4.7224 C   0  0  1  0  0  0  0  0  0  0  0  0
   -6.5121    3.9031   -6.2056 C   0  0  1  0  0  0  0  0  0  0  0  0
   -6.9961    5.1219   -6.8853 N   0  3  0  0  0  0  0  0  0  0  0  0
   -5.3369    3.3245   -7.0253 C   0  0  0  0  0  0  0  0  0  0  0  0
   -3.6165    4.2122   -2.8955 C   0  0  1  0  0  0  0  0  0  0  0  0
   -3.2938    4.7204   -1.4953 C   0  0  1  0  0  0  0  0  0  0  0  0
   -2.5822    3.5002   -0.9268 C   0  0  1  0  0  0  0  0  0  0  0  0
   -1.7274    3.0548   -2.1218 C   0  0  2  0  0  0  0  0  0  0  0  0
   -2.4822    3.4278   -3.2994 O   0  0  0  0  0  0  0  0  0  0  0  0
   -1.4460    1.5415   -2.1300 C   0  0  0  0  0  0  0  0  0  0  0  0
   -3.1608    2.9426    3.6851 C   0  0  1  0  0  0  0  0  0  0  0  0
   -1.6868    3.3361    3.3887 C   0  0  1  0  0  0  0  0  0  0  0  0
   -1.5323    4.6523    2.5734 C   0  0  2  0  0  0  0  0  0  0  0  0
   -2.4065    4.6202    1.2785 C   0  0  1  0  0  0  0  0  0  0  0  0
   -1.7624    3.8476    0.2262 O   0  0  0  0  0  0  0  0  0  0  0  0
   -4.1485    3.9026    2.9550 C   0  0  1  0  0  0  0  0  0  0  0  0
   -3.7450    4.0491    1.5542 O   0  0  0  0  0  0  0  0  0  0  0  0
   -5.6146    3.4017    3.0146 C   0  0  0  0  0  0  0  0  0  0  0  0
   -8.8727    0.3778   -0.3193 N   0  3  0  0  0  0  0  0  0  0  0  0
   -2.4182    5.8450   -1.5795 O   0  0  0  0  0  0  0  0  0  0  0  0
   -1.0034    3.4885    4.6322 O   0  0  0  0  0  0  0  0  0  0  0  0
   -3.3663    1.5978    3.2466 O   0  0  0  0  0  0  0  0  0  0  0  0
   -0.7667    1.1602   -3.3141 O   0  0  0  0  0  0  0  0  0  0  0  0
   -4.0195    0.9756   -4.3690 O   0  0  0  0  0  0  0  0  0  0  0  0
   -6.5923    4.4455    2.6561 N   0  3  0  0  0  0  0  0  0  0  0  0
   -0.1062    4.9515    2.2923 N   0  3  0  0  0  0  0  0  0  0  0  0
  1  2  1  6  0  0  0
  1  3  1  0  0  0  0
  1 10  1  0  0  0  0
  3  4  1  6  0  0  0
  3  5  1  0  0  0  0
  5  6  1  6  0  0  0
  5  7  1  0  0  0  0
  7  8  1  1  0  0  0
  7  9  1  0  0  0  0
  9 10  1  0  0  0  0
  9 11  1  6  0  0  0
 11 35  1  0  0  0  0
 12 13  1  6  0  0  0
 12 14  1  0  0  0  0
 12 20  1  0  0  0  0
 14 15  1  0  0  0  0
 14 40  1  1  0  0  0
 15 16  1  1  0  0  0
 15 17  1  0  0  0  0
 17  2  1  1  0  0  0
 17 18  1  0  0  0  0
 18 19  1  6  0  0  0
 18 20  1  0  0  0  0
 21 16  1  1  0  0  0
 21 22  1  0  0  0  0
 21 25  1  0  0  0  0
 22 23  1  0  0  0  0
 22 36  1  6  0  0  0
 23 24  1  0  0  0  0
 23 31  1  1  0  0  0
 24 25  1  0  0  0  0
 24 26  1  1  0  0  0
 26 39  1  0  0  0  0
 27 28  1  0  0  0  0
 27 32  1  0  0  0  0
 27 38  1  6  0  0  0
 28 29  1  0  0  0  0
 28 37  1  1  0  0  0
 29 30  1  0  0  0  0
 29 42  1  6  0  0  0
 30 31  1  6  0  0  0
 30 33  1  0  0  0  0
 32 33  1  0  0  0  0
 32 34  1  6  0  0  0
 34 41  1  0  0  0  0
M  CHG  6   4   1  13   1  19   1  35   1  41   1  42   1
M  END
>  <CHROM.1>
-141.83763799,-25.16142906,-66.55024478,-177.32514577,69.51539123,-54.42945498
-176.69498548,50.36982670,-178.54446253,53.18217461,170.67379269,175.08788871
61.94159621,50.58643888,174.36230426,67.19394739,173.44586325,65.14509358
88.94515777,167.45643237,164.74618458,64.07451771,-5.12587019,3.39235681
-1.51906221,2.27214815,0.05926705,-1.64223601

>  <Name>


>  <RI>
0

>  <Rbt.Current_Directory>
/home/itssahil/PROJECTS/Mol_Feturizer/New_Systems/rnas/1ei2

>  <Rbt.Executable>
rbdock ($Id: //depot/dev/client3/rdock/2013.1/src/exe/rbdock.cxx#4 $)

>  <Rbt.Library>
libRbt.so (2013.1, Build901 2013/11/27)

>  <Rbt.Parameter_File>
/export/apps/rDock/src/rDock_2013.1_src/data/scripts/dock_solv.prm

>  <Rbt.Receptor>
prm/pocket_docking_4.prm

>  <SCORE>
-55.8238

>  <SCORE.INTER>
-36.1553

>  <SCORE.INTER.CONST>
1

>  <SCORE.INTER.POLAR>
-6.28079

>  <SCORE.INTER.ROT>
9

>  <SCORE.INTER.SOLV>
23.5314

>  <SCORE.INTER.VDW>
-20.6114

>  <SCORE.INTER.norm>
-0.860841

>  <SCORE.INTRA>
-19.703

>  <SCORE.INTRA.DIHEDRAL>
-24.2733

>  <SCORE.INTRA.DIHEDRAL.0>
40.8761

>  <SCORE.INTRA.POLAR>
-0.0766927

>  <SCORE.INTRA.POLAR.0>
-0.0268208

>  <SCORE.INTRA.REPUL>
-0.567095

>  <SCORE.INTRA.REPUL.0>
0.641615

>  <SCORE.INTRA.SOLV>
-11.6601

>  <SCORE.INTRA.SOLV.lig_0>
-162.567

>  <SCORE.INTRA.VDW>
1.3599

>  <SCORE.INTRA.VDW.0>
-4.80338

>  <SCORE.INTRA.norm>
-0.469119

>  <SCORE.RESTR>
0.0345621

>  <SCORE.RESTR.CAVITY>
0.0345621

>  <SCORE.RESTR.norm>
0.000822908

>  <SCORE.SYSTEM>
0

>  <SCORE.SYSTEM.CONST>
0

>  <SCORE.SYSTEM.DIHEDRAL>
0

>  <SCORE.SYSTEM.SOLV>
0

>  <SCORE.SYSTEM.norm>
0

>  <SCORE.heavy>
42

>  <SCORE.norm>
-1.32914

>  <RMSD>
6.382

$$$$

 OpenBabel11021811393D
libRbt.so/2013.1/901 2013/11/27
 42 45  0  0  0  0  0  0  0  0999 V2000
   -3.0153    4.5268    0.2735 C   0  0  2  0  0  0  0  0  0  0  0  0
   -2.0803    4.0765   -0.7544 O   0  0  0  0  0  0  0  0  0  0  0  0
   -2.2991    5.3829    1.3681 C   0  0  2  0  0  0  0  0  0  0  0  0
   -0.9558    5.8226    0.9262 N   0  3  0  0  0  0  0  0  0  0  0  0
   -2.2026    4.5933    2.7083 C   0  0  1  0  0  0  0  0  0  0  0  0
   -1.5570    5.3876    3.7012 O   0  0  0  0  0  0  0  0  0  0  0  0
   -3.6029    4.1847    3.2387 C   0  0  2  0  0  0  0  0  0  0  0  0
   -3.4359    3.2349    4.2854 O   0  0  0  0  0  0  0  0  0  0  0  0
   -4.4858    3.5779    2.1005 C   0  0  2  0  0  0  0  0  0  0  0  0
   -3.6815    3.3740    0.8935 O   0  0  0  0  0  0  0  0  0  0  0  0
   -5.6873    4.4567    1.6829 C   0  0  0  0  0  0  0  0  0  0  0  0
   -2.6558    3.0025   -4.8939 C   0  0  1  0  0  0  0  0  0  0  0  0
   -3.0222    2.2770   -6.1307 N   0  3  0  0  0  0  0  0  0  0  0  0
   -3.9128    3.4762   -4.1182 C   0  0  1  0  0  0  0  0  0  0  0  0
   -3.5906    4.1191   -2.7244 C   0  0  1  0  0  0  0  0  0  0  0  0
   -4.8300    4.2172   -1.9725 O   0  0  0  0  0  0  0  0  0  0  0  0
   -2.5807    3.2720   -1.8661 C   0  0  1  0  0  0  0  0  0  0  0  0
   -1.3507    2.7990   -2.7066 C   0  0  1  0  0  0  0  0  0  0  0  0
   -0.4785    1.8817   -1.9452 N   0  3  0  0  0  0  0  0  0  0  0  0
   -1.7836    2.0881   -4.0085 C   0  0  0  0  0  0  0  0  0  0  0  0
   -5.4363    3.0103   -1.4263 C   0  0  1  0  0  0  0  0  0  0  0  0
   -6.9026    3.2972   -1.1253 C   0  0  1  0  0  0  0  0  0  0  0  0
   -7.4945    3.1493   -2.5204 C   0  0  1  0  0  0  0  0  0  0  0  0
   -6.7357    1.9246   -3.0510 C   0  0  2  0  0  0  0  0  0  0  0  0
   -5.4355    1.9686   -2.4162 O   0  0  0  0  0  0  0  0  0  0  0  0
   -6.5784    1.9307   -4.5822 C   0  0  0  0  0  0  0  0  0  0  0  0
   -8.2237    6.6892   -2.4181 C   0  0  1  0  0  0  0  0  0  0  0  0
   -8.4462    5.8362   -3.6981 C   0  0  1  0  0  0  0  0  0  0  0  0
   -9.7286    4.9558   -3.6597 C   0  0  2  0  0  0  0  0  0  0  0  0
   -9.7820    4.0925   -2.3583 C   0  0  1  0  0  0  0  0  0  0  0  0
   -8.9316    2.9163   -2.4701 O   0  0  0  0  0  0  0  0  0  0  0  0
   -9.2813    6.3390   -1.3277 C   0  0  1  0  0  0  0  0  0  0  0  0
   -9.3676    4.8842   -1.1771 O   0  0  0  0  0  0  0  0  0  0  0  0
   -8.9488    6.9759    0.0463 C   0  0  0  0  0  0  0  0  0  0  0  0
   -6.5709    4.8490    2.7949 N   0  3  0  0  0  0  0  0  0  0  0  0
   -7.4148    2.3083   -0.2318 O   0  0  0  0  0  0  0  0  0  0  0  0
   -8.5332    6.7181   -4.8166 O   0  0  0  0  0  0  0  0  0  0  0  0
   -6.9062    6.4319   -1.9271 O   0  0  0  0  0  0  0  0  0  0  0  0
   -5.9332    0.7504   -5.0287 O   0  0  0  0  0  0  0  0  0  0  0  0
   -4.6071    4.4373   -4.9130 O   0  0  0  0  0  0  0  0  0  0  0  0
  -10.0039    6.7535    1.0519 N   0  3  0  0  0  0  0  0  0  0  0  0
   -9.8629    4.1400   -4.8921 N   0  3  0  0  0  0  0  0  0  0  0  0
  1  2  1  6  0  0  0
  1  3  1  0  0  0  0
  1 10  1  0  0  0  0
  3  4  1  6  0  0  0
  3  5  1  0  0  0  0
  5  6  1  1  0  0  0
  5  7  1  0  0  0  0
  7  8  1  1  0  0  0
  7  9  1  0  0  0  0
  9 10  1  0  0  0  0
  9 11  1  6  0  0  0
 11 35  1  0  0  0  0
 12 13  1  6  0  0  0
 12 14  1  0  0  0  0
 12 20  1  0  0  0  0
 14 15  1  0  0  0  0
 14 40  1  6  0  0  0
 15 16  1  1  0  0  0
 15 17  1  0  0  0  0
 17  2  1  1  0  0  0
 17 18  1  0  0  0  0
 18 19  1  1  0  0  0
 18 20  1  0  0  0  0
 21 16  1  6  0  0  0
 21 22  1  0  0  0  0
 21 25  1  0  0  0  0
 22 23  1  0  0  0  0
 22 36  1  1  0  0  0
 23 24  1  0  0  0  0
 23 31  1  1  0  0  0
 24 25  1  0  0  0  0
 24 26  1  6  0  0  0
 26 39  1  0  0  0  0
 27 28  1  0  0  0  0
 27 32  1  0  0  0  0
 27 38  1  1  0  0  0
 28 29  1  0  0  0  0
 28 37  1  6  0  0  0
 29 30  1  0  0  0  0
 29 42  1  6  0  0  0
 30 31  1  6  0  0  0
 30 33  1  0  0  0  0
 32 33  1  0  0  0  0
 32 34  1  1  0  0  0
 34 41  1  0  0  0  0
M  CHG  6   4   1  13   1  19   1  35   1  41   1  42   1
M  END
>  <CHROM.1>
-179.43884793,64.21327511,-60.89683729,-172.68434348,66.37474780,-54.09769448
166.60072666,-76.44932892,70.87172790,72.69199498,-160.74143834,177.67283477
-57.47479094,83.98394365,-177.03371032,-174.82616041,-43.58248521,-62.98077551
-171.34704322,67.85354062,174.77856848,73.82361523,-5.43821996,4.04558583
-1.42054369,0.58204572,-0.28908509,1.26304011

>  <Name>


>  <RI>
0

>  <Rbt.Current_Directory>
/home/itssahil/PROJECTS/Mol_Feturizer/New_Systems/rnas/1ei2

>  <Rbt.Executable>
rbdock ($Id: //depot/dev/client3/rdock/2013.1/src/exe/rbdock.cxx#4 $)

>  <Rbt.Library>
libRbt.so (2013.1, Build901 2013/11/27)

>  <Rbt.Parameter_File>
/export/apps/rDock/src/rDock_2013.1_src/data/scripts/dock_solv.prm

>  <Rbt.Receptor>
prm/pocket_docking_5.prm

>  <SCORE>
-55.1578

>  <SCORE.INTER>
-30.4235

>  <SCORE.INTER.CONST>
1

>  <SCORE.INTER.POLAR>
-6.21764

>  <SCORE.INTER.ROT>
9

>  <SCORE.INTER.SOLV>
25.2401

>  <SCORE.INTER.VDW>
-17.5702

>  <SCORE.INTER.norm>
-0.724369

>  <SCORE.INTRA>
-24.7343

>  <SCORE.INTRA.DIHEDRAL>
-30.3335

>  <SCORE.INTRA.DIHEDRAL.0>
40.8761

>  <SCORE.INTRA.POLAR>
-0.269622

>  <SCORE.INTRA.POLAR.0>
-0.0268208

>  <SCORE.INTRA.REPUL>
-0.641615

>  <SCORE.INTRA.REPUL.0>
0.641615

>  <SCORE.INTRA.SOLV>
-7.26943

>  <SCORE.INTRA.SOLV.lig_0>
-162.567

>  <SCORE.INTRA.VDW>
-1.80809

>  <SCORE.INTRA.VDW.0>
-4.80338

>  <SCORE.INTRA.norm>
-0.588913

>  <SCORE.RESTR>
0

>  <SCORE.RESTR.CAVITY>
0

>  <SCORE.RESTR.norm>
0

>  <SCORE.SYSTEM>
0

>  <SCORE.SYSTEM.CONST>
0

>  <SCORE.SYSTEM.DIHEDRAL>
0

>  <SCORE.SYSTEM.SOLV>
0

>  <SCORE.SYSTEM.norm>
0

>  <SCORE.heavy>
42

>  <SCORE.norm>
-1.31328

>  <RMSD>
6.398

$$$$

 OpenBabel11021811393D
libRbt.so/2013.1/901 2013/11/27
 42 45  0  0  0  0  0  0  0  0999 V2000
   -9.0223    7.0528    1.0828 C   0  0  2  0  0  0  0  0  0  0  0  0
   -9.2559    5.7817    0.4021 O   0  0  0  0  0  0  0  0  0  0  0  0
   -9.5294    7.0160    2.5611 C   0  0  2  0  0  0  0  0  0  0  0  0
   -9.7897    5.6308    3.0156 N   0  3  0  0  0  0  0  0  0  0  0  0
  -10.8058    7.8948    2.7270 C   0  0  1  0  0  0  0  0  0  0  0  0
  -11.2528    7.8616    4.0807 O   0  0  0  0  0  0  0  0  0  0  0  0
  -10.5434    9.3727    2.3315 C   0  0  2  0  0  0  0  0  0  0  0  0
  -11.7928   10.0461    2.2255 O   0  0  0  0  0  0  0  0  0  0  0  0
   -9.7667    9.4685    0.9783 C   0  0  2  0  0  0  0  0  0  0  0  0
   -9.6776    8.1466    0.3539 O   0  0  0  0  0  0  0  0  0  0  0  0
   -8.3173    9.9911    1.1062 C   0  0  0  0  0  0  0  0  0  0  0  0
   -9.6964    3.9959   -3.5013 C   0  0  1  0  0  0  0  0  0  0  0  0
   -9.7753    3.7942   -4.9654 N   0  3  0  0  0  0  0  0  0  0  0  0
   -8.2505    4.3306   -3.0500 C   0  0  1  0  0  0  0  0  0  0  0  0
   -8.1325    4.7022   -1.5308 C   0  0  1  0  0  0  0  0  0  0  0  0
   -6.8267    5.2999   -1.3100 O   0  0  0  0  0  0  0  0  0  0  0  0
   -9.2156    5.7399   -1.0574 C   0  0  1  0  0  0  0  0  0  0  0  0
  -10.6459    5.3669   -1.5654 C   0  0  1  0  0  0  0  0  0  0  0  0
  -11.6375    6.4151   -1.2494 N   0  3  0  0  0  0  0  0  0  0  0  0
  -10.6680    5.1221   -3.0910 C   0  0  0  0  0  0  0  0  0  0  0  0
   -5.6278    4.5744   -1.7085 C   0  0  1  0  0  0  0  0  0  0  0  0
   -4.4132    5.4489   -1.4209 C   0  0  1  0  0  0  0  0  0  0  0  0
   -4.2542    5.2006    0.0729 C   0  0  1  0  0  0  0  0  0  0  0  0
   -4.5278    3.6928    0.1676 C   0  0  2  0  0  0  0  0  0  0  0  0
   -5.4691    3.4019   -0.8930 O   0  0  0  0  0  0  0  0  0  0  0  0
   -5.1143    3.2716    1.5270 C   0  0  0  0  0  0  0  0  0  0  0  0
    0.0312    4.5846    2.8033 C   0  0  1  0  0  0  0  0  0  0  0  0
   -0.1671    5.9693    2.1259 C   0  0  1  0  0  0  0  0  0  0  0  0
   -1.5756    6.5909    2.3516 C   0  0  2  0  0  0  0  0  0  0  0  0
   -2.7059    5.5807    1.9721 C   0  0  1  0  0  0  0  0  0  0  0  0
   -2.9134    5.5377    0.5319 O   0  0  0  0  0  0  0  0  0  0  0  0
   -1.3021    4.0796    3.4337 C   0  0  1  0  0  0  0  0  0  0  0  0
   -2.3885    4.2190    2.4606 O   0  0  0  0  0  0  0  0  0  0  0  0
   -1.2167    2.6022    3.8960 C   0  0  0  0  0  0  0  0  0  0  0  0
   -7.7952   10.6431   -0.1077 N   0  3  0  0  0  0  0  0  0  0  0  0
   -3.2867    4.9674   -2.1543 O   0  0  0  0  0  0  0  0  0  0  0  0
    0.8143    6.8672    2.6425 O   0  0  0  0  0  0  0  0  0  0  0  0
    0.4901    3.6597    1.8149 O   0  0  0  0  0  0  0  0  0  0  0  0
   -6.4346    3.7629    1.6819 O   0  0  0  0  0  0  0  0  0  0  0  0
   -7.4164    3.2015   -3.3084 O   0  0  0  0  0  0  0  0  0  0  0  0
   -0.2290    2.3937    4.9706 N   0  3  0  0  0  0  0  0  0  0  0  0
   -1.7128    7.8913    1.6499 N   0  3  0  0  0  0  0  0  0  0  0  0
  1  2  1  6  0  0  0
  1  3  1  0  0  0  0
  1 10  1  0  0  0  0
  3  4  1  6  0  0  0
  3  5  1  0  0  0  0
  5  6  1  1  0  0  0
  5  7  1  0  0  0  0
  7  8  1  6  0  0  0
  7  9  1  0  0  0  0
  9 10  1  0  0  0  0
  9 11  1  1  0  0  0
 11 35  1  0  0  0  0
 12 13  1  6  0  0  0
 12 14  1  0  0  0  0
 12 20  1  0  0  0  0
 14 15  1  0  0  0  0
 14 40  1  1  0  0  0
 15 16  1  6  0  0  0
 15 17  1  0  0  0  0
 17  2  1  1  0  0  0
 17 18  1  0  0  0  0
 18 19  1  6  0  0  0
 18 20  1  0  0  0  0
 21 16  1  1  0  0  0
 21 22  1  0  0  0  0
 21 25  1  0  0  0  0
 22 23  1  0  0  0  0
 22 36  1  6  0  0  0
 23 24  1  0  0  0  0
 23 31  1  6  0  0  0
 24 25  1  0  0  0  0
 24 26  1  1  0  0  0
 26 39  1  0  0  0  0
 27 28  1  0  0  0  0
 27 32  1  0  0  0  0
 27 38  1  6  0  0  0
 28 29  1  0  0  0  0
 28 37  1  1  0  0  0
 29 30  1  0  0  0  0
 29 42  1  6  0  0  0
 30 31  1  6  0  0  0
 30 33  1  0  0  0  0
 32 33  1  0  0  0  0
 32 34  1  6  0  0  0
 34 41  1  0  0  0  0
M  CHG  6   4   1  13   1  19   1  35   1  41   1  42   1
M  END
>  <CHROM.1>
162.32627477,122.31655452,-43.33728532,55.09786460,59.80291666,-154.02223072
-174.99539264,-177.00965765,66.61386249,-54.91765299,177.56073649,131.20817507
-177.88149854,169.00657280,69.07034237,-176.05428371,171.16752373,-61.16194415
-88.28205488,-151.11253324,63.41097005,52.06199142,-6.22085540,5.74595050
0.58694581,3.08432172,0.35280848,-2.21834836

>  <Name>


>  <RI>
0

>  <Rbt.Current_Directory>
/home/itssahil/PROJECTS/Mol_Feturizer/New_Systems/rnas/1ei2

>  <Rbt.Executable>
rbdock ($Id: //depot/dev/client3/rdock/2013.1/src/exe/rbdock.cxx#4 $)

>  <Rbt.Library>
libRbt.so (2013.1, Build901 2013/11/27)

>  <Rbt.Parameter_File>
/export/apps/rDock/src/rDock_2013.1_src/data/scripts/dock_solv.prm

>  <Rbt.Receptor>
prm/pocket_docking_7.prm

>  <SCORE>
-51.5278

>  <SCORE.INTER>
-30.3156

>  <SCORE.INTER.CONST>
1

>  <SCORE.INTER.POLAR>
-6.06664

>  <SCORE.INTER.ROT>
9

>  <SCORE.INTER.SOLV>
27.3109

>  <SCORE.INTER.VDW>
-18.6919

>  <SCORE.INTER.norm>
-0.7218

>  <SCORE.INTRA>
-21.2357

>  <SCORE.INTRA.DIHEDRAL>
-18.401

>  <SCORE.INTRA.DIHEDRAL.0>
40.8761

>  <SCORE.INTRA.POLAR>
-1.16502

>  <SCORE.INTRA.POLAR.0>
-0.0268208

>  <SCORE.INTRA.REPUL>
-0.641615

>  <SCORE.INTRA.REPUL.0>
0.641615

>  <SCORE.INTRA.SOLV>
-10.7845

>  <SCORE.INTRA.SOLV.lig_0>
-162.567

>  <SCORE.INTRA.VDW>
0.52625

>  <SCORE.INTRA.VDW.0>
-4.80338

>  <SCORE.INTRA.norm>
-0.505611

>  <SCORE.RESTR>
0.0234902

>  <SCORE.RESTR.CAVITY>
0.0234902

>  <SCORE.RESTR.norm>
0.000559291

>  <SCORE.SYSTEM>
0

>  <SCORE.SYSTEM.CONST>
0

>  <SCORE.SYSTEM.DIHEDRAL>
0

>  <SCORE.SYSTEM.SOLV>
0

>  <SCORE.SYSTEM.norm>
0

>  <SCORE.heavy>
42

>  <SCORE.norm>
-1.22685

>  <RMSD>
6.409

$$$$

 OpenBabel11021811393D
libRbt.so/2013.1/901 2013/11/27
 42 45  0  0  0  0  0  0  0  0999 V2000
   -6.6069    4.4295   -1.8334 C   0  0  2  0  0  0  0  0  0  0  0  0
   -5.3931    4.9930   -1.2478 O   0  0  0  0  0  0  0  0  0  0  0  0
   -7.8921    5.1114   -1.2617 C   0  0  2  0  0  0  0  0  0  0  0  0
   -7.5733    6.3725   -0.5537 N   0  3  0  0  0  0  0  0  0  0  0  0
   -8.6607    4.1353   -0.3206 C   0  0  1  0  0  0  0  0  0  0  0  0
   -9.8356    4.7646    0.1862 O   0  0  0  0  0  0  0  0  0  0  0  0
   -9.0778    2.8339   -1.0566 C   0  0  2  0  0  0  0  0  0  0  0  0
   -9.5062    1.8801   -0.0909 O   0  0  0  0  0  0  0  0  0  0  0  0
   -7.8940    2.2523   -1.8955 C   0  0  2  0  0  0  0  0  0  0  0  0
   -6.6591    2.9809   -1.5966 O   0  0  0  0  0  0  0  0  0  0  0  0
   -8.0916    2.3347   -3.4267 C   0  0  0  0  0  0  0  0  0  0  0  0
   -2.7350    3.3658   -4.2322 C   0  0  1  0  0  0  0  0  0  0  0  0
   -1.5488    3.0930   -5.0742 N   0  3  0  0  0  0  0  0  0  0  0  0
   -2.5212    2.8819   -2.7740 C   0  0  1  0  0  0  0  0  0  0  0  0
   -3.6843    3.2785   -1.7993 C   0  0  1  0  0  0  0  0  0  0  0  0
   -3.2270    3.0656   -0.4368 O   0  0  0  0  0  0  0  0  0  0  0  0
   -4.1156    4.7859   -1.9251 C   0  0  1  0  0  0  0  0  0  0  0  0
   -4.2874    5.2237   -3.4156 C   0  0  1  0  0  0  0  0  0  0  0  0
   -4.5461    6.6726   -3.5417 N   0  3  0  0  0  0  0  0  0  0  0  0
   -3.0427    4.8774   -4.2633 C   0  0  0  0  0  0  0  0  0  0  0  0
   -2.4538    4.1037    0.2320 C   0  0  1  0  0  0  0  0  0  0  0  0
   -3.1048    4.4033    1.5771 C   0  0  1  0  0  0  0  0  0  0  0  0
   -2.5560    3.2469    2.4018 C   0  0  1  0  0  0  0  0  0  0  0  0
   -1.1020    3.1800    1.9132 C   0  0  2  0  0  0  0  0  0  0  0  0
   -1.1357    3.6173    0.5336 O   0  0  0  0  0  0  0  0  0  0  0  0
   -0.4999    1.7665    2.0067 C   0  0  0  0  0  0  0  0  0  0  0  0
   -6.1707    3.2619    2.3558 C   0  0  1  0  0  0  0  0  0  0  0  0
   -5.3119    2.0620    2.8437 C   0  0  1  0  0  0  0  0  0  0  0  0
   -4.7256    2.2406    4.2740 C   0  0  2  0  0  0  0  0  0  0  0  0
   -3.9692    3.6013    4.4083 C   0  0  1  0  0  0  0  0  0  0  0  0
   -2.6356    3.5229    3.8299 O   0  0  0  0  0  0  0  0  0  0  0  0
   -6.1148    4.4364    3.3793 C   0  0  1  0  0  0  0  0  0  0  0  0
   -4.7221    4.6956    3.7530 O   0  0  0  0  0  0  0  0  0  0  0  0
   -6.7450    5.7387    2.8217 C   0  0  0  0  0  0  0  0  0  0  0  0
   -7.0720    1.6173   -4.2121 N   0  3  0  0  0  0  0  0  0  0  0  0
   -2.6425    5.6618    2.0678 O   0  0  0  0  0  0  0  0  0  0  0  0
   -6.1267    0.8906    2.8291 O   0  0  0  0  0  0  0  0  0  0  0  0
   -5.6699    3.6897    1.0873 O   0  0  0  0  0  0  0  0  0  0  0  0
   -0.3689    1.3614    3.3585 O   0  0  0  0  0  0  0  0  0  0  0  0
   -2.3945    1.4601   -2.7765 O   0  0  0  0  0  0  0  0  0  0  0  0
   -8.0250    6.0794    3.4693 N   0  3  0  0  0  0  0  0  0  0  0  0
   -3.8872    1.0801    4.6647 N   0  3  0  0  0  0  0  0  0  0  0  0
  1  2  1  1  0  0  0
  1  3  1  0  0  0  0
  1 10  1  0  0  0  0
  3  4  1  1  0  0  0
  3  5  1  0  0  0  0
  5  6  1  6  0  0  0
  5  7  1  0  0  0  0
  7  8  1  1  0  0  0
  7  9  1  0  0  0  0
  9 10  1  0  0  0  0
  9 11  1  6  0  0  0
 11 35  1  0  0  0  0
 12 13  1  6  0  0  0
 12 14  1  0  0  0  0
 12 20  1  0  0  0  0
 14 15  1  0  0  0  0
 14 40  1  6  0  0  0
 15 16  1  1  0  0  0
 15 17  1  0  0  0  0
 17  2  1  1  0  0  0
 17 18  1  0  0  0  0
 18 19  1  1  0  0  0
 18 20  1  0  0  0  0
 21 16  1  1  0  0  0
 21 22  1  0  0  0  0
 21 25  1  0  0  0  0
 22 23  1  0  0  0  0
 22 36  1  1  0  0  0
 23 24  1  0  0  0  0
 23 31  1  1  0  0  0
 24 25  1  0  0  0  0
 24 26  1  6  0  0  0
 26 39  1  0  0  0  0
 27 28  1  0  0  0  0
 27 32  1  0  0  0  0
 27 38  1  6  0  0  0
 28 29  1  0  0  0  0
 28 37  1  1  0  0  0
 29 30  1  0  0  0  0
 29 42  1  6  0  0  0
 30 31  1  6  0  0  0
 30 33  1  0  0  0  0
 32 33  1  0  0  0  0
 32 34  1  6  0  0  0
 34 41  1  0  0  0  0
M  CHG  6   4   1  13   1  19   1  35   1  41   1  42   1
M  END
>  <CHROM.1>
-161.71403269,-70.50760356,-177.87131376,-64.25448271,176.21392882,-171.67469801
58.01700762,-51.30417429,-69.53112444,84.29714092,127.96869514,47.76677779
177.14332772,67.25603371,-66.49066162,70.49887376,78.12957458,175.37272426
8.21378245,62.39209460,109.39417581,-168.94893751,-4.87683532,3.58793328
0.15963652,1.96563427,0.15172194,-1.51344028

>  <Name>


>  <RI>
0

>  <Rbt.Current_Directory>
/home/itssahil/PROJECTS/Mol_Feturizer/New_Systems/rnas/1ei2

>  <Rbt.Executable>
rbdock ($Id: //depot/dev/client3/rdock/2013.1/src/exe/rbdock.cxx#4 $)

>  <Rbt.Library>
libRbt.so (2013.1, Build901 2013/11/27)

>  <Rbt.Parameter_File>
/export/apps/rDock/src/rDock_2013.1_src/data/scripts/dock_solv.prm

>  <Rbt.Receptor>
prm/pocket_docking_3.prm

>  <SCORE>
-47.9798

>  <SCORE.INTER>
-27.8447

>  <SCORE.INTER.CONST>
1

>  <SCORE.INTER.POLAR>
-4.16082

>  <SCORE.INTER.ROT>
9

>  <SCORE.INTER.SOLV>
30.7042

>  <SCORE.INTER.VDW>
-24.5285

>  <SCORE.INTER.norm>
-0.662969

>  <SCORE.INTRA>
-20.5718

>  <SCORE.INTRA.DIHEDRAL>
-16.0681

>  <SCORE.INTRA.DIHEDRAL.0>
40.8761

>  <SCORE.INTRA.POLAR>
-1.36298

>  <SCORE.INTRA.POLAR.0>
-0.0268208

>  <SCORE.INTRA.REPUL>
-0.580444

>  <SCORE.INTRA.REPUL.0>
0.641615

>  <SCORE.INTRA.SOLV>
-4.32569

>  <SCORE.INTRA.SOLV.lig_0>
-162.567

>  <SCORE.INTRA.VDW>
-2.83848

>  <SCORE.INTRA.VDW.0>
-4.80338

>  <SCORE.INTRA.norm>
-0.489804

>  <SCORE.RESTR>
0.436649

>  <SCORE.RESTR.CAVITY>
0.436649

>  <SCORE.RESTR.norm>
0.0103964

>  <SCORE.SYSTEM>
0

>  <SCORE.SYSTEM.CONST>
0

>  <SCORE.SYSTEM.DIHEDRAL>
0

>  <SCORE.SYSTEM.SOLV>
0

>  <SCORE.SYSTEM.norm>
0

>  <SCORE.heavy>
42

>  <SCORE.norm>
-1.14238

>  <RMSD>
6.420

$$$$

 OpenBabel11021811393D
libRbt.so/2013.1/901 2013/11/27
 42 45  0  0  0  0  0  0  0  0999 V2000
   -6.6527    2.3074   -2.9855 C   0  0  2  0  0  0  0  0  0  0  0  0
   -6.5877    1.6361   -4.2812 O   0  0  0  0  0  0  0  0  0  0  0  0
   -6.4088    1.3096   -1.8071 C   0  0  2  0  0  0  0  0  0  0  0  0
   -5.8307    0.0320   -2.2832 N   0  3  0  0  0  0  0  0  0  0  0  0
   -7.7299    1.0528   -1.0212 C   0  0  1  0  0  0  0  0  0  0  0  0
   -7.4928    0.1497    0.0566 O   0  0  0  0  0  0  0  0  0  0  0  0
   -8.3206    2.3662   -0.4420 C   0  0  2  0  0  0  0  0  0  0  0  0
   -9.6488    2.1129    0.0022 O   0  0  0  0  0  0  0  0  0  0  0  0
   -8.3214    3.5074   -1.5103 C   0  0  2  0  0  0  0  0  0  0  0  0
   -7.9534    2.9697   -2.8220 O   0  0  0  0  0  0  0  0  0  0  0  0
   -7.3347    4.6610   -1.2173 C   0  0  0  0  0  0  0  0  0  0  0  0
   -4.6091    2.5320   -8.0098 C   0  0  1  0  0  0  0  0  0  0  0  0
   -4.2253    3.1597   -9.2940 N   0  3  0  0  0  0  0  0  0  0  0  0
   -4.2659    3.4461   -6.8044 C   0  0  1  0  0  0  0  0  0  0  0  0
   -4.7853    2.9001   -5.4289 C   0  0  1  0  0  0  0  0  0  0  0  0
   -4.6963    3.9723   -4.4524 O   0  0  0  0  0  0  0  0  0  0  0  0
   -6.2833    2.4224   -5.4739 C   0  0  1  0  0  0  0  0  0  0  0  0
   -6.5764    1.5302   -6.7233 C   0  0  1  0  0  0  0  0  0  0  0  0
   -8.0117    1.2043   -6.8475 N   0  3  0  0  0  0  0  0  0  0  0  0
   -6.1175    2.2082   -8.0339 C   0  0  0  0  0  0  0  0  0  0  0  0
   -3.4871    4.7820   -4.3827 C   0  0  1  0  0  0  0  0  0  0  0  0
   -3.6057    5.7302   -3.1953 C   0  0  1  0  0  0  0  0  0  0  0  0
   -3.2249    4.7868   -2.0624 C   0  0  1  0  0  0  0  0  0  0  0  0
   -2.0622    4.0036   -2.6884 C   0  0  2  0  0  0  0  0  0  0  0  0
   -2.3513    3.9463   -4.1057 O   0  0  0  0  0  0  0  0  0  0  0  0
   -1.9190    2.5808   -2.1188 C   0  0  0  0  0  0  0  0  0  0  0  0
   -2.4260    3.4899    2.3629 C   0  0  1  0  0  0  0  0  0  0  0  0
   -1.8683    4.9219    2.1312 C   0  0  1  0  0  0  0  0  0  0  0  0
   -2.9173    5.9309    1.5812 C   0  0  2  0  0  0  0  0  0  0  0  0
   -3.6350    5.3647    0.3139 C   0  0  1  0  0  0  0  0  0  0  0  0
   -2.8076    5.5186   -0.8740 O   0  0  0  0  0  0  0  0  0  0  0  0
   -3.8904    3.3741    1.8411 C   0  0  1  0  0  0  0  0  0  0  0  0
   -3.9754    3.9340    0.4898 O   0  0  0  0  0  0  0  0  0  0  0  0
   -4.3977    1.9091    1.8199 C   0  0  0  0  0  0  0  0  0  0  0  0
   -7.6095    5.3958    0.0300 N   0  3  0  0  0  0  0  0  0  0  0  0
   -2.6625    6.7936   -3.3303 O   0  0  0  0  0  0  0  0  0  0  0  0
   -1.3691    5.4165    3.3732 O   0  0  0  0  0  0  0  0  0  0  0  0
   -1.5839    2.5606    1.6774 O   0  0  0  0  0  0  0  0  0  0  0  0
   -2.3041    2.5411   -0.7554 O   0  0  0  0  0  0  0  0  0  0  0  0
   -2.8481    3.5933   -6.7295 O   0  0  0  0  0  0  0  0  0  0  0  0
   -4.5299    1.3284    3.1687 N   0  3  0  0  0  0  0  0  0  0  0  0
   -2.3139    7.2663    1.3469 N   0  3  0  0  0  0  0  0  0  0  0  0
  1  2  1  6  0  0  0
  1  3  1  0  0  0  0
  1 10  1  0  0  0  0
  3  4  1  6  0  0  0
  3  5  1  0  0  0  0
  5  6  1  1  0  0  0
  5  7  1  0  0  0  0
  7  8  1  6  0  0  0
  7  9  1  0  0  0  0
  9 10  1  0  0  0  0
  9 11  1  1  0  0  0
 11 35  1  0  0  0  0
 12 13  1  6  0  0  0
 12 14  1  0  0  0  0
 12 20  1  0  0  0  0
 14 15  1  0  0  0  0
 14 40  1  1  0  0  0
 15 16  1  1  0  0  0
 15 17  1  0  0  0  0
 17  2  1  1  0  0  0
 17 18  1  0  0  0  0
 18 19  1  6  0  0  0
 18 20  1  0  0  0  0
 21 16  1  1  0  0  0
 21 22  1  0  0  0  0
 21 25  1  0  0  0  0
 22 23  1  0  0  0  0
 22 36  1  6  0  0  0
 23 24  1  0  0  0  0
 23 31  1  1  0  0  0
 24 25  1  0  0  0  0
 24 26  1  1  0  0  0
 26 39  1  0  0  0  0
 27 28  1  0  0  0  0
 27 32  1  0  0  0  0
 27 38  1  6  0  0  0
 28 29  1  0  0  0  0
 28 37  1  1  0  0  0
 29 30  1  0  0  0  0
 29 42  1  6  0  0  0
 30 31  1  6  0  0  0
 30 33  1  0  0  0  0
 32 33  1  0  0  0  0
 32 34  1  6  0  0  0
 34 41  1  0  0  0  0
M  CHG  6   4   1  13   1  19   1  35   1  41   1  42   1
M  END
>  <CHROM.1>
-156.94979141,69.55573920,-59.23293155,-73.31499171,68.69859293,-62.23960560
174.76428457,-171.33666824,124.58135315,-45.39350849,-174.49766110,-62.23886613
-45.75817396,116.08504337,-32.74899906,-179.00895363,63.79460141,57.90122274
-174.28699091,167.36553315,66.35979661,-66.18757008,-4.74084465,3.33827918
-2.09349457,1.90697098,-0.54467381,-1.58949360

>  <Name>


>  <RI>
0

>  <Rbt.Current_Directory>
/home/itssahil/PROJECTS/Mol_Feturizer/New_Systems/rnas/1ei2

>  <Rbt.Executable>
rbdock ($Id: //depot/dev/client3/rdock/2013.1/src/exe/rbdock.cxx#4 $)

>  <Rbt.Library>
libRbt.so (2013.1, Build901 2013/11/27)

>  <Rbt.Parameter_File>
/export/apps/rDock/src/rDock_2013.1_src/data/scripts/dock_solv.prm

>  <Rbt.Receptor>
prm/pocket_docking_6.prm

>  <SCORE>
-44.8784

>  <SCORE.INTER>
-28.1885

>  <SCORE.INTER.CONST>
1

>  <SCORE.INTER.POLAR>
-4.73712

>  <SCORE.INTER.ROT>
9

>  <SCORE.INTER.SOLV>
20.8277

>  <SCORE.INTER.VDW>
-19.5445

>  <SCORE.INTER.norm>
-0.671156

>  <SCORE.INTRA>
-16.6898

>  <SCORE.INTRA.DIHEDRAL>
-16.4191

>  <SCORE.INTRA.DIHEDRAL.0>
40.8761

>  <SCORE.INTRA.POLAR>
0.0268049

>  <SCORE.INTRA.POLAR.0>
-0.0268208

>  <SCORE.INTRA.REPUL>
-0.478671

>  <SCORE.INTRA.REPUL.0>
0.641615

>  <SCORE.INTRA.SOLV>
-10.7274

>  <SCORE.INTRA.SOLV.lig_0>
-162.567

>  <SCORE.INTRA.VDW>
-0.814361

>  <SCORE.INTRA.VDW.0>
-4.80338

>  <SCORE.INTRA.norm>
-0.397377

>  <SCORE.RESTR>
0

>  <SCORE.RESTR.CAVITY>
0

>  <SCORE.RESTR.norm>
0

>  <SCORE.SYSTEM>
0

>  <SCORE.SYSTEM.CONST>
0

>  <SCORE.SYSTEM.DIHEDRAL>
0

>  <SCORE.SYSTEM.SOLV>
0

>  <SCORE.SYSTEM.norm>
0

>  <SCORE.heavy>
42

>  <SCORE.norm>
-1.06853

>  <RMSD>
6.443

$$$$

 OpenBabel11021811393D
libRbt.so/2013.1/901 2013/11/27
 42 45  0  0  0  0  0  0  0  0999 V2000
  -10.8047    7.4884    1.9334 C   0  0  2  0  0  0  0  0  0  0  0  0
   -9.5322    7.8439    1.3107 O   0  0  0  0  0  0  0  0  0  0  0  0
  -10.7462    7.6372    3.4885 C   0  0  2  0  0  0  0  0  0  0  0  0
   -9.5669    8.4230    3.9186 N   0  3  0  0  0  0  0  0  0  0  0  0
  -10.7513    6.2384    4.1757 C   0  0  1  0  0  0  0  0  0  0  0  0
  -10.7080    6.3871    5.5932 O   0  0  0  0  0  0  0  0  0  0  0  0
  -12.0164    5.4189    3.8052 C   0  0  2  0  0  0  0  0  0  0  0  0
  -11.8243    4.0703    4.2178 O   0  0  0  0  0  0  0  0  0  0  0  0
  -12.2983    5.4740    2.2687 C   0  0  2  0  0  0  0  0  0  0  0  0
  -11.1791    6.1144    1.5740 O   0  0  0  0  0  0  0  0  0  0  0  0
  -13.5674    6.2654    1.8773 C   0  0  0  0  0  0  0  0  0  0  0  0
  -11.0396    7.8736   -2.7324 C   0  0  1  0  0  0  0  0  0  0  0  0
  -11.1378    7.9648   -4.2063 N   0  3  0  0  0  0  0  0  0  0  0  0
  -10.2605    6.6069   -2.2911 C   0  0  1  0  0  0  0  0  0  0  0  0
   -9.9945    6.5342   -0.7471 C   0  0  1  0  0  0  0  0  0  0  0  0
   -8.9998    5.5029   -0.5061 O   0  0  0  0  0  0  0  0  0  0  0  0
   -9.4398    7.8781   -0.1466 C   0  0  1  0  0  0  0  0  0  0  0  0
  -10.2448    9.1203   -0.6484 C   0  0  1  0  0  0  0  0  0  0  0  0
   -9.6358   10.3913   -0.2061 N   0  3  0  0  0  0  0  0  0  0  0  0
  -10.3585    9.1471   -2.1893 C   0  0  0  0  0  0  0  0  0  0  0  0
   -7.6661    5.6440   -1.0755 C   0  0  1  0  0  0  0  0  0  0  0  0
   -6.6424    5.2513   -0.0169 C   0  0  1  0  0  0  0  0  0  0  0  0
   -6.7023    3.7347   -0.1385 C   0  0  1  0  0  0  0  0  0  0  0  0
   -6.7863    3.5485   -1.6601 C   0  0  2  0  0  0  0  0  0  0  0  0
   -7.4916    4.7118   -2.1551 O   0  0  0  0  0  0  0  0  0  0  0  0
   -7.5295    2.2642   -2.0695 C   0  0  0  0  0  0  0  0  0  0  0  0
   -3.0179    0.1878    0.4032 C   0  0  1  0  0  0  0  0  0  0  0  0
   -3.2362    1.1743    1.5841 C   0  0  1  0  0  0  0  0  0  0  0  0
   -4.7256    1.3473    2.0002 C   0  0  2  0  0  0  0  0  0  0  0  0
   -5.6194    1.6959    0.7668 C   0  0  1  0  0  0  0  0  0  0  0  0
   -5.5128    3.1056    0.4194 O   0  0  0  0  0  0  0  0  0  0  0  0
   -4.3824   -0.2859   -0.1832 C   0  0  1  0  0  0  0  0  0  0  0  0
   -5.2487    0.8741   -0.4084 O   0  0  0  0  0  0  0  0  0  0  0  0
   -4.2171   -1.0658   -1.5130 C   0  0  0  0  0  0  0  0  0  0  0  0
  -14.1536    5.8756    0.5828 N   0  3  0  0  0  0  0  0  0  0  0  0
   -5.3563    5.7550   -0.3784 O   0  0  0  0  0  0  0  0  0  0  0  0
   -2.5019    0.6966    2.7106 O   0  0  0  0  0  0  0  0  0  0  0  0
   -2.2526    0.8520   -0.6048 O   0  0  0  0  0  0  0  0  0  0  0  0
   -7.6557    2.1807   -3.4787 O   0  0  0  0  0  0  0  0  0  0  0  0
  -11.0044    5.4523   -2.6795 O   0  0  0  0  0  0  0  0  0  0  0  0
   -5.4879   -1.6204   -2.0143 N   0  3  0  0  0  0  0  0  0  0  0  0
   -4.8692    2.3278    3.1048 N   0  3  0  0  0  0  0  0  0  0  0  0
  1  2  1  6  0  0  0
  1  3  1  0  0  0  0
  1 10  1  0  0  0  0
  3  4  1  6  0  0  0
  3  5  1  0  0  0  0
  5  6  1  1  0  0  0
  5  7  1  0  0  0  0
  7  8  1  6  0  0  0
  7  9  1  0  0  0  0
  9 10  1  0  0  0  0
  9 11  1  1  0  0  0
 11 35  1  0  0  0  0
 12 13  1  6  0  0  0
 12 14  1  0  0  0  0
 12 20  1  0  0  0  0
 14 15  1  0  0  0  0
 14 40  1  1  0  0  0
 15 16  1  6  0  0  0
 15 17  1  0  0  0  0
 17  2  1  1  0  0  0
 17 18  1  0  0  0  0
 18 19  1  6  0  0  0
 18 20  1  0  0  0  0
 21 16  1  1  0  0  0
 21 22  1  0  0  0  0
 21 25  1  0  0  0  0
 22 23  1  0  0  0  0
 22 36  1  6  0  0  0
 23 24  1  0  0  0  0
 23 31  1  6  0  0  0
 24 25  1  0  0  0  0
 24 26  1  1  0  0  0
 26 39  1  0  0  0  0
 27 28  1  0  0  0  0
 27 32  1  0  0  0  0
 27 38  1  6  0  0  0
 28 29  1  0  0  0  0
 28 37  1  1  0  0  0
 29 30  1  0  0  0  0
 29 42  1  1  0  0  0
 30 31  1  6  0  0  0
 30 33  1  0  0  0  0
 32 33  1  0  0  0  0
 32 34  1  6  0  0  0
 34 41  1  0  0  0  0
M  CHG  6   4   1  13   1  19   1  35   1  41   1  42   1
M  END
>  <CHROM.1>
-174.60343422,-51.04320703,-173.52810757,-174.61493066,65.11879770,-155.58664136
-165.47991391,-49.39909402,-50.74946808,62.00488288,136.77313645,64.35034018
-155.67225725,160.51084221,176.24787427,-176.47245266,148.25623358,-86.88299368
63.33955673,-147.58802714,174.92946024,-169.17813304,-8.23480125,4.65085499
0.32587402,-3.13883894,0.76564472,-1.44374054

>  <Name>


>  <RI>
0

>  <Rbt.Current_Directory>
/home/itssahil/PROJECTS/Mol_Feturizer/New_Systems/rnas/1ei2

>  <Rbt.Executable>
rbdock ($Id: //depot/dev/client3/rdock/2013.1/src/exe/rbdock.cxx#4 $)

>  <Rbt.Library>
libRbt.so (2013.1, Build901 2013/11/27)

>  <Rbt.Parameter_File>
/export/apps/rDock/src/rDock_2013.1_src/data/scripts/dock_solv.prm

>  <Rbt.Receptor>
prm/pocket_docking_5.prm

>  <SCORE>
-43.4719

>  <SCORE.INTER>
-25.9279

>  <SCORE.INTER.CONST>
1

>  <SCORE.INTER.POLAR>
-4.59248

>  <SCORE.INTER.ROT>
9

>  <SCORE.INTER.SOLV>
22.1104

>  <SCORE.INTER.VDW>
-18.9471

>  <SCORE.INTER.norm>
-0.61733

>  <SCORE.INTRA>
-17.544

>  <SCORE.INTRA.DIHEDRAL>
-14.3818

>  <SCORE.INTRA.DIHEDRAL.0>
40.8761

>  <SCORE.INTRA.POLAR>
-0.157228

>  <SCORE.INTRA.POLAR.0>
-0.0268208

>  <SCORE.INTRA.REPUL>
-0.641615

>  <SCORE.INTRA.REPUL.0>
0.641615

>  <SCORE.INTRA.SOLV>
-14.5558

>  <SCORE.INTRA.SOLV.lig_0>
-162.567

>  <SCORE.INTRA.VDW>
0.667424

>  <SCORE.INTRA.VDW.0>
-4.80338

>  <SCORE.INTRA.norm>
-0.417715

>  <SCORE.RESTR>
0

>  <SCORE.RESTR.CAVITY>
0

>  <SCORE.RESTR.norm>
0

>  <SCORE.SYSTEM>
0

>  <SCORE.SYSTEM.CONST>
0

>  <SCORE.SYSTEM.DIHEDRAL>
0

>  <SCORE.SYSTEM.SOLV>
0

>  <SCORE.SYSTEM.norm>
0

>  <SCORE.heavy>
42

>  <SCORE.norm>
-1.03505

>  <RMSD>
6.448

$$$$

 OpenBabel11021811393D
libRbt.so/2013.1/901 2013/11/27
 42 45  0  0  0  0  0  0  0  0999 V2000
   -8.2531    4.7742   -1.5610 C   0  0  2  0  0  0  0  0  0  0  0  0
   -7.5511    3.8647   -2.4630 O   0  0  0  0  0  0  0  0  0  0  0  0
   -9.7124    4.2908   -1.2769 C   0  0  2  0  0  0  0  0  0  0  0  0
   -9.9115    2.8820   -1.6878 N   0  3  0  0  0  0  0  0  0  0  0  0
  -10.7466    5.2179   -1.9838 C   0  0  1  0  0  0  0  0  0  0  0  0
  -12.0734    4.7733   -1.7091 O   0  0  0  0  0  0  0  0  0  0  0  0
  -10.6145    6.6917   -1.5149 C   0  0  2  0  0  0  0  0  0  0  0  0
  -11.3696    7.5198   -2.3923 O   0  0  0  0  0  0  0  0  0  0  0  0
   -9.1202    7.1502   -1.4992 C   0  0  2  0  0  0  0  0  0  0  0  0
   -8.2739    6.1308   -2.1237 O   0  0  0  0  0  0  0  0  0  0  0  0
   -8.5397    7.3969   -0.0877 C   0  0  0  0  0  0  0  0  0  0  0  0
   -3.6308    2.9707   -4.0288 C   0  0  1  0  0  0  0  0  0  0  0  0
   -2.1675    2.9371   -4.2480 N   0  3  0  0  0  0  0  0  0  0  0  0
   -4.0235    2.2731   -2.7002 C   0  0  1  0  0  0  0  0  0  0  0  0
   -5.5441    2.4086   -2.3403 C   0  0  1  0  0  0  0  0  0  0  0  0
   -5.7191    2.0130   -0.9533 O   0  0  0  0  0  0  0  0  0  0  0  0
   -6.0907    3.8761   -2.4879 C   0  0  1  0  0  0  0  0  0  0  0  0
   -5.6398    4.5371   -3.8305 C   0  0  1  0  0  0  0  0  0  0  0  0
   -6.0254    5.9611   -3.9044 N   0  3  0  0  0  0  0  0  0  0  0  0
   -4.1115    4.4368   -4.0353 C   0  0  0  0  0  0  0  0  0  0  0  0
   -5.3209    0.6764   -0.5317 C   0  0  1  0  0  0  0  0  0  0  0  0
   -3.8331    0.6948   -0.2016 C   0  0  1  0  0  0  0  0  0  0  0  0
   -3.8784    1.2910    1.1987 C   0  0  1  0  0  0  0  0  0  0  0  0
   -5.0948    0.5741    1.8018 C   0  0  2  0  0  0  0  0  0  0  0  0
   -5.9899    0.3272    0.6912 O   0  0  0  0  0  0  0  0  0  0  0  0
   -5.8085    1.4052    2.8831 C   0  0  0  0  0  0  0  0  0  0  0  0
   -3.5076    4.1290    4.0065 C   0  0  1  0  0  0  0  0  0  0  0  0
   -3.0581    2.7616    4.5925 C   0  0  1  0  0  0  0  0  0  0  0  0
   -1.7646    2.1875    3.9454 C   0  0  2  0  0  0  0  0  0  0  0  0
   -1.8803    2.1528    2.3875 C   0  0  1  0  0  0  0  0  0  0  0  0
   -2.6583    1.0060    1.9416 O   0  0  0  0  0  0  0  0  0  0  0  0
   -2.6186    4.5303    2.7904 C   0  0  1  0  0  0  0  0  0  0  0  0
   -2.5017    3.3946    1.8722 O   0  0  0  0  0  0  0  0  0  0  0  0
   -3.1831    5.7528    2.0216 C   0  0  0  0  0  0  0  0  0  0  0  0
   -8.4933    8.8141    0.3130 N   0  3  0  0  0  0  0  0  0  0  0  0
   -3.3252   -0.6396   -0.1862 O   0  0  0  0  0  0  0  0  0  0  0  0
   -2.8327    2.9245    5.9922 O   0  0  0  0  0  0  0  0  0  0  0  0
   -4.8744    4.0202    3.6029 O   0  0  0  0  0  0  0  0  0  0  0  0
   -5.8999    0.6817    4.0983 O   0  0  0  0  0  0  0  0  0  0  0  0
   -3.7007    0.8861   -2.7975 O   0  0  0  0  0  0  0  0  0  0  0  0
   -2.3774    6.1086    0.8392 N   0  3  0  0  0  0  0  0  0  0  0  0
   -1.4109    0.8664    4.5214 N   0  3  0  0  0  0  0  0  0  0  0  0
  1  2  1  6  0  0  0
  1  3  1  0  0  0  0
  1 10  1  0  0  0  0
  3  4  1  6  0  0  0
  3  5  1  0  0  0  0
  5  6  1  1  0  0  0
  5  7  1  0  0  0  0
  7  8  1  6  0  0  0
  7  9  1  0  0  0  0
  9 10  1  0  0  0  0
  9 11  1  1  0  0  0
 11 35  1  0  0  0  0
 12 13  1  1  0  0  0
 12 14  1  0  0  0  0
 12 20  1  0  0  0  0
 14 15  1  0  0  0  0
 14 40  1  6  0  0  0
 15 16  1  1  0  0  0
 15 17  1  0  0  0  0
 17  2  1  6  0  0  0
 17 18  1  0  0  0  0
 18 19  1  1  0  0  0
 18 20  1  0  0  0  0
 21 16  1  1  0  0  0
 21 22  1  0  0  0  0
 21 25  1  0  0  0  0
 22 23  1  0  0  0  0
 22 36  1  1  0  0  0
 23 24  1  0  0  0  0
 23 31  1  1  0  0  0
 24 25  1  0  0  0  0
 24 26  1  1  0  0  0
 26 39  1  0  0  0  0
 27 28  1  0  0  0  0
 27 32  1  0  0  0  0
 27 38  1  6  0  0  0
 28 29  1  0  0  0  0
 28 37  1  1  0  0  0
 29 30  1  0  0  0  0
 29 42  1  1  0  0  0
 30 31  1  1  0  0  0
 30 33  1  0  0  0  0
 32 33  1  0  0  0  0
 32 34  1  6  0  0  0
 34 41  1  0  0  0  0
M  CHG  6   4   1  13   1  19   1  35   1  41   1  42   1
M  END
>  <CHROM.1>
-159.24857171,129.71899115,-167.86018321,-81.62069984,48.42214406,-99.96305488
-63.71113801,-179.60968082,-51.88087022,-58.49811931,85.04815869,-172.38443855
65.17678792,119.49276567,-124.48494273,-158.08318487,168.83930229,-58.25462228
63.64941992,118.96456410,-177.80338462,-60.64767162,-5.56215390,3.49572136
-0.01406450,2.64516934,0.63640772,-1.74808786

>  <Name>


>  <RI>
0

>  <Rbt.Current_Directory>
/home/itssahil/PROJECTS/Mol_Feturizer/New_Systems/rnas/1ei2

>  <Rbt.Executable>
rbdock ($Id: //depot/dev/client3/rdock/2013.1/src/exe/rbdock.cxx#4 $)

>  <Rbt.Library>
libRbt.so (2013.1, Build901 2013/11/27)

>  <Rbt.Parameter_File>
/export/apps/rDock/src/rDock_2013.1_src/data/scripts/dock_solv.prm

>  <Rbt.Receptor>
prm/pocket_docking_4.prm

>  <SCORE>
-37.9403

>  <SCORE.INTER>
-27.8862

>  <SCORE.INTER.CONST>
1

>  <SCORE.INTER.POLAR>
-4.70859

>  <SCORE.INTER.ROT>
9

>  <SCORE.INTER.SOLV>
26.9672

>  <SCORE.INTER.VDW>
-21.4845

>  <SCORE.INTER.norm>
-0.663957

>  <SCORE.INTRA>
-10.7145

>  <SCORE.INTRA.DIHEDRAL>
1.08698

>  <SCORE.INTRA.DIHEDRAL.0>
40.8761

>  <SCORE.INTRA.POLAR>
-1.05024

>  <SCORE.INTRA.POLAR.0>
-0.0268208

>  <SCORE.INTRA.REPUL>
-0.641615

>  <SCORE.INTRA.REPUL.0>
0.641615

>  <SCORE.INTRA.SOLV>
-11.4997

>  <SCORE.INTRA.SOLV.lig_0>
-162.567

>  <SCORE.INTRA.VDW>
1.27072

>  <SCORE.INTRA.VDW.0>
-4.80338

>  <SCORE.INTRA.norm>
-0.255108

>  <SCORE.RESTR>
0.660442

>  <SCORE.RESTR.CAVITY>
0.660442

>  <SCORE.RESTR.norm>
0.0157248

>  <SCORE.SYSTEM>
0

>  <SCORE.SYSTEM.CONST>
0

>  <SCORE.SYSTEM.DIHEDRAL>
0

>  <SCORE.SYSTEM.SOLV>
0

>  <SCORE.SYSTEM.norm>
0

>  <SCORE.heavy>
42

>  <SCORE.norm>
-0.90334

>  <RMSD>
6.462

$$$$

 OpenBabel11021811393D
libRbt.so/2013.1/901 2013/11/27
 42 45  0  0  0  0  0  0  0  0999 V2000
   -4.7199    2.1697   -4.9310 C   0  0  2  0  0  0  0  0  0  0  0  0
   -3.6691    2.0797   -3.9204 O   0  0  0  0  0  0  0  0  0  0  0  0
   -5.3729    3.5899   -4.9577 C   0  0  2  0  0  0  0  0  0  0  0  0
   -4.5537    4.5823   -4.2249 N   0  3  0  0  0  0  0  0  0  0  0  0
   -6.8195    3.5414   -4.3798 C   0  0  1  0  0  0  0  0  0  0  0  0
   -7.4080    4.8396   -4.4188 O   0  0  0  0  0  0  0  0  0  0  0  0
   -7.7262    2.5657   -5.1769 C   0  0  2  0  0  0  0  0  0  0  0  0
   -8.9232    2.3477   -4.4384 O   0  0  0  0  0  0  0  0  0  0  0  0
   -7.0029    1.2050   -5.4388 C   0  0  2  0  0  0  0  0  0  0  0  0
   -5.7473    1.1489   -4.6868 O   0  0  0  0  0  0  0  0  0  0  0  0
   -6.6389    0.9464   -6.9190 C   0  0  0  0  0  0  0  0  0  0  0  0
   -3.5030   -2.2319   -3.8729 C   0  0  1  0  0  0  0  0  0  0  0  0
   -3.0544   -3.6296   -3.6843 N   0  3  0  0  0  0  0  0  0  0  0  0
   -3.7725   -1.5324   -2.5149 C   0  0  1  0  0  0  0  0  0  0  0  0
   -4.1056   -0.0053   -2.6454 C   0  0  1  0  0  0  0  0  0  0  0  0
   -4.0139    0.5936   -1.3248 O   0  0  0  0  0  0  0  0  0  0  0  0
   -3.1137    0.7703   -3.5881 C   0  0  1  0  0  0  0  0  0  0  0  0
   -2.8584    0.0048   -4.9267 C   0  0  1  0  0  0  0  0  0  0  0  0
   -1.8161    0.6549   -5.7471 N   0  3  0  0  0  0  0  0  0  0  0  0
   -2.4368   -1.4610   -4.6789 C   0  0  0  0  0  0  0  0  0  0  0  0
   -4.9986    0.2466   -0.3086 C   0  0  1  0  0  0  0  0  0  0  0  0
   -4.6096    0.9294    0.9973 C   0  0  1  0  0  0  0  0  0  0  0  0
   -5.1459    2.3302    0.7351 C   0  0  1  0  0  0  0  0  0  0  0  0
   -6.4857    2.0262    0.0497 C   0  0  2  0  0  0  0  0  0  0  0  0
   -6.2829    0.7837   -0.6650 O   0  0  0  0  0  0  0  0  0  0  0  0
   -6.9279    3.1322   -0.9252 C   0  0  0  0  0  0  0  0  0  0  0  0
   -1.6704    3.3358    0.8370 C   0  0  1  0  0  0  0  0  0  0  0  0
   -2.7922    4.3539    0.4901 C   0  0  1  0  0  0  0  0  0  0  0  0
   -3.6006    4.8528    1.7225 C   0  0  2  0  0  0  0  0  0  0  0  0
   -4.1333    3.6538    2.5712 C   0  0  1  0  0  0  0  0  0  0  0  0
   -5.3279    3.0743    1.9741 O   0  0  0  0  0  0  0  0  0  0  0  0
   -1.7239    2.9442    2.3449 C   0  0  1  0  0  0  0  0  0  0  0  0
   -3.0999    2.6025    2.7145 O   0  0  0  0  0  0  0  0  0  0  0  0
   -0.7933    1.7503    2.6804 C   0  0  0  0  0  0  0  0  0  0  0  0
   -7.7976    0.8590   -7.8252 N   0  3  0  0  0  0  0  0  0  0  0  0
   -5.2865    0.3057    2.0888 O   0  0  0  0  0  0  0  0  0  0  0  0
   -2.1944    5.4814   -0.1485 O   0  0  0  0  0  0  0  0  0  0  0  0
   -1.8447    2.1758    0.0203 O   0  0  0  0  0  0  0  0  0  0  0  0
   -5.8059    3.7429   -1.5392 O   0  0  0  0  0  0  0  0  0  0  0  0
   -4.8682   -2.1839   -1.8728 O   0  0  0  0  0  0  0  0  0  0  0  0
   -1.0301    1.1995    4.0274 N   0  3  0  0  0  0  0  0  0  0  0  0
   -4.6777    5.7910    1.3204 N   0  3  0  0  0  0  0  0  0  0  0  0
  1  2  1  1  0  0  0
  1  3  1  0  0  0  0
  1 10  1  0  0  0  0
  3  4  1  1  0  0  0
  3  5  1  0  0  0  0
  5  6  1  6  0  0  0
  5  7  1  0  0  0  0
  7  8  1  1  0  0  0
  7  9  1  0  0  0  0
  9 10  1  0  0  0  0
  9 11  1  6  0  0  0
 11 35  1  0  0  0  0
 12 13  1  1  0  0  0
 12 14  1  0  0  0  0
 12 20  1  0  0  0  0
 14 15  1  0  0  0  0
 14 40  1  6  0  0  0
 15 16  1  1  0  0  0
 15 17  1  0  0  0  0
 17  2  1  6  0  0  0
 17 18  1  0  0  0  0
 18 19  1  1  0  0  0
 18 20  1  0  0  0  0
 21 16  1  6  0  0  0
 21 22  1  0  0  0  0
 21 25  1  0  0  0  0
 22 23  1  0  0  0  0
 22 36  1  1  0  0  0
 23 24  1  0  0  0  0
 23 31  1  1  0  0  0
 24 25  1  0  0  0  0
 24 26  1  6  0  0  0
 26 39  1  0  0  0  0
 27 28  1  0  0  0  0
 27 32  1  0  0  0  0
 27 38  1  6  0  0  0
 28 29  1  0  0  0  0
 28 37  1  1  0  0  0
 29 30  1  0  0  0  0
 29 42  1  6  0  0  0
 30 31  1  6  0  0  0
 30 33  1  0  0  0  0
 32 33  1  0  0  0  0
 32 34  1  6  0  0  0
 34 41  1  0  0  0  0
M  CHG  6   4   1  13   1  19   1  35   1  41   1  42   1
M  END
>  <CHROM.1>
169.19842547,-77.83855817,27.63444663,-172.78982973,61.52903194,-62.64161918
-175.54394302,60.94992557,-60.43111106,-68.68328155,175.86352504,-56.82228163
-63.23751258,78.98700112,32.86602849,-164.11734324,-52.56061538,60.73556436
-59.15825840,70.66625472,-168.57386469,53.10754789,-4.50096884,1.81264207
-1.79352087,2.15059119,0.88914791,-2.28079719

>  <Name>


>  <RI>
0

>  <Rbt.Current_Directory>
/home/itssahil/PROJECTS/Mol_Feturizer/New_Systems/rnas/1ei2

>  <Rbt.Executable>
rbdock ($Id: //depot/dev/client3/rdock/2013.1/src/exe/rbdock.cxx#4 $)

>  <Rbt.Library>
libRbt.so (2013.1, Build901 2013/11/27)

>  <Rbt.Parameter_File>
/export/apps/rDock/src/rDock_2013.1_src/data/scripts/dock_solv.prm

>  <Rbt.Receptor>
prm/pocket_docking_5.prm

>  <SCORE>
-48.7452

>  <SCORE.INTER>
-22.7914

>  <SCORE.INTER.CONST>
1

>  <SCORE.INTER.POLAR>
-3.79691

>  <SCORE.INTER.ROT>
9

>  <SCORE.INTER.SOLV>
22.5288

>  <SCORE.INTER.VDW>
-19.6475

>  <SCORE.INTER.norm>
-0.542652

>  <SCORE.INTRA>
-26.1705

>  <SCORE.INTRA.DIHEDRAL>
-28.735

>  <SCORE.INTRA.DIHEDRAL.0>
40.8761

>  <SCORE.INTRA.POLAR>
-1.4498

>  <SCORE.INTRA.POLAR.0>
-0.0268208

>  <SCORE.INTRA.REPUL>
-0.638264

>  <SCORE.INTRA.REPUL.0>
0.641615

>  <SCORE.INTRA.SOLV>
-7.22674

>  <SCORE.INTRA.SOLV.lig_0>
-162.567

>  <SCORE.INTRA.VDW>
-0.069003

>  <SCORE.INTRA.VDW.0>
-4.80338

>  <SCORE.INTRA.norm>
-0.623107

>  <SCORE.RESTR>
0.216671

>  <SCORE.RESTR.CAVITY>
0.216671

>  <SCORE.RESTR.norm>
0.00515884

>  <SCORE.SYSTEM>
0

>  <SCORE.SYSTEM.CONST>
0

>  <SCORE.SYSTEM.DIHEDRAL>
0

>  <SCORE.SYSTEM.SOLV>
0

>  <SCORE.SYSTEM.norm>
0

>  <SCORE.heavy>
42

>  <SCORE.norm>
-1.1606

>  <RMSD>
6.481

$$$$

 OpenBabel11021811393D
libRbt.so/2013.1/901 2013/11/27
 42 45  0  0  0  0  0  0  0  0999 V2000
   -8.4587    5.4379   -4.1277 C   0  0  2  0  0  0  0  0  0  0  0  0
   -7.3374    4.5868   -4.5176 O   0  0  0  0  0  0  0  0  0  0  0  0
   -8.3112    6.8839   -4.7032 C   0  0  2  0  0  0  0  0  0  0  0  0
   -7.2870    6.9457   -5.7710 N   0  3  0  0  0  0  0  0  0  0  0  0
   -7.9781    7.8970   -3.5667 C   0  0  1  0  0  0  0  0  0  0  0  0
   -7.8560    9.2131   -4.1018 O   0  0  0  0  0  0  0  0  0  0  0  0
   -9.0746    7.9121   -2.4682 C   0  0  2  0  0  0  0  0  0  0  0  0
   -8.5806    8.6237   -1.3390 O   0  0  0  0  0  0  0  0  0  0  0  0
   -9.4802    6.4611   -2.0515 C   0  0  2  0  0  0  0  0  0  0  0  0
   -8.5722    5.4887   -2.6643 O   0  0  0  0  0  0  0  0  0  0  0  0
  -10.9103    6.0494   -2.4704 C   0  0  0  0  0  0  0  0  0  0  0  0
   -9.2790    0.8559   -3.5530 C   0  0  1  0  0  0  0  0  0  0  0  0
   -9.5538   -0.5813   -3.3308 N   0  3  0  0  0  0  0  0  0  0  0  0
   -8.2874    1.4153   -2.4994 C   0  0  1  0  0  0  0  0  0  0  0  0
   -7.8422    2.8941   -2.7729 C   0  0  1  0  0  0  0  0  0  0  0  0
   -6.6936    3.1851   -1.9320 O   0  0  0  0  0  0  0  0  0  0  0  0
   -7.4150    3.1503   -4.2649 C   0  0  1  0  0  0  0  0  0  0  0  0
   -8.4355    2.5401   -5.2795 C   0  0  1  0  0  0  0  0  0  0  0  0
   -7.9625    2.6485   -6.6746 N   0  3  0  0  0  0  0  0  0  0  0  0
   -8.7241    1.0520   -4.9792 C   0  0  0  0  0  0  0  0  0  0  0  0
   -5.4323    2.4976   -2.1757 C   0  0  1  0  0  0  0  0  0  0  0  0
   -4.2902    3.4164   -1.7581 C   0  0  1  0  0  0  0  0  0  0  0  0
   -4.3019    3.1882   -0.2527 C   0  0  1  0  0  0  0  0  0  0  0  0
   -4.5346    1.6729   -0.1704 C   0  0  2  0  0  0  0  0  0  0  0  0
   -5.3329    1.3392   -1.3311 O   0  0  0  0  0  0  0  0  0  0  0  0
   -5.2643    1.2447    1.1155 C   0  0  0  0  0  0  0  0  0  0  0  0
   -0.4644    4.6657    2.9902 C   0  0  1  0  0  0  0  0  0  0  0  0
   -0.7334    5.3943    1.6440 C   0  0  1  0  0  0  0  0  0  0  0  0
   -2.2350    5.7032    1.3778 C   0  0  2  0  0  0  0  0  0  0  0  0
   -3.1127    4.4206    1.5405 C   0  0  1  0  0  0  0  0  0  0  0  0
   -3.0371    3.5760    0.3573 O   0  0  0  0  0  0  0  0  0  0  0  0
   -1.8035    4.2848    3.6917 C   0  0  1  0  0  0  0  0  0  0  0  0
   -2.6961    3.6377    2.7268 O   0  0  0  0  0  0  0  0  0  0  0  0
   -1.5901    3.3409    4.9031 C   0  0  0  0  0  0  0  0  0  0  0  0
  -11.9832    6.7193   -1.7144 N   0  3  0  0  0  0  0  0  0  0  0  0
   -3.0692    2.9672   -2.3461 O   0  0  0  0  0  0  0  0  0  0  0  0
   -0.0095    6.6241    1.6459 O   0  0  0  0  0  0  0  0  0  0  0  0
    0.3030    3.4900    2.7222 O   0  0  0  0  0  0  0  0  0  0  0  0
   -6.4977    1.9299    1.2487 O   0  0  0  0  0  0  0  0  0  0  0  0
   -8.9032    1.3560   -1.2131 O   0  0  0  0  0  0  0  0  0  0  0  0
   -2.8361    3.0652    5.6417 N   0  3  0  0  0  0  0  0  0  0  0  0
   -2.4276    6.3639    0.0631 N   0  3  0  0  0  0  0  0  0  0  0  0
  1  2  1  1  0  0  0
  1  3  1  0  0  0  0
  1 10  1  0  0  0  0
  3  4  1  6  0  0  0
  3  5  1  0  0  0  0
  5  6  1  6  0  0  0
  5  7  1  0  0  0  0
  7  8  1  1  0  0  0
  7  9  1  0  0  0  0
  9 10  1  0  0  0  0
  9 11  1  6  0  0  0
 11 35  1  0  0  0  0
 12 13  1  1  0  0  0
 12 14  1  0  0  0  0
 12 20  1  0  0  0  0
 14 15  1  0  0  0  0
 14 40  1  1  0  0  0
 15 16  1  1  0  0  0
 15 17  1  0  0  0  0
 17  2  1  1  0  0  0
 17 18  1  0  0  0  0
 18 19  1  6  0  0  0
 18 20  1  0  0  0  0
 21 16  1  1  0  0  0
 21 22  1  0  0  0  0
 21 25  1  0  0  0  0
 22 23  1  0  0  0  0
 22 36  1  6  0  0  0
 23 24  1  0  0  0  0
 23 31  1  6  0  0  0
 24 25  1  0  0  0  0
 24 26  1  1  0  0  0
 26 39  1  0  0  0  0
 27 28  1  0  0  0  0
 27 32  1  0  0  0  0
 27 38  1  6  0  0  0
 28 29  1  0  0  0  0
 28 37  1  1  0  0  0
 29 30  1  0  0  0  0
 29 42  1  6  0  0  0
 30 31  1  6  0  0  0
 30 33  1  0  0  0  0
 32 33  1  0  0  0  0
 32 34  1  1  0  0  0
 34 41  1  0  0  0  0
M  CHG  6   4   1  13   1  19   1  35   1  41   1  42   1
M  END
>  <CHROM.1>
-169.69754784,-49.74489420,-41.08896567,59.61931003,-43.36910413,-71.13018611
176.18294585,50.34486723,-53.84144073,66.92335322,150.06002592,-174.33823345
-163.68229275,131.62565442,56.09038603,166.51323878,67.27808752,167.75548749
78.68018509,-126.87638956,175.18167595,54.62251006,-5.90745372,4.14809824
-1.23674483,-3.04130466,0.72626526,3.07824618

>  <Name>


>  <RI>
0

>  <Rbt.Current_Directory>
/home/itssahil/PROJECTS/Mol_Feturizer/New_Systems/rnas/1ei2

>  <Rbt.Executable>
rbdock ($Id: //depot/dev/client3/rdock/2013.1/src/exe/rbdock.cxx#4 $)

>  <Rbt.Library>
libRbt.so (2013.1, Build901 2013/11/27)

>  <Rbt.Parameter_File>
/export/apps/rDock/src/rDock_2013.1_src/data/scripts/dock_solv.prm

>  <Rbt.Receptor>
prm/pocket_docking_5.prm

>  <SCORE>
-47.8847

>  <SCORE.INTER>
-31.3224

>  <SCORE.INTER.CONST>
1

>  <SCORE.INTER.POLAR>
-7.38281

>  <SCORE.INTER.ROT>
9

>  <SCORE.INTER.SOLV>
27.0793

>  <SCORE.INTER.VDW>
-14.8987

>  <SCORE.INTER.norm>
-0.745772

>  <SCORE.INTRA>
-16.5623

>  <SCORE.INTRA.DIHEDRAL>
-14.8461

>  <SCORE.INTRA.DIHEDRAL.0>
40.8761

>  <SCORE.INTRA.POLAR>
-0.175657

>  <SCORE.INTRA.POLAR.0>
-0.0268208

>  <SCORE.INTRA.REPUL>
-0.584457

>  <SCORE.INTRA.REPUL.0>
0.641615

>  <SCORE.INTRA.SOLV>
-12.4677

>  <SCORE.INTRA.SOLV.lig_0>
-162.567

>  <SCORE.INTRA.VDW>
0.614175

>  <SCORE.INTRA.VDW.0>
-4.80338

>  <SCORE.INTRA.norm>
-0.39434

>  <SCORE.RESTR>
0

>  <SCORE.RESTR.CAVITY>
0

>  <SCORE.RESTR.norm>
0

>  <SCORE.SYSTEM>
0

>  <SCORE.SYSTEM.CONST>
0

>  <SCORE.SYSTEM.DIHEDRAL>
0

>  <SCORE.SYSTEM.SOLV>
0

>  <SCORE.SYSTEM.norm>
0

>  <SCORE.heavy>
42

>  <SCORE.norm>
-1.14011

>  <RMSD>
6.501

$$$$

 OpenBabel11021811393D
libRbt.so/2013.1/901 2013/11/27
 42 45  0  0  0  0  0  0  0  0999 V2000
   -7.6951    3.3178   -3.5148 C   0  0  2  0  0  0  0  0  0  0  0  0
   -7.1234    3.9756   -4.6870 O   0  0  0  0  0  0  0  0  0  0  0  0
   -9.2500    3.4729   -3.4687 C   0  0  2  0  0  0  0  0  0  0  0  0
   -9.7933    3.9247   -4.7701 N   0  3  0  0  0  0  0  0  0  0  0  0
   -9.6719    4.4508   -2.3308 C   0  0  1  0  0  0  0  0  0  0  0  0
  -11.0919    4.5762   -2.2921 O   0  0  0  0  0  0  0  0  0  0  0  0
   -9.1828    3.9630   -0.9408 C   0  0  2  0  0  0  0  0  0  0  0  0
   -9.3402    5.0224   -0.0034 O   0  0  0  0  0  0  0  0  0  0  0  0
   -7.6873    3.5109   -0.9922 C   0  0  2  0  0  0  0  0  0  0  0  0
   -7.0994    3.8612   -2.2872 O   0  0  0  0  0  0  0  0  0  0  0  0
   -7.4700    1.9912   -0.8091 C   0  0  0  0  0  0  0  0  0  0  0  0
   -4.2334    1.3562   -6.5326 C   0  0  1  0  0  0  0  0  0  0  0  0
   -2.9905    0.8104   -7.1223 N   0  3  0  0  0  0  0  0  0  0  0  0
   -4.0851    1.5880   -5.0061 C   0  0  1  0  0  0  0  0  0  0  0  0
   -5.3177    2.3049   -4.3528 C   0  0  1  0  0  0  0  0  0  0  0  0
   -4.9318    2.7512   -3.0250 O   0  0  0  0  0  0  0  0  0  0  0  0
   -5.8016    3.5678   -5.1560 C   0  0  1  0  0  0  0  0  0  0  0  0
   -5.9044    3.2829   -6.6893 C   0  0  1  0  0  0  0  0  0  0  0  0
   -6.2136    4.5040   -7.4607 N   0  3  0  0  0  0  0  0  0  0  0  0
   -4.5997    2.6727   -7.2490 C   0  0  0  0  0  0  0  0  0  0  0  0
   -4.1329    3.9606   -2.8776 C   0  0  1  0  0  0  0  0  0  0  0  0
   -4.2014    4.4134   -1.4239 C   0  0  1  0  0  0  0  0  0  0  0  0
   -3.1754    3.4744   -0.8041 C   0  0  1  0  0  0  0  0  0  0  0  0
   -2.0699    3.4760   -1.8695 C   0  0  2  0  0  0  0  0  0  0  0  0
   -2.7490    3.6696   -3.1332 O   0  0  0  0  0  0  0  0  0  0  0  0
   -1.2595    2.1677   -1.8984 C   0  0  0  0  0  0  0  0  0  0  0  0
   -3.0381    2.0399    3.7730 C   0  0  1  0  0  0  0  0  0  0  0  0
   -2.2072    3.3388    3.5784 C   0  0  1  0  0  0  0  0  0  0  0  0
   -2.9898    4.4971    2.8951 C   0  0  2  0  0  0  0  0  0  0  0  0
   -3.6587    4.0196    1.5661 C   0  0  1  0  0  0  0  0  0  0  0  0
   -2.6948    3.9766    0.4760 O   0  0  0  0  0  0  0  0  0  0  0  0
   -4.4347    2.1678    3.0921 C   0  0  1  0  0  0  0  0  0  0  0  0
   -4.2710    2.6809    1.7296 O   0  0  0  0  0  0  0  0  0  0  0  0
   -5.1951    0.8176    3.0417 C   0  0  0  0  0  0  0  0  0  0  0  0
   -6.8393    1.6154    0.4685 N   0  3  0  0  0  0  0  0  0  0  0  0
   -3.7910    5.7772   -1.3229 O   0  0  0  0  0  0  0  0  0  0  0  0
   -1.7623    3.7840    4.8591 O   0  0  0  0  0  0  0  0  0  0  0  0
   -2.3109    0.9489    3.2041 O   0  0  0  0  0  0  0  0  0  0  0  0
   -0.5323    1.9970   -0.6940 O   0  0  0  0  0  0  0  0  0  0  0  0
   -3.9011    0.3255   -4.3661 O   0  0  0  0  0  0  0  0  0  0  0  0
   -5.8127    0.4587    4.3316 N   0  3  0  0  0  0  0  0  0  0  0  0
   -2.1316    5.6928    2.7050 N   0  3  0  0  0  0  0  0  0  0  0  0
  1  2  1  6  0  0  0
  1  3  1  0  0  0  0
  1 10  1  0  0  0  0
  3  4  1  6  0  0  0
  3  5  1  0  0  0  0
  5  6  1  1  0  0  0
  5  7  1  0  0  0  0
  7  8  1  1  0  0  0
  7  9  1  0  0  0  0
  9 10  1  0  0  0  0
  9 11  1  6  0  0  0
 11 35  1  0  0  0  0
 12 13  1  6  0  0  0
 12 14  1  0  0  0  0
 12 20  1  0  0  0  0
 14 15  1  0  0  0  0
 14 40  1  1  0  0  0
 15 16  1  1  0  0  0
 15 17  1  0  0  0  0
 17  2  1  1  0  0  0
 17 18  1  0  0  0  0
 18 19  1  6  0  0  0
 18 20  1  0  0  0  0
 21 16  1  1  0  0  0
 21 22  1  0  0  0  0
 21 25  1  0  0  0  0
 22 23  1  0  0  0  0
 22 36  1  6  0  0  0
 23 24  1  0  0  0  0
 23 31  1  1  0  0  0
 24 25  1  0  0  0  0
 24 26  1  6  0  0  0
 26 39  1  0  0  0  0
 27 28  1  0  0  0  0
 27 32  1  0  0  0  0
 27 38  1  6  0  0  0
 28 29  1  0  0  0  0
 28 37  1  1  0  0  0
 29 30  1  0  0  0  0
 29 42  1  6  0  0  0
 30 31  1  6  0  0  0
 30 33  1  0  0  0  0
 32 33  1  0  0  0  0
 32 34  1  6  0  0  0
 34 41  1  0  0  0  0
M  CHG  6   4   1  13   1  19   1  35   1  41   1  42   1
M  END
>  <CHROM.1>
-158.94909791,7.32707535,36.50212487,-171.64790478,64.50237947,-109.98541535
-47.74773734,36.91081803,74.79644192,78.59673733,164.29756478,160.09433199
-55.28462716,66.97597717,-65.25950591,-152.56061871,65.26218451,-61.60832078
171.87647705,176.66224790,78.10430505,-159.54390769,-5.05371369,3.10023169
-1.42996327,1.98612149,0.19431484,-1.61090644

>  <Name>


>  <RI>
0

>  <Rbt.Current_Directory>
/home/itssahil/PROJECTS/Mol_Feturizer/New_Systems/rnas/1ei2

>  <Rbt.Executable>
rbdock ($Id: //depot/dev/client3/rdock/2013.1/src/exe/rbdock.cxx#4 $)

>  <Rbt.Library>
libRbt.so (2013.1, Build901 2013/11/27)

>  <Rbt.Parameter_File>
/export/apps/rDock/src/rDock_2013.1_src/data/scripts/dock_solv.prm

>  <Rbt.Receptor>
prm/pocket_docking_4.prm

>  <SCORE>
-57.2868

>  <SCORE.INTER>
-40.7143

>  <SCORE.INTER.CONST>
1

>  <SCORE.INTER.POLAR>
-7.51391

>  <SCORE.INTER.ROT>
9

>  <SCORE.INTER.SOLV>
30.8297

>  <SCORE.INTER.VDW>
-21.973

>  <SCORE.INTER.norm>
-0.969387

>  <SCORE.INTRA>
-16.9962

>  <SCORE.INTRA.DIHEDRAL>
-12.6653

>  <SCORE.INTRA.DIHEDRAL.0>
40.8761

>  <SCORE.INTRA.POLAR>
-1.13985

>  <SCORE.INTRA.POLAR.0>
-0.0268208

>  <SCORE.INTRA.REPUL>
-0.641615

>  <SCORE.INTRA.REPUL.0>
0.641615

>  <SCORE.INTRA.SOLV>
-9.6219

>  <SCORE.INTRA.SOLV.lig_0>
-162.567

>  <SCORE.INTRA.VDW>
1.23096

>  <SCORE.INTRA.VDW.0>
-4.80338

>  <SCORE.INTRA.norm>
-0.404671

>  <SCORE.RESTR>
0.423627

>  <SCORE.RESTR.CAVITY>
0.423627

>  <SCORE.RESTR.norm>
0.0100864

>  <SCORE.SYSTEM>
0

>  <SCORE.SYSTEM.CONST>
0

>  <SCORE.SYSTEM.DIHEDRAL>
0

>  <SCORE.SYSTEM.SOLV>
0

>  <SCORE.SYSTEM.norm>
0

>  <SCORE.heavy>
42

>  <SCORE.norm>
-1.36397

>  <RMSD>
6.506

$$$$

 OpenBabel11021811393D
libRbt.so/2013.1/901 2013/11/27
 42 45  0  0  0  0  0  0  0  0999 V2000
  -10.2691    4.7993    1.0628 C   0  0  2  0  0  0  0  0  0  0  0  0
   -9.7939    3.4312    0.8725 O   0  0  0  0  0  0  0  0  0  0  0  0
   -9.2768    5.6377    1.9325 C   0  0  2  0  0  0  0  0  0  0  0  0
   -7.9584    4.9737    2.0512 N   0  3  0  0  0  0  0  0  0  0  0  0
   -9.8792    5.9132    3.3432 C   0  0  1  0  0  0  0  0  0  0  0  0
   -8.9700    6.6868    4.1232 O   0  0  0  0  0  0  0  0  0  0  0  0
  -11.2267    6.6786    3.2551 C   0  0  2  0  0  0  0  0  0  0  0  0
  -11.8575    6.6417    4.5304 O   0  0  0  0  0  0  0  0  0  0  0  0
  -12.1659    6.0512    2.1745 C   0  0  2  0  0  0  0  0  0  0  0  0
  -11.5996    4.7923    1.6847 O   0  0  0  0  0  0  0  0  0  0  0  0
  -12.3972    6.9405    0.9312 C   0  0  0  0  0  0  0  0  0  0  0  0
   -8.5526    0.8846   -2.3824 C   0  0  1  0  0  0  0  0  0  0  0  0
   -7.9631    0.3871   -3.6454 N   0  3  0  0  0  0  0  0  0  0  0  0
   -7.4558    1.2964   -1.3657 C   0  0  1  0  0  0  0  0  0  0  0  0
   -8.0190    1.9714   -0.0668 C   0  0  1  0  0  0  0  0  0  0  0  0
   -6.9115    2.5941    0.6378 O   0  0  0  0  0  0  0  0  0  0  0  0
   -9.0852    3.0904   -0.3584 C   0  0  1  0  0  0  0  0  0  0  0  0
  -10.1460    2.6294   -1.4097 C   0  0  1  0  0  0  0  0  0  0  0  0
  -11.0574    3.7259   -1.7953 N   0  3  0  0  0  0  0  0  0  0  0  0
   -9.4823    2.0767   -2.6911 C   0  0  0  0  0  0  0  0  0  0  0  0
   -5.7874    1.7766    1.0748 C   0  0  1  0  0  0  0  0  0  0  0  0
   -4.4938    2.4956    0.7105 C   0  0  1  0  0  0  0  0  0  0  0  0
   -4.4127    3.4946    1.8567 C   0  0  1  0  0  0  0  0  0  0  0  0
   -4.8540    2.6346    3.0496 C   0  0  2  0  0  0  0  0  0  0  0  0
   -5.7861    1.6685    2.5077 O   0  0  0  0  0  0  0  0  0  0  0  0
   -5.5280    3.4532    4.1653 C   0  0  0  0  0  0  0  0  0  0  0  0
   -0.0178    5.5269    3.8088 C   0  0  1  0  0  0  0  0  0  0  0  0
   -0.5049    5.9070    2.3828 C   0  0  1  0  0  0  0  0  0  0  0  0
   -2.0197    6.2528    2.3001 C   0  0  2  0  0  0  0  0  0  0  0  0
   -2.8919    5.1257    2.9409 C   0  0  1  0  0  0  0  0  0  0  0  0
   -3.0588    4.0043    2.0278 O   0  0  0  0  0  0  0  0  0  0  0  0
   -1.2178    5.4418    4.8003 C   0  0  1  0  0  0  0  0  0  0  0  0
   -2.2905    4.6410    4.2047 O   0  0  0  0  0  0  0  0  0  0  0  0
   -0.8165    4.8240    6.1646 C   0  0  0  0  0  0  0  0  0  0  0  0
  -13.5873    6.5832    0.1393 N   0  3  0  0  0  0  0  0  0  0  0  0
   -3.4038    1.5740    0.7413 O   0  0  0  0  0  0  0  0  0  0  0  0
    0.2445    7.0371    1.9381 O   0  0  0  0  0  0  0  0  0  0  0  0
    0.6517    4.2662    3.7365 O   0  0  0  0  0  0  0  0  0  0  0  0
   -6.0067    2.6054    5.1953 O   0  0  0  0  0  0  0  0  0  0  0  0
   -6.7179    0.1335   -0.9909 O   0  0  0  0  0  0  0  0  0  0  0  0
   -1.9788    4.5043    7.0135 N   0  3  0  0  0  0  0  0  0  0  0  0
   -2.4281    6.5696    0.9090 N   0  3  0  0  0  0  0  0  0  0  0  0
  1  2  1  1  0  0  0
  1  3  1  0  0  0  0
  1 10  1  0  0  0  0
  3  4  1  1  0  0  0
  3  5  1  0  0  0  0
  5  6  1  1  0  0  0
  5  7  1  0  0  0  0
  7  8  1  1  0  0  0
  7  9  1  0  0  0  0
  9 10  1  0  0  0  0
  9 11  1  6  0  0  0
 11 35  1  0  0  0  0
 12 13  1  6  0  0  0
 12 14  1  0  0  0  0
 12 20  1  0  0  0  0
 14 15  1  0  0  0  0
 14 40  1  1  0  0  0
 15 16  1  6  0  0  0
 15 17  1  0  0  0  0
 17  2  1  1  0  0  0
 17 18  1  0  0  0  0
 18 19  1  6  0  0  0
 18 20  1  0  0  0  0
 21 16  1  1  0  0  0
 21 22  1  0  0  0  0
 21 25  1  0  0  0  0
 22 23  1  0  0  0  0
 22 36  1  1  0  0  0
 23 24  1  0  0  0  0
 23 31  1  1  0  0  0
 24 25  1  0  0  0  0
 24 26  1  1  0  0  0
 26 39  1  0  0  0  0
 27 28  1  0  0  0  0
 27 32  1  0  0  0  0
 27 38  1  6  0  0  0
 28 29  1  0  0  0  0
 28 37  1  1  0  0  0
 29 30  1  0  0  0  0
 29 42  1  6  0  0  0
 30 31  1  6  0  0  0
 30 33  1  0  0  0  0
 32 33  1  0  0  0  0
 32 34  1  1  0  0  0
 34 41  1  0  0  0  0
M  CHG  6   4   1  13   1  19   1  35   1  41   1  42   1
M  END
>  <CHROM.1>
-97.56187033,148.09847039,34.93357792,-59.03818399,65.81023039,-160.84855643
-170.10738267,140.57773816,-62.16549994,-59.12189480,134.32473062,173.85645480
-53.44250607,170.15612318,175.58565244,-62.77979671,175.29330379,88.55711583
85.16100560,-132.27516116,-169.18337583,174.59959081,-6.44116167,4.08651179
1.76833525,2.84543574,0.18443468,-2.28527748

>  <Name>


>  <RI>
0

>  <Rbt.Current_Directory>
/home/itssahil/PROJECTS/Mol_Feturizer/New_Systems/rnas/1ei2

>  <Rbt.Executable>
rbdock ($Id: //depot/dev/client3/rdock/2013.1/src/exe/rbdock.cxx#4 $)

>  <Rbt.Library>
libRbt.so (2013.1, Build901 2013/11/27)

>  <Rbt.Parameter_File>
/export/apps/rDock/src/rDock_2013.1_src/data/scripts/dock_solv.prm

>  <Rbt.Receptor>
prm/pocket_docking_6.prm

>  <SCORE>
-47.6196

>  <SCORE.INTER>
-34.624

>  <SCORE.INTER.CONST>
1

>  <SCORE.INTER.POLAR>
-6.51283

>  <SCORE.INTER.ROT>
9

>  <SCORE.INTER.SOLV>
23.4806

>  <SCORE.INTER.VDW>
-18.8001

>  <SCORE.INTER.norm>
-0.824381

>  <SCORE.INTRA>
-12.9956

>  <SCORE.INTRA.DIHEDRAL>
-6.94895

>  <SCORE.INTRA.DIHEDRAL.0>
40.8761

>  <SCORE.INTRA.POLAR>
-0.86909

>  <SCORE.INTRA.POLAR.0>
-0.0268208

>  <SCORE.INTRA.REPUL>
-0.641615

>  <SCORE.INTRA.REPUL.0>
0.641615

>  <SCORE.INTRA.SOLV>
-7.12543

>  <SCORE.INTRA.SOLV.lig_0>
-162.567

>  <SCORE.INTRA.VDW>
0.204552

>  <SCORE.INTRA.VDW.0>
-4.80338

>  <SCORE.INTRA.norm>
-0.309419

>  <SCORE.RESTR>
0

>  <SCORE.RESTR.CAVITY>
0

>  <SCORE.RESTR.norm>
0

>  <SCORE.SYSTEM>
0

>  <SCORE.SYSTEM.CONST>
0

>  <SCORE.SYSTEM.DIHEDRAL>
0

>  <SCORE.SYSTEM.SOLV>
0

>  <SCORE.SYSTEM.norm>
0

>  <SCORE.heavy>
42

>  <SCORE.norm>
-1.1338

>  <RMSD>
6.522

$$$$

 OpenBabel11021811393D
libRbt.so/2013.1/901 2013/11/27
 42 45  0  0  0  0  0  0  0  0999 V2000
   -5.9759    2.6270   -3.4270 C   0  0  2  0  0  0  0  0  0  0  0  0
   -4.6349    2.8355   -3.9674 O   0  0  0  0  0  0  0  0  0  0  0  0
   -6.6325    3.9736   -2.9804 C   0  0  2  0  0  0  0  0  0  0  0  0
   -5.9067    5.1433   -3.5263 N   0  3  0  0  0  0  0  0  0  0  0  0
   -6.7140    4.0572   -1.4263 C   0  0  1  0  0  0  0  0  0  0  0  0
   -7.3235    5.2844   -1.0316 O   0  0  0  0  0  0  0  0  0  0  0  0
   -7.5364    2.8845   -0.8283 C   0  0  2  0  0  0  0  0  0  0  0  0
   -7.3310    2.8535    0.5797 O   0  0  0  0  0  0  0  0  0  0  0  0
   -7.1181    1.5176   -1.4609 C   0  0  2  0  0  0  0  0  0  0  0  0
   -5.9269    1.6922   -2.2952 O   0  0  0  0  0  0  0  0  0  0  0  0
   -8.1945    0.8725   -2.3639 C   0  0  0  0  0  0  0  0  0  0  0  0
   -4.7684   -0.5351   -6.6583 C   0  0  1  0  0  0  0  0  0  0  0  0
   -4.4176   -1.5432   -7.6836 N   0  3  0  0  0  0  0  0  0  0  0  0
   -3.9085   -0.7022   -5.3782 C   0  0  1  0  0  0  0  0  0  0  0  0
   -4.1301    0.4298   -4.3154 C   0  0  1  0  0  0  0  0  0  0  0  0
   -3.0600    0.3485   -3.3360 O   0  0  0  0  0  0  0  0  0  0  0  0
   -4.1008    1.8768   -4.9313 C   0  0  1  0  0  0  0  0  0  0  0  0
   -4.9603    1.9771   -6.2329 C   0  0  1  0  0  0  0  0  0  0  0  0
   -4.8153    3.2904   -6.8934 N   0  3  0  0  0  0  0  0  0  0  0  0
   -4.5888    0.8773   -7.2529 C   0  0  0  0  0  0  0  0  0  0  0  0
   -1.8581    1.1519   -3.5168 C   0  0  1  0  0  0  0  0  0  0  0  0
   -2.1924    2.6041   -3.1972 C   0  0  1  0  0  0  0  0  0  0  0  0
   -2.1240    2.5645   -1.6766 C   0  0  1  0  0  0  0  0  0  0  0  0
   -0.8915    1.6790   -1.4444 C   0  0  2  0  0  0  0  0  0  0  0  0
   -0.8573    0.7604   -2.5627 O   0  0  0  0  0  0  0  0  0  0  0  0
   -0.9519    0.8984   -0.1191 C   0  0  0  0  0  0  0  0  0  0  0  0
   -0.8868    4.7969    2.4641 C   0  0  1  0  0  0  0  0  0  0  0  0
   -1.0881    5.8135    1.3059 C   0  0  1  0  0  0  0  0  0  0  0  0
   -2.4483    5.6698    0.5639 C   0  0  2  0  0  0  0  0  0  0  0  0
   -2.6875    4.1957    0.1039 C   0  0  1  0  0  0  0  0  0  0  0  0
   -1.9479    3.8965   -1.1138 O   0  0  0  0  0  0  0  0  0  0  0  0
   -2.0562    3.7671    2.5076 C   0  0  1  0  0  0  0  0  0  0  0  0
   -2.2938    3.2374    1.1624 O   0  0  0  0  0  0  0  0  0  0  0  0
   -1.7740    2.5906    3.4773 C   0  0  0  0  0  0  0  0  0  0  0  0
   -8.2470   -0.5984   -2.2937 N   0  3  0  0  0  0  0  0  0  0  0  0
   -1.1905    3.4619   -3.7439 O   0  0  0  0  0  0  0  0  0  0  0  0
   -1.0010    7.1320    1.8447 O   0  0  0  0  0  0  0  0  0  0  0  0
    0.3568    4.1219    2.2618 O   0  0  0  0  0  0  0  0  0  0  0  0
    0.0543    1.3420    0.7750 O   0  0  0  0  0  0  0  0  0  0  0  0
   -4.2206   -1.9585   -4.7767 O   0  0  0  0  0  0  0  0  0  0  0  0
   -2.9211    1.6749    3.6172 N   0  3  0  0  0  0  0  0  0  0  0  0
   -2.5623    6.6419   -0.5516 N   0  3  0  0  0  0  0  0  0  0  0  0
  1  2  1  1  0  0  0
  1  3  1  0  0  0  0
  1 10  1  0  0  0  0
  3  4  1  1  0  0  0
  3  5  1  0  0  0  0
  5  6  1  6  0  0  0
  5  7  1  0  0  0  0
  7  8  1  1  0  0  0
  7  9  1  0  0  0  0
  9 10  1  0  0  0  0
  9 11  1  6  0  0  0
 11 35  1  0  0  0  0
 12 13  1  6  0  0  0
 12 14  1  0  0  0  0
 12 20  1  0  0  0  0
 14 15  1  0  0  0  0
 14 40  1  1  0  0  0
 15 16  1  1  0  0  0
 15 17  1  0  0  0  0
 17  2  1  1  0  0  0
 17 18  1  0  0  0  0
 18 19  1  6  0  0  0
 18 20  1  0  0  0  0
 21 16  1  1  0  0  0
 21 22  1  0  0  0  0
 21 25  1  0  0  0  0
 22 23  1  0  0  0  0
 22 36  1  6  0  0  0
 23 24  1  0  0  0  0
 23 31  1  6  0  0  0
 24 25  1  0  0  0  0
 24 26  1  1  0  0  0
 26 39  1  0  0  0  0
 27 28  1  0  0  0  0
 27 32  1  0  0  0  0
 27 38  1  6  0  0  0
 28 29  1  0  0  0  0
 28 37  1  1  0  0  0
 29 30  1  0  0  0  0
 29 42  1  6  0  0  0
 30 31  1  6  0  0  0
 30 33  1  0  0  0  0
 32 33  1  0  0  0  0
 32 34  1  1  0  0  0
 34 41  1  0  0  0  0
M  CHG  6   4   1  13   1  19   1  35   1  41   1  42   1
M  END
>  <CHROM.1>
-153.71140507,-56.15917948,-44.20321391,-68.71385629,-179.58926885,-144.26646676
92.93355239,92.31295855,69.94434815,93.00464386,73.76677100,-66.03157845
64.53022356,140.60394544,-113.68280983,161.73180830,67.82460758,169.88178869
36.59607633,-177.82992358,174.88985193,55.59875065,-3.70165319,2.51418997
-1.89684518,2.01444302,0.20249498,-2.15364665

>  <Name>


>  <RI>
0

>  <Rbt.Current_Directory>
/home/itssahil/PROJECTS/Mol_Feturizer/New_Systems/rnas/1ei2

>  <Rbt.Executable>
rbdock ($Id: //depot/dev/client3/rdock/2013.1/src/exe/rbdock.cxx#4 $)

>  <Rbt.Library>
libRbt.so (2013.1, Build901 2013/11/27)

>  <Rbt.Parameter_File>
/export/apps/rDock/src/rDock_2013.1_src/data/scripts/dock_solv.prm

>  <Rbt.Receptor>
prm/pocket_docking_4.prm

>  <SCORE>
-33.1259

>  <SCORE.INTER>
-24.829

>  <SCORE.INTER.CONST>
1

>  <SCORE.INTER.POLAR>
-5.42038

>  <SCORE.INTER.ROT>
9

>  <SCORE.INTER.SOLV>
28.921

>  <SCORE.INTER.VDW>
-17.7251

>  <SCORE.INTER.norm>
-0.591166

>  <SCORE.INTRA>
-9.33618

>  <SCORE.INTRA.DIHEDRAL>
-8.85981

>  <SCORE.INTRA.DIHEDRAL.0>
40.8761

>  <SCORE.INTRA.POLAR>
-0.0303059

>  <SCORE.INTRA.POLAR.0>
-0.0268208

>  <SCORE.INTRA.REPUL>
-0.550772

>  <SCORE.INTRA.REPUL.0>
0.641615

>  <SCORE.INTRA.SOLV>
-10.5234

>  <SCORE.INTRA.SOLV.lig_0>
-162.567

>  <SCORE.INTRA.VDW>
3.2123

>  <SCORE.INTRA.VDW.0>
-4.80338

>  <SCORE.INTRA.norm>
-0.22229

>  <SCORE.RESTR>
1.03923

>  <SCORE.RESTR.CAVITY>
1.03923

>  <SCORE.RESTR.norm>
0.0247436

>  <SCORE.SYSTEM>
0

>  <SCORE.SYSTEM.CONST>
0

>  <SCORE.SYSTEM.DIHEDRAL>
0

>  <SCORE.SYSTEM.SOLV>
0

>  <SCORE.SYSTEM.norm>
0

>  <SCORE.heavy>
42

>  <SCORE.norm>
-0.788713

>  <RMSD>
6.523

$$$$

 OpenBabel11021811393D
libRbt.so/2013.1/901 2013/11/27
 42 45  0  0  0  0  0  0  0  0999 V2000
   -6.9393    2.9524   -3.2273 C   0  0  2  0  0  0  0  0  0  0  0  0
   -5.8364    3.3911   -2.3760 O   0  0  0  0  0  0  0  0  0  0  0  0
   -8.3258    3.2170   -2.5553 C   0  0  2  0  0  0  0  0  0  0  0  0
   -8.2093    4.1483   -1.4097 N   0  3  0  0  0  0  0  0  0  0  0  0
   -8.9842    1.8777   -2.1064 C   0  0  1  0  0  0  0  0  0  0  0  0
  -10.2519    2.1309   -1.5045 O   0  0  0  0  0  0  0  0  0  0  0  0
   -9.1914    0.9084   -3.3010 C   0  0  2  0  0  0  0  0  0  0  0  0
   -9.5171   -0.3804   -2.7926 O   0  0  0  0  0  0  0  0  0  0  0  0
   -7.9100    0.8246   -4.1923 C   0  0  2  0  0  0  0  0  0  0  0  0
   -6.7989    1.5251   -3.5442 O   0  0  0  0  0  0  0  0  0  0  0  0
   -8.0635    1.4518   -5.5970 C   0  0  0  0  0  0  0  0  0  0  0  0
   -2.7116    2.0269   -5.0207 C   0  0  1  0  0  0  0  0  0  0  0  0
   -1.3893    1.7097   -5.6051 N   0  3  0  0  0  0  0  0  0  0  0  0
   -3.0193    1.1335   -3.7906 C   0  0  1  0  0  0  0  0  0  0  0  0
   -4.3392    1.5250   -3.0392 C   0  0  1  0  0  0  0  0  0  0  0  0
   -4.3458    0.8507   -1.7522 O   0  0  0  0  0  0  0  0  0  0  0  0
   -4.4663    3.0689   -2.7667 C   0  0  1  0  0  0  0  0  0  0  0  0
   -4.1169    3.9179   -4.0317 C   0  0  1  0  0  0  0  0  0  0  0  0
   -4.0907    5.3653   -3.7382 N   0  3  0  0  0  0  0  0  0  0  0  0
   -2.7496    3.5194   -4.6313 C   0  0  0  0  0  0  0  0  0  0  0  0
   -3.1497    0.8780   -0.9208 C   0  0  1  0  0  0  0  0  0  0  0  0
   -2.7563    2.3312   -0.6838 C   0  0  1  0  0  0  0  0  0  0  0  0
   -3.7278    2.6914    0.4319 C   0  0  1  0  0  0  0  0  0  0  0  0
   -3.6912    1.4232    1.2965 C   0  0  2  0  0  0  0  0  0  0  0  0
   -3.4408    0.3336    0.3769 O   0  0  0  0  0  0  0  0  0  0  0  0
   -5.0036    1.1788    2.0628 C   0  0  0  0  0  0  0  0  0  0  0  0
   -3.5966    7.2867    2.8829 C   0  0  1  0  0  0  0  0  0  0  0  0
   -2.3599    6.7960    2.0798 C   0  0  1  0  0  0  0  0  0  0  0  0
   -2.7005    6.2348    0.6690 C   0  0  2  0  0  0  0  0  0  0  0  0
   -3.8213    5.1489    0.7488 C   0  0  1  0  0  0  0  0  0  0  0  0
   -3.2822    3.8644    1.1717 O   0  0  0  0  0  0  0  0  0  0  0  0
   -4.9175    6.9569    2.1235 C   0  0  1  0  0  0  0  0  0  0  0  0
   -4.8945    5.5596    1.6833 O   0  0  0  0  0  0  0  0  0  0  0  0
   -6.1775    7.1975    2.9943 C   0  0  0  0  0  0  0  0  0  0  0  0
   -8.8801    2.6778   -5.6310 N   0  3  0  0  0  0  0  0  0  0  0  0
   -1.4010    2.3985   -0.2397 O   0  0  0  0  0  0  0  0  0  0  0  0
   -1.4587    7.8920    1.9279 O   0  0  0  0  0  0  0  0  0  0  0  0
   -3.5895    6.6451    4.1601 O   0  0  0  0  0  0  0  0  0  0  0  0
   -4.8880    0.0540    2.9173 O   0  0  0  0  0  0  0  0  0  0  0  0
   -3.1274   -0.2222   -4.2239 O   0  0  0  0  0  0  0  0  0  0  0  0
   -7.3771    6.5221    2.4663 N   0  3  0  0  0  0  0  0  0  0  0  0
   -1.4842    5.7499   -0.0294 N   0  3  0  0  0  0  0  0  0  0  0  0
  1  2  1  1  0  0  0
  1  3  1  0  0  0  0
  1 10  1  0  0  0  0
  3  4  1  1  0  0  0
  3  5  1  0  0  0  0
  5  6  1  6  0  0  0
  5  7  1  0  0  0  0
  7  8  1  1  0  0  0
  7  9  1  0  0  0  0
  9 10  1  0  0  0  0
  9 11  1  6  0  0  0
 11 35  1  0  0  0  0
 12 13  1  1  0  0  0
 12 14  1  0  0  0  0
 12 20  1  0  0  0  0
 14 15  1  0  0  0  0
 14 40  1  6  0  0  0
 15 16  1  1  0  0  0
 15 17  1  0  0  0  0
 17  2  1  6  0  0  0
 17 18  1  0  0  0  0
 18 19  1  1  0  0  0
 18 20  1  0  0  0  0
 21 16  1  6  0  0  0
 21 22  1  0  0  0  0
 21 25  1  0  0  0  0
 22 23  1  0  0  0  0
 22 36  1  1  0  0  0
 23 24  1  0  0  0  0
 23 31  1  1  0  0  0
 24 25  1  0  0  0  0
 24 26  1  6  0  0  0
 26 39  1  0  0  0  0
 27 28  1  0  0  0  0
 27 32  1  0  0  0  0
 27 38  1  1  0  0  0
 28 29  1  0  0  0  0
 28 37  1  6  0  0  0
 29 30  1  0  0  0  0
 29 42  1  1  0  0  0
 30 31  1  1  0  0  0
 30 33  1  0  0  0  0
 32 33  1  0  0  0  0
 32 34  1  1  0  0  0
 34 41  1  0  0  0  0
M  CHG  6   4   1  13   1  19   1  35   1  41   1  42   1
M  END
>  <CHROM.1>
172.31046538,-52.60539437,56.41078091,-175.25409470,-171.50345716,37.48407484
-171.86562360,-80.94972473,77.08126249,46.69889154,55.84598234,62.55425016
178.89783504,94.61366621,-175.82123579,-178.77851757,-59.53673062,-110.77902780
47.43312706,-135.14167541,-162.53112546,68.24702200,-4.93713291,3.21087579
-1.14253005,1.99141013,-0.06555872,-2.18480622

>  <Name>


>  <RI>
0

>  <Rbt.Current_Directory>
/home/itssahil/PROJECTS/Mol_Feturizer/New_Systems/rnas/1ei2

>  <Rbt.Executable>
rbdock ($Id: //depot/dev/client3/rdock/2013.1/src/exe/rbdock.cxx#4 $)

>  <Rbt.Library>
libRbt.so (2013.1, Build901 2013/11/27)

>  <Rbt.Parameter_File>
/export/apps/rDock/src/rDock_2013.1_src/data/scripts/dock_solv.prm

>  <Rbt.Receptor>
prm/pocket_docking_7.prm

>  <SCORE>
-45.0441

>  <SCORE.INTER>
-34.3984

>  <SCORE.INTER.CONST>
1

>  <SCORE.INTER.POLAR>
-5.73703

>  <SCORE.INTER.ROT>
9

>  <SCORE.INTER.SOLV>
25.8451

>  <SCORE.INTER.VDW>
-22.0239

>  <SCORE.INTER.norm>
-0.81901

>  <SCORE.INTRA>
-10.6457

>  <SCORE.INTRA.DIHEDRAL>
-15.2724

>  <SCORE.INTRA.DIHEDRAL.0>
40.8761

>  <SCORE.INTRA.POLAR>
0.0267074

>  <SCORE.INTRA.POLAR.0>
-0.0268208

>  <SCORE.INTRA.REPUL>
-0.641615

>  <SCORE.INTRA.REPUL.0>
0.641615

>  <SCORE.INTRA.SOLV>
-6.84637

>  <SCORE.INTRA.SOLV.lig_0>
-162.567

>  <SCORE.INTRA.VDW>
3.53091

>  <SCORE.INTRA.VDW.0>
-4.80338

>  <SCORE.INTRA.norm>
-0.25347

>  <SCORE.RESTR>
0

>  <SCORE.RESTR.CAVITY>
0

>  <SCORE.RESTR.norm>
0

>  <SCORE.SYSTEM>
0

>  <SCORE.SYSTEM.CONST>
0

>  <SCORE.SYSTEM.DIHEDRAL>
0

>  <SCORE.SYSTEM.SOLV>
0

>  <SCORE.SYSTEM.norm>
0

>  <SCORE.heavy>
42

>  <SCORE.norm>
-1.07248

>  <RMSD>
6.540

$$$$

 OpenBabel11021811393D
libRbt.so/2013.1/901 2013/11/27
 42 45  0  0  0  0  0  0  0  0999 V2000
   -1.3875    2.6776    1.2271 C   0  0  2  0  0  0  0  0  0  0  0  0
   -1.3088    3.6881    0.1752 O   0  0  0  0  0  0  0  0  0  0  0  0
   -1.8627    1.2981    0.6658 C   0  0  2  0  0  0  0  0  0  0  0  0
   -1.7760    1.2498   -0.8118 N   0  3  0  0  0  0  0  0  0  0  0  0
   -3.3134    0.9817    1.1391 C   0  0  1  0  0  0  0  0  0  0  0  0
   -3.7318   -0.2828    0.6296 O   0  0  0  0  0  0  0  0  0  0  0  0
   -3.4203    0.9483    2.6873 C   0  0  2  0  0  0  0  0  0  0  0  0
   -4.7964    0.9467    3.0505 O   0  0  0  0  0  0  0  0  0  0  0  0
   -2.6974    2.1749    3.3324 C   0  0  2  0  0  0  0  0  0  0  0  0
   -2.2930    3.1249    2.2935 O   0  0  0  0  0  0  0  0  0  0  0  0
   -1.4178    1.8215    4.1249 C   0  0  0  0  0  0  0  0  0  0  0  0
   -3.8492    6.5358    2.1896 C   0  0  1  0  0  0  0  0  0  0  0  0
   -4.6142    7.7548    2.5347 N   0  3  0  0  0  0  0  0  0  0  0  0
   -4.4566    5.8118    0.9595 C   0  0  1  0  0  0  0  0  0  0  0  0
   -3.6021    4.5972    0.4551 C   0  0  1  0  0  0  0  0  0  0  0  0
   -4.0852    4.2181   -0.8617 O   0  0  0  0  0  0  0  0  0  0  0  0
   -2.0697    4.9263    0.3217 C   0  0  1  0  0  0  0  0  0  0  0  0
   -1.5210    5.6800    1.5763 C   0  0  1  0  0  0  0  0  0  0  0  0
   -0.1234    6.1206    1.3911 N   0  3  0  0  0  0  0  0  0  0  0  0
   -2.3783    6.9179    1.9233 C   0  0  0  0  0  0  0  0  0  0  0  0
   -5.0779    3.1589   -0.9853 C   0  0  1  0  0  0  0  0  0  0  0  0
   -6.3092    3.7264   -1.6815 C   0  0  1  0  0  0  0  0  0  0  0  0
   -5.8444    3.6719   -3.1305 C   0  0  1  0  0  0  0  0  0  0  0  0
   -5.1255    2.3160   -3.1748 C   0  0  2  0  0  0  0  0  0  0  0  0
   -4.5837    2.1203   -1.8468 O   0  0  0  0  0  0  0  0  0  0  0  0
   -3.9968    2.2669   -4.2202 C   0  0  0  0  0  0  0  0  0  0  0  0
   -8.2110    6.3237   -6.5879 C   0  0  1  0  0  0  0  0  0  0  0  0
   -8.8856    4.9518   -6.3084 C   0  0  1  0  0  0  0  0  0  0  0  0
   -9.1488    4.6687   -4.8012 C   0  0  2  0  0  0  0  0  0  0  0  0
   -7.8519    4.8723   -3.9537 C   0  0  1  0  0  0  0  0  0  0  0  0
   -6.9687    3.7195   -4.0554 O   0  0  0  0  0  0  0  0  0  0  0  0
   -7.8225    7.0324   -5.2548 C   0  0  1  0  0  0  0  0  0  0  0  0
   -7.1209    6.0869   -4.3829 O   0  0  0  0  0  0  0  0  0  0  0  0
   -6.9267    8.2769   -5.4846 C   0  0  0  0  0  0  0  0  0  0  0  0
   -0.7573    2.9747    4.7615 N   0  3  0  0  0  0  0  0  0  0  0  0
   -7.4286    2.8688   -1.4583 O   0  0  0  0  0  0  0  0  0  0  0  0
  -10.1319    4.9139   -7.0026 O   0  0  0  0  0  0  0  0  0  0  0  0
   -7.0456    6.1001   -7.3846 O   0  0  0  0  0  0  0  0  0  0  0  0
   -4.5191    2.3737   -5.5334 O   0  0  0  0  0  0  0  0  0  0  0  0
   -5.7597    5.3403    1.3020 O   0  0  0  0  0  0  0  0  0  0  0  0
   -7.1458    9.3344   -4.4808 N   0  3  0  0  0  0  0  0  0  0  0  0
   -9.7586    3.3309   -4.5995 N   0  3  0  0  0  0  0  0  0  0  0  0
  1  2  1  6  0  0  0
  1  3  1  0  0  0  0
  1 10  1  0  0  0  0
  3  4  1  6  0  0  0
  3  5  1  0  0  0  0
  5  6  1  6  0  0  0
  5  7  1  0  0  0  0
  7  8  1  6  0  0  0
  7  9  1  0  0  0  0
  9 10  1  0  0  0  0
  9 11  1  6  0  0  0
 11 35  1  0  0  0  0
 12 13  1  6  0  0  0
 12 14  1  0  0  0  0
 12 20  1  0  0  0  0
 14 15  1  0  0  0  0
 14 40  1  1  0  0  0
 15 16  1  6  0  0  0
 15 17  1  0  0  0  0
 17  2  1  1  0  0  0
 17 18  1  0  0  0  0
 18 19  1  6  0  0  0
 18 20  1  0  0  0  0
 21 16  1  6  0  0  0
 21 22  1  0  0  0  0
 21 25  1  0  0  0  0
 22 23  1  0  0  0  0
 22 36  1  6  0  0  0
 23 24  1  0  0  0  0
 23 31  1  6  0  0  0
 24 25  1  0  0  0  0
 24 26  1  6  0  0  0
 26 39  1  0  0  0  0
 27 28  1  0  0  0  0
 27 32  1  0  0  0  0
 27 38  1  6  0  0  0
 28 29  1  0  0  0  0
 28 37  1  6  0  0  0
 29 30  1  0  0  0  0
 29 42  1  6  0  0  0
 30 31  1  6  0  0  0
 30 33  1  0  0  0  0
 32 33  1  0  0  0  0
 32 34  1  6  0  0  0
 34 41  1  0  0  0  0
M  CHG  6   4   1  13   1  19   1  35   1  41   1  42   1
M  END
>  <CHROM.1>
123.35197150,-59.04963444,148.92024670,-68.40843641,177.91080992,-178.48662304
-49.51650975,176.12019401,166.03825201,-94.51440282,121.30449829,-173.40158764
-57.55339770,57.57967956,-65.84200423,47.81892819,63.15863322,-65.98071001
43.00169748,-169.21945877,148.07459691,-174.32823958,-4.80658240,4.08595144
-1.23781661,0.17175897,0.94489666,-3.05903111

>  <Name>


>  <RI>
0

>  <Rbt.Current_Directory>
/home/itssahil/PROJECTS/Mol_Feturizer/New_Systems/rnas/1ei2

>  <Rbt.Executable>
rbdock ($Id: //depot/dev/client3/rdock/2013.1/src/exe/rbdock.cxx#4 $)

>  <Rbt.Library>
libRbt.so (2013.1, Build901 2013/11/27)

>  <Rbt.Parameter_File>
/export/apps/rDock/src/rDock_2013.1_src/data/scripts/dock_solv.prm

>  <Rbt.Receptor>
prm/pocket_docking_5.prm

>  <SCORE>
-55.7784

>  <SCORE.INTER>
-36.2506

>  <SCORE.INTER.CONST>
1

>  <SCORE.INTER.POLAR>
-7.14883

>  <SCORE.INTER.ROT>
9

>  <SCORE.INTER.SOLV>
30.3247

>  <SCORE.INTER.VDW>
-20.0459

>  <SCORE.INTER.norm>
-0.86311

>  <SCORE.INTRA>
-19.7737

>  <SCORE.INTRA.DIHEDRAL>
-12.542

>  <SCORE.INTRA.DIHEDRAL.0>
40.8761

>  <SCORE.INTRA.POLAR>
-1.3054

>  <SCORE.INTRA.POLAR.0>
-0.0268208

>  <SCORE.INTRA.REPUL>
-0.641615

>  <SCORE.INTRA.REPUL.0>
0.641615

>  <SCORE.INTRA.SOLV>
-11.0822

>  <SCORE.INTRA.SOLV.lig_0>
-162.567

>  <SCORE.INTRA.VDW>
-0.315117

>  <SCORE.INTRA.VDW.0>
-4.80338

>  <SCORE.INTRA.norm>
-0.470802

>  <SCORE.RESTR>
0.245877

>  <SCORE.RESTR.CAVITY>
0.245877

>  <SCORE.RESTR.norm>
0.00585421

>  <SCORE.SYSTEM>
0

>  <SCORE.SYSTEM.CONST>
0

>  <SCORE.SYSTEM.DIHEDRAL>
0

>  <SCORE.SYSTEM.SOLV>
0

>  <SCORE.SYSTEM.norm>
0

>  <SCORE.heavy>
42

>  <SCORE.norm>
-1.32806

>  <RMSD>
6.541

$$$$

 OpenBabel11021811393D
libRbt.so/2013.1/901 2013/11/27
 42 45  0  0  0  0  0  0  0  0999 V2000
   -2.6209    5.8228    4.0274 C   0  0  2  0  0  0  0  0  0  0  0  0
   -3.4702    4.7015    3.6338 O   0  0  0  0  0  0  0  0  0  0  0  0
   -3.0396    7.1439    3.3041 C   0  0  2  0  0  0  0  0  0  0  0  0
   -4.3806    7.0279    2.6867 N   0  3  0  0  0  0  0  0  0  0  0  0
   -1.9786    7.5463    2.2357 C   0  0  1  0  0  0  0  0  0  0  0  0
   -2.3661    8.7574    1.5903 O   0  0  0  0  0  0  0  0  0  0  0  0
   -0.5751    7.7518    2.8660 C   0  0  2  0  0  0  0  0  0  0  0  0
    0.3884    7.8274    1.8212 O   0  0  0  0  0  0  0  0  0  0  0  0
   -0.2157    6.5855    3.8429 C   0  0  2  0  0  0  0  0  0  0  0  0
   -1.2130    5.5177    3.7410 O   0  0  0  0  0  0  0  0  0  0  0  0
   -0.1594    6.9917    5.3335 C   0  0  0  0  0  0  0  0  0  0  0  0
   -1.3780    1.7798    6.0224 C   0  0  1  0  0  0  0  0  0  0  0  0
   -1.0140    0.5418    6.7473 N   0  3  0  0  0  0  0  0  0  0  0  0
   -1.3509    1.5685    4.4859 C   0  0  1  0  0  0  0  0  0  0  0  0
   -1.8727    2.8015    3.6689 C   0  0  1  0  0  0  0  0  0  0  0  0
   -2.1043    2.3735    2.2999 O   0  0  0  0  0  0  0  0  0  0  0  0
   -3.2256    3.3857    4.2189 C   0  0  1  0  0  0  0  0  0  0  0  0
   -3.2043    3.5493    5.7731 C   0  0  1  0  0  0  0  0  0  0  0  0
   -4.5207    3.9556    6.3060 N   0  3  0  0  0  0  0  0  0  0  0  0
   -2.7753    2.2451    6.4822 C   0  0  0  0  0  0  0  0  0  0  0  0
   -2.8299    1.1356    2.0472 C   0  0  1  0  0  0  0  0  0  0  0  0
   -4.3179    1.4540    1.9618 C   0  0  1  0  0  0  0  0  0  0  0  0
   -4.3973    1.9737    0.5328 C   0  0  1  0  0  0  0  0  0  0  0  0
   -3.4732    0.9945   -0.2052 C   0  0  2  0  0  0  0  0  0  0  0  0
   -2.4672    0.6072    0.7610 O   0  0  0  0  0  0  0  0  0  0  0  0
   -2.8057    1.6152   -1.4455 C   0  0  0  0  0  0  0  0  0  0  0  0
   -7.2442    1.9455   -3.5205 C   0  0  1  0  0  0  0  0  0  0  0  0
   -8.0665    1.8696   -2.2039 C   0  0  1  0  0  0  0  0  0  0  0  0
   -7.6948    2.9610   -1.1590 C   0  0  2  0  0  0  0  0  0  0  0  0
   -6.1552    2.9867   -0.8928 C   0  0  1  0  0  0  0  0  0  0  0  0
   -5.7598    1.9237    0.0199 O   0  0  0  0  0  0  0  0  0  0  0  0
   -6.1257    3.0262   -3.4142 C   0  0  1  0  0  0  0  0  0  0  0  0
   -5.3943    2.8533   -2.1565 O   0  0  0  0  0  0  0  0  0  0  0  0
   -5.1271    2.9640   -4.5986 C   0  0  0  0  0  0  0  0  0  0  0  0
    0.5059    6.0098    6.2079 N   0  3  0  0  0  0  0  0  0  0  0  0
   -5.0782    0.2567    2.1263 O   0  0  0  0  0  0  0  0  0  0  0  0
   -9.4495    2.0037   -2.5293 O   0  0  0  0  0  0  0  0  0  0  0  0
   -6.6665    0.6615   -3.7671 O   0  0  0  0  0  0  0  0  0  0  0  0
   -2.0218    0.6543   -2.1317 O   0  0  0  0  0  0  0  0  0  0  0  0
   -0.0094    1.2915    4.0846 O   0  0  0  0  0  0  0  0  0  0  0  0
   -4.0741    3.9926   -4.5156 N   0  3  0  0  0  0  0  0  0  0  0  0
   -8.4873    2.8109    0.0866 N   0  3  0  0  0  0  0  0  0  0  0  0
  1  2  1  6  0  0  0
  1  3  1  0  0  0  0
  1 10  1  0  0  0  0
  3  4  1  6  0  0  0
  3  5  1  0  0  0  0
  5  6  1  1  0  0  0
  5  7  1  0  0  0  0
  7  8  1  6  0  0  0
  7  9  1  0  0  0  0
  9 10  1  0  0  0  0
  9 11  1  1  0  0  0
 11 35  1  0  0  0  0
 12 13  1  1  0  0  0
 12 14  1  0  0  0  0
 12 20  1  0  0  0  0
 14 15  1  0  0  0  0
 14 40  1  6  0  0  0
 15 16  1  6  0  0  0
 15 17  1  0  0  0  0
 17  2  1  6  0  0  0
 17 18  1  0  0  0  0
 18 19  1  1  0  0  0
 18 20  1  0  0  0  0
 21 16  1  6  0  0  0
 21 22  1  0  0  0  0
 21 25  1  0  0  0  0
 22 23  1  0  0  0  0
 22 36  1  6  0  0  0
 23 24  1  0  0  0  0
 23 31  1  6  0  0  0
 24 25  1  0  0  0  0
 24 26  1  6  0  0  0
 26 39  1  0  0  0  0
 27 28  1  0  0  0  0
 27 32  1  0  0  0  0
 27 38  1  1  0  0  0
 28 29  1  0  0  0  0
 28 37  1  6  0  0  0
 29 30  1  0  0  0  0
 29 42  1  1  0  0  0
 30 31  1  1  0  0  0
 30 33  1  0  0  0  0
 32 33  1  0  0  0  0
 32 34  1  6  0  0  0
 34 41  1  0  0  0  0
M  CHG  6   4   1  13   1  19   1  35   1  41   1  42   1
M  END
>  <CHROM.1>
-179.70179680,-69.69055978,-17.65457115,69.09023886,43.75141828,-165.00164011
-157.78086391,-143.40274422,64.52174283,46.78618139,89.29904099,-27.60537639
178.37282866,145.73675614,-176.83555500,-46.54970464,58.70486019,76.78117606
77.36526903,-169.72906732,179.33124994,38.28038108,-3.53220417,3.41845435
1.56635065,-0.10452722,-0.98827873,-0.49794005

>  <Name>


>  <RI>
0

>  <Rbt.Current_Directory>
/home/itssahil/PROJECTS/Mol_Feturizer/New_Systems/rnas/1ei2

>  <Rbt.Executable>
rbdock ($Id: //depot/dev/client3/rdock/2013.1/src/exe/rbdock.cxx#4 $)

>  <Rbt.Library>
libRbt.so (2013.1, Build901 2013/11/27)

>  <Rbt.Parameter_File>
/export/apps/rDock/src/rDock_2013.1_src/data/scripts/dock_solv.prm

>  <Rbt.Receptor>
prm/pocket_docking_8.prm

>  <SCORE>
-67.4973

>  <SCORE.INTER>
-49.8588

>  <SCORE.INTER.CONST>
1

>  <SCORE.INTER.POLAR>
-9.67769

>  <SCORE.INTER.ROT>
9

>  <SCORE.INTER.SOLV>
23.156

>  <SCORE.INTER.VDW>
-18.2989

>  <SCORE.INTER.norm>
-1.18711

>  <SCORE.INTRA>
-17.6386

>  <SCORE.INTRA.DIHEDRAL>
-15.3853

>  <SCORE.INTRA.DIHEDRAL.0>
40.8761

>  <SCORE.INTRA.POLAR>
-0.457067

>  <SCORE.INTRA.POLAR.0>
-0.0268208

>  <SCORE.INTRA.REPUL>
-0.641615

>  <SCORE.INTRA.REPUL.0>
0.641615

>  <SCORE.INTRA.SOLV>
-14.0304

>  <SCORE.INTRA.SOLV.lig_0>
-162.567

>  <SCORE.INTRA.VDW>
1.83137

>  <SCORE.INTRA.VDW.0>
-4.80338

>  <SCORE.INTRA.norm>
-0.419966

>  <SCORE.RESTR>
0

>  <SCORE.RESTR.CAVITY>
0

>  <SCORE.RESTR.norm>
0

>  <SCORE.SYSTEM>
0

>  <SCORE.SYSTEM.CONST>
0

>  <SCORE.SYSTEM.DIHEDRAL>
0

>  <SCORE.SYSTEM.SOLV>
0

>  <SCORE.SYSTEM.norm>
0

>  <SCORE.heavy>
42

>  <SCORE.norm>
-1.60708

>  <RMSD>
6.541

$$$$

 OpenBabel11021811393D
libRbt.so/2013.1/901 2013/11/27
 42 45  0  0  0  0  0  0  0  0999 V2000
   -6.5401    5.5799   -0.9593 C   0  0  2  0  0  0  0  0  0  0  0  0
   -5.5079    5.0498   -0.0720 O   0  0  0  0  0  0  0  0  0  0  0  0
   -7.9382    5.6137   -0.2607 C   0  0  2  0  0  0  0  0  0  0  0  0
   -7.8209    5.4441    1.2058 N   0  3  0  0  0  0  0  0  0  0  0  0
   -8.8806    4.5283   -0.8630 C   0  0  1  0  0  0  0  0  0  0  0  0
  -10.1551    4.5755   -0.2253 O   0  0  0  0  0  0  0  0  0  0  0  0
   -9.0860    4.7258   -2.3889 C   0  0  2  0  0  0  0  0  0  0  0  0
   -9.7037    3.5594   -2.9215 O   0  0  0  0  0  0  0  0  0  0  0  0
   -7.7272    4.9912   -3.1146 C   0  0  2  0  0  0  0  0  0  0  0  0
   -6.6120    4.7797   -2.1888 O   0  0  0  0  0  0  0  0  0  0  0  0
   -7.5673    6.4240   -3.6729 C   0  0  0  0  0  0  0  0  0  0  0  0
   -3.2668    3.0970   -3.1999 C   0  0  1  0  0  0  0  0  0  0  0  0
   -2.1935    2.4200   -3.9616 N   0  3  0  0  0  0  0  0  0  0  0  0
   -3.8283    2.1870   -2.0762 C   0  0  1  0  0  0  0  0  0  0  0  0
   -4.8629    2.9035   -1.1402 C   0  0  1  0  0  0  0  0  0  0  0  0
   -5.0603    2.0745    0.0366 O   0  0  0  0  0  0  0  0  0  0  0  0
   -4.3828    4.3185   -0.6488 C   0  0  1  0  0  0  0  0  0  0  0  0
   -3.8014    5.1783   -1.8174 C   0  0  1  0  0  0  0  0  0  0  0  0
   -3.2149    6.4453   -1.3350 N   0  3  0  0  0  0  0  0  0  0  0  0
   -2.7180    4.4129   -2.6100 C   0  0  0  0  0  0  0  0  0  0  0  0
   -4.1501    0.9668    0.2959 C   0  0  1  0  0  0  0  0  0  0  0  0
   -2.7506    1.5294    0.5142 C   0  0  1  0  0  0  0  0  0  0  0  0
   -2.8668    1.9764    1.9651 C   0  0  1  0  0  0  0  0  0  0  0  0
   -3.6568    0.8151    2.5851 C   0  0  2  0  0  0  0  0  0  0  0  0
   -4.5073    0.3150    1.5258 O   0  0  0  0  0  0  0  0  0  0  0  0
   -4.5104    1.2442    3.7920 C   0  0  0  0  0  0  0  0  0  0  0  0
    1.2719    3.6549    4.6851 C   0  0  1  0  0  0  0  0  0  0  0  0
    0.4716    4.4027    3.5825 C   0  0  1  0  0  0  0  0  0  0  0  0
   -1.0732    4.2900    3.7320 C   0  0  2  0  0  0  0  0  0  0  0  0
   -1.5191    2.7994    3.8770 C   0  0  1  0  0  0  0  0  0  0  0  0
   -1.5572    2.1320    2.5838 O   0  0  0  0  0  0  0  0  0  0  0  0
    0.3160    2.8377    5.6064 C   0  0  1  0  0  0  0  0  0  0  0  0
   -0.6114    2.0580    4.7826 O   0  0  0  0  0  0  0  0  0  0  0  0
    1.0826    1.8819    6.5565 C   0  0  0  0  0  0  0  0  0  0  0  0
   -6.1703    6.8716   -3.8117 N   0  3  0  0  0  0  0  0  0  0  0  0
   -1.7832    0.4904    0.3625 O   0  0  0  0  0  0  0  0  0  0  0  0
    0.8329    5.7826    3.6224 O   0  0  0  0  0  0  0  0  0  0  0  0
    2.2090    2.7823    4.0500 O   0  0  0  0  0  0  0  0  0  0  0  0
   -5.6375    1.9942    3.3727 O   0  0  0  0  0  0  0  0  0  0  0  0
   -4.4626    1.0572   -2.6750 O   0  0  0  0  0  0  0  0  0  0  0  0
    0.3560    0.6251    6.8142 N   0  3  0  0  0  0  0  0  0  0  0  0
   -1.7769    4.9921    2.6302 N   0  3  0  0  0  0  0  0  0  0  0  0
  1  2  1  1  0  0  0
  1  3  1  0  0  0  0
  1 10  1  0  0  0  0
  3  4  1  1  0  0  0
  3  5  1  0  0  0  0
  5  6  1  1  0  0  0
  5  7  1  0  0  0  0
  7  8  1  6  0  0  0
  7  9  1  0  0  0  0
  9 10  1  0  0  0  0
  9 11  1  1  0  0  0
 11 35  1  0  0  0  0
 12 13  1  1  0  0  0
 12 14  1  0  0  0  0
 12 20  1  0  0  0  0
 14 15  1  0  0  0  0
 14 40  1  6  0  0  0
 15 16  1  1  0  0  0
 15 17  1  0  0  0  0
 17  2  1  6  0  0  0
 17 18  1  0  0  0  0
 18 19  1  1  0  0  0
 18 20  1  0  0  0  0
 21 16  1  1  0  0  0
 21 22  1  0  0  0  0
 21 25  1  0  0  0  0
 22 23  1  0  0  0  0
 22 36  1  1  0  0  0
 23 24  1  0  0  0  0
 23 31  1  1  0  0  0
 24 25  1  0  0  0  0
 24 26  1  1  0  0  0
 26 39  1  0  0  0  0
 27 28  1  0  0  0  0
 27 32  1  0  0  0  0
 27 38  1  6  0  0  0
 28 29  1  0  0  0  0
 28 37  1  1  0  0  0
 29 30  1  0  0  0  0
 29 42  1  6  0  0  0
 30 31  1  6  0  0  0
 30 33  1  0  0  0  0
 32 33  1  0  0  0  0
 32 34  1  6  0  0  0
 34 41  1  0  0  0  0
M  CHG  6   4   1  13   1  19   1  35   1  41   1  42   1
M  END
>  <CHROM.1>
149.10209213,-72.76848876,-65.33652097,-66.63873830,176.62261770,154.52598992
-12.53985203,179.97361375,71.35603620,12.38842784,62.84289906,90.29423152
178.76682157,168.43387546,73.09614132,67.77357327,170.85157040,64.45062720
-47.63426756,-100.80839450,-145.74196516,-82.08995846,-3.83454420,3.41955915
0.67657341,2.37399820,-0.05641776,-1.19627444

>  <Name>


>  <RI>
0

>  <Rbt.Current_Directory>
/home/itssahil/PROJECTS/Mol_Feturizer/New_Systems/rnas/1ei2

>  <Rbt.Executable>
rbdock ($Id: //depot/dev/client3/rdock/2013.1/src/exe/rbdock.cxx#4 $)

>  <Rbt.Library>
libRbt.so (2013.1, Build901 2013/11/27)

>  <Rbt.Parameter_File>
/export/apps/rDock/src/rDock_2013.1_src/data/scripts/dock_solv.prm

>  <Rbt.Receptor>
prm/pocket_docking_6.prm

>  <SCORE>
-45.9354

>  <SCORE.INTER>
-36.9218

>  <SCORE.INTER.CONST>
1

>  <SCORE.INTER.POLAR>
-6.58984

>  <SCORE.INTER.ROT>
9

>  <SCORE.INTER.SOLV>
29.2099

>  <SCORE.INTER.VDW>
-21.985

>  <SCORE.INTER.norm>
-0.87909

>  <SCORE.INTRA>
-9.19192

>  <SCORE.INTRA.DIHEDRAL>
-8.70713

>  <SCORE.INTRA.DIHEDRAL.0>
40.8761

>  <SCORE.INTRA.POLAR>
-0.171911

>  <SCORE.INTRA.POLAR.0>
-0.0268208

>  <SCORE.INTRA.REPUL>
-0.641615

>  <SCORE.INTRA.REPUL.0>
0.641615

>  <SCORE.INTRA.SOLV>
-6.86726

>  <SCORE.INTRA.SOLV.lig_0>
-162.567

>  <SCORE.INTRA.VDW>
2.38784

>  <SCORE.INTRA.VDW.0>
-4.80338

>  <SCORE.INTRA.norm>
-0.218855

>  <SCORE.RESTR>
0.178283

>  <SCORE.RESTR.CAVITY>
0.178283

>  <SCORE.RESTR.norm>
0.00424484

>  <SCORE.SYSTEM>
0

>  <SCORE.SYSTEM.CONST>
0

>  <SCORE.SYSTEM.DIHEDRAL>
0

>  <SCORE.SYSTEM.SOLV>
0

>  <SCORE.SYSTEM.norm>
0

>  <SCORE.heavy>
42

>  <SCORE.norm>
-1.0937

>  <RMSD>
6.576

$$$$

 OpenBabel11021811393D
libRbt.so/2013.1/901 2013/11/27
 42 45  0  0  0  0  0  0  0  0999 V2000
   -2.8580    5.8141    4.4847 C   0  0  2  0  0  0  0  0  0  0  0  0
   -3.7630    4.6911    4.2534 O   0  0  0  0  0  0  0  0  0  0  0  0
   -3.5640    7.1850    4.2271 C   0  0  2  0  0  0  0  0  0  0  0  0
   -5.0362    7.0381    4.1621 N   0  3  0  0  0  0  0  0  0  0  0  0
   -3.0225    7.8465    2.9241 C   0  0  1  0  0  0  0  0  0  0  0  0
   -3.6660    9.1001    2.7053 O   0  0  0  0  0  0  0  0  0  0  0  0
   -1.4902    8.0853    2.9927 C   0  0  2  0  0  0  0  0  0  0  0  0
   -1.0200    8.4126    1.6899 O   0  0  0  0  0  0  0  0  0  0  0  0
   -0.7428    6.8221    3.5304 C   0  0  2  0  0  0  0  0  0  0  0  0
   -1.6699    5.6925    3.6298 O   0  0  0  0  0  0  0  0  0  0  0  0
   -0.1136    6.9971    4.9317 C   0  0  0  0  0  0  0  0  0  0  0  0
   -1.2296    1.7608    6.1546 C   0  0  1  0  0  0  0  0  0  0  0  0
   -0.7248    0.5184    6.7809 N   0  3  0  0  0  0  0  0  0  0  0  0
   -1.5029    1.5645    4.6404 C   0  0  1  0  0  0  0  0  0  0  0  0
   -2.1805    2.8017    3.9546 C   0  0  1  0  0  0  0  0  0  0  0  0
   -2.6738    2.3853    2.6530 O   0  0  0  0  0  0  0  0  0  0  0  0
   -3.4022    3.3715    4.7651 C   0  0  1  0  0  0  0  0  0  0  0  0
   -3.0777    3.5202    6.2868 C   0  0  1  0  0  0  0  0  0  0  0  0
   -4.2662    3.9125    7.0714 N   0  3  0  0  0  0  0  0  0  0  0  0
   -2.5120    2.2122    6.8841 C   0  0  0  0  0  0  0  0  0  0  0  0
   -3.8659    1.5519    2.5694 C   0  0  1  0  0  0  0  0  0  0  0  0
   -4.9200    2.2928    1.7553 C   0  0  1  0  0  0  0  0  0  0  0  0
   -4.4252    1.9958    0.3462 C   0  0  1  0  0  0  0  0  0  0  0  0
   -4.0136    0.5216    0.4662 C   0  0  2  0  0  0  0  0  0  0  0  0
   -3.5754    0.3511    1.8353 O   0  0  0  0  0  0  0  0  0  0  0  0
   -2.8845    0.1308   -0.5042 C   0  0  0  0  0  0  0  0  0  0  0  0
   -7.2308    4.2686   -3.3492 C   0  0  1  0  0  0  0  0  0  0  0  0
   -7.9034    3.1546   -2.4994 C   0  0  1  0  0  0  0  0  0  0  0  0
   -7.6817    3.3038   -0.9666 C   0  0  2  0  0  0  0  0  0  0  0  0
   -6.1649    3.4693   -0.6290 C   0  0  1  0  0  0  0  0  0  0  0  0
   -5.4784    2.1856   -0.6420 O   0  0  0  0  0  0  0  0  0  0  0  0
   -6.3598    5.2001   -2.4527 C   0  0  1  0  0  0  0  0  0  0  0  0
   -5.5037    4.3864   -1.5858 O   0  0  0  0  0  0  0  0  0  0  0  0
   -5.4752    6.1647   -3.2841 C   0  0  0  0  0  0  0  0  0  0  0  0
    0.7523    5.8823    5.3544 N   0  3  0  0  0  0  0  0  0  0  0  0
   -6.2051    1.7170    1.9910 O   0  0  0  0  0  0  0  0  0  0  0  0
   -9.3062    3.1753   -2.7602 O   0  0  0  0  0  0  0  0  0  0  0  0
   -6.4193    3.6470   -4.3482 O   0  0  0  0  0  0  0  0  0  0  0  0
   -1.6301    0.5908   -0.0315 O   0  0  0  0  0  0  0  0  0  0  0  0
   -0.2647    1.3003    3.9812 O   0  0  0  0  0  0  0  0  0  0  0  0
   -6.2604    7.1743   -4.0177 N   0  3  0  0  0  0  0  0  0  0  0  0
   -8.3156    2.1913   -0.2165 N   0  3  0  0  0  0  0  0  0  0  0  0
  1  2  1  6  0  0  0
  1  3  1  0  0  0  0
  1 10  1  0  0  0  0
  3  4  1  6  0  0  0
  3  5  1  0  0  0  0
  5  6  1  1  0  0  0
  5  7  1  0  0  0  0
  7  8  1  6  0  0  0
  7  9  1  0  0  0  0
  9 10  1  0  0  0  0
  9 11  1  1  0  0  0
 11 35  1  0  0  0  0
 12 13  1  1  0  0  0
 12 14  1  0  0  0  0
 12 20  1  0  0  0  0
 14 15  1  0  0  0  0
 14 40  1  6  0  0  0
 15 16  1  6  0  0  0
 15 17  1  0  0  0  0
 17  2  1  6  0  0  0
 17 18  1  0  0  0  0
 18 19  1  1  0  0  0
 18 20  1  0  0  0  0
 21 16  1  6  0  0  0
 21 22  1  0  0  0  0
 21 25  1  0  0  0  0
 22 23  1  0  0  0  0
 22 36  1  6  0  0  0
 23 24  1  0  0  0  0
 23 31  1  6  0  0  0
 24 25  1  0  0  0  0
 24 26  1  6  0  0  0
 26 39  1  0  0  0  0
 27 28  1  0  0  0  0
 27 32  1  0  0  0  0
 27 38  1  6  0  0  0
 28 29  1  0  0  0  0
 28 37  1  1  0  0  0
 29 30  1  0  0  0  0
 29 42  1  1  0  0  0
 30 31  1  6  0  0  0
 30 33  1  0  0  0  0
 32 33  1  0  0  0  0
 32 34  1  6  0  0  0
 34 41  1  0  0  0  0
M  CHG  6   4   1  13   1  19   1  35   1  41   1  42   1
M  END
>  <CHROM.1>
-164.37933558,-69.66465932,103.55803950,60.20746475,-54.82520245,-171.57278521
-68.24515016,-138.30127185,71.06641940,74.07874648,120.37688356,-53.23369242
-53.61620577,53.09963571,77.38047648,-61.75682607,175.43571799,176.45698059
35.41844523,-143.78165095,67.69503529,82.83091040,-3.85719764,3.91561380
1.88099370,-0.09284029,-0.96626375,-0.16404021

>  <Name>


>  <RI>
0

>  <Rbt.Current_Directory>
/home/itssahil/PROJECTS/Mol_Feturizer/New_Systems/rnas/1ei2

>  <Rbt.Executable>
rbdock ($Id: //depot/dev/client3/rdock/2013.1/src/exe/rbdock.cxx#4 $)

>  <Rbt.Library>
libRbt.so (2013.1, Build901 2013/11/27)

>  <Rbt.Parameter_File>
/export/apps/rDock/src/rDock_2013.1_src/data/scripts/dock_solv.prm

>  <Rbt.Receptor>
prm/pocket_docking_8.prm

>  <SCORE>
-59.5368

>  <SCORE.INTER>
-41.3313

>  <SCORE.INTER.CONST>
1

>  <SCORE.INTER.POLAR>
-7.78767

>  <SCORE.INTER.ROT>
9

>  <SCORE.INTER.SOLV>
25.4345

>  <SCORE.INTER.VDW>
-19.6734

>  <SCORE.INTER.norm>
-0.984078

>  <SCORE.INTRA>
-18.2055

>  <SCORE.INTRA.DIHEDRAL>
-14.2643

>  <SCORE.INTRA.DIHEDRAL.0>
40.8761

>  <SCORE.INTRA.POLAR>
-1.52131

>  <SCORE.INTRA.POLAR.0>
-0.0268208

>  <SCORE.INTRA.REPUL>
-0.641615

>  <SCORE.INTRA.REPUL.0>
0.641615

>  <SCORE.INTRA.SOLV>
-9.39192

>  <SCORE.INTRA.SOLV.lig_0>
-162.567

>  <SCORE.INTRA.VDW>
2.00313

>  <SCORE.INTRA.VDW.0>
-4.80338

>  <SCORE.INTRA.norm>
-0.433465

>  <SCORE.RESTR>
0

>  <SCORE.RESTR.CAVITY>
0

>  <SCORE.RESTR.norm>
0

>  <SCORE.SYSTEM>
0

>  <SCORE.SYSTEM.CONST>
0

>  <SCORE.SYSTEM.DIHEDRAL>
0

>  <SCORE.SYSTEM.SOLV>
0

>  <SCORE.SYSTEM.norm>
0

>  <SCORE.heavy>
42

>  <SCORE.norm>
-1.41754

>  <RMSD>
6.587

$$$$

 OpenBabel11021811393D
libRbt.so/2013.1/901 2013/11/27
 42 45  0  0  0  0  0  0  0  0999 V2000
   -2.3303    5.4704    4.3561 C   0  0  2  0  0  0  0  0  0  0  0  0
   -3.6457    4.8704    4.5649 O   0  0  0  0  0  0  0  0  0  0  0  0
   -2.4405    6.8854    3.7008 C   0  0  2  0  0  0  0  0  0  0  0  0
   -3.8207    7.4169    3.7760 N   0  3  0  0  0  0  0  0  0  0  0  0
   -1.9492    6.8468    2.2223 C   0  0  1  0  0  0  0  0  0  0  0  0
   -2.0447    8.1444    1.6387 O   0  0  0  0  0  0  0  0  0  0  0  0
   -0.4769    6.3667    2.1165 C   0  0  2  0  0  0  0  0  0  0  0  0
   -0.1873    6.0775    0.7533 O   0  0  0  0  0  0  0  0  0  0  0  0
   -0.2287    5.0995    2.9973 C   0  0  2  0  0  0  0  0  0  0  0  0
   -1.4994    4.5933    3.5210 O   0  0  0  0  0  0  0  0  0  0  0  0
    0.6855    5.3379    4.2211 C   0  0  0  0  0  0  0  0  0  0  0  0
   -2.1232    1.2117    6.2725 C   0  0  1  0  0  0  0  0  0  0  0  0
   -2.0248   -0.1087    6.9338 N   0  3  0  0  0  0  0  0  0  0  0  0
   -2.7921    1.1011    4.8774 C   0  0  1  0  0  0  0  0  0  0  0  0
   -3.0597    2.4867    4.1929 C   0  0  1  0  0  0  0  0  0  0  0  0
   -3.9626    2.2736    3.0747 O   0  0  0  0  0  0  0  0  0  0  0  0
   -3.7322    3.5360    5.1526 C   0  0  1  0  0  0  0  0  0  0  0  0
   -3.0351    3.5824    6.5507 C   0  0  1  0  0  0  0  0  0  0  0  0
   -3.7545    4.4556    7.5003 N   0  3  0  0  0  0  0  0  0  0  0  0
   -2.9153    2.1761    7.1798 C   0  0  0  0  0  0  0  0  0  0  0  0
   -3.8162    1.0813    2.2502 C   0  0  1  0  0  0  0  0  0  0  0  0
   -4.8288    1.1502    1.1132 C   0  0  1  0  0  0  0  0  0  0  0  0
   -4.0970    2.0866    0.1614 C   0  0  1  0  0  0  0  0  0  0  0  0
   -2.6533    1.5762    0.2729 C   0  0  2  0  0  0  0  0  0  0  0  0
   -2.5229    1.0728    1.6239 O   0  0  0  0  0  0  0  0  0  0  0  0
   -1.6051    2.6728    0.0124 C   0  0  0  0  0  0  0  0  0  0  0  0
   -6.0331    5.3607   -2.3118 C   0  0  1  0  0  0  0  0  0  0  0  0
   -5.5700    4.2251   -3.2664 C   0  0  1  0  0  0  0  0  0  0  0  0
   -6.1758    2.8306   -2.9356 C   0  0  2  0  0  0  0  0  0  0  0  0
   -5.9590    2.4631   -1.4323 C   0  0  1  0  0  0  0  0  0  0  0  0
   -4.6079    1.9744   -1.1981 O   0  0  0  0  0  0  0  0  0  0  0  0
   -6.8937    4.7877   -1.1450 C   0  0  1  0  0  0  0  0  0  0  0  0
   -6.2146    3.6303   -0.5570 O   0  0  0  0  0  0  0  0  0  0  0  0
   -7.1646    5.8382   -0.0373 C   0  0  0  0  0  0  0  0  0  0  0  0
    0.9094    6.7574    4.5472 N   0  3  0  0  0  0  0  0  0  0  0  0
   -5.0020   -0.1466    0.5415 O   0  0  0  0  0  0  0  0  0  0  0  0
   -5.9415    4.5780   -4.5983 O   0  0  0  0  0  0  0  0  0  0  0  0
   -4.8735    6.0157   -1.7929 O   0  0  0  0  0  0  0  0  0  0  0  0
   -1.8286    3.7946    0.8493 O   0  0  0  0  0  0  0  0  0  0  0  0
   -1.9487    0.3276    4.0243 O   0  0  0  0  0  0  0  0  0  0  0  0
   -8.0758    6.9115   -0.4751 N   0  3  0  0  0  0  0  0  0  0  0  0
   -5.6662    1.7857   -3.8580 N   0  3  0  0  0  0  0  0  0  0  0  0
  1  2  1  6  0  0  0
  1  3  1  0  0  0  0
  1 10  1  0  0  0  0
  3  4  1  6  0  0  0
  3  5  1  0  0  0  0
  5  6  1  1  0  0  0
  5  7  1  0  0  0  0
  7  8  1  6  0  0  0
  7  9  1  0  0  0  0
  9 10  1  0  0  0  0
  9 11  1  1  0  0  0
 11 35  1  0  0  0  0
 12 13  1  1  0  0  0
 12 14  1  0  0  0  0
 12 20  1  0  0  0  0
 14 15  1  0  0  0  0
 14 40  1  6  0  0  0
 15 16  1  6  0  0  0
 15 17  1  0  0  0  0
 17  2  1  6  0  0  0
 17 18  1  0  0  0  0
 18 19  1  1  0  0  0
 18 20  1  0  0  0  0
 21 16  1  1  0  0  0
 21 22  1  0  0  0  0
 21 25  1  0  0  0  0
 22 23  1  0  0  0  0
 22 36  1  6  0  0  0
 23 24  1  0  0  0  0
 23 31  1  6  0  0  0
 24 25  1  0  0  0  0
 24 26  1  1  0  0  0
 26 39  1  0  0  0  0
 27 28  1  0  0  0  0
 27 32  1  0  0  0  0
 27 38  1  1  0  0  0
 28 29  1  0  0  0  0
 28 37  1  6  0  0  0
 29 30  1  0  0  0  0
 29 42  1  6  0  0  0
 30 31  1  6  0  0  0
 30 33  1  0  0  0  0
 32 33  1  0  0  0  0
 32 34  1  1  0  0  0
 34 41  1  0  0  0  0
M  CHG  6   4   1  13   1  19   1  35   1  41   1  42   1
M  END
>  <CHROM.1>
179.15896290,-63.81921072,-178.77468873,-176.30269549,-57.74075765,14.02209992
-62.29286054,166.54893554,-57.20073133,-38.46452101,-176.77030383,-54.63274352
175.66103420,68.51044710,53.78301994,-62.54063637,69.70277978,63.52896271
174.70830281,156.84540228,69.56570428,-68.69139940,-3.47405826,3.80578215
1.81894547,-0.43367139,-1.03317636,-0.45524694

>  <Name>


>  <RI>
0

>  <Rbt.Current_Directory>
/home/itssahil/PROJECTS/Mol_Feturizer/New_Systems/rnas/1ei2

>  <Rbt.Executable>
rbdock ($Id: //depot/dev/client3/rdock/2013.1/src/exe/rbdock.cxx#4 $)

>  <Rbt.Library>
libRbt.so (2013.1, Build901 2013/11/27)

>  <Rbt.Parameter_File>
/export/apps/rDock/src/rDock_2013.1_src/data/scripts/dock_solv.prm

>  <Rbt.Receptor>
prm/pocket_docking_8.prm

>  <SCORE>
-68.162

>  <SCORE.INTER>
-43.4075

>  <SCORE.INTER.CONST>
1

>  <SCORE.INTER.POLAR>
-7.7828

>  <SCORE.INTER.ROT>
9

>  <SCORE.INTER.SOLV>
23.2246

>  <SCORE.INTER.VDW>
-20.3372

>  <SCORE.INTER.norm>
-1.03351

>  <SCORE.INTRA>
-24.7545

>  <SCORE.INTRA.DIHEDRAL>
-28.6163

>  <SCORE.INTRA.DIHEDRAL.0>
40.8761

>  <SCORE.INTRA.POLAR>
-0.975247

>  <SCORE.INTRA.POLAR.0>
-0.0268208

>  <SCORE.INTRA.REPUL>
-0.641615

>  <SCORE.INTRA.REPUL.0>
0.641615

>  <SCORE.INTRA.SOLV>
-9.00109

>  <SCORE.INTRA.SOLV.lig_0>
-162.567

>  <SCORE.INTRA.VDW>
0.578101

>  <SCORE.INTRA.VDW.0>
-4.80338

>  <SCORE.INTRA.norm>
-0.589393

>  <SCORE.RESTR>
0

>  <SCORE.RESTR.CAVITY>
0

>  <SCORE.RESTR.norm>
0

>  <SCORE.SYSTEM>
0

>  <SCORE.SYSTEM.CONST>
0

>  <SCORE.SYSTEM.DIHEDRAL>
0

>  <SCORE.SYSTEM.SOLV>
0

>  <SCORE.SYSTEM.norm>
0

>  <SCORE.heavy>
42

>  <SCORE.norm>
-1.6229

>  <RMSD>
6.600

$$$$

 OpenBabel11021811393D
libRbt.so/2013.1/901 2013/11/27
 42 45  0  0  0  0  0  0  0  0999 V2000
   -3.2805    4.0477    0.1106 C   0  0  2  0  0  0  0  0  0  0  0  0
   -2.1623    3.9341   -0.8224 O   0  0  0  0  0  0  0  0  0  0  0  0
   -2.9024    3.5132    1.5302 C   0  0  2  0  0  0  0  0  0  0  0  0
   -1.4377    3.3577    1.6837 N   0  3  0  0  0  0  0  0  0  0  0  0
   -3.6289    2.1657    1.8222 C   0  0  1  0  0  0  0  0  0  0  0  0
   -3.2844    1.6935    3.1229 O   0  0  0  0  0  0  0  0  0  0  0  0
   -5.1720    2.3143    1.7453 C   0  0  2  0  0  0  0  0  0  0  0  0
   -5.7560    1.0164    1.7307 O   0  0  0  0  0  0  0  0  0  0  0  0
   -5.6025    3.1098    0.4704 C   0  0  2  0  0  0  0  0  0  0  0  0
   -4.4477    3.3207   -0.4055 O   0  0  0  0  0  0  0  0  0  0  0  0
   -6.1962    4.5083    0.7570 C   0  0  0  0  0  0  0  0  0  0  0  0
   -1.1934    2.4430   -4.7540 C   0  0  1  0  0  0  0  0  0  0  0  0
   -1.1449    1.6229   -5.9851 N   0  3  0  0  0  0  0  0  0  0  0  0
   -2.5610    3.1588   -4.6004 C   0  0  1  0  0  0  0  0  0  0  0  0
   -2.7258    3.9222   -3.2402 C   0  0  1  0  0  0  0  0  0  0  0  0
   -4.1289    4.2629   -3.0782 O   0  0  0  0  0  0  0  0  0  0  0  0
   -2.2976    3.0680   -1.9907 C   0  0  1  0  0  0  0  0  0  0  0  0
   -0.9283    2.3484   -2.2144 C   0  0  1  0  0  0  0  0  0  0  0  0
   -0.5968    1.4303   -1.1057 N   0  3  0  0  0  0  0  0  0  0  0  0
   -0.9112    1.5429   -3.5330 C   0  0  0  0  0  0  0  0  0  0  0  0
   -5.1330    3.5704   -3.8751 C   0  0  1  0  0  0  0  0  0  0  0  0
   -6.3049    3.2077   -2.9706 C   0  0  1  0  0  0  0  0  0  0  0  0
   -7.0340    4.5438   -2.9311 C   0  0  1  0  0  0  0  0  0  0  0  0
   -6.9178    5.0040   -4.3912 C   0  0  2  0  0  0  0  0  0  0  0  0
   -5.6666    4.4574   -4.8720 O   0  0  0  0  0  0  0  0  0  0  0  0
   -6.9195    6.5359   -4.5416 C   0  0  0  0  0  0  0  0  0  0  0  0
  -11.5581    3.6068   -0.4472 C   0  0  1  0  0  0  0  0  0  0  0  0
  -10.5717    2.5472   -1.0125 C   0  0  1  0  0  0  0  0  0  0  0  0
   -9.0773    2.8322   -0.6855 C   0  0  2  0  0  0  0  0  0  0  0  0
   -8.6778    4.2870   -1.0924 C   0  0  1  0  0  0  0  0  0  0  0  0
   -8.4230    4.3837   -2.5224 O   0  0  0  0  0  0  0  0  0  0  0  0
  -10.7842    4.7967    0.1974 C   0  0  1  0  0  0  0  0  0  0  0  0
   -9.7358    5.2537   -0.7184 O   0  0  0  0  0  0  0  0  0  0  0  0
  -11.7130    5.9882    0.5461 C   0  0  0  0  0  0  0  0  0  0  0  0
   -6.8507    4.6348    2.0710 N   0  3  0  0  0  0  0  0  0  0  0  0
   -7.0989    2.1963   -3.5911 O   0  0  0  0  0  0  0  0  0  0  0  0
  -10.9209    1.2739   -0.4712 O   0  0  0  0  0  0  0  0  0  0  0  0
  -12.3796    4.0763   -1.5185 O   0  0  0  0  0  0  0  0  0  0  0  0
   -6.0156    7.1343   -3.6286 O   0  0  0  0  0  0  0  0  0  0  0  0
   -2.7117    4.0940   -5.6682 O   0  0  0  0  0  0  0  0  0  0  0  0
  -11.0869    6.9523    1.4694 N   0  3  0  0  0  0  0  0  0  0  0  0
   -8.1867    1.8069   -1.2836 N   0  3  0  0  0  0  0  0  0  0  0  0
  1  2  1  6  0  0  0
  1  3  1  0  0  0  0
  1 10  1  0  0  0  0
  3  4  1  6  0  0  0
  3  5  1  0  0  0  0
  5  6  1  1  0  0  0
  5  7  1  0  0  0  0
  7  8  1  6  0  0  0
  7  9  1  0  0  0  0
  9 10  1  0  0  0  0
  9 11  1  1  0  0  0
 11 35  1  0  0  0  0
 12 13  1  6  0  0  0
 12 14  1  0  0  0  0
 12 20  1  0  0  0  0
 14 15  1  0  0  0  0
 14 40  1  6  0  0  0
 15 16  1  1  0  0  0
 15 17  1  0  0  0  0
 17  2  1  1  0  0  0
 17 18  1  0  0  0  0
 18 19  1  1  0  0  0
 18 20  1  0  0  0  0
 21 16  1  1  0  0  0
 21 22  1  0  0  0  0
 21 25  1  0  0  0  0
 22 23  1  0  0  0  0
 22 36  1  6  0  0  0
 23 24  1  0  0  0  0
 23 31  1  6  0  0  0
 24 25  1  0  0  0  0
 24 26  1  1  0  0  0
 26 39  1  0  0  0  0
 27 28  1  0  0  0  0
 27 32  1  0  0  0  0
 27 38  1  6  0  0  0
 28 29  1  0  0  0  0
 28 37  1  1  0  0  0
 29 30  1  0  0  0  0
 29 42  1  6  0  0  0
 30 31  1  6  0  0  0
 30 33  1  0  0  0  0
 32 33  1  0  0  0  0
 32 34  1  6  0  0  0
 34 41  1  0  0  0  0
M  CHG  6   4   1  13   1  19   1  35   1  41   1  42   1
M  END
>  <CHROM.1>
116.84961488,96.43561646,116.75976934,177.29208190,172.34211088,-27.78667207
-57.06951460,55.30288607,177.86211308,17.73081421,136.25955188,94.41573887
50.96833975,82.09597150,47.82763864,-169.47410759,67.08287920,54.90645934
-48.41519229,-107.92444343,164.45136448,55.00802653,-5.82945684,3.56121810
-1.42708857,-0.20504443,-0.23050181,1.76504107

>  <Name>


>  <RI>
0

>  <Rbt.Current_Directory>
/home/itssahil/PROJECTS/Mol_Feturizer/New_Systems/rnas/1ei2

>  <Rbt.Executable>
rbdock ($Id: //depot/dev/client3/rdock/2013.1/src/exe/rbdock.cxx#4 $)

>  <Rbt.Library>
libRbt.so (2013.1, Build901 2013/11/27)

>  <Rbt.Parameter_File>
/export/apps/rDock/src/rDock_2013.1_src/data/scripts/dock_solv.prm

>  <Rbt.Receptor>
prm/pocket_docking_2.prm

>  <SCORE>
-29.0292

>  <SCORE.INTER>
-26.6947

>  <SCORE.INTER.CONST>
1

>  <SCORE.INTER.POLAR>
-4.08874

>  <SCORE.INTER.ROT>
9

>  <SCORE.INTER.SOLV>
24.8597

>  <SCORE.INTER.VDW>
-22.0539

>  <SCORE.INTER.norm>
-0.635589

>  <SCORE.INTRA>
-6.97788

>  <SCORE.INTRA.DIHEDRAL>
4.29389

>  <SCORE.INTRA.DIHEDRAL.0>
40.8761

>  <SCORE.INTRA.POLAR>
-2.19536

>  <SCORE.INTRA.POLAR.0>
-0.0268208

>  <SCORE.INTRA.REPUL>
-0.507963

>  <SCORE.INTRA.REPUL.0>
0.641615

>  <SCORE.INTRA.SOLV>
-0.36422

>  <SCORE.INTRA.SOLV.lig_0>
-162.567

>  <SCORE.INTRA.VDW>
1.06133

>  <SCORE.INTRA.VDW.0>
-4.80338

>  <SCORE.INTRA.norm>
-0.16614

>  <SCORE.RESTR>
4.6434

>  <SCORE.RESTR.CAVITY>
4.6434

>  <SCORE.RESTR.norm>
0.110557

>  <SCORE.SYSTEM>
0

>  <SCORE.SYSTEM.CONST>
0

>  <SCORE.SYSTEM.DIHEDRAL>
0

>  <SCORE.SYSTEM.SOLV>
0

>  <SCORE.SYSTEM.norm>
0

>  <SCORE.heavy>
42

>  <SCORE.norm>
-0.691172

>  <RMSD>
6.606

$$$$

 OpenBabel11021811393D
libRbt.so/2013.1/901 2013/11/27
 42 45  0  0  0  0  0  0  0  0999 V2000
   -2.2880    6.0926    5.0605 C   0  0  2  0  0  0  0  0  0  0  0  0
   -3.3063    5.1353    5.4852 O   0  0  0  0  0  0  0  0  0  0  0  0
   -2.8036    7.5649    5.1628 C   0  0  2  0  0  0  0  0  0  0  0  0
   -4.0346    7.6576    5.9808 N   0  3  0  0  0  0  0  0  0  0  0  0
   -3.0434    8.1637    3.7441 C   0  0  1  0  0  0  0  0  0  0  0  0
   -3.5034    9.5093    3.8501 O   0  0  0  0  0  0  0  0  0  0  0  0
   -1.7492    8.1521    2.8872 C   0  0  2  0  0  0  0  0  0  0  0  0
   -2.0939    8.4326    1.5351 O   0  0  0  0  0  0  0  0  0  0  0  0
   -1.0204    6.7723    2.9791 C   0  0  2  0  0  0  0  0  0  0  0  0
   -1.8627    5.8038    3.6847 O   0  0  0  0  0  0  0  0  0  0  0  0
    0.3297    6.8089    3.7316 C   0  0  0  0  0  0  0  0  0  0  0  0
   -0.5137    1.9951    6.4655 C   0  0  1  0  0  0  0  0  0  0  0  0
    0.0756    0.7109    6.9059 N   0  3  0  0  0  0  0  0  0  0  0  0
   -1.3014    1.8347    5.1388 C   0  0  1  0  0  0  0  0  0  0  0  0
   -2.0732    3.1281    4.7014 C   0  0  1  0  0  0  0  0  0  0  0  0
   -3.0116    2.7640    3.6537 O   0  0  0  0  0  0  0  0  0  0  0  0
   -2.8970    3.7865    5.8685 C   0  0  1  0  0  0  0  0  0  0  0  0
   -2.0625    3.8955    7.1856 C   0  0  1  0  0  0  0  0  0  0  0  0
   -2.8777    4.3746    8.3204 N   0  3  0  0  0  0  0  0  0  0  0  0
   -1.4311    2.5412    7.5794 C   0  0  0  0  0  0  0  0  0  0  0  0
   -3.3811    1.3661    3.4741 C   0  0  1  0  0  0  0  0  0  0  0  0
   -4.8001    1.3064    2.9211 C   0  0  1  0  0  0  0  0  0  0  0  0
   -4.5241    1.5831    1.4495 C   0  0  1  0  0  0  0  0  0  0  0  0
   -3.2522    0.7566    1.2116 C   0  0  2  0  0  0  0  0  0  0  0  0
   -2.5445    0.7613    2.4744 O   0  0  0  0  0  0  0  0  0  0  0  0
   -2.3575    1.3348    0.1006 C   0  0  0  0  0  0  0  0  0  0  0  0
   -5.9380   -0.3686   -2.9116 C   0  0  1  0  0  0  0  0  0  0  0  0
   -7.1290   -0.0241   -1.9744 C   0  0  1  0  0  0  0  0  0  0  0  0
   -7.0843    1.4193   -1.3948 C   0  0  2  0  0  0  0  0  0  0  0  0
   -5.7029    1.7174   -0.7279 C   0  0  1  0  0  0  0  0  0  0  0  0
   -5.6249    1.1384    0.6055 O   0  0  0  0  0  0  0  0  0  0  0  0
   -4.8927    0.7878   -2.9277 C   0  0  1  0  0  0  0  0  0  0  0  0
   -4.5897    1.1945   -1.5532 O   0  0  0  0  0  0  0  0  0  0  0  0
   -3.5770    0.3872   -3.6437 C   0  0  0  0  0  0  0  0  0  0  0  0
    1.4899    6.3967    2.9221 N   0  3  0  0  0  0  0  0  0  0  0  0
   -5.3396   -0.0012    3.1155 O   0  0  0  0  0  0  0  0  0  0  0  0
   -8.3409   -0.1810   -2.7113 O   0  0  0  0  0  0  0  0  0  0  0  0
   -5.3304   -1.5753   -2.4451 O   0  0  0  0  0  0  0  0  0  0  0  0
   -1.9430    2.6521    0.4196 O   0  0  0  0  0  0  0  0  0  0  0  0
   -0.3868    1.4782    4.1026 O   0  0  0  0  0  0  0  0  0  0  0  0
   -2.6325    1.5112   -3.7789 N   0  3  0  0  0  0  0  0  0  0  0  0
   -8.2260    1.6719   -0.4810 N   0  3  0  0  0  0  0  0  0  0  0  0
  1  2  1  6  0  0  0
  1  3  1  0  0  0  0
  1 10  1  0  0  0  0
  3  4  1  1  0  0  0
  3  5  1  0  0  0  0
  5  6  1  1  0  0  0
  5  7  1  0  0  0  0
  7  8  1  6  0  0  0
  7  9  1  0  0  0  0
  9 10  1  0  0  0  0
  9 11  1  1  0  0  0
 11 35  1  0  0  0  0
 12 13  1  1  0  0  0
 12 14  1  0  0  0  0
 12 20  1  0  0  0  0
 14 15  1  0  0  0  0
 14 40  1  6  0  0  0
 15 16  1  6  0  0  0
 15 17  1  0  0  0  0
 17  2  1  6  0  0  0
 17 18  1  0  0  0  0
 18 19  1  1  0  0  0
 18 20  1  0  0  0  0
 21 16  1  6  0  0  0
 21 22  1  0  0  0  0
 21 25  1  0  0  0  0
 22 23  1  0  0  0  0
 22 36  1  6  0  0  0
 23 24  1  0  0  0  0
 23 31  1  6  0  0  0
 24 25  1  0  0  0  0
 24 26  1  6  0  0  0
 26 39  1  0  0  0  0
 27 28  1  0  0  0  0
 27 32  1  0  0  0  0
 27 38  1  1  0  0  0
 28 29  1  0  0  0  0
 28 37  1  6  0  0  0
 29 30  1  0  0  0  0
 29 42  1  1  0  0  0
 30 31  1  1  0  0  0
 30 33  1  0  0  0  0
 32 33  1  0  0  0  0
 32 34  1  1  0  0  0
 34 41  1  0  0  0  0
M  CHG  6   4   1  13   1  19   1  35   1  41   1  42   1
M  END
>  <CHROM.1>
-160.49101398,-55.04821931,-22.17637111,62.32564808,179.21645182,-119.67178440
167.98470327,24.42145735,76.42167581,17.99553525,150.22398125,-62.94855595
86.35379922,160.40233751,59.80495634,-175.11302810,61.01845278,55.33590236
83.42448533,-166.83857682,174.48619682,-46.38906429,-3.27410850,3.10682962
2.32181785,0.29479558,-1.14024801,-0.31960473

>  <Name>


>  <RI>
0

>  <Rbt.Current_Directory>
/home/itssahil/PROJECTS/Mol_Feturizer/New_Systems/rnas/1ei2

>  <Rbt.Executable>
rbdock ($Id: //depot/dev/client3/rdock/2013.1/src/exe/rbdock.cxx#4 $)

>  <Rbt.Library>
libRbt.so (2013.1, Build901 2013/11/27)

>  <Rbt.Parameter_File>
/export/apps/rDock/src/rDock_2013.1_src/data/scripts/dock_solv.prm

>  <Rbt.Receptor>
prm/pocket_docking_8.prm

>  <SCORE>
-61.9392

>  <SCORE.INTER>
-48.1314

>  <SCORE.INTER.CONST>
1

>  <SCORE.INTER.POLAR>
-8.56141

>  <SCORE.INTER.ROT>
9

>  <SCORE.INTER.SOLV>
24.8647

>  <SCORE.INTER.VDW>
-21.4378

>  <SCORE.INTER.norm>
-1.14599

>  <SCORE.INTRA>
-13.8078

>  <SCORE.INTRA.DIHEDRAL>
-10.0686

>  <SCORE.INTRA.DIHEDRAL.0>
40.8761

>  <SCORE.INTRA.POLAR>
-0.422059

>  <SCORE.INTRA.POLAR.0>
-0.0268208

>  <SCORE.INTRA.REPUL>
-0.603669

>  <SCORE.INTRA.REPUL.0>
0.641615

>  <SCORE.INTRA.SOLV>
-12.8194

>  <SCORE.INTRA.SOLV.lig_0>
-162.567

>  <SCORE.INTRA.VDW>
2.0895

>  <SCORE.INTRA.VDW.0>
-4.80338

>  <SCORE.INTRA.norm>
-0.328758

>  <SCORE.RESTR>
0

>  <SCORE.RESTR.CAVITY>
0

>  <SCORE.RESTR.norm>
0

>  <SCORE.SYSTEM>
0

>  <SCORE.SYSTEM.CONST>
0

>  <SCORE.SYSTEM.DIHEDRAL>
0

>  <SCORE.SYSTEM.SOLV>
0

>  <SCORE.SYSTEM.norm>
0

>  <SCORE.heavy>
42

>  <SCORE.norm>
-1.47474

>  <RMSD>
6.621

$$$$

 OpenBabel11021811393D
libRbt.so/2013.1/901 2013/11/27
 42 45  0  0  0  0  0  0  0  0999 V2000
   -2.1732    4.2330    3.7828 C   0  0  2  0  0  0  0  0  0  0  0  0
   -2.2275    4.7339    2.4118 O   0  0  0  0  0  0  0  0  0  0  0  0
   -0.8043    3.5432    4.0899 C   0  0  2  0  0  0  0  0  0  0  0  0
    0.2144    3.8697    3.0659 N   0  3  0  0  0  0  0  0  0  0  0  0
   -0.9813    1.9997    4.2126 C   0  0  1  0  0  0  0  0  0  0  0  0
    0.2713    1.3830    4.5027 O   0  0  0  0  0  0  0  0  0  0  0  0
   -1.9870    1.6220    5.3330 C   0  0  2  0  0  0  0  0  0  0  0  0
   -2.3212    0.2448    5.2019 O   0  0  0  0  0  0  0  0  0  0  0  0
   -3.2799    2.4970    5.2533 C   0  0  2  0  0  0  0  0  0  0  0  0
   -3.2750    3.2921    4.0232 O   0  0  0  0  0  0  0  0  0  0  0  0
   -3.4509    3.4966    6.4203 C   0  0  0  0  0  0  0  0  0  0  0  0
   -6.3597    5.9604    2.6136 C   0  0  1  0  0  0  0  0  0  0  0  0
   -7.6884    6.5205    2.2799 N   0  3  0  0  0  0  0  0  0  0  0  0
   -6.0529    4.6882    1.7807 C   0  0  1  0  0  0  0  0  0  0  0  0
   -4.5986    4.1364    1.9818 C   0  0  1  0  0  0  0  0  0  0  0  0
   -4.3309    3.1693    0.9312 O   0  0  0  0  0  0  0  0  0  0  0  0
   -3.4919    5.2508    1.8943 C   0  0  1  0  0  0  0  0  0  0  0  0
   -3.8687    6.5176    2.7286 C   0  0  1  0  0  0  0  0  0  0  0  0
   -2.9056    7.6196    2.5291 N   0  3  0  0  0  0  0  0  0  0  0  0
   -5.2808    7.0377    2.3773 C   0  0  0  0  0  0  0  0  0  0  0  0
   -4.1913    1.7594    1.2711 C   0  0  1  0  0  0  0  0  0  0  0  0
   -4.5539    0.9269    0.0470 C   0  0  1  0  0  0  0  0  0  0  0  0
   -3.2524    1.0259   -0.7372 C   0  0  1  0  0  0  0  0  0  0  0  0
   -2.2067    0.8817    0.3777 C   0  0  2  0  0  0  0  0  0  0  0  0
   -2.8161    1.4569    1.5581 O   0  0  0  0  0  0  0  0  0  0  0  0
   -0.8842    1.6022    0.0595 C   0  0  0  0  0  0  0  0  0  0  0  0
   -3.2736   -1.5267   -5.2619 C   0  0  1  0  0  0  0  0  0  0  0  0
   -3.6089   -2.2943   -3.9528 C   0  0  1  0  0  0  0  0  0  0  0  0
   -4.6227   -1.5605   -3.0282 C   0  0  2  0  0  0  0  0  0  0  0  0
   -4.1724   -0.0900   -2.7514 C   0  0  1  0  0  0  0  0  0  0  0  0
   -3.1408   -0.0383   -1.7256 O   0  0  0  0  0  0  0  0  0  0  0  0
   -3.9351   -0.1151   -5.2620 C   0  0  1  0  0  0  0  0  0  0  0  0
   -3.6661    0.5528   -3.9860 O   0  0  0  0  0  0  0  0  0  0  0  0
   -3.4262    0.7776   -6.4231 C   0  0  0  0  0  0  0  0  0  0  0  0
   -4.8516    3.8007    6.7618 N   0  3  0  0  0  0  0  0  0  0  0  0
   -4.8264   -0.4181    0.4411 O   0  0  0  0  0  0  0  0  0  0  0  0
   -4.1520   -3.5663   -4.3041 O   0  0  0  0  0  0  0  0  0  0  0  0
   -1.8530   -1.4049   -5.3630 O   0  0  0  0  0  0  0  0  0  0  0  0
   -0.9208    2.9466    0.5064 O   0  0  0  0  0  0  0  0  0  0  0  0
   -6.9814    3.6669    2.1443 O   0  0  0  0  0  0  0  0  0  0  0  0
   -4.0308    0.4290   -7.7219 N   0  3  0  0  0  0  0  0  0  0  0  0
   -4.8712   -2.3259   -1.7813 N   0  3  0  0  0  0  0  0  0  0  0  0
  1  2  1  6  0  0  0
  1  3  1  0  0  0  0
  1 10  1  0  0  0  0
  3  4  1  6  0  0  0
  3  5  1  0  0  0  0
  5  6  1  1  0  0  0
  5  7  1  0  0  0  0
  7  8  1  6  0  0  0
  7  9  1  0  0  0  0
  9 10  1  0  0  0  0
  9 11  1  1  0  0  0
 11 35  1  0  0  0  0
 12 13  1  6  0  0  0
 12 14  1  0  0  0  0
 12 20  1  0  0  0  0
 14 15  1  0  0  0  0
 14 40  1  1  0  0  0
 15 16  1  6  0  0  0
 15 17  1  0  0  0  0
 17  2  1  1  0  0  0
 17 18  1  0  0  0  0
 18 19  1  6  0  0  0
 18 20  1  0  0  0  0
 21 16  1  6  0  0  0
 21 22  1  0  0  0  0
 21 25  1  0  0  0  0
 22 23  1  0  0  0  0
 22 36  1  1  0  0  0
 23 24  1  0  0  0  0
 23 31  1  6  0  0  0
 24 25  1  0  0  0  0
 24 26  1  6  0  0  0
 26 39  1  0  0  0  0
 27 28  1  0  0  0  0
 27 32  1  0  0  0  0
 27 38  1  1  0  0  0
 28 29  1  0  0  0  0
 28 37  1  6  0  0  0
 29 30  1  0  0  0  0
 29 42  1  1  0  0  0
 30 31  1  1  0  0  0
 30 33  1  0  0  0  0
 32 33  1  0  0  0  0
 32 34  1  6  0  0  0
 34 41  1  0  0  0  0
M  CHG  6   4   1  13   1  19   1  35   1  41   1  42   1
M  END
>  <CHROM.1>
172.03902877,-58.17444111,-165.06539963,179.28613596,-178.33785641,-150.13354502
-179.28189521,66.93756028,-47.79807793,-111.66993163,154.37181648,-170.83552696
68.75302503,60.39582022,88.85433756,-171.91555214,-65.91145623,-44.44716609
35.62898784,-138.40980425,77.19167819,70.27648460,-3.44571775,2.08468328
0.66720238,-1.53224261,0.87261104,-2.15194851

>  <Name>


>  <RI>
0

>  <Rbt.Current_Directory>
/home/itssahil/PROJECTS/Mol_Feturizer/New_Systems/rnas/1ei2

>  <Rbt.Executable>
rbdock ($Id: //depot/dev/client3/rdock/2013.1/src/exe/rbdock.cxx#4 $)

>  <Rbt.Library>
libRbt.so (2013.1, Build901 2013/11/27)

>  <Rbt.Parameter_File>
/export/apps/rDock/src/rDock_2013.1_src/data/scripts/dock_solv.prm

>  <Rbt.Receptor>
prm/pocket_docking_7.prm

>  <SCORE>
-60.7826

>  <SCORE.INTER>
-40.4019

>  <SCORE.INTER.CONST>
1

>  <SCORE.INTER.POLAR>
-6.23577

>  <SCORE.INTER.ROT>
9

>  <SCORE.INTER.SOLV>
25.0619

>  <SCORE.INTER.VDW>
-24.1027

>  <SCORE.INTER.norm>
-0.961951

>  <SCORE.INTRA>
-20.3807

>  <SCORE.INTRA.DIHEDRAL>
-13.2143

>  <SCORE.INTRA.DIHEDRAL.0>
40.8761

>  <SCORE.INTRA.POLAR>
-2.34518

>  <SCORE.INTRA.POLAR.0>
-0.0268208

>  <SCORE.INTRA.REPUL>
-0.0274262

>  <SCORE.INTRA.REPUL.0>
0.641615

>  <SCORE.INTRA.SOLV>
-8.32546

>  <SCORE.INTRA.SOLV.lig_0>
-162.567

>  <SCORE.INTRA.VDW>
-1.50005

>  <SCORE.INTRA.VDW.0>
-4.80338

>  <SCORE.INTRA.norm>
-0.485254

>  <SCORE.RESTR>
0

>  <SCORE.RESTR.CAVITY>
0

>  <SCORE.RESTR.norm>
0

>  <SCORE.SYSTEM>
0

>  <SCORE.SYSTEM.CONST>
0

>  <SCORE.SYSTEM.DIHEDRAL>
0

>  <SCORE.SYSTEM.SOLV>
0

>  <SCORE.SYSTEM.norm>
0

>  <SCORE.heavy>
42

>  <SCORE.norm>
-1.44721

>  <RMSD>
6.622

$$$$

 OpenBabel11021811393D
libRbt.so/2013.1/901 2013/11/27
 42 45  0  0  0  0  0  0  0  0999 V2000
   -6.4197    2.2789   -3.4192 C   0  0  2  0  0  0  0  0  0  0  0  0
   -6.4364    1.3641   -4.5579 O   0  0  0  0  0  0  0  0  0  0  0  0
   -6.0499    1.5397   -2.0922 C   0  0  2  0  0  0  0  0  0  0  0  0
   -5.4702    0.2025   -2.3545 N   0  3  0  0  0  0  0  0  0  0  0  0
   -7.2949    1.4231   -1.1621 C   0  0  1  0  0  0  0  0  0  0  0  0
   -6.9431    0.7567    0.0485 O   0  0  0  0  0  0  0  0  0  0  0  0
   -7.8802    2.8157   -0.8051 C   0  0  2  0  0  0  0  0  0  0  0  0
   -9.1597    2.6344   -0.2087 O   0  0  0  0  0  0  0  0  0  0  0  0
   -8.0036    3.7212   -2.0732 C   0  0  2  0  0  0  0  0  0  0  0  0
   -7.7242    2.9392   -3.2797 O   0  0  0  0  0  0  0  0  0  0  0  0
   -7.0350    4.9260   -2.0980 C   0  0  0  0  0  0  0  0  0  0  0  0
   -3.8137   -0.1417   -7.6359 C   0  0  1  0  0  0  0  0  0  0  0  0
   -2.8001   -0.2384   -8.7099 N   0  3  0  0  0  0  0  0  0  0  0  0
   -3.1623    0.1823   -6.2659 C   0  0  1  0  0  0  0  0  0  0  0  0
   -4.1994    0.4451   -5.1190 C   0  0  1  0  0  0  0  0  0  0  0  0
   -3.4951    1.0459   -3.9992 O   0  0  0  0  0  0  0  0  0  0  0  0
   -5.3538    1.4286   -5.5364 C   0  0  1  0  0  0  0  0  0  0  0  0
   -5.9512    1.0706   -6.9356 C   0  0  1  0  0  0  0  0  0  0  0  0
   -6.9297    2.0774   -7.3949 N   0  3  0  0  0  0  0  0  0  0  0  0
   -4.8513    0.9363   -8.0126 C   0  0  0  0  0  0  0  0  0  0  0  0
   -2.6461    2.2083   -4.2247 C   0  0  1  0  0  0  0  0  0  0  0  0
   -3.0754    3.3155   -3.2694 C   0  0  1  0  0  0  0  0  0  0  0  0
   -2.3742    2.8568   -1.9980 C   0  0  1  0  0  0  0  0  0  0  0  0
   -1.0183    2.3869   -2.5438 C   0  0  2  0  0  0  0  0  0  0  0  0
   -1.2861    1.8977   -3.8797 O   0  0  0  0  0  0  0  0  0  0  0  0
   -0.3781    1.2766   -1.6913 C   0  0  0  0  0  0  0  0  0  0  0  0
   -2.8056    3.7244    2.7434 C   0  0  1  0  0  0  0  0  0  0  0  0
   -2.2231    4.9568    1.9968 C   0  0  1  0  0  0  0  0  0  0  0  0
   -3.0723    5.4210    0.7784 C   0  0  2  0  0  0  0  0  0  0  0  0
   -3.3692    4.2305   -0.1893 C   0  0  1  0  0  0  0  0  0  0  0  0
   -2.2258    3.9484   -1.0450 O   0  0  0  0  0  0  0  0  0  0  0  0
   -4.0443    3.1534    1.9887 C   0  0  1  0  0  0  0  0  0  0  0  0
   -3.7276    3.0077    0.5657 O   0  0  0  0  0  0  0  0  0  0  0  0
   -4.5023    1.7837    2.5530 C   0  0  0  0  0  0  0  0  0  0  0  0
   -7.4710    6.0752   -1.2854 N   0  3  0  0  0  0  0  0  0  0  0  0
   -2.5669    4.5698   -3.7241 O   0  0  0  0  0  0  0  0  0  0  0  0
   -2.1261    6.0387    2.9222 O   0  0  0  0  0  0  0  0  0  0  0  0
   -1.7842    2.7290    2.8376 O   0  0  0  0  0  0  0  0  0  0  0  0
   -0.7924    1.3751   -0.3396 O   0  0  0  0  0  0  0  0  0  0  0  0
   -2.3290   -0.9118   -5.8840 O   0  0  0  0  0  0  0  0  0  0  0  0
   -5.1975    1.9004    3.8479 N   0  3  0  0  0  0  0  0  0  0  0  0
   -2.4442    6.5749    0.0882 N   0  3  0  0  0  0  0  0  0  0  0  0
  1  2  1  6  0  0  0
  1  3  1  0  0  0  0
  1 10  1  0  0  0  0
  3  4  1  6  0  0  0
  3  5  1  0  0  0  0
  5  6  1  1  0  0  0
  5  7  1  0  0  0  0
  7  8  1  6  0  0  0
  7  9  1  0  0  0  0
  9 10  1  0  0  0  0
  9 11  1  1  0  0  0
 11 35  1  0  0  0  0
 12 13  1  6  0  0  0
 12 14  1  0  0  0  0
 12 20  1  0  0  0  0
 14 15  1  0  0  0  0
 14 40  1  1  0  0  0
 15 16  1  1  0  0  0
 15 17  1  0  0  0  0
 17  2  1  1  0  0  0
 17 18  1  0  0  0  0
 18 19  1  6  0  0  0
 18 20  1  0  0  0  0
 21 16  1  1  0  0  0
 21 22  1  0  0  0  0
 21 25  1  0  0  0  0
 22 23  1  0  0  0  0
 22 36  1  6  0  0  0
 23 24  1  0  0  0  0
 23 31  1  1  0  0  0
 24 25  1  0  0  0  0
 24 26  1  1  0  0  0
 26 39  1  0  0  0  0
 27 28  1  0  0  0  0
 27 32  1  0  0  0  0
 27 38  1  6  0  0  0
 28 29  1  0  0  0  0
 28 37  1  1  0  0  0
 29 30  1  0  0  0  0
 29 42  1  6  0  0  0
 30 31  1  1  0  0  0
 30 33  1  0  0  0  0
 32 33  1  0  0  0  0
 32 34  1  1  0  0  0
 34 41  1  0  0  0  0
M  CHG  6   4   1  13   1  19   1  35   1  41   1  42   1
M  END
>  <CHROM.1>
-106.82373860,90.81680215,66.37534977,179.27947213,64.01021372,-80.00108965
-171.81705921,168.14800383,-60.67199845,51.11125805,126.44763118,63.33294148
71.83800699,83.46327748,-28.16967692,-76.41470488,179.07774737,-43.51242269
130.21882253,-179.94386284,74.45655123,-44.95032443,-4.29636849,2.48051365
-2.13610834,1.66812432,0.04909988,-1.93841719

>  <Name>


>  <RI>
0

>  <Rbt.Current_Directory>
/home/itssahil/PROJECTS/Mol_Feturizer/New_Systems/rnas/1ei2

>  <Rbt.Executable>
rbdock ($Id: //depot/dev/client3/rdock/2013.1/src/exe/rbdock.cxx#4 $)

>  <Rbt.Library>
libRbt.so (2013.1, Build901 2013/11/27)

>  <Rbt.Parameter_File>
/export/apps/rDock/src/rDock_2013.1_src/data/scripts/dock_solv.prm

>  <Rbt.Receptor>
prm/pocket_docking_4.prm

>  <SCORE>
-44.8793

>  <SCORE.INTER>
-28.5947

>  <SCORE.INTER.CONST>
1

>  <SCORE.INTER.POLAR>
-5.17333

>  <SCORE.INTER.ROT>
9

>  <SCORE.INTER.SOLV>
20.4771

>  <SCORE.INTER.VDW>
-18.2444

>  <SCORE.INTER.norm>
-0.680827

>  <SCORE.INTRA>
-16.4802

>  <SCORE.INTRA.DIHEDRAL>
-7.74869

>  <SCORE.INTRA.DIHEDRAL.0>
40.8761

>  <SCORE.INTRA.POLAR>
-1.17252

>  <SCORE.INTRA.POLAR.0>
-0.0268208

>  <SCORE.INTRA.REPUL>
-0.616137

>  <SCORE.INTRA.REPUL.0>
0.641615

>  <SCORE.INTRA.SOLV>
-9.94581

>  <SCORE.INTRA.SOLV.lig_0>
-162.567

>  <SCORE.INTRA.VDW>
-0.565683

>  <SCORE.INTRA.VDW.0>
-4.80338

>  <SCORE.INTRA.norm>
-0.392386

>  <SCORE.RESTR>
0.195682

>  <SCORE.RESTR.CAVITY>
0.195682

>  <SCORE.RESTR.norm>
0.00465909

>  <SCORE.SYSTEM>
0

>  <SCORE.SYSTEM.CONST>
0

>  <SCORE.SYSTEM.DIHEDRAL>
0

>  <SCORE.SYSTEM.SOLV>
0

>  <SCORE.SYSTEM.norm>
0

>  <SCORE.heavy>
42

>  <SCORE.norm>
-1.06855

>  <RMSD>
6.635

$$$$

 OpenBabel11021811393D
libRbt.so/2013.1/901 2013/11/27
 42 45  0  0  0  0  0  0  0  0999 V2000
   -6.4790    3.0343   -2.2518 C   0  0  2  0  0  0  0  0  0  0  0  0
   -5.2841    3.7304   -1.7814 O   0  0  0  0  0  0  0  0  0  0  0  0
   -7.7039    3.9998   -2.3572 C   0  0  2  0  0  0  0  0  0  0  0  0
   -7.2871    5.4199   -2.3028 N   0  3  0  0  0  0  0  0  0  0  0  0
   -8.7448    3.6923   -1.2388 C   0  0  1  0  0  0  0  0  0  0  0  0
   -9.8614    4.5720   -1.3513 O   0  0  0  0  0  0  0  0  0  0  0  0
   -9.2602    2.2302   -1.3173 C   0  0  2  0  0  0  0  0  0  0  0  0
   -9.9686    1.9305   -0.1199 O   0  0  0  0  0  0  0  0  0  0  0  0
   -8.0807    1.2224   -1.5085 C   0  0  2  0  0  0  0  0  0  0  0  0
   -6.7981    1.9136   -1.3578 O   0  0  0  0  0  0  0  0  0  0  0  0
   -8.0457    0.5306   -2.8907 C   0  0  0  0  0  0  0  0  0  0  0  0
   -2.3149    1.5151   -3.9941 C   0  0  1  0  0  0  0  0  0  0  0  0
   -1.0401    0.9059   -4.4349 N   0  3  0  0  0  0  0  0  0  0  0  0
   -2.8341    0.8644   -2.6852 C   0  0  1  0  0  0  0  0  0  0  0  0
   -4.1020    1.5690   -2.0886 C   0  0  1  0  0  0  0  0  0  0  0  0
   -4.2898    1.0904   -0.7297 O   0  0  0  0  0  0  0  0  0  0  0  0
   -3.9729    3.1354   -2.0265 C   0  0  1  0  0  0  0  0  0  0  0  0
   -3.4186    3.7309   -3.3611 C   0  0  1  0  0  0  0  0  0  0  0  0
   -3.1565    5.1807   -3.2547 N   0  3  0  0  0  0  0  0  0  0  0  0
   -2.1129    3.0328   -3.8033 C   0  0  0  0  0  0  0  0  0  0  0  0
   -3.2065    1.2243    0.2353 C   0  0  1  0  0  0  0  0  0  0  0  0
   -3.1011    2.6881    0.6467 C   0  0  1  0  0  0  0  0  0  0  0  0
   -4.2276    2.7591    1.6687 C   0  0  1  0  0  0  0  0  0  0  0  0
   -4.0548    1.4279    2.4139 C   0  0  2  0  0  0  0  0  0  0  0  0
   -3.5255    0.5014    1.4356 O   0  0  0  0  0  0  0  0  0  0  0  0
   -5.3736    0.8881    2.9959 C   0  0  0  0  0  0  0  0  0  0  0  0
   -6.2326    6.9604    3.4049 C   0  0  1  0  0  0  0  0  0  0  0  0
   -4.8302    6.6599    4.0034 C   0  0  1  0  0  0  0  0  0  0  0  0
   -3.7402    6.3423    2.9394 C   0  0  2  0  0  0  0  0  0  0  0  0
   -4.2166    5.2215    1.9603 C   0  0  1  0  0  0  0  0  0  0  0  0
   -4.0720    3.9021    2.5582 O   0  0  0  0  0  0  0  0  0  0  0  0
   -6.2403    6.7234    1.8641 C   0  0  1  0  0  0  0  0  0  0  0  0
   -5.6291    5.4260    1.5643 O   0  0  0  0  0  0  0  0  0  0  0  0
   -7.6699    6.7652    1.2653 C   0  0  0  0  0  0  0  0  0  0  0  0
   -9.2333   -0.2877   -3.1928 N   0  3  0  0  0  0  0  0  0  0  0  0
   -1.8302    2.9297    1.2509 O   0  0  0  0  0  0  0  0  0  0  0  0
   -4.4110    7.7957    4.7589 O   0  0  0  0  0  0  0  0  0  0  0  0
   -7.1871    6.1064    4.0394 O   0  0  0  0  0  0  0  0  0  0  0  0
   -5.7014    1.5514    4.2047 O   0  0  0  0  0  0  0  0  0  0  0  0
   -3.1539   -0.5017   -2.9477 O   0  0  0  0  0  0  0  0  0  0  0  0
   -8.0735    8.1176    0.8385 N   0  3  0  0  0  0  0  0  0  0  0  0
   -2.4368    6.0285    3.5758 N   0  3  0  0  0  0  0  0  0  0  0  0
  1  2  1  1  0  0  0
  1  3  1  0  0  0  0
  1 10  1  0  0  0  0
  3  4  1  1  0  0  0
  3  5  1  0  0  0  0
  5  6  1  6  0  0  0
  5  7  1  0  0  0  0
  7  8  1  1  0  0  0
  7  9  1  0  0  0  0
  9 10  1  0  0  0  0
  9 11  1  6  0  0  0
 11 35  1  0  0  0  0
 12 13  1  1  0  0  0
 12 14  1  0  0  0  0
 12 20  1  0  0  0  0
 14 15  1  0  0  0  0
 14 40  1  6  0  0  0
 15 16  1  1  0  0  0
 15 17  1  0  0  0  0
 17  2  1  6  0  0  0
 17 18  1  0  0  0  0
 18 19  1  1  0  0  0
 18 20  1  0  0  0  0
 21 16  1  6  0  0  0
 21 22  1  0  0  0  0
 21 25  1  0  0  0  0
 22 23  1  0  0  0  0
 22 36  1  1  0  0  0
 23 24  1  0  0  0  0
 23 31  1  1  0  0  0
 24 25  1  0  0  0  0
 24 26  1  6  0  0  0
 26 39  1  0  0  0  0
 27 28  1  0  0  0  0
 27 32  1  0  0  0  0
 27 38  1  1  0  0  0
 28 29  1  0  0  0  0
 28 37  1  6  0  0  0
 29 30  1  0  0  0  0
 29 42  1  1  0  0  0
 30 31  1  1  0  0  0
 30 33  1  0  0  0  0
 32 33  1  0  0  0  0
 32 34  1  1  0  0  0
 34 41  1  0  0  0  0
M  CHG  6   4   1  13   1  19   1  35   1  41   1  42   1
M  END
>  <CHROM.1>
-160.25236377,-29.00924067,-157.32472089,-71.04311388,-67.90114500,-61.39362481
-127.97875023,167.32066326,-178.74187173,56.02610567,73.81366232,65.53818046
64.86654961,66.95736612,-79.45849151,-175.43660433,-58.70586762,68.52431082
62.43360397,-168.24652911,89.95342139,-45.27019451,-5.32547395,3.40928279
-0.05731890,1.44628739,0.20860726,-2.22802236

>  <Name>


>  <RI>
0

>  <Rbt.Current_Directory>
/home/itssahil/PROJECTS/Mol_Feturizer/New_Systems/rnas/1ei2

>  <Rbt.Executable>
rbdock ($Id: //depot/dev/client3/rdock/2013.1/src/exe/rbdock.cxx#4 $)

>  <Rbt.Library>
libRbt.so (2013.1, Build901 2013/11/27)

>  <Rbt.Parameter_File>
/export/apps/rDock/src/rDock_2013.1_src/data/scripts/dock_solv.prm

>  <Rbt.Receptor>
prm/pocket_docking_7.prm

>  <SCORE>
-52.9316

>  <SCORE.INTER>
-35.7888

>  <SCORE.INTER.CONST>
1

>  <SCORE.INTER.POLAR>
-6.40316

>  <SCORE.INTER.ROT>
9

>  <SCORE.INTER.SOLV>
23.8756

>  <SCORE.INTER.VDW>
-20.0738

>  <SCORE.INTER.norm>
-0.852113

>  <SCORE.INTRA>
-17.1429

>  <SCORE.INTRA.DIHEDRAL>
-21.4457

>  <SCORE.INTRA.DIHEDRAL.0>
40.8761

>  <SCORE.INTRA.POLAR>
-0.186596

>  <SCORE.INTRA.POLAR.0>
-0.0268208

>  <SCORE.INTRA.REPUL>
-0.119374

>  <SCORE.INTRA.REPUL.0>
0.641615

>  <SCORE.INTRA.SOLV>
-11.9842

>  <SCORE.INTRA.SOLV.lig_0>
-162.567

>  <SCORE.INTRA.VDW>
0.803358

>  <SCORE.INTRA.VDW.0>
-4.80338

>  <SCORE.INTRA.norm>
-0.408164

>  <SCORE.RESTR>
0

>  <SCORE.RESTR.CAVITY>
0

>  <SCORE.RESTR.norm>
0

>  <SCORE.SYSTEM>
0

>  <SCORE.SYSTEM.CONST>
0

>  <SCORE.SYSTEM.DIHEDRAL>
0

>  <SCORE.SYSTEM.SOLV>
0

>  <SCORE.SYSTEM.norm>
0

>  <SCORE.heavy>
42

>  <SCORE.norm>
-1.26028

>  <RMSD>
6.636

$$$$

 OpenBabel11021811393D
libRbt.so/2013.1/901 2013/11/27
 42 45  0  0  0  0  0  0  0  0999 V2000
   -7.8915    3.1428   -3.5902 C   0  0  2  0  0  0  0  0  0  0  0  0
   -7.1925    4.1019   -4.4418 O   0  0  0  0  0  0  0  0  0  0  0  0
   -9.4364    3.3812   -3.6023 C   0  0  2  0  0  0  0  0  0  0  0  0
   -9.8448    4.2639   -4.7190 N   0  3  0  0  0  0  0  0  0  0  0  0
   -9.9134    3.9675   -2.2393 C   0  0  1  0  0  0  0  0  0  0  0  0
  -11.3246    4.1710   -2.2588 O   0  0  0  0  0  0  0  0  0  0  0  0
   -9.5682    3.0261   -1.0545 C   0  0  2  0  0  0  0  0  0  0  0  0
   -9.7609    3.7357    0.1641 O   0  0  0  0  0  0  0  0  0  0  0  0
   -8.0946    2.5130   -1.1483 C   0  0  2  0  0  0  0  0  0  0  0  0
   -7.3820    3.2200   -2.2149 O   0  0  0  0  0  0  0  0  0  0  0  0
   -7.9592    1.0040   -1.4566 C   0  0  0  0  0  0  0  0  0  0  0  0
   -4.1176    1.6219   -6.1781 C   0  0  1  0  0  0  0  0  0  0  0  0
   -2.8439    1.1475   -6.7639 N   0  3  0  0  0  0  0  0  0  0  0  0
   -3.9554    1.9808   -4.6778 C   0  0  1  0  0  0  0  0  0  0  0  0
   -5.2331    2.6308   -4.0414 C   0  0  1  0  0  0  0  0  0  0  0  0
   -4.8588    3.2091   -2.7622 O   0  0  0  0  0  0  0  0  0  0  0  0
   -5.8501    3.7807   -4.9197 C   0  0  1  0  0  0  0  0  0  0  0  0
   -5.9623    3.3727   -6.4243 C   0  0  1  0  0  0  0  0  0  0  0  0
   -6.4008    4.4993   -7.2731 N   0  3  0  0  0  0  0  0  0  0  0  0
   -4.6205    2.8421   -6.9773 C   0  0  0  0  0  0  0  0  0  0  0  0
   -3.9955    4.3823   -2.7291 C   0  0  1  0  0  0  0  0  0  0  0  0
   -4.2752    5.1546   -1.4454 C   0  0  1  0  0  0  0  0  0  0  0  0
   -3.4576    4.3338   -0.4574 C   0  0  1  0  0  0  0  0  0  0  0  0
   -2.1883    4.0433   -1.2709 C   0  0  2  0  0  0  0  0  0  0  0  0
   -2.6189    3.9773   -2.6515 O   0  0  0  0  0  0  0  0  0  0  0  0
   -1.5020    2.7263   -0.8663 C   0  0  0  0  0  0  0  0  0  0  0  0
   -3.8652    4.2246    4.4269 C   0  0  1  0  0  0  0  0  0  0  0  0
   -3.1069    5.4878    3.9320 C   0  0  1  0  0  0  0  0  0  0  0  0
   -3.8563    6.2860    2.8264 C   0  0  2  0  0  0  0  0  0  0  0  0
   -4.2822    5.3533    1.6472 C   0  0  1  0  0  0  0  0  0  0  0  0
   -3.1643    5.0896    0.7528 O   0  0  0  0  0  0  0  0  0  0  0  0
   -5.1485    3.9796    3.5766 C   0  0  1  0  0  0  0  0  0  0  0  0
   -4.8174    4.0678    2.1521 O   0  0  0  0  0  0  0  0  0  0  0  0
   -5.7967    2.6011    3.8659 C   0  0  0  0  0  0  0  0  0  0  0  0
   -8.4137    0.1171   -0.3712 N   0  3  0  0  0  0  0  0  0  0  0  0
   -3.7716    6.4855   -1.5629 O   0  0  0  0  0  0  0  0  0  0  0  0
   -2.8924    6.3497    5.0489 O   0  0  0  0  0  0  0  0  0  0  0  0
   -2.9862    3.1020    4.3269 O   0  0  0  0  0  0  0  0  0  0  0  0
   -2.1978    1.6106   -1.3953 O   0  0  0  0  0  0  0  0  0  0  0  0
   -3.6408    0.7919   -3.9532 O   0  0  0  0  0  0  0  0  0  0  0  0
   -6.3367    2.4972    5.2340 N   0  3  0  0  0  0  0  0  0  0  0  0
   -3.0647    7.4560    2.3718 N   0  3  0  0  0  0  0  0  0  0  0  0
  1  2  1  6  0  0  0
  1  3  1  0  0  0  0
  1 10  1  0  0  0  0
  3  4  1  6  0  0  0
  3  5  1  0  0  0  0
  5  6  1  6  0  0  0
  5  7  1  0  0  0  0
  7  8  1  1  0  0  0
  7  9  1  0  0  0  0
  9 10  1  0  0  0  0
  9 11  1  6  0  0  0
 11 35  1  0  0  0  0
 12 13  1  6  0  0  0
 12 14  1  0  0  0  0
 12 20  1  0  0  0  0
 14 15  1  0  0  0  0
 14 40  1  1  0  0  0
 15 16  1  1  0  0  0
 15 17  1  0  0  0  0
 17  2  1  1  0  0  0
 17 18  1  0  0  0  0
 18 19  1  6  0  0  0
 18 20  1  0  0  0  0
 21 16  1  1  0  0  0
 21 22  1  0  0  0  0
 21 25  1  0  0  0  0
 22 23  1  0  0  0  0
 22 36  1  6  0  0  0
 23 24  1  0  0  0  0
 23 31  1  1  0  0  0
 24 25  1  0  0  0  0
 24 26  1  1  0  0  0
 26 39  1  0  0  0  0
 27 28  1  0  0  0  0
 27 32  1  0  0  0  0
 27 38  1  6  0  0  0
 28 29  1  0  0  0  0
 28 37  1  1  0  0  0
 29 30  1  0  0  0  0
 29 42  1  6  0  0  0
 30 31  1  6  0  0  0
 30 33  1  0  0  0  0
 32 33  1  0  0  0  0
 32 34  1  6  0  0  0
 34 41  1  0  0  0  0
M  CHG  6   4   1  13   1  19   1  35   1  41   1  42   1
M  END
>  <CHROM.1>
-159.34199901,-17.91975614,41.00091282,-70.02701361,60.09640982,-68.09847477
119.01505442,28.96891115,174.30021200,69.17888654,153.65408188,56.37572246
-72.16291609,70.54771947,76.64602312,-178.58026354,-63.86357493,175.13540700
-66.36034321,-174.44658099,66.29816781,164.09995085,-5.42149436,3.61272461
-1.24072173,1.85581748,-0.08347636,-1.74522770

>  <Name>


>  <RI>
0

>  <Rbt.Current_Directory>
/home/itssahil/PROJECTS/Mol_Feturizer/New_Systems/rnas/1ei2

>  <Rbt.Executable>
rbdock ($Id: //depot/dev/client3/rdock/2013.1/src/exe/rbdock.cxx#4 $)

>  <Rbt.Library>
libRbt.so (2013.1, Build901 2013/11/27)

>  <Rbt.Parameter_File>
/export/apps/rDock/src/rDock_2013.1_src/data/scripts/dock_solv.prm

>  <Rbt.Receptor>
prm/pocket_docking_5.prm

>  <SCORE>
-51.9375

>  <SCORE.INTER>
-32.3175

>  <SCORE.INTER.CONST>
1

>  <SCORE.INTER.POLAR>
-6.21895

>  <SCORE.INTER.ROT>
9

>  <SCORE.INTER.SOLV>
28.7803

>  <SCORE.INTER.VDW>
-20.0086

>  <SCORE.INTER.norm>
-0.769464

>  <SCORE.INTRA>
-19.6722

>  <SCORE.INTRA.DIHEDRAL>
-18.9591

>  <SCORE.INTRA.DIHEDRAL.0>
40.8761

>  <SCORE.INTRA.POLAR>
-0.967124

>  <SCORE.INTRA.POLAR.0>
-0.0268208

>  <SCORE.INTRA.REPUL>
-0.539776

>  <SCORE.INTRA.REPUL.0>
0.641615

>  <SCORE.INTRA.SOLV>
-11.3567

>  <SCORE.INTRA.SOLV.lig_0>
-162.567

>  <SCORE.INTRA.VDW>
1.47284

>  <SCORE.INTRA.VDW.0>
-4.80338

>  <SCORE.INTRA.norm>
-0.468385

>  <SCORE.RESTR>
0.0521679

>  <SCORE.RESTR.CAVITY>
0.0521679

>  <SCORE.RESTR.norm>
0.00124209

>  <SCORE.SYSTEM>
0

>  <SCORE.SYSTEM.CONST>
0

>  <SCORE.SYSTEM.DIHEDRAL>
0

>  <SCORE.SYSTEM.SOLV>
0

>  <SCORE.SYSTEM.norm>
0

>  <SCORE.heavy>
42

>  <SCORE.norm>
-1.23661

>  <RMSD>
6.637

$$$$

 OpenBabel11021811393D
libRbt.so/2013.1/901 2013/11/27
 42 45  0  0  0  0  0  0  0  0999 V2000
   -3.8492    3.2652   -0.3800 C   0  0  2  0  0  0  0  0  0  0  0  0
   -3.0790    3.6349   -1.5649 O   0  0  0  0  0  0  0  0  0  0  0  0
   -4.3080    4.5246    0.4245 C   0  0  2  0  0  0  0  0  0  0  0  0
   -4.1667    5.7644   -0.3731 N   0  3  0  0  0  0  0  0  0  0  0  0
   -3.5165    4.6417    1.7619 C   0  0  1  0  0  0  0  0  0  0  0  0
   -3.9506    5.7876    2.4911 O   0  0  0  0  0  0  0  0  0  0  0  0
   -3.7075    3.3876    2.6564 C   0  0  2  0  0  0  0  0  0  0  0  0
   -2.7481    3.4251    3.7070 O   0  0  0  0  0  0  0  0  0  0  0  0
   -3.5454    2.0710    1.8296 C   0  0  2  0  0  0  0  0  0  0  0  0
   -3.0579    2.3785    0.4831 O   0  0  0  0  0  0  0  0  0  0  0  0
   -4.8505    1.2622    1.6488 C   0  0  0  0  0  0  0  0  0  0  0  0
   -1.4931    1.7753   -5.1211 C   0  0  1  0  0  0  0  0  0  0  0  0
   -1.3088    0.8959   -6.2972 N   0  3  0  0  0  0  0  0  0  0  0  0
   -2.6855    2.7477   -5.3187 C   0  0  1  0  0  0  0  0  0  0  0  0
   -3.0231    3.6008   -4.0466 C   0  0  1  0  0  0  0  0  0  0  0  0
   -4.3260    4.2128   -4.2435 O   0  0  0  0  0  0  0  0  0  0  0  0
   -3.0936    2.7490   -2.7261 C   0  0  1  0  0  0  0  0  0  0  0  0
   -1.8832    1.7688   -2.5959 C   0  0  1  0  0  0  0  0  0  0  0  0
   -2.0236    0.8654   -1.4357 N   0  3  0  0  0  0  0  0  0  0  0  0
   -1.7042    0.9051   -3.8647 C   0  0  0  0  0  0  0  0  0  0  0  0
   -5.4698    3.3754   -4.5802 C   0  0  1  0  0  0  0  0  0  0  0  0
   -6.4696    3.4347   -3.4315 C   0  0  1  0  0  0  0  0  0  0  0  0
   -7.1525    4.7599   -3.7411 C   0  0  1  0  0  0  0  0  0  0  0  0
   -7.2879    4.6896   -5.2689 C   0  0  2  0  0  0  0  0  0  0  0  0
   -6.1534    3.9139   -5.7237 O   0  0  0  0  0  0  0  0  0  0  0  0
   -7.2846    6.0758   -5.9380 C   0  0  0  0  0  0  0  0  0  0  0  0
  -10.9376    5.8868   -0.3487 C   0  0  1  0  0  0  0  0  0  0  0  0
  -10.9896    4.5593   -1.1553 C   0  0  1  0  0  0  0  0  0  0  0  0
   -9.6431    3.7800   -1.1834 C   0  0  2  0  0  0  0  0  0  0  0  0
   -8.4666    4.7019   -1.6392 C   0  0  1  0  0  0  0  0  0  0  0  0
   -8.4499    4.8594   -3.0863 O   0  0  0  0  0  0  0  0  0  0  0  0
   -9.4835    6.1926    0.1226 C   0  0  1  0  0  0  0  0  0  0  0  0
   -8.5596    6.0366   -1.0038 O   0  0  0  0  0  0  0  0  0  0  0  0
   -9.3386    7.6209    0.7082 C   0  0  0  0  0  0  0  0  0  0  0  0
   -6.0367    2.0803    1.3408 N   0  3  0  0  0  0  0  0  0  0  0  0
   -7.3819    2.3406   -3.5282 O   0  0  0  0  0  0  0  0  0  0  0  0
  -11.9886    3.7205   -0.5766 O   0  0  0  0  0  0  0  0  0  0  0  0
  -11.4167    6.9424   -1.1848 O   0  0  0  0  0  0  0  0  0  0  0  0
   -8.3867    6.8514   -5.4991 O   0  0  0  0  0  0  0  0  0  0  0  0
   -2.3802    3.6353   -6.3940 O   0  0  0  0  0  0  0  0  0  0  0  0
   -7.9352    8.0641    0.7983 N   0  3  0  0  0  0  0  0  0  0  0  0
   -9.7491    2.5444   -1.9985 N   0  3  0  0  0  0  0  0  0  0  0  0
  1  2  1  6  0  0  0
  1  3  1  0  0  0  0
  1 10  1  0  0  0  0
  3  4  1  6  0  0  0
  3  5  1  0  0  0  0
  5  6  1  1  0  0  0
  5  7  1  0  0  0  0
  7  8  1  1  0  0  0
  7  9  1  0  0  0  0
  9 10  1  0  0  0  0
  9 11  1  6  0  0  0
 11 35  1  0  0  0  0
 12 13  1  6  0  0  0
 12 14  1  0  0  0  0
 12 20  1  0  0  0  0
 14 15  1  0  0  0  0
 14 40  1  6  0  0  0
 15 16  1  6  0  0  0
 15 17  1  0  0  0  0
 17  2  1  1  0  0  0
 17 18  1  0  0  0  0
 18 19  1  1  0  0  0
 18 20  1  0  0  0  0
 21 16  1  1  0  0  0
 21 22  1  0  0  0  0
 21 25  1  0  0  0  0
 22 23  1  0  0  0  0
 22 36  1  6  0  0  0
 23 24  1  0  0  0  0
 23 31  1  1  0  0  0
 24 25  1  0  0  0  0
 24 26  1  6  0  0  0
 26 39  1  0  0  0  0
 27 28  1  0  0  0  0
 27 32  1  0  0  0  0
 27 38  1  6  0  0  0
 28 29  1  0  0  0  0
 28 37  1  1  0  0  0
 29 30  1  0  0  0  0
 29 42  1  6  0  0  0
 30 31  1  6  0  0  0
 30 33  1  0  0  0  0
 32 33  1  0  0  0  0
 32 34  1  6  0  0  0
 34 41  1  0  0  0  0
M  CHG  6   4   1  13   1  19   1  35   1  41   1  42   1
M  END
>  <CHROM.1>
-151.76055655,145.42151320,-175.11866698,63.35373723,-179.90604713,42.35329559
-161.09384132,167.38165385,62.84630386,54.06027078,114.77079131,60.83856935
-61.79206899,56.67032967,-61.96531821,179.93246922,-59.92571250,174.59618588
45.55447667,-135.95588830,-163.58533851,62.37240485,-5.81469965,3.96025884
-1.81310833,-0.27645217,-0.41460713,1.50249950

>  <Name>


>  <RI>
0

>  <Rbt.Current_Directory>
/home/itssahil/PROJECTS/Mol_Feturizer/New_Systems/rnas/1ei2

>  <Rbt.Executable>
rbdock ($Id: //depot/dev/client3/rdock/2013.1/src/exe/rbdock.cxx#4 $)

>  <Rbt.Library>
libRbt.so (2013.1, Build901 2013/11/27)

>  <Rbt.Parameter_File>
/export/apps/rDock/src/rDock_2013.1_src/data/scripts/dock_solv.prm

>  <Rbt.Receptor>
prm/pocket_docking_3.prm

>  <SCORE>
-47.6774

>  <SCORE.INTER>
-29.3132

>  <SCORE.INTER.CONST>
1

>  <SCORE.INTER.POLAR>
-4.86064

>  <SCORE.INTER.ROT>
9

>  <SCORE.INTER.SOLV>
22.5153

>  <SCORE.INTER.VDW>
-20.4451

>  <SCORE.INTER.norm>
-0.697933

>  <SCORE.INTRA>
-18.8848

>  <SCORE.INTRA.DIHEDRAL>
-15.125

>  <SCORE.INTRA.DIHEDRAL.0>
40.8761

>  <SCORE.INTRA.POLAR>
-1.93419

>  <SCORE.INTRA.POLAR.0>
-0.0268208

>  <SCORE.INTRA.REPUL>
-0.641615

>  <SCORE.INTRA.REPUL.0>
0.641615

>  <SCORE.INTRA.SOLV>
-2.62812

>  <SCORE.INTRA.SOLV.lig_0>
-162.567

>  <SCORE.INTRA.VDW>
-0.223872

>  <SCORE.INTRA.VDW.0>
-4.80338

>  <SCORE.INTRA.norm>
-0.449638

>  <SCORE.RESTR>
0.52055

>  <SCORE.RESTR.CAVITY>
0.52055

>  <SCORE.RESTR.norm>
0.0123941

>  <SCORE.SYSTEM>
0

>  <SCORE.SYSTEM.CONST>
0

>  <SCORE.SYSTEM.DIHEDRAL>
0

>  <SCORE.SYSTEM.SOLV>
0

>  <SCORE.SYSTEM.norm>
0

>  <SCORE.heavy>
42

>  <SCORE.norm>
-1.13518

>  <RMSD>
6.650

$$$$

 OpenBabel11021811393D
libRbt.so/2013.1/901 2013/11/27
 42 45  0  0  0  0  0  0  0  0999 V2000
   -2.8745    2.6661   -2.0392 C   0  0  2  0  0  0  0  0  0  0  0  0
   -2.2295    3.2129   -0.8481 O   0  0  0  0  0  0  0  0  0  0  0  0
   -1.9346    1.6744   -2.7990 C   0  0  2  0  0  0  0  0  0  0  0  0
   -0.7848    1.2610   -1.9622 N   0  3  0  0  0  0  0  0  0  0  0  0
   -1.4396    2.3014   -4.1371 C   0  0  1  0  0  0  0  0  0  0  0  0
   -0.5920    1.3844   -4.8256 O   0  0  0  0  0  0  0  0  0  0  0  0
   -2.6220    2.6748   -5.0709 C   0  0  2  0  0  0  0  0  0  0  0  0
   -2.1301    3.4935   -6.1261 O   0  0  0  0  0  0  0  0  0  0  0  0
   -3.7468    3.4275   -4.2887 C   0  0  2  0  0  0  0  0  0  0  0  0
   -3.2884    3.7530   -2.9361 O   0  0  0  0  0  0  0  0  0  0  0  0
   -5.0599    2.6281   -4.1257 C   0  0  0  0  0  0  0  0  0  0  0  0
   -3.8774    1.6149    2.8057 C   0  0  1  0  0  0  0  0  0  0  0  0
   -4.5330    1.4874    4.1264 N   0  3  0  0  0  0  0  0  0  0  0  0
   -4.8922    2.0141    1.7026 C   0  0  1  0  0  0  0  0  0  0  0  0
   -4.2303    2.3104    0.3119 C   0  0  1  0  0  0  0  0  0  0  0  0
   -5.2135    2.9754   -0.5261 O   0  0  0  0  0  0  0  0  0  0  0  0
   -2.9740    3.2519    0.4079 C   0  0  1  0  0  0  0  0  0  0  0  0
   -2.0032    2.8185    1.5537 C   0  0  1  0  0  0  0  0  0  0  0  0
   -0.9020    3.7847    1.7425 N   0  3  0  0  0  0  0  0  0  0  0  0
   -2.7416    2.6549    2.9012 C   0  0  0  0  0  0  0  0  0  0  0  0
   -5.0844    4.4023   -0.7909 C   0  0  1  0  0  0  0  0  0  0  0  0
   -6.3492    4.8820   -1.4930 C   0  0  1  0  0  0  0  0  0  0  0  0
   -7.2781    5.0308   -0.2957 C   0  0  1  0  0  0  0  0  0  0  0  0
   -6.3398    5.6502    0.7498 C   0  0  2  0  0  0  0  0  0  0  0  0
   -5.0237    5.1284    0.4477 O   0  0  0  0  0  0  0  0  0  0  0  0
   -6.7315    5.2957    2.1955 C   0  0  0  0  0  0  0  0  0  0  0  0
   -9.0424    2.4054   -2.0443 C   0  0  1  0  0  0  0  0  0  0  0  0
   -9.3838    2.8524   -0.5955 C   0  0  1  0  0  0  0  0  0  0  0  0
  -10.1982    4.1757   -0.5143 C   0  0  2  0  0  0  0  0  0  0  0  0
   -9.5109    5.3130   -1.3365 C   0  0  1  0  0  0  0  0  0  0  0  0
   -8.4046    5.9037   -0.5974 O   0  0  0  0  0  0  0  0  0  0  0  0
   -9.4817    3.4878   -3.0766 C   0  0  1  0  0  0  0  0  0  0  0  0
   -9.0140    4.8045   -2.6358 O   0  0  0  0  0  0  0  0  0  0  0  0
   -8.9388    3.2033   -4.5008 C   0  0  0  0  0  0  0  0  0  0  0  0
   -4.9482    1.4433   -3.2567 N   0  3  0  0  0  0  0  0  0  0  0  0
   -6.1040    6.1388   -2.1246 O   0  0  0  0  0  0  0  0  0  0  0  0
  -10.1385    1.8148    0.0291 O   0  0  0  0  0  0  0  0  0  0  0  0
   -7.6325    2.1870   -2.1294 O   0  0  0  0  0  0  0  0  0  0  0  0
   -5.9473    6.0241    3.1247 O   0  0  0  0  0  0  0  0  0  0  0  0
   -5.8349    0.9545    1.5414 O   0  0  0  0  0  0  0  0  0  0  0  0
   -8.7353    1.7662   -4.7605 N   0  3  0  0  0  0  0  0  0  0  0  0
  -10.4586    4.5663    0.8935 N   0  3  0  0  0  0  0  0  0  0  0  0
  1  2  1  1  0  0  0
  1  3  1  0  0  0  0
  1 10  1  0  0  0  0
  3  4  1  1  0  0  0
  3  5  1  0  0  0  0
  5  6  1  6  0  0  0
  5  7  1  0  0  0  0
  7  8  1  6  0  0  0
  7  9  1  0  0  0  0
  9 10  1  0  0  0  0
  9 11  1  1  0  0  0
 11 35  1  0  0  0  0
 12 13  1  1  0  0  0
 12 14  1  0  0  0  0
 12 20  1  0  0  0  0
 14 15  1  0  0  0  0
 14 40  1  6  0  0  0
 15 16  1  6  0  0  0
 15 17  1  0  0  0  0
 17  2  1  6  0  0  0
 17 18  1  0  0  0  0
 18 19  1  1  0  0  0
 18 20  1  0  0  0  0
 21 16  1  1  0  0  0
 21 22  1  0  0  0  0
 21 25  1  0  0  0  0
 22 23  1  0  0  0  0
 22 36  1  1  0  0  0
 23 24  1  0  0  0  0
 23 31  1  6  0  0  0
 24 25  1  0  0  0  0
 24 26  1  1  0  0  0
 26 39  1  0  0  0  0
 27 28  1  0  0  0  0
 27 32  1  0  0  0  0
 27 38  1  1  0  0  0
 28 29  1  0  0  0  0
 28 37  1  6  0  0  0
 29 30  1  0  0  0  0
 29 42  1  1  0  0  0
 30 31  1  1  0  0  0
 30 33  1  0  0  0  0
 32 33  1  0  0  0  0
 32 34  1  6  0  0  0
 34 41  1  0  0  0  0
M  CHG  6   4   1  13   1  19   1  35   1  41   1  42   1
M  END
>  <CHROM.1>
-133.79549384,15.80931111,-33.24658353,166.61307922,177.96193758,67.40852246
79.00067978,-57.08261479,85.03336670,106.12516324,-170.89332306,-64.95929633
57.09120106,80.26239048,-172.47383741,59.05051465,62.98658374,-56.26996100
-53.59631407,63.76438525,28.57233662,-61.54380891,-5.43623453,3.29044499
-1.07605008,0.25535817,0.20165434,-1.67362924

>  <Name>


>  <RI>
0

>  <Rbt.Current_Directory>
/home/itssahil/PROJECTS/Mol_Feturizer/New_Systems/rnas/1ei2

>  <Rbt.Executable>
rbdock ($Id: //depot/dev/client3/rdock/2013.1/src/exe/rbdock.cxx#4 $)

>  <Rbt.Library>
libRbt.so (2013.1, Build901 2013/11/27)

>  <Rbt.Parameter_File>
/export/apps/rDock/src/rDock_2013.1_src/data/scripts/dock_solv.prm

>  <Rbt.Receptor>
prm/pocket_docking_2.prm

>  <SCORE>
-34.1847

>  <SCORE.INTER>
-28.4846

>  <SCORE.INTER.CONST>
1

>  <SCORE.INTER.POLAR>
-3.93324

>  <SCORE.INTER.ROT>
9

>  <SCORE.INTER.SOLV>
24.512

>  <SCORE.INTER.VDW>
-23.6496

>  <SCORE.INTER.norm>
-0.678204

>  <SCORE.INTRA>
-11.0735

>  <SCORE.INTRA.DIHEDRAL>
-9.53047

>  <SCORE.INTRA.DIHEDRAL.0>
40.8761

>  <SCORE.INTRA.POLAR>
-1.64043

>  <SCORE.INTRA.POLAR.0>
-0.0268208

>  <SCORE.INTRA.REPUL>
-0.598232

>  <SCORE.INTRA.REPUL.0>
0.641615

>  <SCORE.INTRA.SOLV>
1.25409

>  <SCORE.INTRA.SOLV.lig_0>
-162.567

>  <SCORE.INTRA.VDW>
1.63329

>  <SCORE.INTRA.VDW.0>
-4.80338

>  <SCORE.INTRA.norm>
-0.263655

>  <SCORE.RESTR>
5.3734

>  <SCORE.RESTR.CAVITY>
5.3734

>  <SCORE.RESTR.norm>
0.127938

>  <SCORE.SYSTEM>
0

>  <SCORE.SYSTEM.CONST>
0

>  <SCORE.SYSTEM.DIHEDRAL>
0

>  <SCORE.SYSTEM.SOLV>
0

>  <SCORE.SYSTEM.norm>
0

>  <SCORE.heavy>
42

>  <SCORE.norm>
-0.813921

>  <RMSD>
6.658

$$$$

 OpenBabel11021811393D
libRbt.so/2013.1/901 2013/11/27
 42 45  0  0  0  0  0  0  0  0999 V2000
   -3.8925    3.2673   -0.1690 C   0  0  2  0  0  0  0  0  0  0  0  0
   -3.2534    3.7093   -1.4060 O   0  0  0  0  0  0  0  0  0  0  0  0
   -4.4528    4.4737    0.6524 C   0  0  2  0  0  0  0  0  0  0  0  0
   -4.5205    5.7071   -0.1645 N   0  3  0  0  0  0  0  0  0  0  0  0
   -3.5970    4.7122    1.9329 C   0  0  1  0  0  0  0  0  0  0  0  0
   -4.1235    5.8077    2.6787 O   0  0  0  0  0  0  0  0  0  0  0  0
   -3.5705    3.4601    2.8499 C   0  0  2  0  0  0  0  0  0  0  0  0
   -2.5571    3.6357    3.8338 O   0  0  0  0  0  0  0  0  0  0  0  0
   -3.2981    2.1596    2.0265 C   0  0  2  0  0  0  0  0  0  0  0  0
   -2.9417    2.5018    0.6477 O   0  0  0  0  0  0  0  0  0  0  0  0
   -4.5002    1.1911    1.9408 C   0  0  0  0  0  0  0  0  0  0  0  0
   -1.4789    1.8737   -4.8847 C   0  0  1  0  0  0  0  0  0  0  0  0
   -1.2086    0.9745   -6.0287 N   0  3  0  0  0  0  0  0  0  0  0  0
   -2.7473    2.7341   -5.1243 C   0  0  1  0  0  0  0  0  0  0  0  0
   -3.1691    3.5973   -3.8847 C   0  0  1  0  0  0  0  0  0  0  0  0
   -4.5171    4.0895   -4.1121 O   0  0  0  0  0  0  0  0  0  0  0  0
   -3.1809    2.7872   -2.5364 C   0  0  1  0  0  0  0  0  0  0  0  0
   -1.8932    1.9183   -2.3638 C   0  0  1  0  0  0  0  0  0  0  0  0
   -1.9687    1.0454   -1.1746 N   0  3  0  0  0  0  0  0  0  0  0  0
   -1.6286    1.0310   -3.6010 C   0  0  0  0  0  0  0  0  0  0  0  0
   -5.6224    3.1441   -4.1968 C   0  0  1  0  0  0  0  0  0  0  0  0
   -6.2483    3.0040   -2.8143 C   0  0  1  0  0  0  0  0  0  0  0  0
   -7.1167    4.2544   -2.7873 C   0  0  1  0  0  0  0  0  0  0  0  0
   -7.6805    4.2714   -4.2153 C   0  0  2  0  0  0  0  0  0  0  0  0
   -6.6563    3.6716   -5.0441 O   0  0  0  0  0  0  0  0  0  0  0  0
   -8.0054    5.6897   -4.7174 C   0  0  0  0  0  0  0  0  0  0  0  0
   -9.5431    6.1037    1.2190 C   0  0  1  0  0  0  0  0  0  0  0  0
  -10.0175    4.6919    0.7748 C   0  0  1  0  0  0  0  0  0  0  0  0
   -8.8619    3.6728    0.5573 C   0  0  2  0  0  0  0  0  0  0  0  0
   -7.7678    4.2546   -0.3946 C   0  0  1  0  0  0  0  0  0  0  0  0
   -8.1727    4.1513   -1.7891 O   0  0  0  0  0  0  0  0  0  0  0  0
   -7.9872    6.1982    1.1973 C   0  0  1  0  0  0  0  0  0  0  0  0
   -7.4814    5.6717   -0.0730 O   0  0  0  0  0  0  0  0  0  0  0  0
   -7.4792    7.6507    1.3868 C   0  0  0  0  0  0  0  0  0  0  0  0
   -5.1090    0.8590    3.2408 N   0  3  0  0  0  0  0  0  0  0  0  0
   -7.0390    1.8163   -2.7602 O   0  0  0  0  0  0  0  0  0  0  0  0
  -10.8955    4.1773    1.7751 O   0  0  0  0  0  0  0  0  0  0  0  0
  -10.1077    7.0703    0.3302 O   0  0  0  0  0  0  0  0  0  0  0  0
   -9.0246    6.2831   -3.9314 O   0  0  0  0  0  0  0  0  0  0  0  0
   -2.5071    3.6081   -6.2270 O   0  0  0  0  0  0  0  0  0  0  0  0
   -8.0328    8.5865    0.3910 N   0  3  0  0  0  0  0  0  0  0  0  0
   -9.3773    2.3587    0.0993 N   0  3  0  0  0  0  0  0  0  0  0  0
  1  2  1  6  0  0  0
  1  3  1  0  0  0  0
  1 10  1  0  0  0  0
  3  4  1  6  0  0  0
  3  5  1  0  0  0  0
  5  6  1  1  0  0  0
  5  7  1  0  0  0  0
  7  8  1  1  0  0  0
  7  9  1  0  0  0  0
  9 10  1  0  0  0  0
  9 11  1  6  0  0  0
 11 35  1  0  0  0  0
 12 13  1  6  0  0  0
 12 14  1  0  0  0  0
 12 20  1  0  0  0  0
 14 15  1  0  0  0  0
 14 40  1  6  0  0  0
 15 16  1  6  0  0  0
 15 17  1  0  0  0  0
 17  2  1  1  0  0  0
 17 18  1  0  0  0  0
 18 19  1  1  0  0  0
 18 20  1  0  0  0  0
 21 16  1  1  0  0  0
 21 22  1  0  0  0  0
 21 25  1  0  0  0  0
 22 23  1  0  0  0  0
 22 36  1  6  0  0  0
 23 24  1  0  0  0  0
 23 31  1  1  0  0  0
 24 25  1  0  0  0  0
 24 26  1  6  0  0  0
 26 39  1  0  0  0  0
 27 28  1  0  0  0  0
 27 32  1  0  0  0  0
 27 38  1  6  0  0  0
 28 29  1  0  0  0  0
 28 37  1  1  0  0  0
 29 30  1  0  0  0  0
 29 42  1  6  0  0  0
 30 31  1  6  0  0  0
 30 33  1  0  0  0  0
 32 33  1  0  0  0  0
 32 34  1  6  0  0  0
 34 41  1  0  0  0  0
M  CHG  6   4   1  13   1  19   1  35   1  41   1  42   1
M  END
>  <CHROM.1>
-154.37827197,151.16511463,104.48701782,61.04719259,178.47689210,-51.05094697
68.08772428,174.45467814,60.39255174,64.70994954,93.53371423,-69.89828749
170.46687600,72.58102838,-63.28052595,-55.36525463,63.07119026,64.71898611
100.32840740,-161.26980794,-56.04065941,-85.28190159,-5.58548840,3.86460551
-1.09807818,-0.60896948,-0.47473060,1.52729219

>  <Name>


>  <RI>
0

>  <Rbt.Current_Directory>
/home/itssahil/PROJECTS/Mol_Feturizer/New_Systems/rnas/1ei2

>  <Rbt.Executable>
rbdock ($Id: //depot/dev/client3/rdock/2013.1/src/exe/rbdock.cxx#4 $)

>  <Rbt.Library>
libRbt.so (2013.1, Build901 2013/11/27)

>  <Rbt.Parameter_File>
/export/apps/rDock/src/rDock_2013.1_src/data/scripts/dock_solv.prm

>  <Rbt.Receptor>
prm/pocket_docking_3.prm

>  <SCORE>
-54.5347

>  <SCORE.INTER>
-28.0803

>  <SCORE.INTER.CONST>
1

>  <SCORE.INTER.POLAR>
-4.56753

>  <SCORE.INTER.ROT>
9

>  <SCORE.INTER.SOLV>
26.6393

>  <SCORE.INTER.VDW>
-21.9748

>  <SCORE.INTER.norm>
-0.668578

>  <SCORE.INTRA>
-26.7195

>  <SCORE.INTRA.DIHEDRAL>
-18.6205

>  <SCORE.INTRA.DIHEDRAL.0>
40.8761

>  <SCORE.INTRA.POLAR>
-3.49761

>  <SCORE.INTRA.POLAR.0>
-0.0268208

>  <SCORE.INTRA.REPUL>
-0.632279

>  <SCORE.INTRA.REPUL.0>
0.641615

>  <SCORE.INTRA.SOLV>
-1.51634

>  <SCORE.INTRA.SOLV.lig_0>
-162.567

>  <SCORE.INTRA.VDW>
-1.59778

>  <SCORE.INTRA.VDW.0>
-4.80338

>  <SCORE.INTRA.norm>
-0.636178

>  <SCORE.RESTR>
0.265006

>  <SCORE.RESTR.CAVITY>
0.265006

>  <SCORE.RESTR.norm>
0.00630966

>  <SCORE.SYSTEM>
0

>  <SCORE.SYSTEM.CONST>
0

>  <SCORE.SYSTEM.DIHEDRAL>
0

>  <SCORE.SYSTEM.SOLV>
0

>  <SCORE.SYSTEM.norm>
0

>  <SCORE.heavy>
42

>  <SCORE.norm>
-1.29845

>  <RMSD>
6.664

$$$$

 OpenBabel11021811393D
libRbt.so/2013.1/901 2013/11/27
 42 45  0  0  0  0  0  0  0  0999 V2000
   -6.3125    3.3512   -3.7881 C   0  0  2  0  0  0  0  0  0  0  0  0
   -5.1392    3.1384   -2.9445 O   0  0  0  0  0  0  0  0  0  0  0  0
   -6.6724    4.8682   -3.9019 C   0  0  2  0  0  0  0  0  0  0  0  0
   -5.5613    5.7301   -3.4373 N   0  3  0  0  0  0  0  0  0  0  0  0
   -7.9775    5.1850   -3.1112 C   0  0  1  0  0  0  0  0  0  0  0  0
   -8.3009    6.5686   -3.2308 O   0  0  0  0  0  0  0  0  0  0  0  0
   -9.1810    4.3518   -3.6279 C   0  0  2  0  0  0  0  0  0  0  0  0
  -10.2500    4.4663   -2.6953 O   0  0  0  0  0  0  0  0  0  0  0  0
   -8.7921    2.8494   -3.8153 C   0  0  2  0  0  0  0  0  0  0  0  0
   -7.4596    2.6010   -3.2603 O   0  0  0  0  0  0  0  0  0  0  0  0
   -8.7489    2.3767   -5.2866 C   0  0  0  0  0  0  0  0  0  0  0  0
   -4.8881   -1.1093   -3.6617 C   0  0  1  0  0  0  0  0  0  0  0  0
   -4.3971   -2.5019   -3.7609 N   0  3  0  0  0  0  0  0  0  0  0  0
   -5.0370   -0.6622   -2.1838 C   0  0  1  0  0  0  0  0  0  0  0  0
   -5.4100    0.8520   -2.0158 C   0  0  1  0  0  0  0  0  0  0  0  0
   -5.2012    1.2192   -0.6256 O   0  0  0  0  0  0  0  0  0  0  0  0
   -4.5295    1.8119   -2.8976 C   0  0  1  0  0  0  0  0  0  0  0  0
   -4.3916    1.2960   -4.3665 C   0  0  1  0  0  0  0  0  0  0  0  0
   -3.4468    2.1133   -5.1548 N   0  3  0  0  0  0  0  0  0  0  0  0
   -3.9204   -0.1748   -4.4171 C   0  0  0  0  0  0  0  0  0  0  0  0
   -4.0611    0.6726    0.0984 C   0  0  1  0  0  0  0  0  0  0  0  0
   -2.8849    1.6296   -0.0545 C   0  0  1  0  0  0  0  0  0  0  0  0
   -3.2500    2.6700    0.9957 C   0  0  1  0  0  0  0  0  0  0  0  0
   -3.7629    1.7868    2.1421 C   0  0  2  0  0  0  0  0  0  0  0  0
   -4.3490    0.6263    1.5056 O   0  0  0  0  0  0  0  0  0  0  0  0
   -4.8086    2.4923    3.0241 C   0  0  0  0  0  0  0  0  0  0  0  0
   -0.4940    5.0888    4.4812 C   0  0  1  0  0  0  0  0  0  0  0  0
   -0.0165    5.2846    3.0152 C   0  0  1  0  0  0  0  0  0  0  0  0
   -1.1506    5.6771    2.0248 C   0  0  2  0  0  0  0  0  0  0  0  0
   -2.3559    4.6878    2.1260 C   0  0  1  0  0  0  0  0  0  0  0  0
   -2.0911    3.4571    1.3949 O   0  0  0  0  0  0  0  0  0  0  0  0
   -2.0464    5.1930    4.5773 C   0  0  1  0  0  0  0  0  0  0  0  0
   -2.6592    4.3612    3.5385 O   0  0  0  0  0  0  0  0  0  0  0  0
   -2.5848    4.7570    5.9644 C   0  0  0  0  0  0  0  0  0  0  0  0
   -8.6054    0.9199   -5.4547 N   0  3  0  0  0  0  0  0  0  0  0  0
   -1.6692    0.9574    0.2753 O   0  0  0  0  0  0  0  0  0  0  0  0
    0.9765    6.3094    2.9989 O   0  0  0  0  0  0  0  0  0  0  0  0
   -0.0577    3.8041    4.9307 O   0  0  0  0  0  0  0  0  0  0  0  0
   -6.1220    2.2226    2.5646 O   0  0  0  0  0  0  0  0  0  0  0  0
   -6.0524   -1.4522   -1.5656 O   0  0  0  0  0  0  0  0  0  0  0  0
   -4.0569    4.6898    6.0131 N   0  3  0  0  0  0  0  0  0  0  0  0
   -0.6372    5.8120    0.6390 N   0  3  0  0  0  0  0  0  0  0  0  0
  1  2  1  1  0  0  0
  1  3  1  0  0  0  0
  1 10  1  0  0  0  0
  3  4  1  1  0  0  0
  3  5  1  0  0  0  0
  5  6  1  6  0  0  0
  5  7  1  0  0  0  0
  7  8  1  1  0  0  0
  7  9  1  0  0  0  0
  9 10  1  0  0  0  0
  9 11  1  6  0  0  0
 11 35  1  0  0  0  0
 12 13  1  1  0  0  0
 12 14  1  0  0  0  0
 12 20  1  0  0  0  0
 14 15  1  0  0  0  0
 14 40  1  6  0  0  0
 15 16  1  1  0  0  0
 15 17  1  0  0  0  0
 17  2  1  6  0  0  0
 17 18  1  0  0  0  0
 18 19  1  6  0  0  0
 18 20  1  0  0  0  0
 21 16  1  6  0  0  0
 21 22  1  0  0  0  0
 21 25  1  0  0  0  0
 22 23  1  0  0  0  0
 22 36  1  1  0  0  0
 23 24  1  0  0  0  0
 23 31  1  1  0  0  0
 24 25  1  0  0  0  0
 24 26  1  6  0  0  0
 26 39  1  0  0  0  0
 27 28  1  0  0  0  0
 27 32  1  0  0  0  0
 27 38  1  6  0  0  0
 28 29  1  0  0  0  0
 28 37  1  1  0  0  0
 29 30  1  0  0  0  0
 29 42  1  6  0  0  0
 30 31  1  6  0  0  0
 30 33  1  0  0  0  0
 32 33  1  0  0  0  0
 32 34  1  1  0  0  0
 34 41  1  0  0  0  0
M  CHG  6   4   1  13   1  19   1  35   1  41   1  42   1
M  END
>  <CHROM.1>
-170.22617351,-75.81222113,101.23773111,-71.67315116,169.63306613,-170.29738062
-52.62659206,146.37952819,73.19182936,38.24865383,91.15273531,64.10000478
66.89482635,164.99082723,92.49487382,-162.76148055,-62.67942622,-179.27967937
-105.76650971,-158.59287981,-172.80761288,71.61741535,-4.48607345,2.85774940
-0.54002707,2.47047825,0.76802060,-2.59600250

>  <Name>


>  <RI>
0

>  <Rbt.Current_Directory>
/home/itssahil/PROJECTS/Mol_Feturizer/New_Systems/rnas/1ei2

>  <Rbt.Executable>
rbdock ($Id: //depot/dev/client3/rdock/2013.1/src/exe/rbdock.cxx#4 $)

>  <Rbt.Library>
libRbt.so (2013.1, Build901 2013/11/27)

>  <Rbt.Parameter_File>
/export/apps/rDock/src/rDock_2013.1_src/data/scripts/dock_solv.prm

>  <Rbt.Receptor>
prm/pocket_docking_8.prm

>  <SCORE>
-56.5407

>  <SCORE.INTER>
-41.9654

>  <SCORE.INTER.CONST>
1

>  <SCORE.INTER.POLAR>
-8.32346

>  <SCORE.INTER.ROT>
9

>  <SCORE.INTER.SOLV>
29.9676

>  <SCORE.INTER.VDW>
-19.8213

>  <SCORE.INTER.norm>
-0.999177

>  <SCORE.INTRA>
-14.5752

>  <SCORE.INTRA.DIHEDRAL>
-13.9199

>  <SCORE.INTRA.DIHEDRAL.0>
40.8761

>  <SCORE.INTRA.POLAR>
-0.337676

>  <SCORE.INTRA.POLAR.0>
-0.0268208

>  <SCORE.INTRA.REPUL>
-0.511577

>  <SCORE.INTRA.REPUL.0>
0.641615

>  <SCORE.INTRA.SOLV>
-11.5832

>  <SCORE.INTRA.SOLV.lig_0>
-162.567

>  <SCORE.INTRA.VDW>
1.88231

>  <SCORE.INTRA.VDW.0>
-4.80338

>  <SCORE.INTRA.norm>
-0.34703

>  <SCORE.RESTR>
0

>  <SCORE.RESTR.CAVITY>
0

>  <SCORE.RESTR.norm>
0

>  <SCORE.SYSTEM>
0

>  <SCORE.SYSTEM.CONST>
0

>  <SCORE.SYSTEM.DIHEDRAL>
0

>  <SCORE.SYSTEM.SOLV>
0

>  <SCORE.SYSTEM.norm>
0

>  <SCORE.heavy>
42

>  <SCORE.norm>
-1.34621

>  <RMSD>
6.669

$$$$

 OpenBabel11021811393D
libRbt.so/2013.1/901 2013/11/27
 42 45  0  0  0  0  0  0  0  0999 V2000
   -5.9499    3.5079   -3.8655 C   0  0  2  0  0  0  0  0  0  0  0  0
   -4.8467    3.9410   -3.0116 O   0  0  0  0  0  0  0  0  0  0  0  0
   -6.9124    4.6914   -4.2072 C   0  0  2  0  0  0  0  0  0  0  0  0
   -6.3002    6.0025   -3.8921 N   0  3  0  0  0  0  0  0  0  0  0  0
   -8.2709    4.5288   -3.4608 C   0  0  1  0  0  0  0  0  0  0  0  0
   -9.1435    5.6081   -3.7881 O   0  0  0  0  0  0  0  0  0  0  0  0
   -8.9759    3.1963   -3.8307 C   0  0  2  0  0  0  0  0  0  0  0  0
  -10.0431    2.9747   -2.9156 O   0  0  0  0  0  0  0  0  0  0  0  0
   -7.9764    1.9952   -3.7892 C   0  0  2  0  0  0  0  0  0  0  0  0
   -6.6980    2.4232   -3.2167 O   0  0  0  0  0  0  0  0  0  0  0  0
   -7.6539    1.3811   -5.1709 C   0  0  0  0  0  0  0  0  0  0  0  0
   -2.0207    1.0409   -4.5025 C   0  0  1  0  0  0  0  0  0  0  0  0
   -0.7690    0.3228   -4.8312 N   0  3  0  0  0  0  0  0  0  0  0  0
   -2.3143    1.0051   -2.9798 C   0  0  1  0  0  0  0  0  0  0  0  0
   -3.5467    1.8762   -2.5529 C   0  0  1  0  0  0  0  0  0  0  0  0
   -3.5199    2.0229   -1.1076 O   0  0  0  0  0  0  0  0  0  0  0  0
   -3.5349    3.3201   -3.1767 C   0  0  1  0  0  0  0  0  0  0  0  0
   -3.2057    3.2956   -4.7045 C   0  0  1  0  0  0  0  0  0  0  0  0
   -3.0475    4.6553   -5.2595 N   0  3  0  0  0  0  0  0  0  0  0  0
   -1.9165    2.4971   -5.0016 C   0  0  0  0  0  0  0  0  0  0  0  0
   -4.0783    0.9711   -0.2682 C   0  0  1  0  0  0  0  0  0  0  0  0
   -3.9148    1.3771    1.1917 C   0  0  1  0  0  0  0  0  0  0  0  0
   -5.0926    2.3312    1.3361 C   0  0  1  0  0  0  0  0  0  0  0  0
   -6.1872    1.5939    0.5515 C   0  0  2  0  0  0  0  0  0  0  0  0
   -5.4942    0.8653   -0.4899 O   0  0  0  0  0  0  0  0  0  0  0  0
   -7.2272    2.5442   -0.0687 C   0  0  0  0  0  0  0  0  0  0  0  0
   -3.6589    5.8112    3.5429 C   0  0  1  0  0  0  0  0  0  0  0  0
   -4.9666    5.3147    4.2201 C   0  0  1  0  0  0  0  0  0  0  0  0
   -4.8897    3.8562    4.7570 C   0  0  2  0  0  0  0  0  0  0  0  0
   -4.3877    2.8732    3.6509 C   0  0  1  0  0  0  0  0  0  0  0  0
   -5.4607    2.5194    2.7329 O   0  0  0  0  0  0  0  0  0  0  0  0
   -2.6174    4.6563    3.4345 C   0  0  1  0  0  0  0  0  0  0  0  0
   -3.2646    3.4620    2.8855 O   0  0  0  0  0  0  0  0  0  0  0  0
   -1.4042    5.0340    2.5461 C   0  0  0  0  0  0  0  0  0  0  0  0
   -8.8361    0.9461   -5.9354 N   0  3  0  0  0  0  0  0  0  0  0  0
   -4.0631    0.2316    2.0310 O   0  0  0  0  0  0  0  0  0  0  0  0
   -5.2670    6.1853    5.3102 O   0  0  0  0  0  0  0  0  0  0  0  0
   -3.9835    6.3054    2.2415 O   0  0  0  0  0  0  0  0  0  0  0  0
   -8.1982    1.8199   -0.8044 O   0  0  0  0  0  0  0  0  0  0  0  0
   -2.5561   -0.3468   -2.5909 O   0  0  0  0  0  0  0  0  0  0  0  0
   -1.2011    4.0984    1.4248 N   0  3  0  0  0  0  0  0  0  0  0  0
   -6.1787    3.4309    5.3567 N   0  3  0  0  0  0  0  0  0  0  0  0
  1  2  1  1  0  0  0
  1  3  1  0  0  0  0
  1 10  1  0  0  0  0
  3  4  1  1  0  0  0
  3  5  1  0  0  0  0
  5  6  1  6  0  0  0
  5  7  1  0  0  0  0
  7  8  1  1  0  0  0
  7  9  1  0  0  0  0
  9 10  1  0  0  0  0
  9 11  1  6  0  0  0
 11 35  1  0  0  0  0
 12 13  1  1  0  0  0
 12 14  1  0  0  0  0
 12 20  1  0  0  0  0
 14 15  1  0  0  0  0
 14 40  1  6  0  0  0
 15 16  1  1  0  0  0
 15 17  1  0  0  0  0
 17  2  1  6  0  0  0
 17 18  1  0  0  0  0
 18 19  1  1  0  0  0
 18 20  1  0  0  0  0
 21 16  1  6  0  0  0
 21 22  1  0  0  0  0
 21 25  1  0  0  0  0
 22 23  1  0  0  0  0
 22 36  1  1  0  0  0
 23 24  1  0  0  0  0
 23 31  1  1  0  0  0
 24 25  1  0  0  0  0
 24 26  1  6  0  0  0
 26 39  1  0  0  0  0
 27 28  1  0  0  0  0
 27 32  1  0  0  0  0
 27 38  1  6  0  0  0
 28 29  1  0  0  0  0
 28 37  1  1  0  0  0
 29 30  1  0  0  0  0
 29 42  1  6  0  0  0
 30 31  1  6  0  0  0
 30 33  1  0  0  0  0
 32 33  1  0  0  0  0
 32 34  1  6  0  0  0
 34 41  1  0  0  0  0
M  CHG  6   4   1  13   1  19   1  35   1  41   1  42   1
M  END
>  <CHROM.1>
-145.67693798,-75.16351555,62.51398410,59.40500432,85.39743419,-55.30433916
-38.77382748,-41.21073522,-47.82053672,-83.26148221,179.77595890,24.13688807
-176.04936927,50.94939415,178.76568723,-172.13696286,169.11093329,67.51795255
57.99178620,144.56322916,-123.20941796,60.90093945,-5.01660298,3.01412439
-0.91845397,1.80667895,0.24898459,-1.81207855

>  <Name>


>  <RI>
0

>  <Rbt.Current_Directory>
/home/itssahil/PROJECTS/Mol_Feturizer/New_Systems/rnas/1ei2

>  <Rbt.Executable>
rbdock ($Id: //depot/dev/client3/rdock/2013.1/src/exe/rbdock.cxx#4 $)

>  <Rbt.Library>
libRbt.so (2013.1, Build901 2013/11/27)

>  <Rbt.Parameter_File>
/export/apps/rDock/src/rDock_2013.1_src/data/scripts/dock_solv.prm

>  <Rbt.Receptor>
prm/pocket_docking_5.prm

>  <SCORE>
-54.3753

>  <SCORE.INTER>
-38.8478

>  <SCORE.INTER.CONST>
1

>  <SCORE.INTER.POLAR>
-7.6476

>  <SCORE.INTER.ROT>
9

>  <SCORE.INTER.SOLV>
32.7687

>  <SCORE.INTER.VDW>
-20.9294

>  <SCORE.INTER.norm>
-0.924948

>  <SCORE.INTRA>
-15.5275

>  <SCORE.INTRA.DIHEDRAL>
-12.9413

>  <SCORE.INTRA.DIHEDRAL.0>
40.8761

>  <SCORE.INTRA.POLAR>
-0.888524

>  <SCORE.INTRA.POLAR.0>
-0.0268208

>  <SCORE.INTRA.REPUL>
-0.472023

>  <SCORE.INTRA.REPUL.0>
0.641615

>  <SCORE.INTRA.SOLV>
-7.34992

>  <SCORE.INTRA.SOLV.lig_0>
-162.567

>  <SCORE.INTRA.VDW>
-0.000755495

>  <SCORE.INTRA.VDW.0>
-4.80338

>  <SCORE.INTRA.norm>
-0.369702

>  <SCORE.RESTR>
0

>  <SCORE.RESTR.CAVITY>
0

>  <SCORE.RESTR.norm>
0

>  <SCORE.SYSTEM>
0

>  <SCORE.SYSTEM.CONST>
0

>  <SCORE.SYSTEM.DIHEDRAL>
0

>  <SCORE.SYSTEM.SOLV>
0

>  <SCORE.SYSTEM.norm>
0

>  <SCORE.heavy>
42

>  <SCORE.norm>
-1.29465

>  <RMSD>
6.684

$$$$

 OpenBabel11021811393D
libRbt.so/2013.1/901 2013/11/27
 42 45  0  0  0  0  0  0  0  0999 V2000
   -2.9897    3.5615    0.3052 C   0  0  2  0  0  0  0  0  0  0  0  0
   -2.2936    3.9400   -0.9219 O   0  0  0  0  0  0  0  0  0  0  0  0
   -2.2673    4.1218    1.5733 C   0  0  2  0  0  0  0  0  0  0  0  0
   -1.2836    5.1720    1.2229 N   0  3  0  0  0  0  0  0  0  0  0  0
   -1.5791    2.9713    2.3680 C   0  0  1  0  0  0  0  0  0  0  0  0
   -0.9326    3.4929    3.5270 O   0  0  0  0  0  0  0  0  0  0  0  0
   -2.5990    1.8910    2.8175 C   0  0  2  0  0  0  0  0  0  0  0  0
   -1.8833    0.7477    3.2717 O   0  0  0  0  0  0  0  0  0  0  0  0
   -3.5570    1.4936    1.6480 C   0  0  2  0  0  0  0  0  0  0  0  0
   -3.1007    2.0997    0.3951 O   0  0  0  0  0  0  0  0  0  0  0  0
   -5.0246    1.9396    1.8413 C   0  0  0  0  0  0  0  0  0  0  0  0
   -1.2172    2.4654   -4.8317 C   0  0  1  0  0  0  0  0  0  0  0  0
   -1.1223    1.6416   -6.0576 N   0  3  0  0  0  0  0  0  0  0  0  0
   -2.6115    3.1325   -4.7008 C   0  0  1  0  0  0  0  0  0  0  0  0
   -2.8224    3.8961   -3.3472 C   0  0  1  0  0  0  0  0  0  0  0  0
   -4.2389    4.1872   -3.2064 O   0  0  0  0  0  0  0  0  0  0  0  0
   -2.3815    3.0639   -2.0873 C   0  0  1  0  0  0  0  0  0  0  0  0
   -0.9844    2.3927   -2.2882 C   0  0  1  0  0  0  0  0  0  0  0  0
   -0.6358    1.4925   -1.1702 N   0  3  0  0  0  0  0  0  0  0  0  0
   -0.9201    1.5819   -3.6022 C   0  0  0  0  0  0  0  0  0  0  0  0
   -4.6878    5.5729   -3.1736 C   0  0  1  0  0  0  0  0  0  0  0  0
   -6.1823    5.6062   -3.4707 C   0  0  1  0  0  0  0  0  0  0  0  0
   -6.7342    5.2329   -2.1016 C   0  0  1  0  0  0  0  0  0  0  0  0
   -5.8156    6.0338   -1.1679 C   0  0  2  0  0  0  0  0  0  0  0  0
   -4.5394    6.1063   -1.8474 O   0  0  0  0  0  0  0  0  0  0  0  0
   -5.6435    5.3790    0.2145 C   0  0  0  0  0  0  0  0  0  0  0  0
  -10.7529    3.2934   -0.4124 C   0  0  1  0  0  0  0  0  0  0  0  0
  -10.9696    4.7989   -0.7317 C   0  0  1  0  0  0  0  0  0  0  0  0
  -10.5743    5.2041   -2.1811 C   0  0  2  0  0  0  0  0  0  0  0  0
   -9.1253    4.7304   -2.5245 C   0  0  1  0  0  0  0  0  0  0  0  0
   -8.1288    5.6293   -1.9605 O   0  0  0  0  0  0  0  0  0  0  0  0
  -10.0427    2.5718   -1.5978 C   0  0  1  0  0  0  0  0  0  0  0  0
   -8.8822    3.3572   -2.0258 O   0  0  0  0  0  0  0  0  0  0  0  0
   -9.5813    1.1385   -1.2280 C   0  0  0  0  0  0  0  0  0  0  0  0
   -5.7529    1.2016    2.8883 N   0  3  0  0  0  0  0  0  0  0  0  0
   -6.5702    6.9271   -3.8491 O   0  0  0  0  0  0  0  0  0  0  0  0
  -12.3489    5.1065   -0.5336 O   0  0  0  0  0  0  0  0  0  0  0  0
   -9.9594    3.1925    0.7722 O   0  0  0  0  0  0  0  0  0  0  0  0
   -6.8328    5.4891    0.9774 O   0  0  0  0  0  0  0  0  0  0  0  0
   -2.7806    4.0565   -5.7756 O   0  0  0  0  0  0  0  0  0  0  0  0
   -8.2973    1.1184   -0.5035 N   0  3  0  0  0  0  0  0  0  0  0  0
  -10.7692    6.6574   -2.4098 N   0  3  0  0  0  0  0  0  0  0  0  0
  1  2  1  6  0  0  0
  1  3  1  0  0  0  0
  1 10  1  0  0  0  0
  3  4  1  6  0  0  0
  3  5  1  0  0  0  0
  5  6  1  1  0  0  0
  5  7  1  0  0  0  0
  7  8  1  6  0  0  0
  7  9  1  0  0  0  0
  9 10  1  0  0  0  0
  9 11  1  1  0  0  0
 11 35  1  0  0  0  0
 12 13  1  6  0  0  0
 12 14  1  0  0  0  0
 12 20  1  0  0  0  0
 14 15  1  0  0  0  0
 14 40  1  6  0  0  0
 15 16  1  1  0  0  0
 15 17  1  0  0  0  0
 17  2  1  1  0  0  0
 17 18  1  0  0  0  0
 18 19  1  1  0  0  0
 18 20  1  0  0  0  0
 21 16  1  1  0  0  0
 21 22  1  0  0  0  0
 21 25  1  0  0  0  0
 22 23  1  0  0  0  0
 22 36  1  1  0  0  0
 23 24  1  0  0  0  0
 23 31  1  6  0  0  0
 24 25  1  0  0  0  0
 24 26  1  1  0  0  0
 26 39  1  0  0  0  0
 27 28  1  0  0  0  0
 27 32  1  0  0  0  0
 27 38  1  1  0  0  0
 28 29  1  0  0  0  0
 28 37  1  6  0  0  0
 29 30  1  0  0  0  0
 29 42  1  1  0  0  0
 30 31  1  1  0  0  0
 30 33  1  0  0  0  0
 32 33  1  0  0  0  0
 32 34  1  1  0  0  0
 34 41  1  0  0  0  0
M  CHG  6   4   1  13   1  19   1  35   1  41   1  42   1
M  END
>  <CHROM.1>
151.05608783,128.49064009,-70.07406546,175.60289776,173.05130927,-70.76094368
-130.63847014,-70.85143438,-60.57918927,-116.58871581,162.02226198,-144.35893737
-59.27569095,82.10234080,-71.44157077,179.37970576,171.60432749,60.84935071
35.49960779,174.44460656,-81.95083364,-21.32214520,-5.22879206,3.65679992
-1.05491707,0.13121076,-0.19801643,1.84994981

>  <Name>


>  <RI>
0

>  <Rbt.Current_Directory>
/home/itssahil/PROJECTS/Mol_Feturizer/New_Systems/rnas/1ei2

>  <Rbt.Executable>
rbdock ($Id: //depot/dev/client3/rdock/2013.1/src/exe/rbdock.cxx#4 $)

>  <Rbt.Library>
libRbt.so (2013.1, Build901 2013/11/27)

>  <Rbt.Parameter_File>
/export/apps/rDock/src/rDock_2013.1_src/data/scripts/dock_solv.prm

>  <Rbt.Receptor>
prm/pocket_docking_3.prm

>  <SCORE>
-72.0395

>  <SCORE.INTER>
-57.6749

>  <SCORE.INTER.CONST>
1

>  <SCORE.INTER.POLAR>
-7.84167

>  <SCORE.INTER.ROT>
9

>  <SCORE.INTER.SOLV>
35.0358

>  <SCORE.INTER.VDW>
-33.5896

>  <SCORE.INTER.norm>
-1.37321

>  <SCORE.INTRA>
-15.2651

>  <SCORE.INTRA.DIHEDRAL>
-5.82701

>  <SCORE.INTRA.DIHEDRAL.0>
40.8761

>  <SCORE.INTRA.POLAR>
-1.29068

>  <SCORE.INTRA.POLAR.0>
-0.0268208

>  <SCORE.INTRA.REPUL>
-0.609344

>  <SCORE.INTRA.REPUL.0>
0.641615

>  <SCORE.INTRA.SOLV>
-7.57287

>  <SCORE.INTRA.SOLV.lig_0>
-162.567

>  <SCORE.INTRA.VDW>
-1.13015

>  <SCORE.INTRA.VDW.0>
-4.80338

>  <SCORE.INTRA.norm>
-0.363455

>  <SCORE.RESTR>
0.900487

>  <SCORE.RESTR.CAVITY>
0.900487

>  <SCORE.RESTR.norm>
0.0214402

>  <SCORE.SYSTEM>
0

>  <SCORE.SYSTEM.CONST>
0

>  <SCORE.SYSTEM.DIHEDRAL>
0

>  <SCORE.SYSTEM.SOLV>
0

>  <SCORE.SYSTEM.norm>
0

>  <SCORE.heavy>
42

>  <SCORE.norm>
-1.71523

>  <RMSD>
6.699

$$$$

 OpenBabel11021811393D
libRbt.so/2013.1/901 2013/11/27
 42 45  0  0  0  0  0  0  0  0999 V2000
   -4.8220    4.7008   -4.3171 C   0  0  2  0  0  0  0  0  0  0  0  0
   -3.7290    3.9825   -3.6667 O   0  0  0  0  0  0  0  0  0  0  0  0
   -5.3268    5.8947   -3.4432 C   0  0  2  0  0  0  0  0  0  0  0  0
   -4.3693    6.2248   -2.3628 N   0  3  0  0  0  0  0  0  0  0  0  0
   -6.7348    5.5860   -2.8505 C   0  0  1  0  0  0  0  0  0  0  0  0
   -7.1888    6.6856   -2.0642 O   0  0  0  0  0  0  0  0  0  0  0  0
   -7.7812    5.3116   -3.9636 C   0  0  2  0  0  0  0  0  0  0  0  0
   -8.9493    4.7595   -3.3666 O   0  0  0  0  0  0  0  0  0  0  0  0
   -7.2173    4.3320   -5.0433 C   0  0  2  0  0  0  0  0  0  0  0  0
   -5.9325    3.7832   -4.6036 O   0  0  0  0  0  0  0  0  0  0  0  0
   -6.9681    4.9764   -6.4264 C   0  0  0  0  0  0  0  0  0  0  0  0
   -4.1528    0.3851   -6.0117 C   0  0  1  0  0  0  0  0  0  0  0  0
   -3.8928   -0.9141   -6.6711 N   0  3  0  0  0  0  0  0  0  0  0  0
   -4.2708    0.2288   -4.4729 C   0  0  1  0  0  0  0  0  0  0  0  0
   -4.3966    1.5917   -3.7068 C   0  0  1  0  0  0  0  0  0  0  0  0
   -4.1723    1.3401   -2.2935 O   0  0  0  0  0  0  0  0  0  0  0  0
   -3.3455    2.6661   -4.1703 C   0  0  1  0  0  0  0  0  0  0  0  0
   -3.2498    2.7584   -5.7276 C   0  0  1  0  0  0  0  0  0  0  0  0
   -2.1612    3.6565   -6.1640 N   0  3  0  0  0  0  0  0  0  0  0  0
   -3.0235    1.3725   -6.3725 C   0  0  0  0  0  0  0  0  0  0  0  0
   -4.8525    0.2267   -1.6451 C   0  0  1  0  0  0  0  0  0  0  0  0
   -4.1187   -0.1027   -0.3505 C   0  0  1  0  0  0  0  0  0  0  0  0
   -4.6879    0.9769    0.5600 C   0  0  1  0  0  0  0  0  0  0  0  0
   -6.1662    0.9846    0.1456 C   0  0  2  0  0  0  0  0  0  0  0  0
   -6.1784    0.6205   -1.2555 O   0  0  0  0  0  0  0  0  0  0  0  0
   -6.8397    2.3545    0.3430 C   0  0  0  0  0  0  0  0  0  0  0  0
   -3.7098    4.3854    1.8796 C   0  0  1  0  0  0  0  0  0  0  0  0
   -4.8732    3.7378    2.6813 C   0  0  1  0  0  0  0  0  0  0  0  0
   -4.4401    2.5377    3.5719 C   0  0  2  0  0  0  0  0  0  0  0  0
   -3.6338    1.4840    2.7464 C   0  0  1  0  0  0  0  0  0  0  0  0
   -4.5212    0.6340    1.9659 O   0  0  0  0  0  0  0  0  0  0  0  0
   -2.3938    3.5681    2.0543 C   0  0  1  0  0  0  0  0  0  0  0  0
   -2.6678    2.1451    1.8389 O   0  0  0  0  0  0  0  0  0  0  0  0
   -1.2779    4.0267    1.0804 C   0  0  0  0  0  0  0  0  0  0  0  0
   -6.4282    4.0534   -7.4403 N   0  3  0  0  0  0  0  0  0  0  0  0
   -4.4857   -1.4090    0.0938 O   0  0  0  0  0  0  0  0  0  0  0  0
   -5.4546    4.7378    3.5169 O   0  0  0  0  0  0  0  0  0  0  0  0
   -4.0820    4.4308    0.5004 O   0  0  0  0  0  0  0  0  0  0  0  0
   -8.2348    2.2705    0.1074 O   0  0  0  0  0  0  0  0  0  0  0  0
   -5.4195   -0.5660   -4.1793 O   0  0  0  0  0  0  0  0  0  0  0  0
   -0.6176    5.2728    1.5108 N   0  3  0  0  0  0  0  0  0  0  0  0
   -5.6001    1.9420    4.2802 N   0  3  0  0  0  0  0  0  0  0  0  0
  1  2  1  1  0  0  0
  1  3  1  0  0  0  0
  1 10  1  0  0  0  0
  3  4  1  1  0  0  0
  3  5  1  0  0  0  0
  5  6  1  6  0  0  0
  5  7  1  0  0  0  0
  7  8  1  1  0  0  0
  7  9  1  0  0  0  0
  9 10  1  0  0  0  0
  9 11  1  6  0  0  0
 11 35  1  0  0  0  0
 12 13  1  6  0  0  0
 12 14  1  0  0  0  0
 12 20  1  0  0  0  0
 14 15  1  0  0  0  0
 14 40  1  6  0  0  0
 15 16  1  1  0  0  0
 15 17  1  0  0  0  0
 17  2  1  6  0  0  0
 17 18  1  0  0  0  0
 18 19  1  1  0  0  0
 18 20  1  0  0  0  0
 21 16  1  1  0  0  0
 21 22  1  0  0  0  0
 21 25  1  0  0  0  0
 22 23  1  0  0  0  0
 22 36  1  1  0  0  0
 23 24  1  0  0  0  0
 23 31  1  1  0  0  0
 24 25  1  0  0  0  0
 24 26  1  6  0  0  0
 26 39  1  0  0  0  0
 27 28  1  0  0  0  0
 27 32  1  0  0  0  0
 27 38  1  6  0  0  0
 28 29  1  0  0  0  0
 28 37  1  1  0  0  0
 29 30  1  0  0  0  0
 29 42  1  6  0  0  0
 30 31  1  6  0  0  0
 30 33  1  0  0  0  0
 32 33  1  0  0  0  0
 32 34  1  6  0  0  0
 34 41  1  0  0  0  0
M  CHG  6   4   1  13   1  19   1  35   1  41   1  42   1
M  END
>  <CHROM.1>
165.54164685,-76.09994161,-130.69387605,-176.12944161,-174.86836469,179.61985016
-45.06598853,-58.93438730,76.67228415,-47.04012589,161.26546609,41.69819559
50.11713279,114.27020659,-172.69143200,63.49123293,-175.12765497,-51.14810256
-36.56513174,98.92363909,77.73402720,48.86010651,-4.83252558,2.81001776,-1.74739240
1.91661643,1.20043303,-1.86051786

>  <Name>


>  <RI>
0

>  <Rbt.Current_Directory>
/home/itssahil/PROJECTS/Mol_Feturizer/New_Systems/rnas/1ei2

>  <Rbt.Executable>
rbdock ($Id: //depot/dev/client3/rdock/2013.1/src/exe/rbdock.cxx#4 $)

>  <Rbt.Library>
libRbt.so (2013.1, Build901 2013/11/27)

>  <Rbt.Parameter_File>
/export/apps/rDock/src/rDock_2013.1_src/data/scripts/dock_solv.prm

>  <Rbt.Receptor>
prm/pocket_docking_4.prm

>  <SCORE>
-48.5812

>  <SCORE.INTER>
-33.7379

>  <SCORE.INTER.CONST>
1

>  <SCORE.INTER.POLAR>
-7.13572

>  <SCORE.INTER.ROT>
9

>  <SCORE.INTER.SOLV>
34.2388

>  <SCORE.INTER.VDW>
-19.7192

>  <SCORE.INTER.norm>
-0.803284

>  <SCORE.INTRA>
-15.0777

>  <SCORE.INTRA.DIHEDRAL>
-13.6439

>  <SCORE.INTRA.DIHEDRAL.0>
40.8761

>  <SCORE.INTRA.POLAR>
-0.454984

>  <SCORE.INTRA.POLAR.0>
-0.0268208

>  <SCORE.INTRA.REPUL>
-0.542302

>  <SCORE.INTRA.REPUL.0>
0.641615

>  <SCORE.INTRA.SOLV>
-10.3119

>  <SCORE.INTRA.SOLV.lig_0>
-162.567

>  <SCORE.INTRA.VDW>
1.15866

>  <SCORE.INTRA.VDW.0>
-4.80338

>  <SCORE.INTRA.norm>
-0.358994

>  <SCORE.RESTR>
0.234501

>  <SCORE.RESTR.CAVITY>
0.234501

>  <SCORE.RESTR.norm>
0.00558335

>  <SCORE.SYSTEM>
0

>  <SCORE.SYSTEM.CONST>
0

>  <SCORE.SYSTEM.DIHEDRAL>
0

>  <SCORE.SYSTEM.SOLV>
0

>  <SCORE.SYSTEM.norm>
0

>  <SCORE.heavy>
42

>  <SCORE.norm>
-1.15669

>  <RMSD>
6.714

$$$$

 OpenBabel11021811393D
libRbt.so/2013.1/901 2013/11/27
 42 45  0  0  0  0  0  0  0  0999 V2000
   -4.7139    2.5879    0.0626 C   0  0  2  0  0  0  0  0  0  0  0  0
   -5.7785    2.2631   -0.8834 O   0  0  0  0  0  0  0  0  0  0  0  0
   -5.2796    3.2503    1.3607 C   0  0  2  0  0  0  0  0  0  0  0  0
   -6.7449    3.0680    1.4737 N   0  3  0  0  0  0  0  0  0  0  0  0
   -4.9113    4.7638    1.4115 C   0  0  1  0  0  0  0  0  0  0  0  0
   -5.4235    5.3544    2.6041 O   0  0  0  0  0  0  0  0  0  0  0  0
   -3.3754    4.9849    1.3732 C   0  0  2  0  0  0  0  0  0  0  0  0
   -3.1181    6.3634    1.1302 O   0  0  0  0  0  0  0  0  0  0  0  0
   -2.7040    4.1111    0.2645 C   0  0  2  0  0  0  0  0  0  0  0  0
   -3.7295    3.4774   -0.5674 O   0  0  0  0  0  0  0  0  0  0  0  0
   -1.8089    2.9704    0.8012 C   0  0  0  0  0  0  0  0  0  0  0  0
   -3.2963   -0.1772   -3.4336 C   0  0  1  0  0  0  0  0  0  0  0  0
   -2.8239   -1.0702   -4.5152 N   0  3  0  0  0  0  0  0  0  0  0  0
   -3.6926    1.2191   -3.9807 C   0  0  1  0  0  0  0  0  0  0  0  0
   -4.3417    2.1585   -2.9054 C   0  0  1  0  0  0  0  0  0  0  0  0
   -4.9548    3.2812   -3.5944 O   0  0  0  0  0  0  0  0  0  0  0  0
   -5.4627    1.4529   -2.0570 C   0  0  1  0  0  0  0  0  0  0  0  0
   -5.0178    0.0401   -1.5580 C   0  0  1  0  0  0  0  0  0  0  0  0
   -6.1184   -0.6840   -0.8899 N   0  3  0  0  0  0  0  0  0  0  0  0
   -4.4909   -0.8383   -2.7150 C   0  0  0  0  0  0  0  0  0  0  0  0
   -6.1425    3.0623   -4.4093 C   0  0  1  0  0  0  0  0  0  0  0  0
   -7.3279    2.8165   -3.4833 C   0  0  1  0  0  0  0  0  0  0  0  0
   -7.6669    4.2502   -3.0987 C   0  0  1  0  0  0  0  0  0  0  0  0
   -7.4951    4.9798   -4.4386 C   0  0  2  0  0  0  0  0  0  0  0  0
   -6.4602    4.2550   -5.1452 O   0  0  0  0  0  0  0  0  0  0  0  0
   -7.0899    6.4555   -4.2731 C   0  0  0  0  0  0  0  0  0  0  0  0
  -10.3526    7.1048   -0.2566 C   0  0  1  0  0  0  0  0  0  0  0  0
  -11.2218    6.0132   -0.9408 C   0  0  1  0  0  0  0  0  0  0  0  0
  -10.6901    4.5638   -0.7465 C   0  0  2  0  0  0  0  0  0  0  0  0
   -9.1838    4.4564   -1.1480 C   0  0  1  0  0  0  0  0  0  0  0  0
   -9.0283    4.3609   -2.5923 O   0  0  0  0  0  0  0  0  0  0  0  0
   -9.0559    6.4840    0.3462 C   0  0  1  0  0  0  0  0  0  0  0  0
   -8.4161    5.6211   -0.6502 O   0  0  0  0  0  0  0  0  0  0  0  0
   -8.0443    7.5623    0.8131 C   0  0  0  0  0  0  0  0  0  0  0  0
   -0.6769    3.4223    1.6293 N   0  3  0  0  0  0  0  0  0  0  0  0
   -8.3919    2.2047   -4.2128 O   0  0  0  0  0  0  0  0  0  0  0  0
  -12.5423    6.0888   -0.4051 O   0  0  0  0  0  0  0  0  0  0  0  0
  -10.0175    8.0933   -1.2331 O   0  0  0  0  0  0  0  0  0  0  0  0
   -5.8197    6.5644   -3.6537 O   0  0  0  0  0  0  0  0  0  0  0  0
   -2.5253    1.8576   -4.4975 O   0  0  0  0  0  0  0  0  0  0  0  0
   -8.5557    8.3855    1.9243 N   0  3  0  0  0  0  0  0  0  0  0  0
  -11.5414    3.5750   -1.4535 N   0  3  0  0  0  0  0  0  0  0  0  0
  1  2  1  6  0  0  0
  1  3  1  0  0  0  0
  1 10  1  0  0  0  0
  3  4  1  6  0  0  0
  3  5  1  0  0  0  0
  5  6  1  1  0  0  0
  5  7  1  0  0  0  0
  7  8  1  6  0  0  0
  7  9  1  0  0  0  0
  9 10  1  0  0  0  0
  9 11  1  1  0  0  0
 11 35  1  0  0  0  0
 12 13  1  6  0  0  0
 12 14  1  0  0  0  0
 12 20  1  0  0  0  0
 14 15  1  0  0  0  0
 14 40  1  1  0  0  0
 15 16  1  6  0  0  0
 15 17  1  0  0  0  0
 17  2  1  1  0  0  0
 17 18  1  0  0  0  0
 18 19  1  6  0  0  0
 18 20  1  0  0  0  0
 21 16  1  1  0  0  0
 21 22  1  0  0  0  0
 21 25  1  0  0  0  0
 22 23  1  0  0  0  0
 22 36  1  6  0  0  0
 23 24  1  0  0  0  0
 23 31  1  6  0  0  0
 24 25  1  0  0  0  0
 24 26  1  1  0  0  0
 26 39  1  0  0  0  0
 27 28  1  0  0  0  0
 27 32  1  0  0  0  0
 27 38  1  6  0  0  0
 28 29  1  0  0  0  0
 28 37  1  1  0  0  0
 29 30  1  0  0  0  0
 29 42  1  6  0  0  0
 30 31  1  6  0  0  0
 30 33  1  0  0  0  0
 32 33  1  0  0  0  0
 32 34  1  6  0  0  0
 34 41  1  0  0  0  0
M  CHG  6   4   1  13   1  19   1  35   1  41   1  42   1
M  END
>  <CHROM.1>
-170.54336192,-58.10574704,72.12345555,61.92942174,-179.40703986,-60.20390493
61.67595727,62.20278467,63.77355810,69.45204599,72.96405941,-55.52222870
-59.32804737,101.87420651,63.46969881,73.07121406,-59.79157951,65.23631044
168.74060126,-179.77916902,64.38432792,63.51974218,-6.34116475,3.85042272
-1.38210555,-0.55258702,-0.42755294,0.90617890

>  <Name>


>  <RI>
0

>  <Rbt.Current_Directory>
/home/itssahil/PROJECTS/Mol_Feturizer/New_Systems/rnas/1ei2

>  <Rbt.Executable>
rbdock ($Id: //depot/dev/client3/rdock/2013.1/src/exe/rbdock.cxx#4 $)

>  <Rbt.Library>
libRbt.so (2013.1, Build901 2013/11/27)

>  <Rbt.Parameter_File>
/export/apps/rDock/src/rDock_2013.1_src/data/scripts/dock_solv.prm

>  <Rbt.Receptor>
prm/pocket_docking_4.prm

>  <SCORE>
-43.1638

>  <SCORE.INTER>
-19.7652

>  <SCORE.INTER.CONST>
1

>  <SCORE.INTER.POLAR>
-4.07648

>  <SCORE.INTER.ROT>
9

>  <SCORE.INTER.SOLV>
23.2574

>  <SCORE.INTER.VDW>
-16.941

>  <SCORE.INTER.norm>
-0.470601

>  <SCORE.INTRA>
-23.417

>  <SCORE.INTRA.DIHEDRAL>
-30.7896

>  <SCORE.INTRA.DIHEDRAL.0>
40.8761

>  <SCORE.INTRA.POLAR>
0.0211669

>  <SCORE.INTRA.POLAR.0>
-0.0268208

>  <SCORE.INTRA.REPUL>
-0.641615

>  <SCORE.INTRA.REPUL.0>
0.641615

>  <SCORE.INTRA.SOLV>
-11.3465

>  <SCORE.INTRA.SOLV.lig_0>
-162.567

>  <SCORE.INTRA.VDW>
0.787132

>  <SCORE.INTRA.VDW.0>
-4.80338

>  <SCORE.INTRA.norm>
-0.557548

>  <SCORE.RESTR>
0.0184164

>  <SCORE.RESTR.CAVITY>
0.0184164

>  <SCORE.RESTR.norm>
0.000438487

>  <SCORE.SYSTEM>
0

>  <SCORE.SYSTEM.CONST>
0

>  <SCORE.SYSTEM.DIHEDRAL>
0

>  <SCORE.SYSTEM.SOLV>
0

>  <SCORE.SYSTEM.norm>
0

>  <SCORE.heavy>
42

>  <SCORE.norm>
-1.02771

>  <RMSD>
6.714

$$$$

 OpenBabel11021811393D
libRbt.so/2013.1/901 2013/11/27
 42 45  0  0  0  0  0  0  0  0999 V2000
   -3.5398    4.8935   -0.1907 C   0  0  2  0  0  0  0  0  0  0  0  0
   -4.9233    5.3159    0.0123 O   0  0  0  0  0  0  0  0  0  0  0  0
   -3.0411    5.2295   -1.6337 C   0  0  2  0  0  0  0  0  0  0  0  0
   -3.9409    6.1893   -2.3136 N   0  3  0  0  0  0  0  0  0  0  0  0
   -2.8887    3.9295   -2.4798 C   0  0  1  0  0  0  0  0  0  0  0  0
   -2.4238    4.2475   -3.7898 O   0  0  0  0  0  0  0  0  0  0  0  0
   -1.8900    2.9337   -1.8315 C   0  0  2  0  0  0  0  0  0  0  0  0
   -2.0145    1.6735   -2.4812 O   0  0  0  0  0  0  0  0  0  0  0  0
   -2.1601    2.7757   -0.2999 C   0  0  2  0  0  0  0  0  0  0  0  0
   -3.4065    3.4533    0.0643 O   0  0  0  0  0  0  0  0  0  0  0  0
   -1.0584    3.3662    0.6099 C   0  0  0  0  0  0  0  0  0  0  0  0
   -5.1893    3.8066    4.0461 C   0  0  1  0  0  0  0  0  0  0  0  0
   -5.6554    3.5103    5.4191 N   0  3  0  0  0  0  0  0  0  0  0  0
   -6.0702    3.1017    2.9814 C   0  0  1  0  0  0  0  0  0  0  0  0
   -5.7172    3.4984    1.5056 C   0  0  1  0  0  0  0  0  0  0  0  0
   -6.7945    3.0433    0.6434 O   0  0  0  0  0  0  0  0  0  0  0  0
   -5.5656    5.0501    1.2969 C   0  0  1  0  0  0  0  0  0  0  0  0
   -4.6933    5.7090    2.4139 C   0  0  1  0  0  0  0  0  0  0  0  0
   -4.6727    7.1819    2.3048 N   0  3  0  0  0  0  0  0  0  0  0  0
   -5.1912    5.3340    3.8279 C   0  0  0  0  0  0  0  0  0  0  0  0
   -8.1483    3.5340    0.8653 C   0  0  1  0  0  0  0  0  0  0  0  0
   -8.2287    4.9749    0.3751 C   0  0  1  0  0  0  0  0  0  0  0  0
   -8.3935    4.7386   -1.1200 C   0  0  1  0  0  0  0  0  0  0  0  0
   -9.3655    3.5503   -1.1410 C   0  0  2  0  0  0  0  0  0  0  0  0
   -9.0781    2.7926    0.0586 O   0  0  0  0  0  0  0  0  0  0  0  0
   -9.1988    2.6580   -2.3841 C   0  0  0  0  0  0  0  0  0  0  0  0
   -9.8101    6.5037   -5.4821 C   0  0  1  0  0  0  0  0  0  0  0  0
  -10.0621    7.5140   -4.3283 C   0  0  1  0  0  0  0  0  0  0  0  0
   -8.8185    7.7761   -3.4306 C   0  0  2  0  0  0  0  0  0  0  0  0
   -8.2002    6.4359   -2.9173 C   0  0  1  0  0  0  0  0  0  0  0  0
   -8.9514    5.9066   -1.7883 O   0  0  0  0  0  0  0  0  0  0  0  0
   -8.3873    5.8767   -5.3693 C   0  0  1  0  0  0  0  0  0  0  0  0
   -8.1594    5.4212   -3.9955 O   0  0  0  0  0  0  0  0  0  0  0  0
   -8.1855    4.6864   -6.3422 C   0  0  0  0  0  0  0  0  0  0  0  0
   -1.2690    3.1356    2.0500 N   0  3  0  0  0  0  0  0  0  0  0  0
   -9.3778    5.6118    0.9341 O   0  0  0  0  0  0  0  0  0  0  0  0
  -10.4803    8.7532   -4.8991 O   0  0  0  0  0  0  0  0  0  0  0  0
  -10.8061    5.4808   -5.4126 O   0  0  0  0  0  0  0  0  0  0  0  0
   -7.8652    2.1915   -2.4963 O   0  0  0  0  0  0  0  0  0  0  0  0
   -5.9176    1.6895    3.1219 O   0  0  0  0  0  0  0  0  0  0  0  0
   -9.0075    3.5136   -5.9919 N   0  3  0  0  0  0  0  0  0  0  0  0
   -9.1346    8.7182   -2.3285 N   0  3  0  0  0  0  0  0  0  0  0  0
  1  2  1  6  0  0  0
  1  3  1  0  0  0  0
  1 10  1  0  0  0  0
  3  4  1  6  0  0  0
  3  5  1  0  0  0  0
  5  6  1  6  0  0  0
  5  7  1  0  0  0  0
  7  8  1  6  0  0  0
  7  9  1  0  0  0  0
  9 10  1  0  0  0  0
  9 11  1  1  0  0  0
 11 35  1  0  0  0  0
 12 13  1  1  0  0  0
 12 14  1  0  0  0  0
 12 20  1  0  0  0  0
 14 15  1  0  0  0  0
 14 40  1  6  0  0  0
 15 16  1  6  0  0  0
 15 17  1  0  0  0  0
 17  2  1  6  0  0  0
 17 18  1  0  0  0  0
 18 19  1  6  0  0  0
 18 20  1  0  0  0  0
 21 16  1  6  0  0  0
 21 22  1  0  0  0  0
 21 25  1  0  0  0  0
 22 23  1  0  0  0  0
 22 36  1  1  0  0  0
 23 24  1  0  0  0  0
 23 31  1  6  0  0  0
 24 25  1  0  0  0  0
 24 26  1  6  0  0  0
 26 39  1  0  0  0  0
 27 28  1  0  0  0  0
 27 32  1  0  0  0  0
 27 38  1  1  0  0  0
 28 29  1  0  0  0  0
 28 37  1  6  0  0  0
 29 30  1  0  0  0  0
 29 42  1  1  0  0  0
 30 31  1  1  0  0  0
 30 33  1  0  0  0  0
 32 33  1  0  0  0  0
 32 34  1  6  0  0  0
 34 41  1  0  0  0  0
M  CHG  6   4   1  13   1  19   1  35   1  41   1  42   1
M  END
>  <CHROM.1>
178.48828282,-65.56670521,-29.60536991,-75.42834321,66.98213529,-176.03223856
-65.97195022,63.04737357,172.23816589,59.35909185,74.29849380,-60.99900015
60.92262810,125.63929053,56.11609024,63.31162427,64.96366604,170.93433170
-178.44420364,-173.37661729,-67.89659302,-178.21706137,-6.38938480,4.65725913
-1.00767344,-0.81777863,0.30324155,-1.46641941

>  <Name>


>  <RI>
0

>  <Rbt.Current_Directory>
/home/itssahil/PROJECTS/Mol_Feturizer/New_Systems/rnas/1ei2

>  <Rbt.Executable>
rbdock ($Id: //depot/dev/client3/rdock/2013.1/src/exe/rbdock.cxx#4 $)

>  <Rbt.Library>
libRbt.so (2013.1, Build901 2013/11/27)

>  <Rbt.Parameter_File>
/export/apps/rDock/src/rDock_2013.1_src/data/scripts/dock_solv.prm

>  <Rbt.Receptor>
prm/pocket_docking_6.prm

>  <SCORE>
-53.1343

>  <SCORE.INTER>
-29.6099

>  <SCORE.INTER.CONST>
1

>  <SCORE.INTER.POLAR>
-4.75884

>  <SCORE.INTER.ROT>
9

>  <SCORE.INTER.SOLV>
21.1907

>  <SCORE.INTER.VDW>
-20.5407

>  <SCORE.INTER.norm>
-0.704997

>  <SCORE.INTRA>
-23.5244

>  <SCORE.INTRA.DIHEDRAL>
-27.206

>  <SCORE.INTRA.DIHEDRAL.0>
40.8761

>  <SCORE.INTRA.POLAR>
-0.846094

>  <SCORE.INTRA.POLAR.0>
-0.0268208

>  <SCORE.INTRA.REPUL>
-0.641615

>  <SCORE.INTRA.REPUL.0>
0.641615

>  <SCORE.INTRA.SOLV>
-7.79393

>  <SCORE.INTRA.SOLV.lig_0>
-162.567

>  <SCORE.INTRA.VDW>
0.0603859

>  <SCORE.INTRA.VDW.0>
-4.80338

>  <SCORE.INTRA.norm>
-0.560104

>  <SCORE.RESTR>
0

>  <SCORE.RESTR.CAVITY>
0

>  <SCORE.RESTR.norm>
0

>  <SCORE.SYSTEM>
0

>  <SCORE.SYSTEM.CONST>
0

>  <SCORE.SYSTEM.DIHEDRAL>
0

>  <SCORE.SYSTEM.SOLV>
0

>  <SCORE.SYSTEM.norm>
0

>  <SCORE.heavy>
42

>  <SCORE.norm>
-1.2651

>  <RMSD>
6.730

$$$$

 OpenBabel11021811393D
libRbt.so/2013.1/901 2013/11/27
 42 45  0  0  0  0  0  0  0  0999 V2000
   -6.5607    3.0495   -3.2533 C   0  0  2  0  0  0  0  0  0  0  0  0
   -5.5402    3.3579   -2.2546 O   0  0  0  0  0  0  0  0  0  0  0  0
   -7.9905    3.4370   -2.7540 C   0  0  2  0  0  0  0  0  0  0  0  0
   -7.9344    4.3276   -1.5721 N   0  3  0  0  0  0  0  0  0  0  0  0
   -8.8275    2.1609   -2.4377 C   0  0  1  0  0  0  0  0  0  0  0  0
  -10.1321    2.5265   -1.9932 O   0  0  0  0  0  0  0  0  0  0  0  0
   -8.9704    1.2425   -3.6809 C   0  0  2  0  0  0  0  0  0  0  0  0
   -9.4818   -0.0178   -3.2617 O   0  0  0  0  0  0  0  0  0  0  0  0
   -7.5984    1.0500   -4.4048 C   0  0  2  0  0  0  0  0  0  0  0  0
   -6.5184    1.6224   -3.5977 O   0  0  0  0  0  0  0  0  0  0  0  0
   -7.5076    1.7189   -5.7957 C   0  0  0  0  0  0  0  0  0  0  0  0
   -2.2295    1.9482   -4.6362 C   0  0  1  0  0  0  0  0  0  0  0  0
   -0.8691    1.6061   -5.1080 N   0  3  0  0  0  0  0  0  0  0  0  0
   -2.6627    1.0496   -3.4483 C   0  0  1  0  0  0  0  0  0  0  0  0
   -4.0336    1.4642   -2.8089 C   0  0  1  0  0  0  0  0  0  0  0  0
   -4.1667    0.7770   -1.5357 O   0  0  0  0  0  0  0  0  0  0  0  0
   -4.1491    3.0078   -2.5295 C   0  0  1  0  0  0  0  0  0  0  0  0
   -3.6724    3.8612   -3.7491 C   0  0  1  0  0  0  0  0  0  0  0  0
   -3.6392    5.3046   -3.4366 N   0  3  0  0  0  0  0  0  0  0  0  0
   -2.2676    3.4370   -4.2332 C   0  0  0  0  0  0  0  0  0  0  0  0
   -3.0206    0.6958   -0.6398 C   0  0  1  0  0  0  0  0  0  0  0  0
   -2.5635    2.1112   -0.3071 C   0  0  1  0  0  0  0  0  0  0  0  0
   -3.5766    2.4716    0.7710 C   0  0  1  0  0  0  0  0  0  0  0  0
   -3.6584    1.1629    1.5697 C   0  0  2  0  0  0  0  0  0  0  0  0
   -3.4149    0.1067    0.6102 O   0  0  0  0  0  0  0  0  0  0  0  0
   -5.0240    0.9568    2.2495 C   0  0  0  0  0  0  0  0  0  0  0  0
   -2.8278    6.1718    4.4116 C   0  0  1  0  0  0  0  0  0  0  0  0
   -3.1057    6.4983    2.9178 C   0  0  1  0  0  0  0  0  0  0  0  0
   -4.2680    5.6738    2.2929 C   0  0  2  0  0  0  0  0  0  0  0  0
   -4.0683    4.1431    2.5353 C   0  0  1  0  0  0  0  0  0  0  0  0
   -3.1115    3.5802    1.5935 O   0  0  0  0  0  0  0  0  0  0  0  0
   -3.7013    4.9719    4.8887 C   0  0  1  0  0  0  0  0  0  0  0  0
   -3.6061    3.8790    3.9175 O   0  0  0  0  0  0  0  0  0  0  0  0
   -3.2795    4.4510    6.2868 C   0  0  0  0  0  0  0  0  0  0  0  0
   -6.2601    1.4365   -6.5274 N   0  3  0  0  0  0  0  0  0  0  0  0
   -1.2343    2.0796    0.2134 O   0  0  0  0  0  0  0  0  0  0  0  0
   -3.4242    7.8854    2.8125 O   0  0  0  0  0  0  0  0  0  0  0  0
   -1.4406    5.8589    4.5552 O   0  0  0  0  0  0  0  0  0  0  0  0
   -6.0834    1.2382    1.3511 O   0  0  0  0  0  0  0  0  0  0  0  0
   -2.7633   -0.2987   -3.9059 O   0  0  0  0  0  0  0  0  0  0  0  0
   -3.2552    2.9789    6.3671 N   0  3  0  0  0  0  0  0  0  0  0  0
   -4.4573    6.0050    0.8588 N   0  3  0  0  0  0  0  0  0  0  0  0
  1  2  1  1  0  0  0
  1  3  1  0  0  0  0
  1 10  1  0  0  0  0
  3  4  1  1  0  0  0
  3  5  1  0  0  0  0
  5  6  1  6  0  0  0
  5  7  1  0  0  0  0
  7  8  1  1  0  0  0
  7  9  1  0  0  0  0
  9 10  1  0  0  0  0
  9 11  1  6  0  0  0
 11 35  1  0  0  0  0
 12 13  1  1  0  0  0
 12 14  1  0  0  0  0
 12 20  1  0  0  0  0
 14 15  1  0  0  0  0
 14 40  1  6  0  0  0
 15 16  1  1  0  0  0
 15 17  1  0  0  0  0
 17  2  1  6  0  0  0
 17 18  1  0  0  0  0
 18 19  1  1  0  0  0
 18 20  1  0  0  0  0
 21 16  1  6  0  0  0
 21 22  1  0  0  0  0
 21 25  1  0  0  0  0
 22 23  1  0  0  0  0
 22 36  1  1  0  0  0
 23 24  1  0  0  0  0
 23 31  1  1  0  0  0
 24 25  1  0  0  0  0
 24 26  1  6  0  0  0
 26 39  1  0  0  0  0
 27 28  1  0  0  0  0
 27 32  1  0  0  0  0
 27 38  1  6  0  0  0
 28 29  1  0  0  0  0
 28 37  1  1  0  0  0
 29 30  1  0  0  0  0
 29 42  1  6  0  0  0
 30 31  1  6  0  0  0
 30 33  1  0  0  0  0
 32 33  1  0  0  0  0
 32 34  1  1  0  0  0
 34 41  1  0  0  0  0
M  CHG  6   4   1  13   1  19   1  35   1  41   1  42   1
M  END
>  <CHROM.1>
177.36789247,-57.48771683,176.35312897,56.82391411,145.58316971,-174.81391333
55.36318908,-179.42358796,-175.78105777,42.87945903,58.37636428,-39.13670408
177.25775876,171.52058521,45.87267125,176.83084960,66.87792515,171.69040824
-176.88275512,-123.06022224,-137.45664523,27.70706644,-4.59377015,2.88571650
-0.65426081,1.91274387,0.00380457,-1.93601405

>  <Name>


>  <RI>
0

>  <Rbt.Current_Directory>
/home/itssahil/PROJECTS/Mol_Feturizer/New_Systems/rnas/1ei2

>  <Rbt.Executable>
rbdock ($Id: //depot/dev/client3/rdock/2013.1/src/exe/rbdock.cxx#4 $)

>  <Rbt.Library>
libRbt.so (2013.1, Build901 2013/11/27)

>  <Rbt.Parameter_File>
/export/apps/rDock/src/rDock_2013.1_src/data/scripts/dock_solv.prm

>  <Rbt.Receptor>
prm/pocket_docking_8.prm

>  <SCORE>
-53.0959

>  <SCORE.INTER>
-36.9676

>  <SCORE.INTER.CONST>
1

>  <SCORE.INTER.POLAR>
-6.79714

>  <SCORE.INTER.ROT>
9

>  <SCORE.INTER.SOLV>
21.3077

>  <SCORE.INTER.VDW>
-18.6905

>  <SCORE.INTER.norm>
-0.88018

>  <SCORE.INTRA>
-16.1284

>  <SCORE.INTRA.DIHEDRAL>
-17.774

>  <SCORE.INTRA.DIHEDRAL.0>
40.8761

>  <SCORE.INTRA.POLAR>
-0.273009

>  <SCORE.INTRA.POLAR.0>
-0.0268208

>  <SCORE.INTRA.REPUL>
-0.521569

>  <SCORE.INTRA.REPUL.0>
0.641615

>  <SCORE.INTRA.SOLV>
-9.70703

>  <SCORE.INTRA.SOLV.lig_0>
-162.567

>  <SCORE.INTRA.VDW>
1.14823

>  <SCORE.INTRA.VDW.0>
-4.80338

>  <SCORE.INTRA.norm>
-0.384009

>  <SCORE.RESTR>
0

>  <SCORE.RESTR.CAVITY>
0

>  <SCORE.RESTR.norm>
0

>  <SCORE.SYSTEM>
0

>  <SCORE.SYSTEM.CONST>
0

>  <SCORE.SYSTEM.DIHEDRAL>
0

>  <SCORE.SYSTEM.SOLV>
0

>  <SCORE.SYSTEM.norm>
0

>  <SCORE.heavy>
42

>  <SCORE.norm>
-1.26419

>  <RMSD>
6.745

$$$$

 OpenBabel11021811393D
libRbt.so/2013.1/901 2013/11/27
 42 45  0  0  0  0  0  0  0  0999 V2000
   -3.0025    6.2323    5.2279 C   0  0  2  0  0  0  0  0  0  0  0  0
   -3.7772    5.0683    4.8055 O   0  0  0  0  0  0  0  0  0  0  0  0
   -3.5822    7.5566    4.6330 C   0  0  2  0  0  0  0  0  0  0  0  0
   -4.9477    7.3620    4.0936 N   0  3  0  0  0  0  0  0  0  0  0  0
   -2.6361    8.1263    3.5334 C   0  0  1  0  0  0  0  0  0  0  0  0
   -3.1700    9.3387    3.0057 O   0  0  0  0  0  0  0  0  0  0  0  0
   -1.2154    8.4146    4.0882 C   0  0  2  0  0  0  0  0  0  0  0  0
   -0.3363    8.6493    2.9938 O   0  0  0  0  0  0  0  0  0  0  0  0
   -0.6904    7.2214    4.9508 C   0  0  2  0  0  0  0  0  0  0  0  0
   -1.5966    6.0769    4.8321 O   0  0  0  0  0  0  0  0  0  0  0  0
   -0.5667    7.5274    6.4612 C   0  0  0  0  0  0  0  0  0  0  0  0
   -0.8862    2.1644    6.1581 C   0  0  1  0  0  0  0  0  0  0  0  0
   -0.2345    0.9012    6.5705 N   0  3  0  0  0  0  0  0  0  0  0  0
   -1.2063    2.1706    4.6403 C   0  0  1  0  0  0  0  0  0  0  0  0
   -2.0319    3.4197    4.1733 C   0  0  1  0  0  0  0  0  0  0  0  0
   -2.5396    3.1547    2.8380 O   0  0  0  0  0  0  0  0  0  0  0  0
   -3.2662    3.7314    5.0971 C   0  0  1  0  0  0  0  0  0  0  0  0
   -2.8903    3.6826    6.6135 C   0  0  1  0  0  0  0  0  0  0  0  0
   -4.0752    3.8272    7.4835 N   0  3  0  0  0  0  0  0  0  0  0  0
   -2.1728    2.3656    6.9855 C   0  0  0  0  0  0  0  0  0  0  0  0
   -2.7929    4.2671    1.9318 C   0  0  1  0  0  0  0  0  0  0  0  0
   -3.1916    3.7048    0.5726 C   0  0  1  0  0  0  0  0  0  0  0  0
   -4.6565    3.3843    0.8365 C   0  0  1  0  0  0  0  0  0  0  0  0
   -5.0985    4.6054    1.6555 C   0  0  2  0  0  0  0  0  0  0  0  0
   -3.9240    5.0261    2.3896 O   0  0  0  0  0  0  0  0  0  0  0  0
   -6.2486    4.2927    2.6296 C   0  0  0  0  0  0  0  0  0  0  0  0
   -7.4317    1.0350   -2.7892 C   0  0  1  0  0  0  0  0  0  0  0  0
   -6.3867    0.5269   -1.7571 C   0  0  1  0  0  0  0  0  0  0  0  0
   -6.5989    1.0745   -0.3162 C   0  0  2  0  0  0  0  0  0  0  0  0
   -6.7191    2.6325   -0.3164 C   0  0  1  0  0  0  0  0  0  0  0  0
   -5.4098    3.2628   -0.4044 O   0  0  0  0  0  0  0  0  0  0  0  0
   -8.3688    2.1039   -2.1492 C   0  0  1  0  0  0  0  0  0  0  0  0
   -7.5631    3.1010   -1.4398 O   0  0  0  0  0  0  0  0  0  0  0  0
   -9.2570    2.8186   -3.2001 C   0  0  0  0  0  0  0  0  0  0  0  0
    0.6771    8.2191    6.8430 N   0  3  0  0  0  0  0  0  0  0  0  0
   -3.0484    4.7130   -0.4282 O   0  0  0  0  0  0  0  0  0  0  0  0
   -6.4514   -0.8981   -1.7162 O   0  0  0  0  0  0  0  0  0  0  0  0
   -6.7319    1.5964   -3.9018 O   0  0  0  0  0  0  0  0  0  0  0  0
   -5.8628    3.3003    3.5651 O   0  0  0  0  0  0  0  0  0  0  0  0
    0.0212    2.1384    3.9125 O   0  0  0  0  0  0  0  0  0  0  0  0
  -10.2739    3.6952   -2.5906 N   0  3  0  0  0  0  0  0  0  0  0  0
   -5.5491    0.5829    0.6104 N   0  3  0  0  0  0  0  0  0  0  0  0
  1  2  1  6  0  0  0
  1  3  1  0  0  0  0
  1 10  1  0  0  0  0
  3  4  1  6  0  0  0
  3  5  1  0  0  0  0
  5  6  1  1  0  0  0
  5  7  1  0  0  0  0
  7  8  1  6  0  0  0
  7  9  1  0  0  0  0
  9 10  1  0  0  0  0
  9 11  1  1  0  0  0
 11 35  1  0  0  0  0
 12 13  1  1  0  0  0
 12 14  1  0  0  0  0
 12 20  1  0  0  0  0
 14 15  1  0  0  0  0
 14 40  1  6  0  0  0
 15 16  1  6  0  0  0
 15 17  1  0  0  0  0
 17  2  1  6  0  0  0
 17 18  1  0  0  0  0
 18 19  1  1  0  0  0
 18 20  1  0  0  0  0
 21 16  1  1  0  0  0
 21 22  1  0  0  0  0
 21 25  1  0  0  0  0
 22 23  1  0  0  0  0
 22 36  1  6  0  0  0
 23 24  1  0  0  0  0
 23 31  1  6  0  0  0
 24 25  1  0  0  0  0
 24 26  1  1  0  0  0
 26 39  1  0  0  0  0
 27 28  1  0  0  0  0
 27 32  1  0  0  0  0
 27 38  1  6  0  0  0
 28 29  1  0  0  0  0
 28 37  1  1  0  0  0
 29 30  1  0  0  0  0
 29 42  1  1  0  0  0
 30 31  1  6  0  0  0
 30 33  1  0  0  0  0
 32 33  1  0  0  0  0
 32 34  1  6  0  0  0
 34 41  1  0  0  0  0
M  CHG  6   4   1  13   1  19   1  35   1  41   1  42   1
M  END
>  <CHROM.1>
170.81536156,-72.07594056,-175.58389960,-176.33042837,89.11044281,-82.82659449
47.45741268,88.83541379,-62.86352558,-152.15405155,174.83734870,-178.80933626
175.07284989,164.81138322,60.55750701,-179.44571884,59.07386625,63.80505656
-62.33035624,-81.73284272,172.11196705,71.37210655,-3.94566920,4.10664285
2.44249065,0.36063476,-0.90363353,-0.05123863

>  <Name>


>  <RI>
0

>  <Rbt.Current_Directory>
/home/itssahil/PROJECTS/Mol_Feturizer/New_Systems/rnas/1ei2

>  <Rbt.Executable>
rbdock ($Id: //depot/dev/client3/rdock/2013.1/src/exe/rbdock.cxx#4 $)

>  <Rbt.Library>
libRbt.so (2013.1, Build901 2013/11/27)

>  <Rbt.Parameter_File>
/export/apps/rDock/src/rDock_2013.1_src/data/scripts/dock_solv.prm

>  <Rbt.Receptor>
prm/pocket_docking_8.prm

>  <SCORE>
-56.8144

>  <SCORE.INTER>
-32.4636

>  <SCORE.INTER.CONST>
1

>  <SCORE.INTER.POLAR>
-6.22104

>  <SCORE.INTER.ROT>
9

>  <SCORE.INTER.SOLV>
19.8922

>  <SCORE.INTER.VDW>
-17.1363

>  <SCORE.INTER.norm>
-0.772943

>  <SCORE.INTRA>
-25.0035

>  <SCORE.INTRA.DIHEDRAL>
-24.2119

>  <SCORE.INTRA.DIHEDRAL.0>
40.8761

>  <SCORE.INTRA.POLAR>
-1.14588

>  <SCORE.INTRA.POLAR.0>
-0.0268208

>  <SCORE.INTRA.REPUL>
-0.603014

>  <SCORE.INTRA.REPUL.0>
0.641615

>  <SCORE.INTRA.SOLV>
-8.68895

>  <SCORE.INTRA.SOLV.lig_0>
-162.567

>  <SCORE.INTRA.VDW>
-1.64205

>  <SCORE.INTRA.VDW.0>
-4.80338

>  <SCORE.INTRA.norm>
-0.595322

>  <SCORE.RESTR>
0.652791

>  <SCORE.RESTR.CAVITY>
0.652791

>  <SCORE.RESTR.norm>
0.0155426

>  <SCORE.SYSTEM>
0

>  <SCORE.SYSTEM.CONST>
0

>  <SCORE.SYSTEM.DIHEDRAL>
0

>  <SCORE.SYSTEM.SOLV>
0

>  <SCORE.SYSTEM.norm>
0

>  <SCORE.heavy>
42

>  <SCORE.norm>
-1.35272

>  <RMSD>
6.767

$$$$

 OpenBabel11021811393D
libRbt.so/2013.1/901 2013/11/27
 42 45  0  0  0  0  0  0  0  0999 V2000
   -5.7632    3.5610   -4.1421 C   0  0  2  0  0  0  0  0  0  0  0  0
   -4.4235    3.3354   -3.6056 O   0  0  0  0  0  0  0  0  0  0  0  0
   -6.2225    5.0416   -3.9401 C   0  0  2  0  0  0  0  0  0  0  0  0
   -5.0860    5.9236   -3.5887 N   0  3  0  0  0  0  0  0  0  0  0  0
   -7.3378    5.1285   -2.8549 C   0  0  1  0  0  0  0  0  0  0  0  0
   -7.7556    6.4815   -2.6869 O   0  0  0  0  0  0  0  0  0  0  0  0
   -8.5774    4.2740   -3.2327 C   0  0  2  0  0  0  0  0  0  0  0  0
   -9.4204    4.1622   -2.0914 O   0  0  0  0  0  0  0  0  0  0  0  0
   -8.1567    2.8528   -3.7293 C   0  0  2  0  0  0  0  0  0  0  0  0
   -6.7233    2.6465   -3.5103 O   0  0  0  0  0  0  0  0  0  0  0  0
   -8.4114    2.5972   -5.2327 C   0  0  0  0  0  0  0  0  0  0  0  0
   -4.0976   -0.7114   -5.0676 C   0  0  1  0  0  0  0  0  0  0  0  0
   -3.5899   -2.0634   -5.3912 N   0  3  0  0  0  0  0  0  0  0  0  0
   -4.3298   -0.5403   -3.5435 C   0  0  1  0  0  0  0  0  0  0  0  0
   -4.7243    0.9186   -3.1239 C   0  0  1  0  0  0  0  0  0  0  0  0
   -4.5939    1.0266   -1.6809 O   0  0  0  0  0  0  0  0  0  0  0  0
   -3.8058    2.0216   -3.7672 C   0  0  1  0  0  0  0  0  0  0  0  0
   -3.5844    1.7813   -5.2957 C   0  0  1  0  0  0  0  0  0  0  0  0
   -2.6055    2.7269   -5.8696 N   0  3  0  0  0  0  0  0  0  0  0  0
   -3.0985    0.3436   -5.5867 C   0  0  0  0  0  0  0  0  0  0  0  0
   -3.4423    0.4302   -1.0168 C   0  0  1  0  0  0  0  0  0  0  0  0
   -2.4198    1.5262   -0.7411 C   0  0  1  0  0  0  0  0  0  0  0  0
   -3.0209    2.1410    0.5155 C   0  0  1  0  0  0  0  0  0  0  0  0
   -3.4780    0.8926    1.2836 C   0  0  2  0  0  0  0  0  0  0  0  0
   -3.8271   -0.0804    0.2701 O   0  0  0  0  0  0  0  0  0  0  0  0
   -4.6849    1.1585    2.2011 C   0  0  0  0  0  0  0  0  0  0  0  0
   -3.3060    5.5507    3.7366 C   0  0  1  0  0  0  0  0  0  0  0  0
   -1.8529    5.0023    3.6800 C   0  0  1  0  0  0  0  0  0  0  0  0
   -1.2153    5.0379    2.2611 C   0  0  2  0  0  0  0  0  0  0  0  0
   -2.1453    4.3555    1.2070 C   0  0  1  0  0  0  0  0  0  0  0  0
   -2.0317    2.9052    1.2635 O   0  0  0  0  0  0  0  0  0  0  0  0
   -3.8327    5.8740    2.3054 C   0  0  1  0  0  0  0  0  0  0  0  0
   -3.5596    4.7430    1.4150 O   0  0  0  0  0  0  0  0  0  0  0  0
   -5.3522    6.1819    2.2889 C   0  0  0  0  0  0  0  0  0  0  0  0
   -8.6500    1.1849   -5.5788 N   0  3  0  0  0  0  0  0  0  0  0  0
   -1.1439    0.9415   -0.4788 O   0  0  0  0  0  0  0  0  0  0  0  0
   -1.0442    5.7800    4.5617 O   0  0  0  0  0  0  0  0  0  0  0  0
   -4.1366    4.5665    4.3565 O   0  0  0  0  0  0  0  0  0  0  0  0
   -4.2832    1.8297    3.3830 O   0  0  0  0  0  0  0  0  0  0  0  0
   -5.3702   -1.4282   -3.1355 O   0  0  0  0  0  0  0  0  0  0  0  0
   -5.6497    7.6125    2.4857 N   0  3  0  0  0  0  0  0  0  0  0  0
    0.1547    4.4675    2.2682 N   0  3  0  0  0  0  0  0  0  0  0  0
  1  2  1  1  0  0  0
  1  3  1  0  0  0  0
  1 10  1  0  0  0  0
  3  4  1  1  0  0  0
  3  5  1  0  0  0  0
  5  6  1  6  0  0  0
  5  7  1  0  0  0  0
  7  8  1  1  0  0  0
  7  9  1  0  0  0  0
  9 10  1  0  0  0  0
  9 11  1  6  0  0  0
 11 35  1  0  0  0  0
 12 13  1  1  0  0  0
 12 14  1  0  0  0  0
 12 20  1  0  0  0  0
 14 15  1  0  0  0  0
 14 40  1  6  0  0  0
 15 16  1  1  0  0  0
 15 17  1  0  0  0  0
 17  2  1  6  0  0  0
 17 18  1  0  0  0  0
 18 19  1  1  0  0  0
 18 20  1  0  0  0  0
 21 16  1  1  0  0  0
 21 22  1  0  0  0  0
 21 25  1  0  0  0  0
 22 23  1  0  0  0  0
 22 36  1  1  0  0  0
 23 24  1  0  0  0  0
 23 31  1  1  0  0  0
 24 25  1  0  0  0  0
 24 26  1  6  0  0  0
 26 39  1  0  0  0  0
 27 28  1  0  0  0  0
 27 32  1  0  0  0  0
 27 38  1  6  0  0  0
 28 29  1  0  0  0  0
 28 37  1  1  0  0  0
 29 30  1  0  0  0  0
 29 42  1  1  0  0  0
 30 31  1  1  0  0  0
 30 33  1  0  0  0  0
 32 33  1  0  0  0  0
 32 34  1  1  0  0  0
 34 41  1  0  0  0  0
M  CHG  6   4   1  13   1  19   1  35   1  41   1  42   1
M  END
>  <CHROM.1>
-176.97146392,-57.51509308,-154.74953344,60.77039967,-56.61923157,-151.91552566
72.52578919,82.48591811,67.86202463,42.26612644,99.51556311,-63.97251478
-175.12802774,106.48651267,-77.11086059,83.52721829,61.24547816,173.94031427
177.70404098,168.81727489,89.87926185,-57.28375781,-4.43901198,2.92112146
-1.15068367,2.04345600,0.70302476,-2.29067171

>  <Name>


>  <RI>
0

>  <Rbt.Current_Directory>
/home/itssahil/PROJECTS/Mol_Feturizer/New_Systems/rnas/1ei2

>  <Rbt.Executable>
rbdock ($Id: //depot/dev/client3/rdock/2013.1/src/exe/rbdock.cxx#4 $)

>  <Rbt.Library>
libRbt.so (2013.1, Build901 2013/11/27)

>  <Rbt.Parameter_File>
/export/apps/rDock/src/rDock_2013.1_src/data/scripts/dock_solv.prm

>  <Rbt.Receptor>
prm/pocket_docking_5.prm

>  <SCORE>
-48.5575

>  <SCORE.INTER>
-28.9457

>  <SCORE.INTER.CONST>
1

>  <SCORE.INTER.POLAR>
-5.72691

>  <SCORE.INTER.ROT>
9

>  <SCORE.INTER.SOLV>
26.7338

>  <SCORE.INTER.VDW>
-18.7187

>  <SCORE.INTER.norm>
-0.689184

>  <SCORE.INTRA>
-19.7918

>  <SCORE.INTRA.DIHEDRAL>
-14.2987

>  <SCORE.INTRA.DIHEDRAL.0>
40.8761

>  <SCORE.INTRA.POLAR>
-0.855877

>  <SCORE.INTRA.POLAR.0>
-0.0268208

>  <SCORE.INTRA.REPUL>
-0.641615

>  <SCORE.INTRA.REPUL.0>
0.641615

>  <SCORE.INTRA.SOLV>
-13.8192

>  <SCORE.INTRA.SOLV.lig_0>
-162.567

>  <SCORE.INTRA.VDW>
0.385198

>  <SCORE.INTRA.VDW.0>
-4.80338

>  <SCORE.INTRA.norm>
-0.471234

>  <SCORE.RESTR>
0.180047

>  <SCORE.RESTR.CAVITY>
0.180047

>  <SCORE.RESTR.norm>
0.00428684

>  <SCORE.SYSTEM>
0

>  <SCORE.SYSTEM.CONST>
0

>  <SCORE.SYSTEM.DIHEDRAL>
0

>  <SCORE.SYSTEM.SOLV>
0

>  <SCORE.SYSTEM.norm>
0

>  <SCORE.heavy>
42

>  <SCORE.norm>
-1.15613

>  <RMSD>
6.770

$$$$

 OpenBabel11021811393D
libRbt.so/2013.1/901 2013/11/27
 42 45  0  0  0  0  0  0  0  0999 V2000
   -3.6822    3.2686   -0.3709 C   0  0  2  0  0  0  0  0  0  0  0  0
   -2.9004    3.4631   -1.5893 O   0  0  0  0  0  0  0  0  0  0  0  0
   -3.6902    4.5535    0.5194 C   0  0  2  0  0  0  0  0  0  0  0  0
   -3.2194    5.7409   -0.2299 N   0  3  0  0  0  0  0  0  0  0  0  0
   -2.8305    4.3399    1.8016 C   0  0  1  0  0  0  0  0  0  0  0  0
   -2.8537    5.5143    2.6101 O   0  0  0  0  0  0  0  0  0  0  0  0
   -3.3478    3.1477    2.6504 C   0  0  2  0  0  0  0  0  0  0  0  0
   -2.3681    2.8260    3.6314 O   0  0  0  0  0  0  0  0  0  0  0  0
   -3.6405    1.8994    1.7562 C   0  0  2  0  0  0  0  0  0  0  0  0
   -3.1550    2.1308    0.3938 O   0  0  0  0  0  0  0  0  0  0  0  0
   -5.1381    1.5364    1.6318 C   0  0  0  0  0  0  0  0  0  0  0  0
   -2.0152    1.3534   -5.2479 C   0  0  1  0  0  0  0  0  0  0  0  0
   -2.1198    0.4897   -6.4452 N   0  3  0  0  0  0  0  0  0  0  0  0
   -2.9175    2.6091   -5.3714 C   0  0  1  0  0  0  0  0  0  0  0  0
   -2.9634    3.4850   -4.0711 C   0  0  1  0  0  0  0  0  0  0  0  0
   -4.0669    4.4221   -4.1940 O   0  0  0  0  0  0  0  0  0  0  0  0
   -3.1978    2.6448   -2.7621 C   0  0  1  0  0  0  0  0  0  0  0  0
   -2.2830    1.3787   -2.7070 C   0  0  1  0  0  0  0  0  0  0  0  0
   -2.6054    0.5115   -1.5555 N   0  3  0  0  0  0  0  0  0  0  0  0
   -2.3928    0.5340   -3.9963 C   0  0  0  0  0  0  0  0  0  0  0  0
   -5.3713    3.9426   -4.6316 C   0  0  1  0  0  0  0  0  0  0  0  0
   -6.1073    3.3697   -3.4263 C   0  0  1  0  0  0  0  0  0  0  0  0
   -6.6205    4.6553   -2.7921 C   0  0  1  0  0  0  0  0  0  0  0  0
   -7.0591    5.4565   -4.0262 C   0  0  2  0  0  0  0  0  0  0  0  0
   -6.1706    5.0444   -5.0922 O   0  0  0  0  0  0  0  0  0  0  0  0
   -6.9681    6.9790   -3.8192 C   0  0  0  0  0  0  0  0  0  0  0  0
  -10.2752    5.8010    0.6246 C   0  0  1  0  0  0  0  0  0  0  0  0
   -9.8979    4.3010    0.4730 C   0  0  1  0  0  0  0  0  0  0  0  0
   -8.3665    4.0260    0.4927 C   0  0  2  0  0  0  0  0  0  0  0  0
   -7.6173    4.9302   -0.5383 C   0  0  1  0  0  0  0  0  0  0  0  0
   -7.7342    4.3991   -1.8887 O   0  0  0  0  0  0  0  0  0  0  0  0
   -8.9998    6.6974    0.6131 C   0  0  1  0  0  0  0  0  0  0  0  0
   -8.1416    6.3152   -0.5112 O   0  0  0  0  0  0  0  0  0  0  0  0
   -9.3376    8.2070    0.5078 C   0  0  0  0  0  0  0  0  0  0  0  0
   -5.7421    1.0094    2.8683 N   0  3  0  0  0  0  0  0  0  0  0  0
   -7.1813    2.5383   -3.8665 O   0  0  0  0  0  0  0  0  0  0  0  0
  -10.5041    3.5748    1.5415 O   0  0  0  0  0  0  0  0  0  0  0  0
  -11.1398    6.1608   -0.4552 O   0  0  0  0  0  0  0  0  0  0  0  0
   -6.5066    7.6222   -4.9948 O   0  0  0  0  0  0  0  0  0  0  0  0
   -2.4367    3.4156   -6.4465 O   0  0  0  0  0  0  0  0  0  0  0  0
   -8.1457    9.0695    0.6054 N   0  3  0  0  0  0  0  0  0  0  0  0
   -8.0726    2.5834    0.3066 N   0  3  0  0  0  0  0  0  0  0  0  0
  1  2  1  6  0  0  0
  1  3  1  0  0  0  0
  1 10  1  0  0  0  0
  3  4  1  6  0  0  0
  3  5  1  0  0  0  0
  5  6  1  1  0  0  0
  5  7  1  0  0  0  0
  7  8  1  1  0  0  0
  7  9  1  0  0  0  0
  9 10  1  0  0  0  0
  9 11  1  6  0  0  0
 11 35  1  0  0  0  0
 12 13  1  6  0  0  0
 12 14  1  0  0  0  0
 12 20  1  0  0  0  0
 14 15  1  0  0  0  0
 14 40  1  6  0  0  0
 15 16  1  6  0  0  0
 15 17  1  0  0  0  0
 17  2  1  1  0  0  0
 17 18  1  0  0  0  0
 18 19  1  1  0  0  0
 18 20  1  0  0  0  0
 21 16  1  1  0  0  0
 21 22  1  0  0  0  0
 21 25  1  0  0  0  0
 22 23  1  0  0  0  0
 22 36  1  6  0  0  0
 23 24  1  0  0  0  0
 23 31  1  1  0  0  0
 24 25  1  0  0  0  0
 24 26  1  1  0  0  0
 26 39  1  0  0  0  0
 27 28  1  0  0  0  0
 27 32  1  0  0  0  0
 27 38  1  6  0  0  0
 28 29  1  0  0  0  0
 28 37  1  1  0  0  0
 29 30  1  0  0  0  0
 29 42  1  6  0  0  0
 30 31  1  6  0  0  0
 30 33  1  0  0  0  0
 32 33  1  0  0  0  0
 32 34  1  6  0  0  0
 34 41  1  0  0  0  0
M  CHG  6   4   1  13   1  19   1  35   1  41   1  42   1
M  END
>  <CHROM.1>
-155.22602566,145.84456516,24.77716353,-54.58947388,-176.89022091,-69.56165459
-173.50555410,176.89750037,-69.73737653,47.28805175,83.06510537,-54.55953700
-56.61755025,127.18692253,141.29937634,57.45064094,-62.92714984,-67.82304280
163.35688844,-149.12784161,175.36726793,-39.72411069,-5.48036288,3.96084989
-1.36902528,-0.49685934,-0.59002233,1.67135142

>  <Name>


>  <RI>
0

>  <Rbt.Current_Directory>
/home/itssahil/PROJECTS/Mol_Feturizer/New_Systems/rnas/1ei2

>  <Rbt.Executable>
rbdock ($Id: //depot/dev/client3/rdock/2013.1/src/exe/rbdock.cxx#4 $)

>  <Rbt.Library>
libRbt.so (2013.1, Build901 2013/11/27)

>  <Rbt.Parameter_File>
/export/apps/rDock/src/rDock_2013.1_src/data/scripts/dock_solv.prm

>  <Rbt.Receptor>
prm/pocket_docking_3.prm

>  <SCORE>
-47.271

>  <SCORE.INTER>
-30.8551

>  <SCORE.INTER.CONST>
1

>  <SCORE.INTER.POLAR>
-5.49136

>  <SCORE.INTER.ROT>
9

>  <SCORE.INTER.SOLV>
25.4633

>  <SCORE.INTER.VDW>
-20.3533

>  <SCORE.INTER.norm>
-0.734644

>  <SCORE.INTRA>
-16.7056

>  <SCORE.INTRA.DIHEDRAL>
-10.2846

>  <SCORE.INTRA.DIHEDRAL.0>
40.8761

>  <SCORE.INTRA.POLAR>
-1.23811

>  <SCORE.INTRA.POLAR.0>
-0.0268208

>  <SCORE.INTRA.REPUL>
-0.639418

>  <SCORE.INTRA.REPUL.0>
0.641615

>  <SCORE.INTRA.SOLV>
-7.99897

>  <SCORE.INTRA.SOLV.lig_0>
-162.567

>  <SCORE.INTRA.VDW>
-0.157168

>  <SCORE.INTRA.VDW.0>
-4.80338

>  <SCORE.INTRA.norm>
-0.397752

>  <SCORE.RESTR>
0.289692

>  <SCORE.RESTR.CAVITY>
0.289692

>  <SCORE.RESTR.norm>
0.00689743

>  <SCORE.SYSTEM>
0

>  <SCORE.SYSTEM.CONST>
0

>  <SCORE.SYSTEM.DIHEDRAL>
0

>  <SCORE.SYSTEM.SOLV>
0

>  <SCORE.SYSTEM.norm>
0

>  <SCORE.heavy>
42

>  <SCORE.norm>
-1.1255

>  <RMSD>
6.777

$$$$

 OpenBabel11021811393D
libRbt.so/2013.1/901 2013/11/27
 42 45  0  0  0  0  0  0  0  0999 V2000
   -9.3319    7.4834    2.2223 C   0  0  2  0  0  0  0  0  0  0  0  0
   -8.2258    7.4888    1.2683 O   0  0  0  0  0  0  0  0  0  0  0  0
   -9.1894    8.6300    3.2754 C   0  0  2  0  0  0  0  0  0  0  0  0
   -8.1912    9.6392    2.8533 N   0  3  0  0  0  0  0  0  0  0  0  0
   -8.8222    8.0496    4.6744 C   0  0  1  0  0  0  0  0  0  0  0  0
   -8.7051    9.1032    5.6282 O   0  0  0  0  0  0  0  0  0  0  0  0
   -9.8915    7.0445    5.1802 C   0  0  2  0  0  0  0  0  0  0  0  0
   -9.3655    6.3435    6.3016 O   0  0  0  0  0  0  0  0  0  0  0  0
  -10.2958    6.0339    4.0582 C   0  0  2  0  0  0  0  0  0  0  0  0
   -9.4092    6.1837    2.9020 O   0  0  0  0  0  0  0  0  0  0  0  0
  -11.7383    6.2060    3.5293 C   0  0  0  0  0  0  0  0  0  0  0  0
  -10.0143    4.6237   -1.4172 C   0  0  1  0  0  0  0  0  0  0  0  0
  -10.2640    3.7216   -2.5637 N   0  3  0  0  0  0  0  0  0  0  0  0
   -8.8453    4.1127   -0.5350 C   0  0  1  0  0  0  0  0  0  0  0  0
   -8.4363    5.1045    0.6092 C   0  0  1  0  0  0  0  0  0  0  0  0
   -7.1537    4.6783    1.1423 O   0  0  0  0  0  0  0  0  0  0  0  0
   -8.2760    6.5902    0.1179 C   0  0  1  0  0  0  0  0  0  0  0  0
   -9.4672    7.0392   -0.7889 C   0  0  1  0  0  0  0  0  0  0  0  0
   -9.2466    8.3786   -1.3712 N   0  3  0  0  0  0  0  0  0  0  0  0
   -9.7174    6.0433   -1.9436 C   0  0  0  0  0  0  0  0  0  0  0  0
   -5.9634    4.7659    0.3066 C   0  0  1  0  0  0  0  0  0  0  0  0
   -4.7508    4.9636    1.2085 C   0  0  1  0  0  0  0  0  0  0  0  0
   -4.5174    3.5280    1.6591 C   0  0  1  0  0  0  0  0  0  0  0  0
   -4.7620    2.7507    0.3578 C   0  0  2  0  0  0  0  0  0  0  0  0
   -5.7475    3.5186   -0.3735 O   0  0  0  0  0  0  0  0  0  0  0  0
   -5.2767    1.3202    0.5985 C   0  0  0  0  0  0  0  0  0  0  0  0
   -0.1921    2.9010    4.5508 C   0  0  1  0  0  0  0  0  0  0  0  0
   -0.3272    4.0237    3.4847 C   0  0  1  0  0  0  0  0  0  0  0  0
   -1.6804    4.7900    3.5373 C   0  0  2  0  0  0  0  0  0  0  0  0
   -2.8904    3.8015    3.5102 C   0  0  1  0  0  0  0  0  0  0  0  0
   -3.1620    3.3370    2.1575 O   0  0  0  0  0  0  0  0  0  0  0  0
   -1.5276    2.7156    5.3333 C   0  0  1  0  0  0  0  0  0  0  0  0
   -2.6433    2.6338    4.3871 O   0  0  0  0  0  0  0  0  0  0  0  0
   -1.5205    1.4477    6.2256 C   0  0  0  0  0  0  0  0  0  0  0  0
  -12.2057    5.1074    2.6656 N   0  3  0  0  0  0  0  0  0  0  0  0
   -3.6527    5.4561    0.4403 O   0  0  0  0  0  0  0  0  0  0  0  0
    0.7329    4.9589    3.6799 O   0  0  0  0  0  0  0  0  0  0  0  0
    0.1616    1.6864    3.8855 O   0  0  0  0  0  0  0  0  0  0  0  0
   -4.3607    0.5795    1.3865 O   0  0  0  0  0  0  0  0  0  0  0  0
   -9.2250    2.8695    0.0547 O   0  0  0  0  0  0  0  0  0  0  0  0
   -2.5721    1.4676    7.2589 N   0  3  0  0  0  0  0  0  0  0  0  0
   -1.7612    5.8208    2.4727 N   0  3  0  0  0  0  0  0  0  0  0  0
  1  2  1  6  0  0  0
  1  3  1  0  0  0  0
  1 10  1  0  0  0  0
  3  4  1  6  0  0  0
  3  5  1  0  0  0  0
  5  6  1  1  0  0  0
  5  7  1  0  0  0  0
  7  8  1  1  0  0  0
  7  9  1  0  0  0  0
  9 10  1  0  0  0  0
  9 11  1  6  0  0  0
 11 35  1  0  0  0  0
 12 13  1  6  0  0  0
 12 14  1  0  0  0  0
 12 20  1  0  0  0  0
 14 15  1  0  0  0  0
 14 40  1  1  0  0  0
 15 16  1  6  0  0  0
 15 17  1  0  0  0  0
 17  2  1  1  0  0  0
 17 18  1  0  0  0  0
 18 19  1  6  0  0  0
 18 20  1  0  0  0  0
 21 16  1  1  0  0  0
 21 22  1  0  0  0  0
 21 25  1  0  0  0  0
 22 23  1  0  0  0  0
 22 36  1  6  0  0  0
 23 24  1  0  0  0  0
 23 31  1  6  0  0  0
 24 25  1  0  0  0  0
 24 26  1  1  0  0  0
 26 39  1  0  0  0  0
 27 28  1  0  0  0  0
 27 32  1  0  0  0  0
 27 38  1  6  0  0  0
 28 29  1  0  0  0  0
 28 37  1  1  0  0  0
 29 30  1  0  0  0  0
 29 42  1  6  0  0  0
 30 31  1  6  0  0  0
 30 33  1  0  0  0  0
 32 33  1  0  0  0  0
 32 34  1  6  0  0  0
 34 41  1  0  0  0  0
M  CHG  6   4   1  13   1  19   1  35   1  41   1  42   1
M  END
>  <CHROM.1>
-172.70085371,-56.88120595,-160.44466018,-167.61311447,73.89305969,-168.97822418
-47.79047401,171.13560682,-64.06807345,67.12055849,151.45289193,167.91831584
70.38575045,78.71574165,-58.51339329,65.38602459,-176.91056857,169.77272572
-158.63138803,-125.25214673,162.63550378,-48.01837736,-6.23339433,4.92241041
2.25017488,3.06028113,0.47787359,-2.01329387

>  <Name>


>  <RI>
0

>  <Rbt.Current_Directory>
/home/itssahil/PROJECTS/Mol_Feturizer/New_Systems/rnas/1ei2

>  <Rbt.Executable>
rbdock ($Id: //depot/dev/client3/rdock/2013.1/src/exe/rbdock.cxx#4 $)

>  <Rbt.Library>
libRbt.so (2013.1, Build901 2013/11/27)

>  <Rbt.Parameter_File>
/export/apps/rDock/src/rDock_2013.1_src/data/scripts/dock_solv.prm

>  <Rbt.Receptor>
prm/pocket_docking_6.prm

>  <SCORE>
-49.6791

>  <SCORE.INTER>
-29.21

>  <SCORE.INTER.CONST>
1

>  <SCORE.INTER.POLAR>
-5.85747

>  <SCORE.INTER.ROT>
9

>  <SCORE.INTER.SOLV>
18.9644

>  <SCORE.INTER.VDW>
-15.8699

>  <SCORE.INTER.norm>
-0.695476

>  <SCORE.INTRA>
-20.4691

>  <SCORE.INTRA.DIHEDRAL>
-19.9002

>  <SCORE.INTRA.DIHEDRAL.0>
40.8761

>  <SCORE.INTRA.POLAR>
-0.99509

>  <SCORE.INTRA.POLAR.0>
-0.0268208

>  <SCORE.INTRA.REPUL>
-0.635402

>  <SCORE.INTRA.REPUL.0>
0.641615

>  <SCORE.INTRA.SOLV>
-10.1993

>  <SCORE.INTRA.SOLV.lig_0>
-162.567

>  <SCORE.INTRA.VDW>
1.14104

>  <SCORE.INTRA.VDW.0>
-4.80338

>  <SCORE.INTRA.norm>
-0.487358

>  <SCORE.RESTR>
0

>  <SCORE.RESTR.CAVITY>
0

>  <SCORE.RESTR.norm>
0

>  <SCORE.SYSTEM>
0

>  <SCORE.SYSTEM.CONST>
0

>  <SCORE.SYSTEM.DIHEDRAL>
0

>  <SCORE.SYSTEM.SOLV>
0

>  <SCORE.SYSTEM.norm>
0

>  <SCORE.heavy>
42

>  <SCORE.norm>
-1.18283

>  <RMSD>
6.784

$$$$

 OpenBabel11021811393D
libRbt.so/2013.1/901 2013/11/27
 42 45  0  0  0  0  0  0  0  0999 V2000
   -4.8992    2.1980   -3.5844 C   0  0  2  0  0  0  0  0  0  0  0  0
   -3.5300    1.9056   -4.0009 O   0  0  0  0  0  0  0  0  0  0  0  0
   -5.4444    3.4942   -4.2673 C   0  0  2  0  0  0  0  0  0  0  0  0
   -4.6009    3.9048   -5.4132 N   0  3  0  0  0  0  0  0  0  0  0  0
   -5.5625    4.6534   -3.2322 C   0  0  1  0  0  0  0  0  0  0  0  0
   -6.0701    5.8266   -3.8642 O   0  0  0  0  0  0  0  0  0  0  0  0
   -6.5040    4.2817   -2.0555 C   0  0  2  0  0  0  0  0  0  0  0  0
   -6.3426    5.2443   -1.0195 O   0  0  0  0  0  0  0  0  0  0  0  0
   -6.1925    2.8503   -1.5101 C   0  0  2  0  0  0  0  0  0  0  0  0
   -4.9671    2.3332   -2.1234 O   0  0  0  0  0  0  0  0  0  0  0  0
   -7.2964    1.8040   -1.7873 C   0  0  0  0  0  0  0  0  0  0  0  0
   -3.3874   -2.3559   -4.6632 C   0  0  1  0  0  0  0  0  0  0  0  0
   -2.9648   -3.7743   -4.6711 N   0  3  0  0  0  0  0  0  0  0  0  0
   -3.7820   -1.8876   -3.2380 C   0  0  1  0  0  0  0  0  0  0  0  0
   -4.0948   -0.3537   -3.1406 C   0  0  1  0  0  0  0  0  0  0  0  0
   -4.1267    0.0145   -1.7355 O   0  0  0  0  0  0  0  0  0  0  0  0
   -3.0144    0.5482   -3.8431 C   0  0  1  0  0  0  0  0  0  0  0  0
   -2.6360    0.0118   -5.2616 C   0  0  1  0  0  0  0  0  0  0  0  0
   -1.5176    0.7685   -5.8604 N   0  3  0  0  0  0  0  0  0  0  0  0
   -2.2462   -1.4831   -5.2254 C   0  0  0  0  0  0  0  0  0  0  0  0
   -2.9119   -0.0893   -0.9378 C   0  0  1  0  0  0  0  0  0  0  0  0
   -2.1021    1.1893   -1.1183 C   0  0  1  0  0  0  0  0  0  0  0  0
   -2.8402    2.1098   -0.1559 C   0  0  1  0  0  0  0  0  0  0  0  0
   -3.1008    1.1724    1.0318 C   0  0  2  0  0  0  0  0  0  0  0  0
   -3.2447   -0.1492    0.4588 O   0  0  0  0  0  0  0  0  0  0  0  0
   -4.3645    1.5456    1.8274 C   0  0  0  0  0  0  0  0  0  0  0  0
   -0.1277    5.0204    3.0588 C   0  0  1  0  0  0  0  0  0  0  0  0
   -0.5073    5.6639    1.6960 C   0  0  1  0  0  0  0  0  0  0  0  0
   -2.0052    5.4965    1.3097 C   0  0  2  0  0  0  0  0  0  0  0  0
   -2.4477    4.0005    1.3997 C   0  0  1  0  0  0  0  0  0  0  0  0
   -2.0216    3.2528    0.2255 O   0  0  0  0  0  0  0  0  0  0  0  0
   -1.3301    4.2230    3.6495 C   0  0  1  0  0  0  0  0  0  0  0  0
   -1.8991    3.3555    2.6149 O   0  0  0  0  0  0  0  0  0  0  0  0
   -0.9255    3.3611    4.8732 C   0  0  0  0  0  0  0  0  0  0  0  0
   -7.0833    0.5040   -1.1271 N   0  3  0  0  0  0  0  0  0  0  0  0
   -0.7539    0.9698   -0.7024 O   0  0  0  0  0  0  0  0  0  0  0  0
   -0.2065    7.0575    1.7577 O   0  0  0  0  0  0  0  0  0  0  0  0
    0.9869    4.1497    2.8525 O   0  0  0  0  0  0  0  0  0  0  0  0
   -4.8371    0.4376    2.5741 O   0  0  0  0  0  0  0  0  0  0  0  0
   -4.9367   -2.6149   -2.8194 O   0  0  0  0  0  0  0  0  0  0  0  0
   -2.0679    2.6514    5.4775 N   0  3  0  0  0  0  0  0  0  0  0  0
   -2.2936    6.0986   -0.0156 N   0  3  0  0  0  0  0  0  0  0  0  0
  1  2  1  1  0  0  0
  1  3  1  0  0  0  0
  1 10  1  0  0  0  0
  3  4  1  6  0  0  0
  3  5  1  0  0  0  0
  5  6  1  6  0  0  0
  5  7  1  0  0  0  0
  7  8  1  1  0  0  0
  7  9  1  0  0  0  0
  9 10  1  0  0  0  0
  9 11  1  6  0  0  0
 11 35  1  0  0  0  0
 12 13  1  1  0  0  0
 12 14  1  0  0  0  0
 12 20  1  0  0  0  0
 14 15  1  0  0  0  0
 14 40  1  6  0  0  0
 15 16  1  1  0  0  0
 15 17  1  0  0  0  0
 17  2  1  6  0  0  0
 17 18  1  0  0  0  0
 18 19  1  1  0  0  0
 18 20  1  0  0  0  0
 21 16  1  6  0  0  0
 21 22  1  0  0  0  0
 21 25  1  0  0  0  0
 22 23  1  0  0  0  0
 22 36  1  1  0  0  0
 23 24  1  0  0  0  0
 23 31  1  1  0  0  0
 24 25  1  0  0  0  0
 24 26  1  6  0  0  0
 26 39  1  0  0  0  0
 27 28  1  0  0  0  0
 27 32  1  0  0  0  0
 27 38  1  6  0  0  0
 28 29  1  0  0  0  0
 28 37  1  1  0  0  0
 29 30  1  0  0  0  0
 29 42  1  6  0  0  0
 30 31  1  6  0  0  0
 30 33  1  0  0  0  0
 32 33  1  0  0  0  0
 32 34  1  1  0  0  0
 34 41  1  0  0  0  0
M  CHG  6   4   1  13   1  19   1  35   1  41   1  42   1
M  END
>  <CHROM.1>
-159.67534813,-3.12667467,-165.50851012,-75.24710540,-61.14219175,-172.56313119
-179.00283849,54.32965107,-73.38730685,64.49258402,85.09008205,-174.72736023
176.93889868,-163.61030782,158.86981354,174.50483846,-65.44061195,82.58417212
-14.57403457,-151.59574517,177.34522335,-47.70193889,-3.33123636,2.13578929
-1.00178418,2.21344144,1.02181423,-2.72284942

>  <Name>


>  <RI>
0

>  <Rbt.Current_Directory>
/home/itssahil/PROJECTS/Mol_Feturizer/New_Systems/rnas/1ei2

>  <Rbt.Executable>
rbdock ($Id: //depot/dev/client3/rdock/2013.1/src/exe/rbdock.cxx#4 $)

>  <Rbt.Library>
libRbt.so (2013.1, Build901 2013/11/27)

>  <Rbt.Parameter_File>
/export/apps/rDock/src/rDock_2013.1_src/data/scripts/dock_solv.prm

>  <Rbt.Receptor>
prm/pocket_docking_6.prm

>  <SCORE>
-57.1538

>  <SCORE.INTER>
-38.8485

>  <SCORE.INTER.CONST>
1

>  <SCORE.INTER.POLAR>
-6.45264

>  <SCORE.INTER.ROT>
9

>  <SCORE.INTER.SOLV>
26.1628

>  <SCORE.INTER.VDW>
-22.7111

>  <SCORE.INTER.norm>
-0.924964

>  <SCORE.INTRA>
-18.3053

>  <SCORE.INTRA.DIHEDRAL>
-13.338

>  <SCORE.INTRA.DIHEDRAL.0>
40.8761

>  <SCORE.INTRA.POLAR>
-1.28616

>  <SCORE.INTRA.POLAR.0>
-0.0268208

>  <SCORE.INTRA.REPUL>
-0.631914

>  <SCORE.INTRA.REPUL.0>
0.641615

>  <SCORE.INTRA.SOLV>
-9.56476

>  <SCORE.INTRA.SOLV.lig_0>
-162.567

>  <SCORE.INTRA.VDW>
0.678529

>  <SCORE.INTRA.VDW.0>
-4.80338

>  <SCORE.INTRA.norm>
-0.435842

>  <SCORE.RESTR>
0

>  <SCORE.RESTR.CAVITY>
0

>  <SCORE.RESTR.norm>
0

>  <SCORE.SYSTEM>
0

>  <SCORE.SYSTEM.CONST>
0

>  <SCORE.SYSTEM.DIHEDRAL>
0

>  <SCORE.SYSTEM.SOLV>
0

>  <SCORE.SYSTEM.norm>
0

>  <SCORE.heavy>
42

>  <SCORE.norm>
-1.36081

>  <RMSD>
6.792

$$$$

 OpenBabel11021811393D
libRbt.so/2013.1/901 2013/11/27
 42 45  0  0  0  0  0  0  0  0999 V2000
   -6.5824    1.1422   -1.2393 C   0  0  2  0  0  0  0  0  0  0  0  0
   -5.6377    0.6401   -2.2338 O   0  0  0  0  0  0  0  0  0  0  0  0
   -7.6827    0.0834   -0.9043 C   0  0  2  0  0  0  0  0  0  0  0  0
   -7.3098   -1.2651   -1.3898 N   0  3  0  0  0  0  0  0  0  0  0  0
   -9.0594    0.5153   -1.4934 C   0  0  1  0  0  0  0  0  0  0  0  0
  -10.0564   -0.4526   -1.1728 O   0  0  0  0  0  0  0  0  0  0  0  0
   -9.5156    1.8928   -0.9423 C   0  0  2  0  0  0  0  0  0  0  0  0
  -10.6112    2.3573   -1.7230 O   0  0  0  0  0  0  0  0  0  0  0  0
   -8.3501    2.9338   -0.9820 C   0  0  2  0  0  0  0  0  0  0  0  0
   -7.2077    2.3832   -1.7148 O   0  0  0  0  0  0  0  0  0  0  0  0
   -7.8180    3.3542    0.4074 C   0  0  0  0  0  0  0  0  0  0  0  0
   -2.5658    1.9626   -4.9604 C   0  0  1  0  0  0  0  0  0  0  0  0
   -1.5371    2.7741   -5.6487 N   0  3  0  0  0  0  0  0  0  0  0  0
   -2.0999    1.5357   -3.5437 C   0  0  1  0  0  0  0  0  0  0  0  0
   -3.2063    0.8014   -2.7089 C   0  0  1  0  0  0  0  0  0  0  0  0
   -2.7697    0.7488   -1.3242 O   0  0  0  0  0  0  0  0  0  0  0  0
   -4.5984    1.5329   -2.7402 C   0  0  1  0  0  0  0  0  0  0  0  0
   -5.0012    1.9643   -4.1875 C   0  0  1  0  0  0  0  0  0  0  0  0
   -6.2327    2.7799   -4.2004 N   0  3  0  0  0  0  0  0  0  0  0  0
   -3.8787    2.7690   -4.8805 C   0  0  0  0  0  0  0  0  0  0  0  0
   -3.7435    0.9342   -0.2564 C   0  0  1  0  0  0  0  0  0  0  0  0
   -3.0369    0.7523    1.0818 C   0  0  1  0  0  0  0  0  0  0  0  0
   -2.3860    2.1211    1.2273 C   0  0  1  0  0  0  0  0  0  0  0  0
   -3.5025    3.0500    0.7297 C   0  0  2  0  0  0  0  0  0  0  0  0
   -4.2287    2.2869   -0.2632 O   0  0  0  0  0  0  0  0  0  0  0  0
   -2.9692    4.3542    0.1099 C   0  0  0  0  0  0  0  0  0  0  0  0
   -1.6500    5.7088    4.5191 C   0  0  1  0  0  0  0  0  0  0  0  0
   -1.4763    4.2933    5.1366 C   0  0  1  0  0  0  0  0  0  0  0  0
   -0.5141    3.3661    4.3393 C   0  0  2  0  0  0  0  0  0  0  0  0
   -0.9102    3.3067    2.8288 C   0  0  1  0  0  0  0  0  0  0  0  0
   -2.0271    2.3986    2.6115 O   0  0  0  0  0  0  0  0  0  0  0  0
   -0.9182    5.8085    3.1462 C   0  0  1  0  0  0  0  0  0  0  0  0
   -1.2673    4.6507    2.3190 O   0  0  0  0  0  0  0  0  0  0  0  0
   -1.2714    7.1091    2.3796 C   0  0  0  0  0  0  0  0  0  0  0  0
   -8.7806    4.1140    1.2243 N   0  3  0  0  0  0  0  0  0  0  0  0
   -4.0007    0.5192    2.1091 O   0  0  0  0  0  0  0  0  0  0  0  0
   -0.9708    4.4403    6.4630 O   0  0  0  0  0  0  0  0  0  0  0  0
   -3.0471    5.9605    4.3520 O   0  0  0  0  0  0  0  0  0  0  0  0
   -2.2632    4.0914   -1.0906 O   0  0  0  0  0  0  0  0  0  0  0  0
   -0.9755    0.6661   -3.6733 O   0  0  0  0  0  0  0  0  0  0  0  0
   -0.0825    7.8092    1.8596 N   0  3  0  0  0  0  0  0  0  0  0  0
   -0.4210    2.0207    4.9585 N   0  3  0  0  0  0  0  0  0  0  0  0
  1  2  1  6  0  0  0
  1  3  1  0  0  0  0
  1 10  1  0  0  0  0
  3  4  1  6  0  0  0
  3  5  1  0  0  0  0
  5  6  1  1  0  0  0
  5  7  1  0  0  0  0
  7  8  1  6  0  0  0
  7  9  1  0  0  0  0
  9 10  1  0  0  0  0
  9 11  1  1  0  0  0
 11 35  1  0  0  0  0
 12 13  1  1  0  0  0
 12 14  1  0  0  0  0
 12 20  1  0  0  0  0
 14 15  1  0  0  0  0
 14 40  1  6  0  0  0
 15 16  1  1  0  0  0
 15 17  1  0  0  0  0
 17  2  1  6  0  0  0
 17 18  1  0  0  0  0
 18 19  1  1  0  0  0
 18 20  1  0  0  0  0
 21 16  1  6  0  0  0
 21 22  1  0  0  0  0
 21 25  1  0  0  0  0
 22 23  1  0  0  0  0
 22 36  1  1  0  0  0
 23 24  1  0  0  0  0
 23 31  1  1  0  0  0
 24 25  1  0  0  0  0
 24 26  1  6  0  0  0
 26 39  1  0  0  0  0
 27 28  1  0  0  0  0
 27 32  1  0  0  0  0
 27 38  1  6  0  0  0
 28 29  1  0  0  0  0
 28 37  1  1  0  0  0
 29 30  1  0  0  0  0
 29 42  1  1  0  0  0
 30 31  1  1  0  0  0
 30 33  1  0  0  0  0
 32 33  1  0  0  0  0
 32 34  1  6  0  0  0
 34 41  1  0  0  0  0
M  CHG  6   4   1  13   1  19   1  35   1  41   1  42   1
M  END
>  <CHROM.1>
175.52347822,132.37146880,-155.05839229,-76.05543193,-176.43519962,-66.57573262
154.94387709,-73.09806879,88.93933229,141.62263602,176.79475275,-157.66003749
-150.09082152,152.63748650,66.75667667,68.70217959,175.26295609,177.73455495
161.91434322,-172.44686881,132.10562833,152.20533229,-4.10938876,2.63573258
-0.02410098,2.30169194,-0.23187797,-1.87816895

>  <Name>


>  <RI>
0

>  <Rbt.Current_Directory>
/home/itssahil/PROJECTS/Mol_Feturizer/New_Systems/rnas/1ei2

>  <Rbt.Executable>
rbdock ($Id: //depot/dev/client3/rdock/2013.1/src/exe/rbdock.cxx#4 $)

>  <Rbt.Library>
libRbt.so (2013.1, Build901 2013/11/27)

>  <Rbt.Parameter_File>
/export/apps/rDock/src/rDock_2013.1_src/data/scripts/dock_solv.prm

>  <Rbt.Receptor>
prm/pocket_docking_7.prm

>  <SCORE>
-48.965

>  <SCORE.INTER>
-34.9362

>  <SCORE.INTER.CONST>
1

>  <SCORE.INTER.POLAR>
-6.26625

>  <SCORE.INTER.ROT>
9

>  <SCORE.INTER.SOLV>
31.0699

>  <SCORE.INTER.VDW>
-22.3599

>  <SCORE.INTER.norm>
-0.831814

>  <SCORE.INTRA>
-14.0288

>  <SCORE.INTRA.DIHEDRAL>
-5.26899

>  <SCORE.INTRA.DIHEDRAL.0>
40.8761

>  <SCORE.INTRA.POLAR>
-1.55877

>  <SCORE.INTRA.POLAR.0>
-0.0268208

>  <SCORE.INTRA.REPUL>
-0.641615

>  <SCORE.INTRA.REPUL.0>
0.641615

>  <SCORE.INTRA.SOLV>
-10.4852

>  <SCORE.INTRA.SOLV.lig_0>
-162.567

>  <SCORE.INTRA.VDW>
2.35619

>  <SCORE.INTRA.VDW.0>
-4.80338

>  <SCORE.INTRA.norm>
-0.334019

>  <SCORE.RESTR>
0

>  <SCORE.RESTR.CAVITY>
0

>  <SCORE.RESTR.norm>
0

>  <SCORE.SYSTEM>
0

>  <SCORE.SYSTEM.CONST>
0

>  <SCORE.SYSTEM.DIHEDRAL>
0

>  <SCORE.SYSTEM.SOLV>
0

>  <SCORE.SYSTEM.norm>
0

>  <SCORE.heavy>
42

>  <SCORE.norm>
-1.16583

>  <RMSD>
6.816

$$$$

 OpenBabel11021811393D
libRbt.so/2013.1/901 2013/11/27
 42 45  0  0  0  0  0  0  0  0999 V2000
   -5.4838    2.5693   -4.5291 C   0  0  2  0  0  0  0  0  0  0  0  0
   -4.1761    2.5024   -3.8817 O   0  0  0  0  0  0  0  0  0  0  0  0
   -6.2031    3.9257   -4.2351 C   0  0  2  0  0  0  0  0  0  0  0  0
   -5.2669    4.9334   -3.6862 N   0  3  0  0  0  0  0  0  0  0  0  0
   -7.4058    3.7123   -3.2671 C   0  0  1  0  0  0  0  0  0  0  0  0
   -8.0597    4.9541   -3.0146 O   0  0  0  0  0  0  0  0  0  0  0  0
   -8.4455    2.7181   -3.8501 C   0  0  2  0  0  0  0  0  0  0  0  0
   -9.3519    2.3470   -2.8174 O   0  0  0  0  0  0  0  0  0  0  0  0
   -7.7490    1.4464   -4.4341 C   0  0  2  0  0  0  0  0  0  0  0  0
   -6.3254    1.4487   -4.0895 O   0  0  0  0  0  0  0  0  0  0  0  0
   -7.8269    1.3220   -5.9731 C   0  0  0  0  0  0  0  0  0  0  0  0
   -3.1496   -1.3612   -5.5060 C   0  0  1  0  0  0  0  0  0  0  0  0
   -2.4119   -2.5863   -5.8874 N   0  3  0  0  0  0  0  0  0  0  0  0
   -3.3851   -1.2922   -3.9743 C   0  0  1  0  0  0  0  0  0  0  0  0
   -4.0293    0.0546   -3.4938 C   0  0  1  0  0  0  0  0  0  0  0  0
   -3.8982    0.1302   -2.0488 O   0  0  0  0  0  0  0  0  0  0  0  0
   -3.3346    1.3288   -4.1005 C   0  0  1  0  0  0  0  0  0  0  0  0
   -3.0973    1.1899   -5.6392 C   0  0  1  0  0  0  0  0  0  0  0  0
   -2.3136    2.3176   -6.1833 N   0  3  0  0  0  0  0  0  0  0  0  0
   -2.3650   -0.1245   -5.9912 C   0  0  0  0  0  0  0  0  0  0  0  0
   -2.5741    0.2502   -1.4528 C   0  0  1  0  0  0  0  0  0  0  0  0
   -2.1552    1.7150   -1.4920 C   0  0  1  0  0  0  0  0  0  0  0  0
   -2.9166    2.2420   -0.2832 C   0  0  1  0  0  0  0  0  0  0  0  0
   -2.7188    1.1040    0.7283 C   0  0  2  0  0  0  0  0  0  0  0  0
   -2.6273   -0.1057   -0.0615 O   0  0  0  0  0  0  0  0  0  0  0  0
   -3.8733    0.9904    1.7400 C   0  0  0  0  0  0  0  0  0  0  0  0
   -1.3584    4.9968    3.5879 C   0  0  1  0  0  0  0  0  0  0  0  0
   -1.2954    5.7411    2.2250 C   0  0  1  0  0  0  0  0  0  0  0  0
   -2.6117    5.6656    1.3986 C   0  0  2  0  0  0  0  0  0  0  0  0
   -3.0965    4.1883    1.2426 C   0  0  1  0  0  0  0  0  0  0  0  0
   -2.3554    3.4975    0.1972 O   0  0  0  0  0  0  0  0  0  0  0  0
   -2.7014    4.2186    3.7332 C   0  0  1  0  0  0  0  0  0  0  0  0
   -2.9540    3.4443    2.5153 O   0  0  0  0  0  0  0  0  0  0  0  0
   -2.7040    3.2642    4.9551 C   0  0  0  0  0  0  0  0  0  0  0  0
   -8.9074    0.4462   -6.4597 N   0  3  0  0  0  0  0  0  0  0  0  0
   -0.7432    1.8187   -1.3070 O   0  0  0  0  0  0  0  0  0  0  0  0
   -0.9938    7.1132    2.4756 O   0  0  0  0  0  0  0  0  0  0  0  0
   -0.2545    4.0917    3.6598 O   0  0  0  0  0  0  0  0  0  0  0  0
   -4.9614    0.2706    1.1864 O   0  0  0  0  0  0  0  0  0  0  0  0
   -4.2422   -2.3681   -3.5932 O   0  0  0  0  0  0  0  0  0  0  0  0
   -3.8014    2.2806    4.9122 N   0  3  0  0  0  0  0  0  0  0  0  0
   -2.4741    6.3621    0.0955 N   0  3  0  0  0  0  0  0  0  0  0  0
  1  2  1  1  0  0  0
  1  3  1  0  0  0  0
  1 10  1  0  0  0  0
  3  4  1  1  0  0  0
  3  5  1  0  0  0  0
  5  6  1  6  0  0  0
  5  7  1  0  0  0  0
  7  8  1  1  0  0  0
  7  9  1  0  0  0  0
  9 10  1  0  0  0  0
  9 11  1  6  0  0  0
 11 35  1  0  0  0  0
 12 13  1  1  0  0  0
 12 14  1  0  0  0  0
 12 20  1  0  0  0  0
 14 15  1  0  0  0  0
 14 40  1  6  0  0  0
 15 16  1  1  0  0  0
 15 17  1  0  0  0  0
 17  2  1  6  0  0  0
 17 18  1  0  0  0  0
 18 19  1  1  0  0  0
 18 20  1  0  0  0  0
 21 16  1  1  0  0  0
 21 22  1  0  0  0  0
 21 25  1  0  0  0  0
 22 23  1  0  0  0  0
 22 36  1  1  0  0  0
 23 24  1  0  0  0  0
 23 31  1  1  0  0  0
 24 25  1  0  0  0  0
 24 26  1  1  0  0  0
 26 39  1  0  0  0  0
 27 28  1  0  0  0  0
 27 32  1  0  0  0  0
 27 38  1  6  0  0  0
 28 29  1  0  0  0  0
 28 37  1  1  0  0  0
 29 30  1  0  0  0  0
 29 42  1  6  0  0  0
 30 31  1  6  0  0  0
 30 33  1  0  0  0  0
 32 33  1  0  0  0  0
 32 34  1  1  0  0  0
 34 41  1  0  0  0  0
M  CHG  6   4   1  13   1  19   1  35   1  41   1  42   1
M  END
>  <CHROM.1>
-177.13368456,-64.65906408,-29.46683836,62.45977254,63.85360329,-97.52841228
-105.00314640,-179.80475834,162.65286427,66.37618675,82.48560212,50.66113919
-66.25264096,172.50722614,82.02581368,-65.71278802,-56.82606835,-58.01536057
-134.91545988,-165.04982705,-165.15218588,-144.04458798,-3.97774052,2.21434838
-1.57605049,2.06002597,0.62102866,-2.28081689

>  <Name>


>  <RI>
0

>  <Rbt.Current_Directory>
/home/itssahil/PROJECTS/Mol_Feturizer/New_Systems/rnas/1ei2

>  <Rbt.Executable>
rbdock ($Id: //depot/dev/client3/rdock/2013.1/src/exe/rbdock.cxx#4 $)

>  <Rbt.Library>
libRbt.so (2013.1, Build901 2013/11/27)

>  <Rbt.Parameter_File>
/export/apps/rDock/src/rDock_2013.1_src/data/scripts/dock_solv.prm

>  <Rbt.Receptor>
prm/pocket_docking_6.prm

>  <SCORE>
-53.2926

>  <SCORE.INTER>
-35.8095

>  <SCORE.INTER.CONST>
1

>  <SCORE.INTER.POLAR>
-6.91938

>  <SCORE.INTER.ROT>
9

>  <SCORE.INTER.SOLV>
29.1389

>  <SCORE.INTER.VDW>
-20.1214

>  <SCORE.INTER.norm>
-0.852607

>  <SCORE.INTRA>
-17.4831

>  <SCORE.INTRA.DIHEDRAL>
-17.6818

>  <SCORE.INTRA.DIHEDRAL.0>
40.8761

>  <SCORE.INTRA.POLAR>
-0.38266

>  <SCORE.INTRA.POLAR.0>
-0.0268208

>  <SCORE.INTRA.REPUL>
-0.641615

>  <SCORE.INTRA.REPUL.0>
0.641615

>  <SCORE.INTRA.SOLV>
-13.3033

>  <SCORE.INTRA.SOLV.lig_0>
-162.567

>  <SCORE.INTRA.VDW>
2.51863

>  <SCORE.INTRA.VDW.0>
-4.80338

>  <SCORE.INTRA.norm>
-0.416263

>  <SCORE.RESTR>
0

>  <SCORE.RESTR.CAVITY>
0

>  <SCORE.RESTR.norm>
0

>  <SCORE.SYSTEM>
0

>  <SCORE.SYSTEM.CONST>
0

>  <SCORE.SYSTEM.DIHEDRAL>
0

>  <SCORE.SYSTEM.SOLV>
0

>  <SCORE.SYSTEM.norm>
0

>  <SCORE.heavy>
42

>  <SCORE.norm>
-1.26887

>  <RMSD>
6.822

$$$$

 OpenBabel11021811393D
libRbt.so/2013.1/901 2013/11/27
 42 45  0  0  0  0  0  0  0  0999 V2000
   -6.2324    1.9951   -3.8145 C   0  0  2  0  0  0  0  0  0  0  0  0
   -6.4871    1.8900   -2.3800 O   0  0  0  0  0  0  0  0  0  0  0  0
   -5.3610    0.8054   -4.3332 C   0  0  2  0  0  0  0  0  0  0  0  0
   -5.3050   -0.3008   -3.3501 N   0  3  0  0  0  0  0  0  0  0  0  0
   -3.9242    1.2912   -4.6920 C   0  0  1  0  0  0  0  0  0  0  0  0
   -3.1424    0.2001   -5.1732 O   0  0  0  0  0  0  0  0  0  0  0  0
   -3.9451    2.3989   -5.7791 C   0  0  2  0  0  0  0  0  0  0  0  0
   -2.6545    2.9948   -5.8492 O   0  0  0  0  0  0  0  0  0  0  0  0
   -5.0209    3.4871   -5.4598 C   0  0  2  0  0  0  0  0  0  0  0  0
   -5.5733    3.2714   -4.1205 O   0  0  0  0  0  0  0  0  0  0  0  0
   -6.2230    3.5054   -6.4317 C   0  0  0  0  0  0  0  0  0  0  0  0
  -10.5939    3.1459   -1.9598 C   0  0  1  0  0  0  0  0  0  0  0  0
  -11.8406    3.7668   -1.4590 N   0  3  0  0  0  0  0  0  0  0  0  0
   -9.5895    4.2141   -2.4659 C   0  0  1  0  0  0  0  0  0  0  0  0
   -8.1920    3.6271   -2.8691 C   0  0  1  0  0  0  0  0  0  0  0  0
   -7.2585    4.7319   -3.0069 O   0  0  0  0  0  0  0  0  0  0  0  0
   -7.6005    2.6366   -1.7999 C   0  0  1  0  0  0  0  0  0  0  0  0
   -8.6645    1.6034   -1.3066 C   0  0  1  0  0  0  0  0  0  0  0  0
   -8.1560    0.7703   -0.1978 N   0  3  0  0  0  0  0  0  0  0  0  0
   -9.9634    2.2962   -0.8369 C   0  0  0  0  0  0  0  0  0  0  0  0
   -7.2087    5.7630   -1.9788 C   0  0  1  0  0  0  0  0  0  0  0  0
   -7.2136    5.0870   -0.6128 C   0  0  1  0  0  0  0  0  0  0  0  0
   -5.7469    4.6920   -0.5061 C   0  0  1  0  0  0  0  0  0  0  0  0
   -5.0487    5.9343   -1.0776 C   0  0  2  0  0  0  0  0  0  0  0  0
   -5.9642    6.4771   -2.0589 O   0  0  0  0  0  0  0  0  0  0  0  0
   -3.6946    5.6145   -1.7360 C   0  0  0  0  0  0  0  0  0  0  0  0
   -1.7932    3.4060    1.8501 C   0  0  1  0  0  0  0  0  0  0  0  0
   -2.9101    3.8228    2.8472 C   0  0  1  0  0  0  0  0  0  0  0  0
   -4.2573    3.0717    2.6423 C   0  0  2  0  0  0  0  0  0  0  0  0
   -4.7310    3.1574    1.1556 C   0  0  1  0  0  0  0  0  0  0  0  0
   -5.3595    4.4403    0.8753 O   0  0  0  0  0  0  0  0  0  0  0  0
   -2.3485    2.4237    0.7745 C   0  0  1  0  0  0  0  0  0  0  0  0
   -3.5979    2.9547    0.2235 O   0  0  0  0  0  0  0  0  0  0  0  0
   -1.3434    2.1803   -0.3808 C   0  0  0  0  0  0  0  0  0  0  0  0
   -6.1137    4.4953   -7.5177 N   0  3  0  0  0  0  0  0  0  0  0  0
   -7.5752    6.0334    0.3932 O   0  0  0  0  0  0  0  0  0  0  0  0
   -2.4460    3.5710    4.1730 O   0  0  0  0  0  0  0  0  0  0  0  0
   -1.2834    4.5853    1.2238 O   0  0  0  0  0  0  0  0  0  0  0  0
   -3.8716    4.8165   -2.8939 O   0  0  0  0  0  0  0  0  0  0  0  0
  -10.1519    4.8710   -3.6015 O   0  0  0  0  0  0  0  0  0  0  0  0
   -0.3875    1.0960   -0.0905 N   0  3  0  0  0  0  0  0  0  0  0  0
   -5.2903    3.5409    3.5988 N   0  3  0  0  0  0  0  0  0  0  0  0
  1  2  1  1  0  0  0
  1  3  1  0  0  0  0
  1 10  1  0  0  0  0
  3  4  1  1  0  0  0
  3  5  1  0  0  0  0
  5  6  1  6  0  0  0
  5  7  1  0  0  0  0
  7  8  1  1  0  0  0
  7  9  1  0  0  0  0
  9 10  1  0  0  0  0
  9 11  1  6  0  0  0
 11 35  1  0  0  0  0
 12 13  1  1  0  0  0
 12 14  1  0  0  0  0
 12 20  1  0  0  0  0
 14 15  1  0  0  0  0
 14 40  1  6  0  0  0
 15 16  1  1  0  0  0
 15 17  1  0  0  0  0
 17  2  1  6  0  0  0
 17 18  1  0  0  0  0
 18 19  1  1  0  0  0
 18 20  1  0  0  0  0
 21 16  1  6  0  0  0
 21 22  1  0  0  0  0
 21 25  1  0  0  0  0
 22 23  1  0  0  0  0
 22 36  1  1  0  0  0
 23 24  1  0  0  0  0
 23 31  1  1  0  0  0
 24 25  1  0  0  0  0
 24 26  1  6  0  0  0
 26 39  1  0  0  0  0
 27 28  1  0  0  0  0
 27 32  1  0  0  0  0
 27 38  1  6  0  0  0
 28 29  1  0  0  0  0
 28 37  1  1  0  0  0
 29 30  1  0  0  0  0
 29 42  1  1  0  0  0
 30 31  1  1  0  0  0
 30 33  1  0  0  0  0
 32 33  1  0  0  0  0
 32 34  1  6  0  0  0
 34 41  1  0  0  0  0
M  CHG  6   4   1  13   1  19   1  35   1  41   1  42   1
M  END
>  <CHROM.1>
-160.66441018,-9.12798514,51.10328629,-175.79604196,114.38971439,-96.54572070
-166.16121869,68.17219343,-23.54578301,46.41019790,45.17288129,101.61633034
-166.41737486,126.37699061,66.14609441,59.53153605,-51.58417543,68.90414286
-36.14221049,175.06364893,86.49206823,-144.57082761,-5.54826435,3.34062146
-1.66596217,-2.30405894,-0.20582621,1.38876771

>  <Name>


>  <RI>
0

>  <Rbt.Current_Directory>
/home/itssahil/PROJECTS/Mol_Feturizer/New_Systems/rnas/1ei2

>  <Rbt.Executable>
rbdock ($Id: //depot/dev/client3/rdock/2013.1/src/exe/rbdock.cxx#4 $)

>  <Rbt.Library>
libRbt.so (2013.1, Build901 2013/11/27)

>  <Rbt.Parameter_File>
/export/apps/rDock/src/rDock_2013.1_src/data/scripts/dock_solv.prm

>  <Rbt.Receptor>
prm/pocket_docking_3.prm

>  <SCORE>
-33.4857

>  <SCORE.INTER>
-30.9656

>  <SCORE.INTER.CONST>
1

>  <SCORE.INTER.POLAR>
-5.72635

>  <SCORE.INTER.ROT>
9

>  <SCORE.INTER.SOLV>
31.1508

>  <SCORE.INTER.VDW>
-21.5395

>  <SCORE.INTER.norm>
-0.737277

>  <SCORE.INTRA>
-3.15795

>  <SCORE.INTRA.DIHEDRAL>
3.83739

>  <SCORE.INTRA.DIHEDRAL.0>
40.8761

>  <SCORE.INTRA.POLAR>
-0.127215

>  <SCORE.INTRA.POLAR.0>
-0.0268208

>  <SCORE.INTRA.REPUL>
-0.288733

>  <SCORE.INTRA.REPUL.0>
0.641615

>  <SCORE.INTRA.SOLV>
-12.3501

>  <SCORE.INTRA.SOLV.lig_0>
-162.567

>  <SCORE.INTRA.VDW>
2.97461

>  <SCORE.INTRA.VDW.0>
-4.80338

>  <SCORE.INTRA.norm>
-0.0751892

>  <SCORE.RESTR>
0.637916

>  <SCORE.RESTR.CAVITY>
0.637916

>  <SCORE.RESTR.norm>
0.0151885

>  <SCORE.SYSTEM>
0

>  <SCORE.SYSTEM.CONST>
0

>  <SCORE.SYSTEM.DIHEDRAL>
0

>  <SCORE.SYSTEM.SOLV>
0

>  <SCORE.SYSTEM.norm>
0

>  <SCORE.heavy>
42

>  <SCORE.norm>
-0.797277

>  <RMSD>
6.826

$$$$

 OpenBabel11021811393D
libRbt.so/2013.1/901 2013/11/27
 42 45  0  0  0  0  0  0  0  0999 V2000
   -2.6862    6.3204    3.5865 C   0  0  2  0  0  0  0  0  0  0  0  0
   -2.0204    5.0248    3.4785 O   0  0  0  0  0  0  0  0  0  0  0  0
   -2.4308    7.2061    2.3239 C   0  0  2  0  0  0  0  0  0  0  0  0
   -1.8915    6.4101    1.1976 N   0  3  0  0  0  0  0  0  0  0  0  0
   -1.4744    8.3883    2.6653 C   0  0  1  0  0  0  0  0  0  0  0  0
   -1.2572    9.1943    1.5092 O   0  0  0  0  0  0  0  0  0  0  0  0
   -2.0495    9.2882    3.7917 C   0  0  2  0  0  0  0  0  0  0  0  0
   -1.0212   10.1580    4.2517 O   0  0  0  0  0  0  0  0  0  0  0  0
   -2.5969    8.4310    4.9788 C   0  0  2  0  0  0  0  0  0  0  0  0
   -2.2338    7.0242    4.7937 O   0  0  0  0  0  0  0  0  0  0  0  0
   -4.1338    8.4689    5.1421 C   0  0  0  0  0  0  0  0  0  0  0  0
   -1.6076    1.3778    5.7475 C   0  0  1  0  0  0  0  0  0  0  0  0
   -1.8706    0.2325    6.6472 N   0  3  0  0  0  0  0  0  0  0  0  0
   -2.4715    1.3014    4.4614 C   0  0  1  0  0  0  0  0  0  0  0  0
   -2.3466    2.5645    3.5400 C   0  0  1  0  0  0  0  0  0  0  0  0
   -3.4220    2.5221    2.5639 O   0  0  0  0  0  0  0  0  0  0  0  0
   -2.4707    3.9223    4.3242 C   0  0  1  0  0  0  0  0  0  0  0  0
   -1.6021    3.9299    5.6236 C   0  0  1  0  0  0  0  0  0  0  0  0
   -1.8314    5.1416    6.4367 N   0  3  0  0  0  0  0  0  0  0  0  0
   -1.8793    2.6929    6.5072 C   0  0  0  0  0  0  0  0  0  0  0  0
   -3.6174    1.3216    1.7618 C   0  0  1  0  0  0  0  0  0  0  0  0
   -5.0906    1.2252    1.3835 C   0  0  1  0  0  0  0  0  0  0  0  0
   -5.1295    2.1997    0.2142 C   0  0  1  0  0  0  0  0  0  0  0  0
   -3.8189    1.8652   -0.5121 C   0  0  2  0  0  0  0  0  0  0  0  0
   -2.9005    1.4370    0.5217 O   0  0  0  0  0  0  0  0  0  0  0  0
   -3.2323    3.0642   -1.2787 C   0  0  0  0  0  0  0  0  0  0  0  0
   -8.7674    4.7335   -1.6277 C   0  0  1  0  0  0  0  0  0  0  0  0
   -8.7419    3.2965   -2.2192 C   0  0  1  0  0  0  0  0  0  0  0  0
   -8.7225    2.1686   -1.1475 C   0  0  2  0  0  0  0  0  0  0  0  0
   -7.5803    2.3987   -0.1063 C   0  0  1  0  0  0  0  0  0  0  0  0
   -6.2920    1.9725   -0.6336 O   0  0  0  0  0  0  0  0  0  0  0  0
   -8.6176    4.6972   -0.0764 C   0  0  1  0  0  0  0  0  0  0  0  0
   -7.4990    3.8240    0.2882 O   0  0  0  0  0  0  0  0  0  0  0  0
   -8.3850    6.1053    0.5295 C   0  0  0  0  0  0  0  0  0  0  0  0
   -4.6199    9.4742    6.1035 N   0  3  0  0  0  0  0  0  0  0  0  0
   -5.3960   -0.1056    0.9660 O   0  0  0  0  0  0  0  0  0  0  0  0
   -9.8986    3.1266   -3.0375 O   0  0  0  0  0  0  0  0  0  0  0  0
   -7.6960    5.4803   -2.2086 O   0  0  0  0  0  0  0  0  0  0  0  0
   -2.0457    2.6964   -1.9608 O   0  0  0  0  0  0  0  0  0  0  0  0
   -2.0788    0.1513    3.7127 O   0  0  0  0  0  0  0  0  0  0  0  0
   -7.0296    6.6245    0.2701 N   0  3  0  0  0  0  0  0  0  0  0  0
   -8.6608    0.8255   -1.7755 N   0  3  0  0  0  0  0  0  0  0  0  0
  1  2  1  6  0  0  0
  1  3  1  0  0  0  0
  1 10  1  0  0  0  0
  3  4  1  6  0  0  0
  3  5  1  0  0  0  0
  5  6  1  6  0  0  0
  5  7  1  0  0  0  0
  7  8  1  1  0  0  0
  7  9  1  0  0  0  0
  9 10  1  0  0  0  0
  9 11  1  6  0  0  0
 11 35  1  0  0  0  0
 12 13  1  1  0  0  0
 12 14  1  0  0  0  0
 12 20  1  0  0  0  0
 14 15  1  0  0  0  0
 14 40  1  6  0  0  0
 15 16  1  6  0  0  0
 15 17  1  0  0  0  0
 17  2  1  6  0  0  0
 17 18  1  0  0  0  0
 18 19  1  1  0  0  0
 18 20  1  0  0  0  0
 21 16  1  1  0  0  0
 21 22  1  0  0  0  0
 21 25  1  0  0  0  0
 22 23  1  0  0  0  0
 22 36  1  6  0  0  0
 23 24  1  0  0  0  0
 23 31  1  6  0  0  0
 24 25  1  0  0  0  0
 24 26  1  1  0  0  0
 26 39  1  0  0  0  0
 27 28  1  0  0  0  0
 27 32  1  0  0  0  0
 27 38  1  6  0  0  0
 28 29  1  0  0  0  0
 28 37  1  6  0  0  0
 29 30  1  0  0  0  0
 29 42  1  6  0  0  0
 30 31  1  6  0  0  0
 30 33  1  0  0  0  0
 32 33  1  0  0  0  0
 32 34  1  6  0  0  0
 34 41  1  0  0  0  0
M  CHG  6   4   1  13   1  19   1  35   1  41   1  42   1
M  END
>  <CHROM.1>
-160.65425407,145.04530909,-55.91322406,-63.43373176,-62.98401902,-94.51841576
-86.72363625,-52.28886606,40.64228124,-52.34926124,151.83455010,-59.97212401
-164.17777558,73.67911227,-178.39359288,-171.57097214,61.01007473,-56.05480871
72.50311548,176.83047902,-73.37331960,-26.83299809,-4.25807271,4.25619358
1.94826912,0.46606200,-0.80245843,0.05743970

>  <Name>


>  <RI>
0

>  <Rbt.Current_Directory>
/home/itssahil/PROJECTS/Mol_Feturizer/New_Systems/rnas/1ei2

>  <Rbt.Executable>
rbdock ($Id: //depot/dev/client3/rdock/2013.1/src/exe/rbdock.cxx#4 $)

>  <Rbt.Library>
libRbt.so (2013.1, Build901 2013/11/27)

>  <Rbt.Parameter_File>
/export/apps/rDock/src/rDock_2013.1_src/data/scripts/dock_solv.prm

>  <Rbt.Receptor>
prm/pocket_docking_7.prm

>  <SCORE>
-69.4072

>  <SCORE.INTER>
-51.0073

>  <SCORE.INTER.CONST>
1

>  <SCORE.INTER.POLAR>
-8.59805

>  <SCORE.INTER.ROT>
9

>  <SCORE.INTER.SOLV>
27.0671

>  <SCORE.INTER.VDW>
-23.9671

>  <SCORE.INTER.norm>
-1.21446

>  <SCORE.INTRA>
-18.955

>  <SCORE.INTRA.DIHEDRAL>
-17.918

>  <SCORE.INTRA.DIHEDRAL.0>
40.8761

>  <SCORE.INTRA.POLAR>
-1.1039

>  <SCORE.INTRA.POLAR.0>
-0.0268208

>  <SCORE.INTRA.REPUL>
-0.641615

>  <SCORE.INTRA.REPUL.0>
0.641615

>  <SCORE.INTRA.SOLV>
-9.02597

>  <SCORE.INTRA.SOLV.lig_0>
-162.567

>  <SCORE.INTRA.VDW>
1.47835

>  <SCORE.INTRA.VDW.0>
-4.80338

>  <SCORE.INTRA.norm>
-0.451309

>  <SCORE.RESTR>
0.555125

>  <SCORE.RESTR.CAVITY>
0.555125

>  <SCORE.RESTR.norm>
0.0132173

>  <SCORE.SYSTEM>
0

>  <SCORE.SYSTEM.CONST>
0

>  <SCORE.SYSTEM.DIHEDRAL>
0

>  <SCORE.SYSTEM.SOLV>
0

>  <SCORE.SYSTEM.norm>
0

>  <SCORE.heavy>
42

>  <SCORE.norm>
-1.65255

>  <RMSD>
6.829

$$$$

 OpenBabel11021811393D
libRbt.so/2013.1/901 2013/11/27
 42 45  0  0  0  0  0  0  0  0999 V2000
   -6.6535    3.2981   -2.7763 C   0  0  2  0  0  0  0  0  0  0  0  0
   -5.6155    3.7682   -1.8624 O   0  0  0  0  0  0  0  0  0  0  0  0
   -8.0588    3.8650   -2.3920 C   0  0  2  0  0  0  0  0  0  0  0  0
   -7.9511    4.9950   -1.4408 N   0  3  0  0  0  0  0  0  0  0  0  0
   -8.9640    2.7404   -1.8048 C   0  0  1  0  0  0  0  0  0  0  0  0
  -10.2456    3.2671   -1.4677 O   0  0  0  0  0  0  0  0  0  0  0  0
   -9.1600    1.5744   -2.8105 C   0  0  2  0  0  0  0  0  0  0  0  0
   -9.7392    0.4708   -2.1232 O   0  0  0  0  0  0  0  0  0  0  0  0
   -7.8023    1.1495   -3.4581 C   0  0  2  0  0  0  0  0  0  0  0  0
   -6.6907    1.8299   -2.7898 O   0  0  0  0  0  0  0  0  0  0  0  0
   -7.6778    1.4814   -4.9630 C   0  0  0  0  0  0  0  0  0  0  0  0
   -2.3885    1.6950   -3.8394 C   0  0  1  0  0  0  0  0  0  0  0  0
   -1.0494    1.1837   -4.2080 N   0  3  0  0  0  0  0  0  0  0  0  0
   -2.8739    1.0996   -2.4918 C   0  0  1  0  0  0  0  0  0  0  0  0
   -4.2195    1.7183   -1.9754 C   0  0  1  0  0  0  0  0  0  0  0  0
   -4.3934    1.3307   -0.5860 O   0  0  0  0  0  0  0  0  0  0  0  0
   -4.2464    3.2898   -2.0365 C   0  0  1  0  0  0  0  0  0  0  0  0
   -3.7201    3.8320   -3.4047 C   0  0  1  0  0  0  0  0  0  0  0  0
   -3.6043    5.3046   -3.4101 N   0  3  0  0  0  0  0  0  0  0  0  0
   -2.3414    3.2355   -3.7671 C   0  0  0  0  0  0  0  0  0  0  0  0
   -3.2387    1.3026    0.3021 C   0  0  1  0  0  0  0  0  0  0  0  0
   -2.9479    2.7253    0.7651 C   0  0  1  0  0  0  0  0  0  0  0  0
   -3.9878    2.8637    1.8688 C   0  0  1  0  0  0  0  0  0  0  0  0
   -3.9094    1.4867    2.5433 C   0  0  2  0  0  0  0  0  0  0  0  0
   -3.5513    0.5590    1.4913 O   0  0  0  0  0  0  0  0  0  0  0  0
   -5.2360    1.0602    3.1972 C   0  0  0  0  0  0  0  0  0  0  0  0
   -5.2226    7.2105    4.0406 C   0  0  1  0  0  0  0  0  0  0  0  0
   -3.8045    6.6970    4.4157 C   0  0  1  0  0  0  0  0  0  0  0  0
   -2.9317    6.2914    3.1931 C   0  0  2  0  0  0  0  0  0  0  0  0
   -3.6934    5.2943    2.2617 C   0  0  1  0  0  0  0  0  0  0  0  0
   -3.6493    3.9390    2.7913 O   0  0  0  0  0  0  0  0  0  0  0  0
   -5.4823    7.0542    2.5114 C   0  0  1  0  0  0  0  0  0  0  0  0
   -5.1058    5.7039    2.0853 O   0  0  0  0  0  0  0  0  0  0  0  0
   -6.9628    7.3153    2.1322 C   0  0  0  0  0  0  0  0  0  0  0  0
   -8.6856    0.8279   -5.8165 N   0  3  0  0  0  0  0  0  0  0  0  0
   -1.6201    2.8023    1.2844 O   0  0  0  0  0  0  0  0  0  0  0  0
   -3.1288    7.7278    5.1349 O   0  0  0  0  0  0  0  0  0  0  0  0
   -6.1860    6.4598    4.7831 O   0  0  0  0  0  0  0  0  0  0  0  0
   -5.5204    1.8605    4.3318 O   0  0  0  0  0  0  0  0  0  0  0  0
   -3.0513   -0.3079   -2.6496 O   0  0  0  0  0  0  0  0  0  0  0  0
   -7.8577    6.2093    2.5196 N   0  3  0  0  0  0  0  0  0  0  0  0
   -1.6072    5.7759    3.6199 N   0  3  0  0  0  0  0  0  0  0  0  0
  1  2  1  1  0  0  0
  1  3  1  0  0  0  0
  1 10  1  0  0  0  0
  3  4  1  1  0  0  0
  3  5  1  0  0  0  0
  5  6  1  6  0  0  0
  5  7  1  0  0  0  0
  7  8  1  1  0  0  0
  7  9  1  0  0  0  0
  9 10  1  0  0  0  0
  9 11  1  6  0  0  0
 11 35  1  0  0  0  0
 12 13  1  1  0  0  0
 12 14  1  0  0  0  0
 12 20  1  0  0  0  0
 14 15  1  0  0  0  0
 14 40  1  6  0  0  0
 15 16  1  1  0  0  0
 15 17  1  0  0  0  0
 17  2  1  6  0  0  0
 17 18  1  0  0  0  0
 18 19  1  1  0  0  0
 18 20  1  0  0  0  0
 21 16  1  6  0  0  0
 21 22  1  0  0  0  0
 21 25  1  0  0  0  0
 22 23  1  0  0  0  0
 22 36  1  1  0  0  0
 23 24  1  0  0  0  0
 23 31  1  1  0  0  0
 24 25  1  0  0  0  0
 24 26  1  6  0  0  0
 26 39  1  0  0  0  0
 27 28  1  0  0  0  0
 27 32  1  0  0  0  0
 27 38  1  1  0  0  0
 28 29  1  0  0  0  0
 28 37  1  6  0  0  0
 29 30  1  0  0  0  0
 29 42  1  1  0  0  0
 30 31  1  1  0  0  0
 30 33  1  0  0  0  0
 32 33  1  0  0  0  0
 32 34  1  1  0  0  0
 34 41  1  0  0  0  0
M  CHG  6   4   1  13   1  19   1  35   1  41   1  42   1
M  END
>  <CHROM.1>
177.34179467,-56.85160660,58.98626003,-178.68515208,-60.26111639,-60.72293246
140.63971839,173.85644654,66.97495002,39.15881425,80.34112660,-137.50799802
56.94220719,67.06897976,-69.26676400,-86.34346140,148.30356742,-61.17575131
76.15538150,-163.65193898,-74.32247389,-54.48842508,-5.12945689,3.38043496
-0.13766460,1.83082735,0.20765461,-2.14463182

>  <Name>


>  <RI>
0

>  <Rbt.Current_Directory>
/home/itssahil/PROJECTS/Mol_Feturizer/New_Systems/rnas/1ei2

>  <Rbt.Executable>
rbdock ($Id: //depot/dev/client3/rdock/2013.1/src/exe/rbdock.cxx#4 $)

>  <Rbt.Library>
libRbt.so (2013.1, Build901 2013/11/27)

>  <Rbt.Parameter_File>
/export/apps/rDock/src/rDock_2013.1_src/data/scripts/dock_solv.prm

>  <Rbt.Receptor>
prm/pocket_docking_8.prm

>  <SCORE>
-39.0537

>  <SCORE.INTER>
-22.3096

>  <SCORE.INTER.CONST>
1

>  <SCORE.INTER.POLAR>
-3.96749

>  <SCORE.INTER.ROT>
9

>  <SCORE.INTER.SOLV>
19.6615

>  <SCORE.INTER.VDW>
-17.802

>  <SCORE.INTER.norm>
-0.531182

>  <SCORE.INTRA>
-16.744

>  <SCORE.INTRA.DIHEDRAL>
-20.1334

>  <SCORE.INTRA.DIHEDRAL.0>
40.8761

>  <SCORE.INTRA.POLAR>
-0.130819

>  <SCORE.INTRA.POLAR.0>
-0.0268208

>  <SCORE.INTRA.REPUL>
-0.641615

>  <SCORE.INTRA.REPUL.0>
0.641615

>  <SCORE.INTRA.SOLV>
-9.73526

>  <SCORE.INTRA.SOLV.lig_0>
-162.567

>  <SCORE.INTRA.VDW>
1.84315

>  <SCORE.INTRA.VDW.0>
-4.80338

>  <SCORE.INTRA.norm>
-0.398668

>  <SCORE.RESTR>
0

>  <SCORE.RESTR.CAVITY>
0

>  <SCORE.RESTR.norm>
0

>  <SCORE.SYSTEM>
0

>  <SCORE.SYSTEM.CONST>
0

>  <SCORE.SYSTEM.DIHEDRAL>
0

>  <SCORE.SYSTEM.SOLV>
0

>  <SCORE.SYSTEM.norm>
0

>  <SCORE.heavy>
42

>  <SCORE.norm>
-0.92985

>  <RMSD>
6.859

$$$$

 OpenBabel11021811393D
libRbt.so/2013.1/901 2013/11/27
 42 45  0  0  0  0  0  0  0  0999 V2000
   -4.2305    2.4761    1.1985 C   0  0  2  0  0  0  0  0  0  0  0  0
   -5.2632    3.1799    1.9548 O   0  0  0  0  0  0  0  0  0  0  0  0
   -3.4915    1.4178    2.0803 C   0  0  2  0  0  0  0  0  0  0  0  0
   -4.2320    1.1355    3.3314 N   0  3  0  0  0  0  0  0  0  0  0  0
   -2.0388    1.8842    2.3981 C   0  0  1  0  0  0  0  0  0  0  0  0
   -1.3719    0.9067    3.1939 O   0  0  0  0  0  0  0  0  0  0  0  0
   -1.2114    2.1140    1.1051 C   0  0  2  0  0  0  0  0  0  0  0  0
   -0.0148    2.8056    1.4451 O   0  0  0  0  0  0  0  0  0  0  0  0
   -2.0230    2.9343    0.0506 C   0  0  2  0  0  0  0  0  0  0  0  0
   -3.2634    3.4345    0.6476 O   0  0  0  0  0  0  0  0  0  0  0  0
   -2.4337    2.1339   -1.2068 C   0  0  0  0  0  0  0  0  0  0  0  0
   -8.0530    6.4624    1.7063 C   0  0  1  0  0  0  0  0  0  0  0  0
   -8.8721    7.5899    1.2080 N   0  3  0  0  0  0  0  0  0  0  0  0
   -8.5141    5.1118    1.0984 C   0  0  1  0  0  0  0  0  0  0  0  0
   -7.5892    3.9015    1.4726 C   0  0  1  0  0  0  0  0  0  0  0  0
   -7.9237    2.7883    0.6010 O   0  0  0  0  0  0  0  0  0  0  0  0
   -6.0576    4.2070    1.2858 C   0  0  1  0  0  0  0  0  0  0  0  0
   -5.6581    5.5914    1.8915 C   0  0  1  0  0  0  0  0  0  0  0  0
   -4.2569    5.9462    1.5871 N   0  3  0  0  0  0  0  0  0  0  0  0
   -6.5694    6.7282    1.3767 C   0  0  0  0  0  0  0  0  0  0  0  0
   -9.2840    2.6543    0.0966 C   0  0  1  0  0  0  0  0  0  0  0  0
   -9.3099    3.1116   -1.3571 C   0  0  1  0  0  0  0  0  0  0  0  0
   -8.7690    1.8622   -2.0388 C   0  0  1  0  0  0  0  0  0  0  0  0
   -9.4837    0.7493   -1.2591 C   0  0  2  0  0  0  0  0  0  0  0  0
   -9.6675    1.2695    0.0792 O   0  0  0  0  0  0  0  0  0  0  0  0
   -8.6815   -0.5635   -1.2118 C   0  0  0  0  0  0  0  0  0  0  0  0
   -8.0476    2.4104   -7.0995 C   0  0  1  0  0  0  0  0  0  0  0  0
   -7.4079    3.0967   -5.8605 C   0  0  1  0  0  0  0  0  0  0  0  0
   -6.9874    2.1092   -4.7339 C   0  0  2  0  0  0  0  0  0  0  0  0
   -8.1686    1.1645   -4.3413 C   0  0  1  0  0  0  0  0  0  0  0  0
   -9.1086    1.8355   -3.4551 O   0  0  0  0  0  0  0  0  0  0  0  0
   -8.2490    0.8854   -6.8464 C   0  0  1  0  0  0  0  0  0  0  0  0
   -8.8884    0.6846   -5.5435 O   0  0  0  0  0  0  0  0  0  0  0  0
   -9.1082    0.2106   -7.9465 C   0  0  0  0  0  0  0  0  0  0  0  0
   -2.6146    0.6896   -0.9776 N   0  3  0  0  0  0  0  0  0  0  0  0
  -10.6541    3.3840   -1.7539 O   0  0  0  0  0  0  0  0  0  0  0  0
   -6.2521    3.8145   -6.2909 O   0  0  0  0  0  0  0  0  0  0  0  0
   -9.3052    3.0362   -7.3636 O   0  0  0  0  0  0  0  0  0  0  0  0
   -9.4960   -1.6381   -0.7755 O   0  0  0  0  0  0  0  0  0  0  0  0
   -9.8372    4.8314    1.5545 O   0  0  0  0  0  0  0  0  0  0  0  0
   -8.4102    0.1157   -9.2418 N   0  3  0  0  0  0  0  0  0  0  0  0
   -6.4195    2.8287   -3.5668 N   0  3  0  0  0  0  0  0  0  0  0  0
  1  2  1  1  0  0  0
  1  3  1  0  0  0  0
  1 10  1  0  0  0  0
  3  4  1  1  0  0  0
  3  5  1  0  0  0  0
  5  6  1  1  0  0  0
  5  7  1  0  0  0  0
  7  8  1  1  0  0  0
  7  9  1  0  0  0  0
  9 10  1  0  0  0  0
  9 11  1  6  0  0  0
 11 35  1  0  0  0  0
 12 13  1  6  0  0  0
 12 14  1  0  0  0  0
 12 20  1  0  0  0  0
 14 15  1  0  0  0  0
 14 40  1  1  0  0  0
 15 16  1  6  0  0  0
 15 17  1  0  0  0  0
 17  2  1  1  0  0  0
 17 18  1  0  0  0  0
 18 19  1  6  0  0  0
 18 20  1  0  0  0  0
 21 16  1  6  0  0  0
 21 22  1  0  0  0  0
 21 25  1  0  0  0  0
 22 23  1  0  0  0  0
 22 36  1  6  0  0  0
 23 24  1  0  0  0  0
 23 31  1  6  0  0  0
 24 25  1  0  0  0  0
 24 26  1  1  0  0  0
 26 39  1  0  0  0  0
 27 28  1  0  0  0  0
 27 32  1  0  0  0  0
 27 38  1  1  0  0  0
 28 29  1  0  0  0  0
 28 37  1  6  0  0  0
 29 30  1  0  0  0  0
 29 42  1  1  0  0  0
 30 31  1  1  0  0  0
 30 33  1  0  0  0  0
 32 33  1  0  0  0  0
 32 34  1  6  0  0  0
 34 41  1  0  0  0  0
M  CHG  6   4   1  13   1  19   1  35   1  41   1  42   1
M  END
>  <CHROM.1>
-179.94448146,126.73236291,-157.47179429,179.08566995,-162.65793106,28.63392007
165.18946609,57.76639562,-76.68421330,-29.93711511,103.26332600,96.47637625
-50.21587173,149.38577914,-165.92307145,67.09799454,-63.46865267,-58.99637077
173.73539738,-82.68067109,70.12137883,51.14039194,-6.59513467,2.63826970
-1.23528154,-0.97002943,0.31443711,-1.99448546

>  <Name>


>  <RI>
0

>  <Rbt.Current_Directory>
/home/itssahil/PROJECTS/Mol_Feturizer/New_Systems/rnas/1ei2

>  <Rbt.Executable>
rbdock ($Id: //depot/dev/client3/rdock/2013.1/src/exe/rbdock.cxx#4 $)

>  <Rbt.Library>
libRbt.so (2013.1, Build901 2013/11/27)

>  <Rbt.Parameter_File>
/export/apps/rDock/src/rDock_2013.1_src/data/scripts/dock_solv.prm

>  <Rbt.Receptor>
prm/pocket_docking_6.prm

>  <SCORE>
-44.3948

>  <SCORE.INTER>
-32.4575

>  <SCORE.INTER.CONST>
1

>  <SCORE.INTER.POLAR>
-4.08103

>  <SCORE.INTER.ROT>
9

>  <SCORE.INTER.SOLV>
19.4624

>  <SCORE.INTER.VDW>
-24.1224

>  <SCORE.INTER.norm>
-0.772798

>  <SCORE.INTRA>
-11.9373

>  <SCORE.INTRA.DIHEDRAL>
-6.24517

>  <SCORE.INTRA.DIHEDRAL.0>
40.8761

>  <SCORE.INTRA.POLAR>
-1.40734

>  <SCORE.INTRA.POLAR.0>
-0.0268208

>  <SCORE.INTRA.REPUL>
-0.641615

>  <SCORE.INTRA.REPUL.0>
0.641615

>  <SCORE.INTRA.SOLV>
-7.52959

>  <SCORE.INTRA.SOLV.lig_0>
-162.567

>  <SCORE.INTRA.VDW>
2.94314

>  <SCORE.INTRA.VDW.0>
-4.80338

>  <SCORE.INTRA.norm>
-0.284221

>  <SCORE.RESTR>
0

>  <SCORE.RESTR.CAVITY>
0

>  <SCORE.RESTR.norm>
0

>  <SCORE.SYSTEM>
0

>  <SCORE.SYSTEM.CONST>
0

>  <SCORE.SYSTEM.DIHEDRAL>
0

>  <SCORE.SYSTEM.SOLV>
0

>  <SCORE.SYSTEM.norm>
0

>  <SCORE.heavy>
42

>  <SCORE.norm>
-1.05702

>  <RMSD>
6.891

$$$$

 OpenBabel11021811393D
libRbt.so/2013.1/901 2013/11/27
 42 45  0  0  0  0  0  0  0  0999 V2000
   -3.4555    1.9986   -0.2652 C   0  0  2  0  0  0  0  0  0  0  0  0
   -3.0981    1.4780   -1.5824 O   0  0  0  0  0  0  0  0  0  0  0  0
   -2.2253    2.6433    0.4523 C   0  0  2  0  0  0  0  0  0  0  0  0
   -1.1094    2.8886   -0.4899 N   0  3  0  0  0  0  0  0  0  0  0  0
   -1.7520    1.7524    1.6402 C   0  0  1  0  0  0  0  0  0  0  0  0
   -0.6366    2.3554    2.2927 O   0  0  0  0  0  0  0  0  0  0  0  0
   -2.8788    1.5406    2.6865 C   0  0  2  0  0  0  0  0  0  0  0  0
   -2.4862    0.5020    3.5770 O   0  0  0  0  0  0  0  0  0  0  0  0
   -4.2318    1.1715    1.9962 C   0  0  2  0  0  0  0  0  0  0  0  0
   -4.0185    0.9279    0.5678 O   0  0  0  0  0  0  0  0  0  0  0  0
   -5.3219    2.2632    2.0964 C   0  0  0  0  0  0  0  0  0  0  0  0
   -3.2077    2.6525   -5.7331 C   0  0  1  0  0  0  0  0  0  0  0  0
   -3.6462    3.1820   -7.0437 N   0  3  0  0  0  0  0  0  0  0  0  0
   -3.0178    3.7890   -4.6946 C   0  0  1  0  0  0  0  0  0  0  0  0
   -2.6992    3.2761   -3.2471 C   0  0  1  0  0  0  0  0  0  0  0  0
   -2.8668    4.3864   -2.3251 O   0  0  0  0  0  0  0  0  0  0  0  0
   -3.6519    2.1177   -2.7729 C   0  0  1  0  0  0  0  0  0  0  0  0
   -3.8277    1.0179   -3.8695 C   0  0  1  0  0  0  0  0  0  0  0  0
   -4.8352    0.0082   -3.4857 N   0  3  0  0  0  0  0  0  0  0  0  0
   -4.2414    1.6237   -5.2296 C   0  0  0  0  0  0  0  0  0  0  0  0
   -3.7880    5.4647   -2.6589 C   0  0  1  0  0  0  0  0  0  0  0  0
   -5.1072    4.8525   -3.1146 C   0  0  1  0  0  0  0  0  0  0  0  0
   -5.7312    4.5293   -1.7638 C   0  0  1  0  0  0  0  0  0  0  0  0
   -5.3610    5.7742   -0.9452 C   0  0  2  0  0  0  0  0  0  0  0  0
   -4.0961    6.2298   -1.4821 O   0  0  0  0  0  0  0  0  0  0  0  0
   -5.2245    5.4860    0.5607 C   0  0  0  0  0  0  0  0  0  0  0  0
  -10.5090    4.8182   -0.0222 C   0  0  1  0  0  0  0  0  0  0  0  0
  -10.3141    4.0067   -1.3332 C   0  0  1  0  0  0  0  0  0  0  0  0
   -9.1556    2.9698   -1.2722 C   0  0  2  0  0  0  0  0  0  0  0  0
   -7.8275    3.6350   -0.7868 C   0  0  1  0  0  0  0  0  0  0  0  0
   -7.1742    4.3587   -1.8679 O   0  0  0  0  0  0  0  0  0  0  0  0
   -9.3821    4.4922    1.0045 C   0  0  1  0  0  0  0  0  0  0  0  0
   -8.0780    4.5626    0.3404 O   0  0  0  0  0  0  0  0  0  0  0  0
   -9.3897    5.4562    2.2187 C   0  0  0  0  0  0  0  0  0  0  0  0
   -5.6012    2.7212    3.4688 N   0  3  0  0  0  0  0  0  0  0  0  0
   -5.8721    5.8267   -3.8248 O   0  0  0  0  0  0  0  0  0  0  0  0
  -11.5292    3.3147   -1.6184 O   0  0  0  0  0  0  0  0  0  0  0  0
  -10.4926    6.2103   -0.3459 O   0  0  0  0  0  0  0  0  0  0  0  0
   -5.4690    6.6553    1.3232 O   0  0  0  0  0  0  0  0  0  0  0  0
   -1.9477    4.6298   -5.1252 O   0  0  0  0  0  0  0  0  0  0  0  0
  -10.7486    5.8709    2.6133 N   0  3  0  0  0  0  0  0  0  0  0  0
   -8.9981    2.2565   -2.5639 N   0  3  0  0  0  0  0  0  0  0  0  0
  1  2  1  6  0  0  0
  1  3  1  0  0  0  0
  1 10  1  0  0  0  0
  3  4  1  6  0  0  0
  3  5  1  0  0  0  0
  5  6  1  1  0  0  0
  5  7  1  0  0  0  0
  7  8  1  1  0  0  0
  7  9  1  0  0  0  0
  9 10  1  0  0  0  0
  9 11  1  6  0  0  0
 11 35  1  0  0  0  0
 12 13  1  6  0  0  0
 12 14  1  0  0  0  0
 12 20  1  0  0  0  0
 14 15  1  0  0  0  0
 14 40  1  6  0  0  0
 15 16  1  1  0  0  0
 15 17  1  0  0  0  0
 17  2  1  1  0  0  0
 17 18  1  0  0  0  0
 18 19  1  1  0  0  0
 18 20  1  0  0  0  0
 21 16  1  1  0  0  0
 21 22  1  0  0  0  0
 21 25  1  0  0  0  0
 22 23  1  0  0  0  0
 22 36  1  1  0  0  0
 23 24  1  0  0  0  0
 23 31  1  6  0  0  0
 24 25  1  0  0  0  0
 24 26  1  1  0  0  0
 26 39  1  0  0  0  0
 27 28  1  0  0  0  0
 27 32  1  0  0  0  0
 27 38  1  6  0  0  0
 28 29  1  0  0  0  0
 28 37  1  1  0  0  0
 29 30  1  0  0  0  0
 29 42  1  6  0  0  0
 30 31  1  6  0  0  0
 30 33  1  0  0  0  0
 32 33  1  0  0  0  0
 32 34  1  1  0  0  0
 34 41  1  0  0  0  0
M  CHG  6   4   1  13   1  19   1  35   1  41   1  42   1
M  END
>  <CHROM.1>
-112.64390496,89.50546716,-61.23408176,-172.89485138,80.46085395,-53.54532999
72.59117695,-30.86981774,-56.77845676,27.06759765,47.79932235,-163.44907728
-54.69502705,160.48628403,-154.30936466,-53.14378817,-54.37659923,-54.72184255
-75.48251701,-154.42529427,34.99225906,63.03453173,-5.36980674,3.48475020
-0.99629145,-0.31116079,-0.34044696,1.68084102

>  <Name>


>  <RI>
0

>  <Rbt.Current_Directory>
/home/itssahil/PROJECTS/Mol_Feturizer/New_Systems/rnas/1ei2

>  <Rbt.Executable>
rbdock ($Id: //depot/dev/client3/rdock/2013.1/src/exe/rbdock.cxx#4 $)

>  <Rbt.Library>
libRbt.so (2013.1, Build901 2013/11/27)

>  <Rbt.Parameter_File>
/export/apps/rDock/src/rDock_2013.1_src/data/scripts/dock_solv.prm

>  <Rbt.Receptor>
prm/pocket_docking_2.prm

>  <SCORE>
-36.7301

>  <SCORE.INTER>
-23.0487

>  <SCORE.INTER.CONST>
1

>  <SCORE.INTER.POLAR>
-2.59159

>  <SCORE.INTER.ROT>
9

>  <SCORE.INTER.SOLV>
25.1328

>  <SCORE.INTER.VDW>
-24.7047

>  <SCORE.INTER.norm>
-0.548778

>  <SCORE.INTRA>
-15.7509

>  <SCORE.INTRA.DIHEDRAL>
-9.83767

>  <SCORE.INTRA.DIHEDRAL.0>
40.8761

>  <SCORE.INTRA.POLAR>
-1.36054

>  <SCORE.INTRA.POLAR.0>
-0.0268208

>  <SCORE.INTRA.REPUL>
-0.641615

>  <SCORE.INTRA.REPUL.0>
0.641615

>  <SCORE.INTRA.SOLV>
-8.41915

>  <SCORE.INTRA.SOLV.lig_0>
-162.567

>  <SCORE.INTRA.VDW>
1.21141

>  <SCORE.INTRA.VDW.0>
-4.80338

>  <SCORE.INTRA.norm>
-0.375022

>  <SCORE.RESTR>
2.06951

>  <SCORE.RESTR.CAVITY>
2.06951

>  <SCORE.RESTR.norm>
0.049274

>  <SCORE.SYSTEM>
0

>  <SCORE.SYSTEM.CONST>
0

>  <SCORE.SYSTEM.DIHEDRAL>
0

>  <SCORE.SYSTEM.SOLV>
0

>  <SCORE.SYSTEM.norm>
0

>  <SCORE.heavy>
42

>  <SCORE.norm>
-0.874526

>  <RMSD>
6.894

$$$$

 OpenBabel11021811393D
libRbt.so/2013.1/901 2013/11/27
 42 45  0  0  0  0  0  0  0  0999 V2000
   -8.3471    2.3464   -1.8153 C   0  0  2  0  0  0  0  0  0  0  0  0
   -8.1599    3.4093   -0.8310 O   0  0  0  0  0  0  0  0  0  0  0  0
   -9.1691    1.1543   -1.2262 C   0  0  2  0  0  0  0  0  0  0  0  0
   -9.8499    1.5295    0.0342 N   0  3  0  0  0  0  0  0  0  0  0  0
   -8.2548   -0.0883   -1.0049 C   0  0  1  0  0  0  0  0  0  0  0  0
   -9.0173   -1.1717   -0.4772 O   0  0  0  0  0  0  0  0  0  0  0  0
   -7.5861   -0.5545   -2.3258 C   0  0  2  0  0  0  0  0  0  0  0  0
   -6.5583   -1.4880   -2.0130 O   0  0  0  0  0  0  0  0  0  0  0  0
   -6.9892    0.6544   -3.1169 C   0  0  2  0  0  0  0  0  0  0  0  0
   -7.0454    1.8684   -2.2995 O   0  0  0  0  0  0  0  0  0  0  0  0
   -7.7228    0.9815   -4.4380 C   0  0  0  0  0  0  0  0  0  0  0  0
   -7.1229    6.4453   -3.7166 C   0  0  1  0  0  0  0  0  0  0  0  0
   -6.7374    7.7284   -4.3454 N   0  3  0  0  0  0  0  0  0  0  0  0
   -5.9546    5.8407   -2.8945 C   0  0  1  0  0  0  0  0  0  0  0  0
   -6.3499    4.5580   -2.0832 C   0  0  1  0  0  0  0  0  0  0  0  0
   -5.2943    4.2853   -1.1228 O   0  0  0  0  0  0  0  0  0  0  0  0
   -7.6926    4.7184   -1.2797 C   0  0  1  0  0  0  0  0  0  0  0  0
   -8.8229    5.3581   -2.1492 C   0  0  1  0  0  0  0  0  0  0  0  0
  -10.0360    5.6463   -1.3571 N   0  3  0  0  0  0  0  0  0  0  0  0
   -8.3585    6.6702   -2.8203 C   0  0  0  0  0  0  0  0  0  0  0  0
   -3.9014    4.3944   -1.5360 C   0  0  1  0  0  0  0  0  0  0  0  0
   -3.3707    5.7546   -1.0990 C   0  0  1  0  0  0  0  0  0  0  0  0
   -3.0746    5.4665    0.3665 C   0  0  1  0  0  0  0  0  0  0  0  0
   -2.4647    4.0596    0.2890 C   0  0  2  0  0  0  0  0  0  0  0  0
   -3.1051    3.4207   -0.8411 O   0  0  0  0  0  0  0  0  0  0  0  0
   -2.6953    3.2322    1.5663 C   0  0  0  0  0  0  0  0  0  0  0  0
    0.4674    5.7828    3.6672 C   0  0  1  0  0  0  0  0  0  0  0  0
    0.3282    7.1020    2.8574 C   0  0  1  0  0  0  0  0  0  0  0  0
   -1.1168    7.6782    2.8253 C   0  0  2  0  0  0  0  0  0  0  0  0
   -2.1467    6.5947    2.3702 C   0  0  1  0  0  0  0  0  0  0  0  0
   -2.1379    6.4331    0.9235 O   0  0  0  0  0  0  0  0  0  0  0  0
   -0.9280    5.2708    4.1372 C   0  0  1  0  0  0  0  0  0  0  0  0
   -1.8627    5.2889    3.0091 O   0  0  0  0  0  0  0  0  0  0  0  0
   -0.8658    3.8379    4.7262 C   0  0  0  0  0  0  0  0  0  0  0  0
   -7.0762    2.0262   -5.2514 N   0  3  0  0  0  0  0  0  0  0  0  0
   -2.1793    6.0634   -1.8228 O   0  0  0  0  0  0  0  0  0  0  0  0
    1.1942    8.0778    3.4354 O   0  0  0  0  0  0  0  0  0  0  0  0
    1.0957    4.8056    2.8345 O   0  0  0  0  0  0  0  0  0  0  0  0
   -2.0720    1.9633    1.4660 O   0  0  0  0  0  0  0  0  0  0  0  0
   -4.8917    5.5054   -3.7862 O   0  0  0  0  0  0  0  0  0  0  0  0
   -2.1345    3.4185    5.3496 N   0  3  0  0  0  0  0  0  0  0  0  0
   -1.1893    8.9142    2.0073 N   0  3  0  0  0  0  0  0  0  0  0  0
  1  2  1  1  0  0  0
  1  3  1  0  0  0  0
  1 10  1  0  0  0  0
  3  4  1  1  0  0  0
  3  5  1  0  0  0  0
  5  6  1  6  0  0  0
  5  7  1  0  0  0  0
  7  8  1  1  0  0  0
  7  9  1  0  0  0  0
  9 10  1  0  0  0  0
  9 11  1  6  0  0  0
 11 35  1  0  0  0  0
 12 13  1  1  0  0  0
 12 14  1  0  0  0  0
 12 20  1  0  0  0  0
 14 15  1  0  0  0  0
 14 40  1  6  0  0  0
 15 16  1  1  0  0  0
 15 17  1  0  0  0  0
 17  2  1  6  0  0  0
 17 18  1  0  0  0  0
 18 19  1  1  0  0  0
 18 20  1  0  0  0  0
 21 16  1  1  0  0  0
 21 22  1  0  0  0  0
 21 25  1  0  0  0  0
 22 23  1  0  0  0  0
 22 36  1  6  0  0  0
 23 24  1  0  0  0  0
 23 31  1  6  0  0  0
 24 25  1  0  0  0  0
 24 26  1  1  0  0  0
 26 39  1  0  0  0  0
 27 28  1  0  0  0  0
 27 32  1  0  0  0  0
 27 38  1  6  0  0  0
 28 29  1  0  0  0  0
 28 37  1  1  0  0  0
 29 30  1  0  0  0  0
 29 42  1  6  0  0  0
 30 31  1  6  0  0  0
 30 33  1  0  0  0  0
 32 33  1  0  0  0  0
 32 34  1  6  0  0  0
 34 41  1  0  0  0  0
M  CHG  6   4   1  13   1  19   1  35   1  41   1  42   1
M  END
>  <CHROM.1>
-166.02207303,-54.82506277,161.77483975,179.84746386,179.62562838,-173.86256848
56.86921318,-66.08057323,-58.06013221,-43.15512414,98.22606924,-147.39414974
66.47076609,157.79889729,-177.78915288,178.65481411,62.80499512,-54.66532018
-56.94043258,-178.89300234,171.70715461,-173.96273168,-4.72732961,4.15661858
-0.32250504,-3.02566220,-0.71207148,-0.45081390

>  <Name>


>  <RI>
0

>  <Rbt.Current_Directory>
/home/itssahil/PROJECTS/Mol_Feturizer/New_Systems/rnas/1ei2

>  <Rbt.Executable>
rbdock ($Id: //depot/dev/client3/rdock/2013.1/src/exe/rbdock.cxx#4 $)

>  <Rbt.Library>
libRbt.so (2013.1, Build901 2013/11/27)

>  <Rbt.Parameter_File>
/export/apps/rDock/src/rDock_2013.1_src/data/scripts/dock_solv.prm

>  <Rbt.Receptor>
prm/pocket_docking_7.prm

>  <SCORE>
-48.8687

>  <SCORE.INTER>
-28.5614

>  <SCORE.INTER.CONST>
1

>  <SCORE.INTER.POLAR>
-4.2521

>  <SCORE.INTER.ROT>
9

>  <SCORE.INTER.SOLV>
26.2612

>  <SCORE.INTER.VDW>
-23.221

>  <SCORE.INTER.norm>
-0.680033

>  <SCORE.INTRA>
-20.3074

>  <SCORE.INTRA.DIHEDRAL>
-26.6325

>  <SCORE.INTRA.DIHEDRAL.0>
40.8761

>  <SCORE.INTRA.POLAR>
0.0268208

>  <SCORE.INTRA.POLAR.0>
-0.0268208

>  <SCORE.INTRA.REPUL>
-0.572155

>  <SCORE.INTRA.REPUL.0>
0.641615

>  <SCORE.INTRA.SOLV>
-11.7691

>  <SCORE.INTRA.SOLV.lig_0>
-162.567

>  <SCORE.INTRA.VDW>
1.66302

>  <SCORE.INTRA.VDW.0>
-4.80338

>  <SCORE.INTRA.norm>
-0.483508

>  <SCORE.RESTR>
0

>  <SCORE.RESTR.CAVITY>
0

>  <SCORE.RESTR.norm>
0

>  <SCORE.SYSTEM>
0

>  <SCORE.SYSTEM.CONST>
0

>  <SCORE.SYSTEM.DIHEDRAL>
0

>  <SCORE.SYSTEM.SOLV>
0

>  <SCORE.SYSTEM.norm>
0

>  <SCORE.heavy>
42

>  <SCORE.norm>
-1.16354

>  <RMSD>
6.902

$$$$

 OpenBabel11021811393D
libRbt.so/2013.1/901 2013/11/27
 42 45  0  0  0  0  0  0  0  0999 V2000
   -4.7624    1.9613   -3.2931 C   0  0  2  0  0  0  0  0  0  0  0  0
   -3.8622    1.2106   -2.4214 O   0  0  0  0  0  0  0  0  0  0  0  0
   -5.1583    1.1356   -4.5601 C   0  0  2  0  0  0  0  0  0  0  0  0
   -4.8266   -0.2991   -4.4035 N   0  3  0  0  0  0  0  0  0  0  0  0
   -4.4742    1.7192   -5.8330 C   0  0  1  0  0  0  0  0  0  0  0  0
   -4.8506    0.9646   -6.9829 O   0  0  0  0  0  0  0  0  0  0  0  0
   -4.8648    3.2029   -6.0685 C   0  0  2  0  0  0  0  0  0  0  0  0
   -3.9980    3.7527   -7.0544 O   0  0  0  0  0  0  0  0  0  0  0  0
   -4.7669    4.0319   -4.7468 C   0  0  2  0  0  0  0  0  0  0  0  0
   -4.1396    3.2295   -3.6942 O   0  0  0  0  0  0  0  0  0  0  0  0
   -6.1269    4.5058   -4.1846 C   0  0  0  0  0  0  0  0  0  0  0  0
   -1.3104    1.7851    1.0105 C   0  0  1  0  0  0  0  0  0  0  0  0
   -0.3340    2.3461    1.9709 N   0  3  0  0  0  0  0  0  0  0  0  0
   -2.6116    2.6281    0.9639 C   0  0  1  0  0  0  0  0  0  0  0  0
   -3.6227    2.1695   -0.1440 C   0  0  1  0  0  0  0  0  0  0  0  0
   -4.6238    3.2104   -0.3036 O   0  0  0  0  0  0  0  0  0  0  0  0
   -2.9484    1.9407   -1.5465 C   0  0  1  0  0  0  0  0  0  0  0  0
   -1.6285    1.1112   -1.4336 C   0  0  1  0  0  0  0  0  0  0  0  0
   -0.9172    1.0224   -2.7252 N   0  3  0  0  0  0  0  0  0  0  0  0
   -0.6615    1.7098   -0.3873 C   0  0  0  0  0  0  0  0  0  0  0  0
   -4.2158    4.5386   -0.7419 C   0  0  1  0  0  0  0  0  0  0  0  0
   -5.4650    5.3414   -1.0852 C   0  0  1  0  0  0  0  0  0  0  0  0
   -5.9000    5.7667    0.3106 C   0  0  1  0  0  0  0  0  0  0  0  0
   -4.5543    6.1164    0.9618 C   0  0  2  0  0  0  0  0  0  0  0  0
   -3.5833    5.2406    0.3407 O   0  0  0  0  0  0  0  0  0  0  0  0
   -4.5526    5.9123    2.4875 C   0  0  0  0  0  0  0  0  0  0  0  0
   -9.2816    4.0652    0.9229 C   0  0  1  0  0  0  0  0  0  0  0  0
   -9.0948    5.3178    1.8238 C   0  0  1  0  0  0  0  0  0  0  0  0
   -9.1464    6.6683    1.0525 C   0  0  2  0  0  0  0  0  0  0  0  0
   -8.1632    6.6627   -0.1620 C   0  0  1  0  0  0  0  0  0  0  0  0
   -6.7948    6.9152    0.2657 O   0  0  0  0  0  0  0  0  0  0  0  0
   -9.3307    4.4672   -0.5825 C   0  0  1  0  0  0  0  0  0  0  0  0
   -8.2183    5.3714   -0.8853 O   0  0  0  0  0  0  0  0  0  0  0  0
   -9.2621    3.2389   -1.5262 C   0  0  0  0  0  0  0  0  0  0  0  0
   -6.4925    5.8842   -4.5554 N   0  3  0  0  0  0  0  0  0  0  0  0
   -5.1100    6.4671   -1.8885 O   0  0  0  0  0  0  0  0  0  0  0  0
  -10.1245    5.3187    2.8117 O   0  0  0  0  0  0  0  0  0  0  0  0
   -8.1908    3.1722    1.1590 O   0  0  0  0  0  0  0  0  0  0  0  0
   -5.6845    6.5253    3.0806 O   0  0  0  0  0  0  0  0  0  0  0  0
   -3.2586    2.5437    2.2334 O   0  0  0  0  0  0  0  0  0  0  0  0
  -10.5114    2.4559   -1.5401 N   0  3  0  0  0  0  0  0  0  0  0  0
   -8.9246    7.8202    1.9615 N   0  3  0  0  0  0  0  0  0  0  0  0
  1  2  1  1  0  0  0
  1  3  1  0  0  0  0
  1 10  1  0  0  0  0
  3  4  1  1  0  0  0
  3  5  1  0  0  0  0
  5  6  1  6  0  0  0
  5  7  1  0  0  0  0
  7  8  1  6  0  0  0
  7  9  1  0  0  0  0
  9 10  1  0  0  0  0
  9 11  1  1  0  0  0
 11 35  1  0  0  0  0
 12 13  1  1  0  0  0
 12 14  1  0  0  0  0
 12 20  1  0  0  0  0
 14 15  1  0  0  0  0
 14 40  1  1  0  0  0
 15 16  1  6  0  0  0
 15 17  1  0  0  0  0
 17  2  1  6  0  0  0
 17 18  1  0  0  0  0
 18 19  1  6  0  0  0
 18 20  1  0  0  0  0
 21 16  1  1  0  0  0
 21 22  1  0  0  0  0
 21 25  1  0  0  0  0
 22 23  1  0  0  0  0
 22 36  1  6  0  0  0
 23 24  1  0  0  0  0
 23 31  1  6  0  0  0
 24 25  1  0  0  0  0
 24 26  1  1  0  0  0
 26 39  1  0  0  0  0
 27 28  1  0  0  0  0
 27 32  1  0  0  0  0
 27 38  1  6  0  0  0
 28 29  1  0  0  0  0
 28 37  1  1  0  0  0
 29 30  1  0  0  0  0
 29 42  1  1  0  0  0
 30 31  1  1  0  0  0
 30 33  1  0  0  0  0
 32 33  1  0  0  0  0
 32 34  1  6  0  0  0
 34 41  1  0  0  0  0
M  CHG  6   4   1  13   1  19   1  35   1  41   1  42   1
M  END
>  <CHROM.1>
153.77913451,91.98478207,75.44932047,-164.94513551,-171.22885301,-96.66854292
149.00063868,96.73100163,75.38627379,61.95626305,169.10448229,159.46640596
53.52582644,75.03467425,-49.06240917,-54.47999606,28.23289756,70.80425002
-33.74484995,104.06947938,72.93706751,80.35522139,-5.39862312,3.79692700
-1.17596098,0.86046280,0.41666948,-1.89522767

>  <Name>


>  <RI>
0

>  <Rbt.Current_Directory>
/home/itssahil/PROJECTS/Mol_Feturizer/New_Systems/rnas/1ei2

>  <Rbt.Executable>
rbdock ($Id: //depot/dev/client3/rdock/2013.1/src/exe/rbdock.cxx#4 $)

>  <Rbt.Library>
libRbt.so (2013.1, Build901 2013/11/27)

>  <Rbt.Parameter_File>
/export/apps/rDock/src/rDock_2013.1_src/data/scripts/dock_solv.prm

>  <Rbt.Receptor>
prm/pocket_docking_2.prm

>  <SCORE>
-19.3437

>  <SCORE.INTER>
-12.3863

>  <SCORE.INTER.CONST>
1

>  <SCORE.INTER.POLAR>
-2.52462

>  <SCORE.INTER.ROT>
9

>  <SCORE.INTER.SOLV>
28.2005

>  <SCORE.INTER.VDW>
-18.8423

>  <SCORE.INTER.norm>
-0.294913

>  <SCORE.INTRA>
-10.42

>  <SCORE.INTRA.DIHEDRAL>
-5.36942

>  <SCORE.INTRA.DIHEDRAL.0>
40.8761

>  <SCORE.INTRA.POLAR>
-0.427877

>  <SCORE.INTRA.POLAR.0>
-0.0268208

>  <SCORE.INTRA.REPUL>
-0.364962

>  <SCORE.INTRA.REPUL.0>
0.641615

>  <SCORE.INTRA.SOLV>
-8.01979

>  <SCORE.INTRA.SOLV.lig_0>
-162.567

>  <SCORE.INTRA.VDW>
-0.445782

>  <SCORE.INTRA.VDW.0>
-4.80338

>  <SCORE.INTRA.norm>
-0.248095

>  <SCORE.RESTR>
3.46261

>  <SCORE.RESTR.CAVITY>
3.46261

>  <SCORE.RESTR.norm>
0.082443

>  <SCORE.SYSTEM>
0

>  <SCORE.SYSTEM.CONST>
0

>  <SCORE.SYSTEM.DIHEDRAL>
0

>  <SCORE.SYSTEM.SOLV>
0

>  <SCORE.SYSTEM.norm>
0

>  <SCORE.heavy>
42

>  <SCORE.norm>
-0.460565

>  <RMSD>
6.910

$$$$

 OpenBabel11021811393D
libRbt.so/2013.1/901 2013/11/27
 42 45  0  0  0  0  0  0  0  0999 V2000
   -3.1808    3.9188    2.4059 C   0  0  2  0  0  0  0  0  0  0  0  0
   -4.6261    4.0916    2.2834 O   0  0  0  0  0  0  0  0  0  0  0  0
   -2.7819    2.4075    2.4330 C   0  0  2  0  0  0  0  0  0  0  0  0
   -3.8934    1.5404    1.9795 N   0  3  0  0  0  0  0  0  0  0  0  0
   -2.3080    1.9890    3.8575 C   0  0  1  0  0  0  0  0  0  0  0  0
   -1.9374    0.6120    3.8672 O   0  0  0  0  0  0  0  0  0  0  0  0
   -1.0917    2.8294    4.3304 C   0  0  2  0  0  0  0  0  0  0  0  0
   -0.8960    2.6067    5.7225 O   0  0  0  0  0  0  0  0  0  0  0  0
   -1.3140    4.3524    4.0576 C   0  0  2  0  0  0  0  0  0  0  0  0
   -2.6906    4.5896    3.6171 O   0  0  0  0  0  0  0  0  0  0  0  0
   -0.3959    4.9492    2.9661 C   0  0  0  0  0  0  0  0  0  0  0  0
   -7.4507    7.2136    1.3376 C   0  0  1  0  0  0  0  0  0  0  0  0
   -8.0942    8.4113    0.7531 N   0  3  0  0  0  0  0  0  0  0  0  0
   -7.2832    6.0866    0.2850 C   0  0  1  0  0  0  0  0  0  0  0  0
   -6.4725    4.8495    0.8069 C   0  0  1  0  0  0  0  0  0  0  0  0
   -6.1080    4.0306   -0.3366 O   0  0  0  0  0  0  0  0  0  0  0  0
   -5.1438    5.2442    1.5507 C   0  0  1  0  0  0  0  0  0  0  0  0
   -5.3683    6.4021    2.5762 C   0  0  1  0  0  0  0  0  0  0  0  0
   -4.0990    6.8744    3.1658 N   0  3  0  0  0  0  0  0  0  0  0  0
   -6.0828    7.6107    1.9307 C   0  0  0  0  0  0  0  0  0  0  0  0
   -6.0996    2.5794   -0.2076 C   0  0  1  0  0  0  0  0  0  0  0  0
   -7.3314    2.0224   -0.9114 C   0  0  1  0  0  0  0  0  0  0  0  0
   -6.8489    2.0516   -2.3553 C   0  0  1  0  0  0  0  0  0  0  0  0
   -5.3982    1.5714   -2.2073 C   0  0  2  0  0  0  0  0  0  0  0  0
   -4.9684    2.0307   -0.9034 O   0  0  0  0  0  0  0  0  0  0  0  0
   -4.4658    2.1269   -3.2987 C   0  0  0  0  0  0  0  0  0  0  0  0
   -8.9317    4.3240   -4.9401 C   0  0  1  0  0  0  0  0  0  0  0  0
   -8.4454    3.0378   -5.6644 C   0  0  1  0  0  0  0  0  0  0  0  0
   -9.0948    1.7266   -5.1349 C   0  0  2  0  0  0  0  0  0  0  0  0
   -8.9595    1.6167   -3.5821 C   0  0  1  0  0  0  0  0  0  0  0  0
   -7.6316    1.1589   -3.1993 O   0  0  0  0  0  0  0  0  0  0  0  0
   -9.8598    3.9671   -3.7395 C   0  0  1  0  0  0  0  0  0  0  0  0
   -9.2340    2.9181   -2.9305 O   0  0  0  0  0  0  0  0  0  0  0  0
  -10.1633    5.1932   -2.8403 C   0  0  0  0  0  0  0  0  0  0  0  0
   -0.2218    4.0917    1.7806 N   0  3  0  0  0  0  0  0  0  0  0  0
   -7.5783    0.6876   -0.4689 O   0  0  0  0  0  0  0  0  0  0  0  0
   -8.7441    3.1643   -7.0541 O   0  0  0  0  0  0  0  0  0  0  0  0
   -7.7859    5.0439   -4.4798 O   0  0  0  0  0  0  0  0  0  0  0  0
   -3.2099    1.4705   -3.2728 O   0  0  0  0  0  0  0  0  0  0  0  0
   -8.5774    5.6434   -0.1225 O   0  0  0  0  0  0  0  0  0  0  0  0
  -11.3229    4.9817   -1.9545 N   0  3  0  0  0  0  0  0  0  0  0  0
   -8.5620    0.5348   -5.8404 N   0  3  0  0  0  0  0  0  0  0  0  0
  1  2  1  1  0  0  0
  1  3  1  0  0  0  0
  1 10  1  0  0  0  0
  3  4  1  1  0  0  0
  3  5  1  0  0  0  0
  5  6  1  6  0  0  0
  5  7  1  0  0  0  0
  7  8  1  1  0  0  0
  7  9  1  0  0  0  0
  9 10  1  0  0  0  0
  9 11  1  6  0  0  0
 11 35  1  0  0  0  0
 12 13  1  6  0  0  0
 12 14  1  0  0  0  0
 12 20  1  0  0  0  0
 14 15  1  0  0  0  0
 14 40  1  1  0  0  0
 15 16  1  6  0  0  0
 15 17  1  0  0  0  0
 17  2  1  1  0  0  0
 17 18  1  0  0  0  0
 18 19  1  6  0  0  0
 18 20  1  0  0  0  0
 21 16  1  6  0  0  0
 21 22  1  0  0  0  0
 21 25  1  0  0  0  0
 22 23  1  0  0  0  0
 22 36  1  1  0  0  0
 23 24  1  0  0  0  0
 23 31  1  6  0  0  0
 24 25  1  0  0  0  0
 24 26  1  6  0  0  0
 26 39  1  0  0  0  0
 27 28  1  0  0  0  0
 27 32  1  0  0  0  0
 27 38  1  1  0  0  0
 28 29  1  0  0  0  0
 28 37  1  6  0  0  0
 29 30  1  0  0  0  0
 29 42  1  6  0  0  0
 30 31  1  6  0  0  0
 30 33  1  0  0  0  0
 32 33  1  0  0  0  0
 32 34  1  1  0  0  0
 34 41  1  0  0  0  0
M  CHG  6   4   1  13   1  19   1  35   1  41   1  42   1
M  END
>  <CHROM.1>
-147.20305087,145.92801768,-57.46230728,-66.63757978,-174.61311212,42.07173369
-172.72449750,-47.77247183,-176.23711809,-143.46696916,104.72716984,-170.65557910
-51.39956341,76.14067331,-169.14006132,67.96899825,177.17288114,177.80213370
171.11946603,120.00145388,163.22639017,-168.58862839,-5.81766337,3.61173354
-0.33841555,-0.59198735,0.66838971,-2.40318977

>  <Name>


>  <RI>
0

>  <Rbt.Current_Directory>
/home/itssahil/PROJECTS/Mol_Feturizer/New_Systems/rnas/1ei2

>  <Rbt.Executable>
rbdock ($Id: //depot/dev/client3/rdock/2013.1/src/exe/rbdock.cxx#4 $)

>  <Rbt.Library>
libRbt.so (2013.1, Build901 2013/11/27)

>  <Rbt.Parameter_File>
/export/apps/rDock/src/rDock_2013.1_src/data/scripts/dock_solv.prm

>  <Rbt.Receptor>
prm/pocket_docking_5.prm

>  <SCORE>
-36.8064

>  <SCORE.INTER>
-20.7839

>  <SCORE.INTER.CONST>
1

>  <SCORE.INTER.POLAR>
-4.46208

>  <SCORE.INTER.ROT>
9

>  <SCORE.INTER.SOLV>
23.6356

>  <SCORE.INTER.VDW>
-16.4609

>  <SCORE.INTER.norm>
-0.494856

>  <SCORE.INTRA>
-16.0224

>  <SCORE.INTRA.DIHEDRAL>
-7.39354

>  <SCORE.INTRA.DIHEDRAL.0>
40.8761

>  <SCORE.INTRA.POLAR>
-2.30651

>  <SCORE.INTRA.POLAR.0>
-0.0268208

>  <SCORE.INTRA.REPUL>
-0.641615

>  <SCORE.INTRA.REPUL.0>
0.641615

>  <SCORE.INTRA.SOLV>
-3.78421

>  <SCORE.INTRA.SOLV.lig_0>
-162.567

>  <SCORE.INTRA.VDW>
0.616684

>  <SCORE.INTRA.VDW.0>
-4.80338

>  <SCORE.INTRA.norm>
-0.381486

>  <SCORE.RESTR>
0

>  <SCORE.RESTR.CAVITY>
0

>  <SCORE.RESTR.norm>
0

>  <SCORE.SYSTEM>
0

>  <SCORE.SYSTEM.CONST>
0

>  <SCORE.SYSTEM.DIHEDRAL>
0

>  <SCORE.SYSTEM.SOLV>
0

>  <SCORE.SYSTEM.norm>
0

>  <SCORE.heavy>
42

>  <SCORE.norm>
-0.876342

>  <RMSD>
6.946

$$$$

 OpenBabel11021811393D
libRbt.so/2013.1/901 2013/11/27
 42 45  0  0  0  0  0  0  0  0999 V2000
   -5.8873    3.7329   -4.8713 C   0  0  2  0  0  0  0  0  0  0  0  0
   -4.6176    3.6556   -4.1531 O   0  0  0  0  0  0  0  0  0  0  0  0
   -6.6517    5.0578   -4.5484 C   0  0  2  0  0  0  0  0  0  0  0  0
   -5.7706    6.0517   -3.8934 N   0  3  0  0  0  0  0  0  0  0  0  0
   -7.9028    4.7699   -3.6648 C   0  0  1  0  0  0  0  0  0  0  0  0
   -8.5971    5.9837   -3.3856 O   0  0  0  0  0  0  0  0  0  0  0  0
   -8.8855    3.7893   -4.3592 C   0  0  2  0  0  0  0  0  0  0  0  0
   -9.8412    3.3460   -3.4022 O   0  0  0  0  0  0  0  0  0  0  0  0
   -8.1291    2.5643   -4.9680 C   0  0  2  0  0  0  0  0  0  0  0  0
   -6.7280    2.5747   -4.5413 O   0  0  0  0  0  0  0  0  0  0  0  0
   -8.1161    2.5218   -6.5134 C   0  0  0  0  0  0  0  0  0  0  0  0
   -3.2503    0.1047   -6.1881 C   0  0  1  0  0  0  0  0  0  0  0  0
   -2.4141   -1.0161   -6.6730 N   0  3  0  0  0  0  0  0  0  0  0  0
   -3.5814   -0.0433   -4.6799 C   0  0  1  0  0  0  0  0  0  0  0  0
   -4.3381    1.1900   -4.0747 C   0  0  1  0  0  0  0  0  0  0  0  0
   -4.2992    1.0803   -2.6265 O   0  0  0  0  0  0  0  0  0  0  0  0
   -3.6911    2.5700   -4.4637 C   0  0  1  0  0  0  0  0  0  0  0  0
   -3.3534    2.6499   -5.9876 C   0  0  1  0  0  0  0  0  0  0  0  0
   -2.6122    3.8816   -6.3275 N   0  3  0  0  0  0  0  0  0  0  0  0
   -2.5187    1.4365   -6.4555 C   0  0  0  0  0  0  0  0  0  0  0  0
   -3.1599    0.4374   -1.9850 C   0  0  1  0  0  0  0  0  0  0  0  0
   -2.1754    1.5164   -1.5498 C   0  0  1  0  0  0  0  0  0  0  0  0
   -2.8391    1.9773   -0.2592 C   0  0  1  0  0  0  0  0  0  0  0  0
   -3.2951    0.6432    0.3487 C   0  0  2  0  0  0  0  0  0  0  0  0
   -3.5814   -0.2191   -0.7782 O   0  0  0  0  0  0  0  0  0  0  0  0
   -4.5425    0.7827    1.2397 C   0  0  0  0  0  0  0  0  0  0  0  0
   -1.9113    1.9593    4.3794 C   0  0  1  0  0  0  0  0  0  0  0  0
   -0.8004    2.7344    3.6175 C   0  0  1  0  0  0  0  0  0  0  0  0
   -1.3335    3.8824    2.7124 C   0  0  2  0  0  0  0  0  0  0  0  0
   -2.4585    3.3711    1.7560 C   0  0  1  0  0  0  0  0  0  0  0  0
   -1.8981    2.6740    0.6074 O   0  0  0  0  0  0  0  0  0  0  0  0
   -3.3265    2.4349    3.9309 C   0  0  1  0  0  0  0  0  0  0  0  0
   -3.3921    2.4679    2.4676 O   0  0  0  0  0  0  0  0  0  0  0  0
   -4.4574    1.5229    4.4725 C   0  0  0  0  0  0  0  0  0  0  0  0
   -7.4360    1.3462   -7.0849 N   0  3  0  0  0  0  0  0  0  0  0  0
   -0.8968    0.9316   -1.3009 O   0  0  0  0  0  0  0  0  0  0  0  0
    0.0978    3.2911    4.5766 O   0  0  0  0  0  0  0  0  0  0  0  0
   -1.7531    0.5641    4.1123 O   0  0  0  0  0  0  0  0  0  0  0  0
   -5.6700    1.1705    0.4736 O   0  0  0  0  0  0  0  0  0  0  0  0
   -4.3893   -1.2061   -4.4996 O   0  0  0  0  0  0  0  0  0  0  0  0
   -5.8021    2.0893    4.2604 N   0  3  0  0  0  0  0  0  0  0  0  0
   -0.2291    4.5568    1.9859 N   0  3  0  0  0  0  0  0  0  0  0  0
  1  2  1  1  0  0  0
  1  3  1  0  0  0  0
  1 10  1  0  0  0  0
  3  4  1  1  0  0  0
  3  5  1  0  0  0  0
  5  6  1  6  0  0  0
  5  7  1  0  0  0  0
  7  8  1  1  0  0  0
  7  9  1  0  0  0  0
  9 10  1  0  0  0  0
  9 11  1  6  0  0  0
 11 35  1  0  0  0  0
 12 13  1  1  0  0  0
 12 14  1  0  0  0  0
 12 20  1  0  0  0  0
 14 15  1  0  0  0  0
 14 40  1  6  0  0  0
 15 16  1  1  0  0  0
 15 17  1  0  0  0  0
 17  2  1  6  0  0  0
 17 18  1  0  0  0  0
 18 19  1  1  0  0  0
 18 20  1  0  0  0  0
 21 16  1  1  0  0  0
 21 22  1  0  0  0  0
 21 25  1  0  0  0  0
 22 23  1  0  0  0  0
 22 36  1  1  0  0  0
 23 24  1  0  0  0  0
 23 31  1  1  0  0  0
 24 25  1  0  0  0  0
 24 26  1  6  0  0  0
 26 39  1  0  0  0  0
 27 28  1  0  0  0  0
 27 32  1  0  0  0  0
 27 38  1  6  0  0  0
 28 29  1  0  0  0  0
 28 37  1  1  0  0  0
 29 30  1  0  0  0  0
 29 42  1  6  0  0  0
 30 31  1  6  0  0  0
 30 33  1  0  0  0  0
 32 33  1  0  0  0  0
 32 34  1  6  0  0  0
 34 41  1  0  0  0  0
M  CHG  6   4   1  13   1  19   1  35   1  41   1  42   1
M  END
>  <CHROM.1>
-172.20253145,-64.48792441,79.57517393,63.43325243,138.39945234,-178.33504810
-71.13530717,-53.00142472,-42.91217751,31.00093363,96.36913673,167.26680683
-40.22157729,169.29080063,65.61575796,-62.94667679,73.86401539,167.52526681
70.04349778,171.22885414,169.79977032,58.34592396,-4.20377603,2.25974326
-1.71285458,2.06450059,0.49984390,-1.78497585

>  <Name>


>  <RI>
0

>  <Rbt.Current_Directory>
/home/itssahil/PROJECTS/Mol_Feturizer/New_Systems/rnas/1ei2

>  <Rbt.Executable>
rbdock ($Id: //depot/dev/client3/rdock/2013.1/src/exe/rbdock.cxx#4 $)

>  <Rbt.Library>
libRbt.so (2013.1, Build901 2013/11/27)

>  <Rbt.Parameter_File>
/export/apps/rDock/src/rDock_2013.1_src/data/scripts/dock_solv.prm

>  <Rbt.Receptor>
prm/pocket_docking_4.prm

>  <SCORE>
-46.4317

>  <SCORE.INTER>
-36.8023

>  <SCORE.INTER.CONST>
1

>  <SCORE.INTER.POLAR>
-7.04397

>  <SCORE.INTER.ROT>
9

>  <SCORE.INTER.SOLV>
32.4958

>  <SCORE.INTER.VDW>
-21.4869

>  <SCORE.INTER.norm>
-0.876246

>  <SCORE.INTRA>
-10.229

>  <SCORE.INTRA.DIHEDRAL>
-17.7642

>  <SCORE.INTRA.DIHEDRAL.0>
40.8761

>  <SCORE.INTRA.POLAR>
-0.0801561

>  <SCORE.INTRA.POLAR.0>
-0.0268208

>  <SCORE.INTRA.REPUL>
-0.641615

>  <SCORE.INTRA.REPUL.0>
0.641615

>  <SCORE.INTRA.SOLV>
-11.0677

>  <SCORE.INTRA.SOLV.lig_0>
-162.567

>  <SCORE.INTRA.VDW>
7.66755

>  <SCORE.INTRA.VDW.0>
-4.80338

>  <SCORE.INTRA.norm>
-0.243548

>  <SCORE.RESTR>
0.599584

>  <SCORE.RESTR.CAVITY>
0.599584

>  <SCORE.RESTR.norm>
0.0142758

>  <SCORE.SYSTEM>
0

>  <SCORE.SYSTEM.CONST>
0

>  <SCORE.SYSTEM.DIHEDRAL>
0

>  <SCORE.SYSTEM.SOLV>
0

>  <SCORE.SYSTEM.norm>
0

>  <SCORE.heavy>
42

>  <SCORE.norm>
-1.10552

>  <RMSD>
6.972

$$$$

 OpenBabel11021811393D
libRbt.so/2013.1/901 2013/11/27
 42 45  0  0  0  0  0  0  0  0999 V2000
   -4.1049    1.1167   -2.2355 C   0  0  2  0  0  0  0  0  0  0  0  0
   -3.4823    0.3364   -3.3019 O   0  0  0  0  0  0  0  0  0  0  0  0
   -3.0672    1.5251   -1.1399 C   0  0  2  0  0  0  0  0  0  0  0  0
   -1.6749    1.3390   -1.6090 N   0  3  0  0  0  0  0  0  0  0  0  0
   -3.3125    0.7260    0.1754 C   0  0  1  0  0  0  0  0  0  0  0  0
   -2.3670    1.1142    1.1698 O   0  0  0  0  0  0  0  0  0  0  0  0
   -4.7408    0.9620    0.7354 C   0  0  2  0  0  0  0  0  0  0  0  0
   -4.9983   -0.0011    1.7511 O   0  0  0  0  0  0  0  0  0  0  0  0
   -5.8176    0.8523   -0.3923 C   0  0  2  0  0  0  0  0  0  0  0  0
   -5.2051    0.3573   -1.6273 O   0  0  0  0  0  0  0  0  0  0  0  0
   -6.5091    2.1877   -0.7511 C   0  0  0  0  0  0  0  0  0  0  0  0
   -3.4901    0.7916   -7.5929 C   0  0  1  0  0  0  0  0  0  0  0  0
   -3.8989    0.7988   -9.0153 N   0  3  0  0  0  0  0  0  0  0  0  0
   -4.2444    1.8750   -6.7783 C   0  0  1  0  0  0  0  0  0  0  0  0
   -3.9638    1.8162   -5.2363 C   0  0  1  0  0  0  0  0  0  0  0  0
   -4.9528    2.6409   -4.5634 O   0  0  0  0  0  0  0  0  0  0  0  0
   -4.0701    0.3650   -4.6387 C   0  0  1  0  0  0  0  0  0  0  0  0
   -3.3165   -0.6864   -5.5159 C   0  0  1  0  0  0  0  0  0  0  0  0
   -3.5389   -2.0670   -5.0400 N   0  3  0  0  0  0  0  0  0  0  0  0
   -3.7438   -0.6096   -6.9989 C   0  0  0  0  0  0  0  0  0  0  0  0
   -5.0121    4.0684   -4.8489 C   0  0  1  0  0  0  0  0  0  0  0  0
   -6.0627    4.7010   -3.9439 C   0  0  1  0  0  0  0  0  0  0  0  0
   -5.2599    4.8345   -2.6570 C   0  0  1  0  0  0  0  0  0  0  0  0
   -3.8952    5.2949   -3.1890 C   0  0  2  0  0  0  0  0  0  0  0  0
   -3.7656    4.6918   -4.4986 O   0  0  0  0  0  0  0  0  0  0  0  0
   -2.7223    4.8656   -2.2895 C   0  0  0  0  0  0  0  0  0  0  0  0
   -6.3690    6.5573    1.9736 C   0  0  1  0  0  0  0  0  0  0  0  0
   -7.0240    7.3433    0.8038 C   0  0  1  0  0  0  0  0  0  0  0  0
   -7.7321    6.4424   -0.2489 C   0  0  2  0  0  0  0  0  0  0  0  0
   -6.7798    5.3125   -0.7571 C   0  0  1  0  0  0  0  0  0  0  0  0
   -5.8500    5.8165   -1.7574 O   0  0  0  0  0  0  0  0  0  0  0  0
   -6.4570    5.0205    1.7270 C   0  0  1  0  0  0  0  0  0  0  0  0
   -6.0160    4.7165    0.3632 O   0  0  0  0  0  0  0  0  0  0  0  0
   -5.6012    4.2089    2.7334 C   0  0  0  0  0  0  0  0  0  0  0  0
   -7.7748    2.0390   -1.4909 N   0  3  0  0  0  0  0  0  0  0  0  0
   -6.4395    5.9776   -4.4605 O   0  0  0  0  0  0  0  0  0  0  0  0
   -7.9852    8.2452    1.3507 O   0  0  0  0  0  0  0  0  0  0  0  0
   -5.0022    6.9616    2.0802 O   0  0  0  0  0  0  0  0  0  0  0  0
   -2.8550    5.4147   -0.9896 O   0  0  0  0  0  0  0  0  0  0  0  0
   -3.8612    3.1621   -7.2618 O   0  0  0  0  0  0  0  0  0  0  0  0
   -6.1502    4.2311    4.1016 N   0  3  0  0  0  0  0  0  0  0  0  0
   -8.3031    7.2490   -1.3561 N   0  3  0  0  0  0  0  0  0  0  0  0
  1  2  1  6  0  0  0
  1  3  1  0  0  0  0
  1 10  1  0  0  0  0
  3  4  1  6  0  0  0
  3  5  1  0  0  0  0
  5  6  1  1  0  0  0
  5  7  1  0  0  0  0
  7  8  1  1  0  0  0
  7  9  1  0  0  0  0
  9 10  1  0  0  0  0
  9 11  1  6  0  0  0
 11 35  1  0  0  0  0
 12 13  1  6  0  0  0
 12 14  1  0  0  0  0
 12 20  1  0  0  0  0
 14 15  1  0  0  0  0
 14 40  1  6  0  0  0
 15 16  1  1  0  0  0
 15 17  1  0  0  0  0
 17  2  1  1  0  0  0
 17 18  1  0  0  0  0
 18 19  1  1  0  0  0
 18 20  1  0  0  0  0
 21 16  1  1  0  0  0
 21 22  1  0  0  0  0
 21 25  1  0  0  0  0
 22 23  1  0  0  0  0
 22 36  1  6  0  0  0
 23 24  1  0  0  0  0
 23 31  1  1  0  0  0
 24 25  1  0  0  0  0
 24 26  1  1  0  0  0
 26 39  1  0  0  0  0
 27 28  1  0  0  0  0
 27 32  1  0  0  0  0
 27 38  1  6  0  0  0
 28 29  1  0  0  0  0
 28 37  1  1  0  0  0
 29 30  1  0  0  0  0
 29 42  1  6  0  0  0
 30 31  1  6  0  0  0
 30 33  1  0  0  0  0
 32 33  1  0  0  0  0
 32 34  1  1  0  0  0
 34 41  1  0  0  0  0
M  CHG  6   4   1  13   1  19   1  35   1  41   1  42   1
M  END
>  <CHROM.1>
-153.07586120,64.70856341,146.10576109,-58.04737531,175.44291946,-162.35150286
-40.03043344,61.56412490,-40.26660229,-61.78989902,-176.10728019,66.31854942
-43.19341113,93.33836305,-60.42685078,174.88744841,-45.02522624,65.37672297
-70.00600613,-158.06723830,70.13882429,54.39110765,-4.93549549,3.17388522
-2.05182526,-0.75290633,-1.16332061,1.73836437

>  <Name>


>  <RI>
0

>  <Rbt.Current_Directory>
/home/itssahil/PROJECTS/Mol_Feturizer/New_Systems/rnas/1ei2

>  <Rbt.Executable>
rbdock ($Id: //depot/dev/client3/rdock/2013.1/src/exe/rbdock.cxx#4 $)

>  <Rbt.Library>
libRbt.so (2013.1, Build901 2013/11/27)

>  <Rbt.Parameter_File>
/export/apps/rDock/src/rDock_2013.1_src/data/scripts/dock_solv.prm

>  <Rbt.Receptor>
prm/pocket_docking_3.prm

>  <SCORE>
-56.7465

>  <SCORE.INTER>
-37.4685

>  <SCORE.INTER.CONST>
1

>  <SCORE.INTER.POLAR>
-6.23893

>  <SCORE.INTER.ROT>
9

>  <SCORE.INTER.SOLV>
18.7298

>  <SCORE.INTER.VDW>
-20.0258

>  <SCORE.INTER.norm>
-0.892107

>  <SCORE.INTRA>
-20.9969

>  <SCORE.INTRA.DIHEDRAL>
-21.3691

>  <SCORE.INTRA.DIHEDRAL.0>
40.8761

>  <SCORE.INTRA.POLAR>
-0.0352081

>  <SCORE.INTRA.POLAR.0>
-0.0268208

>  <SCORE.INTRA.REPUL>
-0.560084

>  <SCORE.INTRA.REPUL.0>
0.641615

>  <SCORE.INTRA.SOLV>
-10.4735

>  <SCORE.INTRA.SOLV.lig_0>
-162.567

>  <SCORE.INTRA.VDW>
-2.15542

>  <SCORE.INTRA.VDW.0>
-4.80338

>  <SCORE.INTRA.norm>
-0.499925

>  <SCORE.RESTR>
1.71883

>  <SCORE.RESTR.CAVITY>
1.71883

>  <SCORE.RESTR.norm>
0.0409246

>  <SCORE.SYSTEM>
0

>  <SCORE.SYSTEM.CONST>
0

>  <SCORE.SYSTEM.DIHEDRAL>
0

>  <SCORE.SYSTEM.SOLV>
0

>  <SCORE.SYSTEM.norm>
0

>  <SCORE.heavy>
42

>  <SCORE.norm>
-1.35111

>  <RMSD>
6.974

$$$$

 OpenBabel11021811393D
libRbt.so/2013.1/901 2013/11/27
 42 45  0  0  0  0  0  0  0  0999 V2000
   -3.8875    6.7660    5.0197 C   0  0  2  0  0  0  0  0  0  0  0  0
   -4.1782    5.4187    4.5359 O   0  0  0  0  0  0  0  0  0  0  0  0
   -4.0891    7.8364    3.8983 C   0  0  2  0  0  0  0  0  0  0  0  0
   -4.8499    7.2900    2.7512 N   0  3  0  0  0  0  0  0  0  0  0  0
   -2.7163    8.4019    3.4243 C   0  0  1  0  0  0  0  0  0  0  0  0
   -2.9135    9.3840    2.4093 O   0  0  0  0  0  0  0  0  0  0  0  0
   -1.9269    9.0524    4.5918 C   0  0  2  0  0  0  0  0  0  0  0  0
   -0.5881    9.2813    4.1665 O   0  0  0  0  0  0  0  0  0  0  0  0
   -1.9371    8.1402    5.8612 C   0  0  2  0  0  0  0  0  0  0  0  0
   -2.5150    6.8337    5.5380 O   0  0  0  0  0  0  0  0  0  0  0  0
   -2.7560    8.7002    7.0469 C   0  0  0  0  0  0  0  0  0  0  0  0
   -3.0677    3.3408    8.1510 C   0  0  1  0  0  0  0  0  0  0  0  0
   -2.9839    2.3459    9.2435 N   0  3  0  0  0  0  0  0  0  0  0  0
   -2.4973    2.7773    6.8231 C   0  0  1  0  0  0  0  0  0  0  0  0
   -2.6960    3.7316    5.5943 C   0  0  1  0  0  0  0  0  0  0  0  0
   -2.4269    2.9746    4.3837 O   0  0  0  0  0  0  0  0  0  0  0  0
   -4.1563    4.3049    5.4806 C   0  0  1  0  0  0  0  0  0  0  0  0
   -4.6878    4.8307    6.8532 C   0  0  1  0  0  0  0  0  0  0  0  0
   -6.1078    5.2312    6.7814 N   0  3  0  0  0  0  0  0  0  0  0  0
   -4.5376    3.7739    7.9705 C   0  0  0  0  0  0  0  0  0  0  0  0
   -3.0211    1.6551    4.2144 C   0  0  1  0  0  0  0  0  0  0  0  0
   -4.4459    1.8268    3.7012 C   0  0  1  0  0  0  0  0  0  0  0  0
   -4.1696    2.0622    2.2224 C   0  0  1  0  0  0  0  0  0  0  0  0
   -3.0542    1.0431    1.9491 C   0  0  2  0  0  0  0  0  0  0  0  0
   -2.3205    0.9282    3.1918 O   0  0  0  0  0  0  0  0  0  0  0  0
   -2.1090    1.4750    0.8136 C   0  0  0  0  0  0  0  0  0  0  0  0
   -5.8670    0.0438   -1.9630 C   0  0  1  0  0  0  0  0  0  0  0  0
   -6.9940    0.6767   -1.0999 C   0  0  1  0  0  0  0  0  0  0  0  0
   -6.7069    2.1395   -0.6539 C   0  0  2  0  0  0  0  0  0  0  0  0
   -5.3053    2.2574    0.0268 C   0  0  1  0  0  0  0  0  0  0  0  0
   -5.3504    1.8041    1.4095 O   0  0  0  0  0  0  0  0  0  0  0  0
   -4.6356    0.9957   -2.0515 C   0  0  1  0  0  0  0  0  0  0  0  0
   -4.2878    1.4739   -0.7110 O   0  0  0  0  0  0  0  0  0  0  0  0
   -3.3992    0.3075   -2.6853 C   0  0  0  0  0  0  0  0  0  0  0  0
   -2.6863    7.8869    8.2737 N   0  3  0  0  0  0  0  0  0  0  0  0
   -5.1831    0.6221    3.9105 O   0  0  0  0  0  0  0  0  0  0  0  0
   -8.2030    0.6613   -1.8578 O   0  0  0  0  0  0  0  0  0  0  0  0
   -5.4869   -1.1993   -1.3687 O   0  0  0  0  0  0  0  0  0  0  0  0
   -1.4874    2.7121    1.1165 O   0  0  0  0  0  0  0  0  0  0  0  0
   -1.1006    2.5352    6.9900 O   0  0  0  0  0  0  0  0  0  0  0  0
   -3.7267   -0.4453   -3.9100 N   0  3  0  0  0  0  0  0  0  0  0  0
   -7.8010    2.6715    0.1959 N   0  3  0  0  0  0  0  0  0  0  0  0
  1  2  1  6  0  0  0
  1  3  1  0  0  0  0
  1 10  1  0  0  0  0
  3  4  1  6  0  0  0
  3  5  1  0  0  0  0
  5  6  1  6  0  0  0
  5  7  1  0  0  0  0
  7  8  1  6  0  0  0
  7  9  1  0  0  0  0
  9 10  1  0  0  0  0
  9 11  1  1  0  0  0
 11 35  1  0  0  0  0
 12 13  1  1  0  0  0
 12 14  1  0  0  0  0
 12 20  1  0  0  0  0
 14 15  1  0  0  0  0
 14 40  1  1  0  0  0
 15 16  1  6  0  0  0
 15 17  1  0  0  0  0
 17  2  1  6  0  0  0
 17 18  1  0  0  0  0
 18 19  1  6  0  0  0
 18 20  1  0  0  0  0
 21 16  1  6  0  0  0
 21 22  1  0  0  0  0
 21 25  1  0  0  0  0
 22 23  1  0  0  0  0
 22 36  1  6  0  0  0
 23 24  1  0  0  0  0
 23 31  1  6  0  0  0
 24 25  1  0  0  0  0
 24 26  1  6  0  0  0
 26 39  1  0  0  0  0
 27 28  1  0  0  0  0
 27 32  1  0  0  0  0
 27 38  1  1  0  0  0
 28 29  1  0  0  0  0
 28 37  1  6  0  0  0
 29 30  1  0  0  0  0
 29 42  1  1  0  0  0
 30 31  1  1  0  0  0
 30 33  1  0  0  0  0
 32 33  1  0  0  0  0
 32 34  1  1  0  0  0
 34 41  1  0  0  0  0
M  CHG  6   4   1  13   1  19   1  35   1  41   1  42   1
M  END
>  <CHROM.1>
-174.67277840,-87.41485105,-30.20234778,70.15394207,73.51535202,-175.86284302
-54.16807779,-106.65238572,178.00466765,47.13193428,82.45259798,-55.41571902
-174.11882250,167.47280821,59.35485254,62.31770167,-56.84708075,-57.50816976
57.76711980,-170.32496892,46.25385221,174.69011220,-3.88435521,3.67451576
3.13268103,0.07018261,-1.32713217,-0.60768795

>  <Name>


>  <RI>
0

>  <Rbt.Current_Directory>
/home/itssahil/PROJECTS/Mol_Feturizer/New_Systems/rnas/1ei2

>  <Rbt.Executable>
rbdock ($Id: //depot/dev/client3/rdock/2013.1/src/exe/rbdock.cxx#4 $)

>  <Rbt.Library>
libRbt.so (2013.1, Build901 2013/11/27)

>  <Rbt.Parameter_File>
/export/apps/rDock/src/rDock_2013.1_src/data/scripts/dock_solv.prm

>  <Rbt.Receptor>
prm/pocket_docking_8.prm

>  <SCORE>
-55.7405

>  <SCORE.INTER>
-35.8574

>  <SCORE.INTER.CONST>
1

>  <SCORE.INTER.POLAR>
-5.99683

>  <SCORE.INTER.ROT>
9

>  <SCORE.INTER.SOLV>
16.2508

>  <SCORE.INTER.VDW>
-18.9324

>  <SCORE.INTER.norm>
-0.853748

>  <SCORE.INTRA>
-20.105

>  <SCORE.INTRA.DIHEDRAL>
-24.9841

>  <SCORE.INTRA.DIHEDRAL.0>
40.8761

>  <SCORE.INTRA.POLAR>
-0.279645

>  <SCORE.INTRA.POLAR.0>
-0.0268208

>  <SCORE.INTRA.REPUL>
-0.641615

>  <SCORE.INTRA.REPUL.0>
0.641615

>  <SCORE.INTRA.SOLV>
-11.6604

>  <SCORE.INTRA.SOLV.lig_0>
-162.567

>  <SCORE.INTRA.VDW>
2.37613

>  <SCORE.INTRA.VDW.0>
-4.80338

>  <SCORE.INTRA.norm>
-0.47869

>  <SCORE.RESTR>
0.22186

>  <SCORE.RESTR.CAVITY>
0.22186

>  <SCORE.RESTR.norm>
0.00528239

>  <SCORE.SYSTEM>
0

>  <SCORE.SYSTEM.CONST>
0

>  <SCORE.SYSTEM.DIHEDRAL>
0

>  <SCORE.SYSTEM.SOLV>
0

>  <SCORE.SYSTEM.norm>
0

>  <SCORE.heavy>
42

>  <SCORE.norm>
-1.32716

>  <RMSD>
6.974

$$$$

 OpenBabel11021811393D
libRbt.so/2013.1/901 2013/11/27
 42 45  0  0  0  0  0  0  0  0999 V2000
   -5.0088    2.9468   -5.0335 C   0  0  2  0  0  0  0  0  0  0  0  0
   -4.0279    2.5522   -4.0256 O   0  0  0  0  0  0  0  0  0  0  0  0
   -5.6087    4.3584   -4.7315 C   0  0  2  0  0  0  0  0  0  0  0  0
   -4.8035    5.0915   -3.7279 N   0  3  0  0  0  0  0  0  0  0  0  0
   -7.0898    4.2378   -4.2618 C   0  0  1  0  0  0  0  0  0  0  0  0
   -7.6290    5.5316   -3.9994 O   0  0  0  0  0  0  0  0  0  0  0  0
   -7.9777    3.5416   -5.3279 C   0  0  2  0  0  0  0  0  0  0  0  0
   -9.2260    3.2042   -4.7333 O   0  0  0  0  0  0  0  0  0  0  0  0
   -7.2872    2.2567   -5.8898 C   0  0  2  0  0  0  0  0  0  0  0  0
   -6.0846    1.9500   -5.1120 O   0  0  0  0  0  0  0  0  0  0  0  0
   -6.8392    2.3624   -7.3657 C   0  0  0  0  0  0  0  0  0  0  0  0
   -2.1973   -0.6767   -6.2261 C   0  0  1  0  0  0  0  0  0  0  0  0
   -1.4289   -1.8904   -6.5826 N   0  3  0  0  0  0  0  0  0  0  0  0
   -3.4667   -1.0272   -5.4063 C   0  0  1  0  0  0  0  0  0  0  0  0
   -4.2406    0.2280   -4.8718 C   0  0  1  0  0  0  0  0  0  0  0  0
   -5.1940   -0.2192   -3.8708 O   0  0  0  0  0  0  0  0  0  0  0  0
   -3.3046    1.2943   -4.1928 C   0  0  1  0  0  0  0  0  0  0  0  0
   -2.0299    1.5851   -5.0493 C   0  0  1  0  0  0  0  0  0  0  0  0
   -1.0799    2.4712   -4.3463 N   0  3  0  0  0  0  0  0  0  0  0  0
   -1.2877    0.2856   -5.4342 C   0  0  0  0  0  0  0  0  0  0  0  0
   -4.7703   -1.1649   -2.8468 C   0  0  1  0  0  0  0  0  0  0  0  0
   -3.4786   -0.6543   -2.2192 C   0  0  1  0  0  0  0  0  0  0  0  0
   -4.0425    0.3777   -1.2520 C   0  0  1  0  0  0  0  0  0  0  0  0
   -5.2771   -0.3524   -0.7044 C   0  0  2  0  0  0  0  0  0  0  0  0
   -5.7355   -1.2024   -1.7828 O   0  0  0  0  0  0  0  0  0  0  0  0
   -6.4006    0.6064   -0.2711 C   0  0  0  0  0  0  0  0  0  0  0  0
   -1.7385    1.9804    3.1596 C   0  0  1  0  0  0  0  0  0  0  0  0
   -1.1279    2.2991    1.7665 C   0  0  1  0  0  0  0  0  0  0  0  0
   -2.1599    2.8188    0.7244 C   0  0  2  0  0  0  0  0  0  0  0  0
   -3.3916    1.8625    0.6242 C   0  0  1  0  0  0  0  0  0  0  0  0
   -3.0907    0.6988   -0.1971 O   0  0  0  0  0  0  0  0  0  0  0  0
   -3.2906    2.1234    3.1306 C   0  0  1  0  0  0  0  0  0  0  0  0
   -3.8270    1.4132    1.9668 O   0  0  0  0  0  0  0  0  0  0  0  0
   -3.9603    1.5752    4.4170 C   0  0  0  0  0  0  0  0  0  0  0  0
   -6.4493    1.0799   -7.9776 N   0  3  0  0  0  0  0  0  0  0  0  0
   -2.8246   -1.7180   -1.5269 O   0  0  0  0  0  0  0  0  0  0  0  0
   -0.1143    3.2893    1.9357 O   0  0  0  0  0  0  0  0  0  0  0  0
   -1.3735    0.6459    3.5185 O   0  0  0  0  0  0  0  0  0  0  0  0
   -6.7222    1.5117   -1.3131 O   0  0  0  0  0  0  0  0  0  0  0  0
   -4.3489   -1.7890   -6.2301 O   0  0  0  0  0  0  0  0  0  0  0  0
   -3.7369    2.4373    5.5920 N   0  3  0  0  0  0  0  0  0  0  0  0
   -1.5220    3.0681   -0.5921 N   0  3  0  0  0  0  0  0  0  0  0  0
  1  2  1  1  0  0  0
  1  3  1  0  0  0  0
  1 10  1  0  0  0  0
  3  4  1  1  0  0  0
  3  5  1  0  0  0  0
  5  6  1  6  0  0  0
  5  7  1  0  0  0  0
  7  8  1  1  0  0  0
  7  9  1  0  0  0  0
  9 10  1  0  0  0  0
  9 11  1  6  0  0  0
 11 35  1  0  0  0  0
 12 13  1  1  0  0  0
 12 14  1  0  0  0  0
 12 20  1  0  0  0  0
 14 15  1  0  0  0  0
 14 40  1  6  0  0  0
 15 16  1  1  0  0  0
 15 17  1  0  0  0  0
 17  2  1  6  0  0  0
 17 18  1  0  0  0  0
 18 19  1  1  0  0  0
 18 20  1  0  0  0  0
 21 16  1  6  0  0  0
 21 22  1  0  0  0  0
 21 25  1  0  0  0  0
 22 23  1  0  0  0  0
 22 36  1  1  0  0  0
 23 24  1  0  0  0  0
 23 31  1  1  0  0  0
 24 25  1  0  0  0  0
 24 26  1  6  0  0  0
 26 39  1  0  0  0  0
 27 28  1  0  0  0  0
 27 32  1  0  0  0  0
 27 38  1  6  0  0  0
 28 29  1  0  0  0  0
 28 37  1  1  0  0  0
 29 30  1  0  0  0  0
 29 42  1  6  0  0  0
 30 31  1  6  0  0  0
 30 33  1  0  0  0  0
 32 33  1  0  0  0  0
 32 34  1  1  0  0  0
 34 41  1  0  0  0  0
M  CHG  6   4   1  13   1  19   1  35   1  41   1  42   1
M  END
>  <CHROM.1>
-176.31882593,-34.34447077,-20.52158152,-173.27637428,176.88117983,-167.89994969
65.57265125,165.69904197,-44.26823735,45.67252540,49.77184255,-14.32447124
-172.27013703,167.64592854,52.53195966,-177.76683000,75.95153871,69.88654973
53.72898728,-129.84375578,72.16504107,52.51335803,-4.16415250,1.46103094
-2.37160244,2.00550330,0.66306930,-1.87307832

>  <Name>


>  <RI>
0

>  <Rbt.Current_Directory>
/home/itssahil/PROJECTS/Mol_Feturizer/New_Systems/rnas/1ei2

>  <Rbt.Executable>
rbdock ($Id: //depot/dev/client3/rdock/2013.1/src/exe/rbdock.cxx#4 $)

>  <Rbt.Library>
libRbt.so (2013.1, Build901 2013/11/27)

>  <Rbt.Parameter_File>
/export/apps/rDock/src/rDock_2013.1_src/data/scripts/dock_solv.prm

>  <Rbt.Receptor>
prm/pocket_docking_5.prm

>  <SCORE>
-40.8497

>  <SCORE.INTER>
-28.2922

>  <SCORE.INTER.CONST>
1

>  <SCORE.INTER.POLAR>
-4.82203

>  <SCORE.INTER.ROT>
9

>  <SCORE.INTER.SOLV>
28.3195

>  <SCORE.INTER.VDW>
-21.8278

>  <SCORE.INTER.norm>
-0.673623

>  <SCORE.INTRA>
-12.5576

>  <SCORE.INTRA.DIHEDRAL>
-17.1244

>  <SCORE.INTRA.DIHEDRAL.0>
40.8761

>  <SCORE.INTRA.POLAR>
-0.392715

>  <SCORE.INTRA.POLAR.0>
-0.0268208

>  <SCORE.INTRA.REPUL>
-0.261995

>  <SCORE.INTRA.REPUL.0>
0.641615

>  <SCORE.INTRA.SOLV>
-8.54258

>  <SCORE.INTRA.SOLV.lig_0>
-162.567

>  <SCORE.INTRA.VDW>
2.92113

>  <SCORE.INTRA.VDW.0>
-4.80338

>  <SCORE.INTRA.norm>
-0.29899

>  <SCORE.RESTR>
0

>  <SCORE.RESTR.CAVITY>
0

>  <SCORE.RESTR.norm>
0

>  <SCORE.SYSTEM>
0

>  <SCORE.SYSTEM.CONST>
0

>  <SCORE.SYSTEM.DIHEDRAL>
0

>  <SCORE.SYSTEM.SOLV>
0

>  <SCORE.SYSTEM.norm>
0

>  <SCORE.heavy>
42

>  <SCORE.norm>
-0.972613

>  <RMSD>
6.978

$$$$

 OpenBabel11021811393D
libRbt.so/2013.1/901 2013/11/27
 42 45  0  0  0  0  0  0  0  0999 V2000
   -3.6862    3.5194    3.3607 C   0  0  2  0  0  0  0  0  0  0  0  0
   -4.8753    4.3277    3.6180 O   0  0  0  0  0  0  0  0  0  0  0  0
   -3.8530    2.0618    3.9004 C   0  0  2  0  0  0  0  0  0  0  0  0
   -5.2674    1.7526    4.2122 N   0  3  0  0  0  0  0  0  0  0  0  0
   -2.9543    1.8326    5.1529 C   0  0  1  0  0  0  0  0  0  0  0  0
   -3.1073    0.4974    5.6298 O   0  0  0  0  0  0  0  0  0  0  0  0
   -1.4538    2.0737    4.8376 C   0  0  2  0  0  0  0  0  0  0  0  0
   -0.7333    2.1350    6.0635 O   0  0  0  0  0  0  0  0  0  0  0  0
   -1.2493    3.3960    4.0294 C   0  0  2  0  0  0  0  0  0  0  0  0
   -2.5050    4.1475    3.9669 O   0  0  0  0  0  0  0  0  0  0  0  0
   -0.7889    3.1899    2.5680 C   0  0  0  0  0  0  0  0  0  0  0  0
   -6.3998    8.3205    3.0231 C   0  0  1  0  0  0  0  0  0  0  0  0
   -6.6205    9.6894    2.5056 N   0  3  0  0  0  0  0  0  0  0  0  0
   -6.8502    7.2455    1.9994 C   0  0  1  0  0  0  0  0  0  0  0  0
   -6.5028    5.7778    2.4297 C   0  0  1  0  0  0  0  0  0  0  0  0
   -6.6708    4.9142    1.2734 O   0  0  0  0  0  0  0  0  0  0  0  0
   -5.0229    5.6108    2.9358 C   0  0  1  0  0  0  0  0  0  0  0  0
   -4.6168    6.7369    3.9407 C   0  0  1  0  0  0  0  0  0  0  0  0
   -3.1861    6.6686    4.3015 N   0  3  0  0  0  0  0  0  0  0  0  0
   -4.9077    8.1449    3.3742 C   0  0  0  0  0  0  0  0  0  0  0  0
   -5.9642    5.2232    0.0373 C   0  0  1  0  0  0  0  0  0  0  0  0
   -6.1262    4.0489   -0.9208 C   0  0  1  0  0  0  0  0  0  0  0  0
   -7.5193    4.3381   -1.4631 C   0  0  1  0  0  0  0  0  0  0  0  0
   -7.4716    5.8620   -1.6440 C   0  0  2  0  0  0  0  0  0  0  0  0
   -6.5795    6.3476   -0.6125 O   0  0  0  0  0  0  0  0  0  0  0  0
   -8.8525    6.5281   -1.5070 C   0  0  0  0  0  0  0  0  0  0  0  0
   -8.9925    4.4103   -6.2790 C   0  0  1  0  0  0  0  0  0  0  0  0
   -8.6753    2.9937   -5.7239 C   0  0  1  0  0  0  0  0  0  0  0  0
   -9.3611    2.6763   -4.3637 C   0  0  2  0  0  0  0  0  0  0  0  0
   -9.0791    3.7986   -3.3137 C   0  0  1  0  0  0  0  0  0  0  0  0
   -7.7560    3.6499   -2.7249 O   0  0  0  0  0  0  0  0  0  0  0  0
   -9.8189    5.2376   -5.2481 C   0  0  1  0  0  0  0  0  0  0  0  0
   -9.1923    5.1420   -3.9272 O   0  0  0  0  0  0  0  0  0  0  0  0
   -9.9416    6.7304   -5.6485 C   0  0  0  0  0  0  0  0  0  0  0  0
   -0.4622    4.4349    1.8507 N   0  3  0  0  0  0  0  0  0  0  0  0
   -5.1383    4.1245   -1.9488 O   0  0  0  0  0  0  0  0  0  0  0  0
   -9.1018    2.0285   -6.6845 O   0  0  0  0  0  0  0  0  0  0  0  0
   -7.7574    5.0709   -6.5639 O   0  0  0  0  0  0  0  0  0  0  0  0
   -8.7351    7.8236   -0.9444 O   0  0  0  0  0  0  0  0  0  0  0  0
   -8.2629    7.3452    1.8212 O   0  0  0  0  0  0  0  0  0  0  0  0
  -11.0206    7.4307   -4.9279 N   0  3  0  0  0  0  0  0  0  0  0  0
   -8.9889    1.3268   -3.8711 N   0  3  0  0  0  0  0  0  0  0  0  0
  1  2  1  1  0  0  0
  1  3  1  0  0  0  0
  1 10  1  0  0  0  0
  3  4  1  1  0  0  0
  3  5  1  0  0  0  0
  5  6  1  6  0  0  0
  5  7  1  0  0  0  0
  7  8  1  1  0  0  0
  7  9  1  0  0  0  0
  9 10  1  0  0  0  0
  9 11  1  6  0  0  0
 11 35  1  0  0  0  0
 12 13  1  6  0  0  0
 12 14  1  0  0  0  0
 12 20  1  0  0  0  0
 14 15  1  0  0  0  0
 14 40  1  1  0  0  0
 15 16  1  6  0  0  0
 15 17  1  0  0  0  0
 17  2  1  1  0  0  0
 17 18  1  0  0  0  0
 18 19  1  6  0  0  0
 18 20  1  0  0  0  0
 21 16  1  1  0  0  0
 21 22  1  0  0  0  0
 21 25  1  0  0  0  0
 22 23  1  0  0  0  0
 22 36  1  6  0  0  0
 23 24  1  0  0  0  0
 23 31  1  6  0  0  0
 24 25  1  0  0  0  0
 24 26  1  1  0  0  0
 26 39  1  0  0  0  0
 27 28  1  0  0  0  0
 27 32  1  0  0  0  0
 27 38  1  1  0  0  0
 28 29  1  0  0  0  0
 28 37  1  6  0  0  0
 29 30  1  0  0  0  0
 29 42  1  1  0  0  0
 30 31  1  6  0  0  0
 30 33  1  0  0  0  0
 32 33  1  0  0  0  0
 32 34  1  6  0  0  0
 34 41  1  0  0  0  0
M  CHG  6   4   1  13   1  19   1  35   1  41   1  42   1
M  END
>  <CHROM.1>
-166.65039355,137.20999641,-106.34134444,-68.14945884,68.03246166,-173.96632880
45.29865337,-179.63541770,171.66855753,54.68183114,170.53733906,-164.22059616
-51.80898487,177.23251900,147.30684918,56.66043879,66.09396503,64.06243627
155.93784134,-161.14359320,163.10143461,-155.51287368,-6.09590379,4.73243662
0.19011873,-0.42775885,0.89467994,-2.49608026

>  <Name>


>  <RI>
0

>  <Rbt.Current_Directory>
/home/itssahil/PROJECTS/Mol_Feturizer/New_Systems/rnas/1ei2

>  <Rbt.Executable>
rbdock ($Id: //depot/dev/client3/rdock/2013.1/src/exe/rbdock.cxx#4 $)

>  <Rbt.Library>
libRbt.so (2013.1, Build901 2013/11/27)

>  <Rbt.Parameter_File>
/export/apps/rDock/src/rDock_2013.1_src/data/scripts/dock_solv.prm

>  <Rbt.Receptor>
prm/pocket_docking_5.prm

>  <SCORE>
-49.6462

>  <SCORE.INTER>
-27.9764

>  <SCORE.INTER.CONST>
1

>  <SCORE.INTER.POLAR>
-4.82101

>  <SCORE.INTER.ROT>
9

>  <SCORE.INTER.SOLV>
24.6056

>  <SCORE.INTER.VDW>
-20.3827

>  <SCORE.INTER.norm>
-0.666105

>  <SCORE.INTRA>
-21.6716

>  <SCORE.INTRA.DIHEDRAL>
-18.7241

>  <SCORE.INTRA.DIHEDRAL.0>
40.8761

>  <SCORE.INTRA.POLAR>
-1.47746

>  <SCORE.INTRA.POLAR.0>
-0.0268208

>  <SCORE.INTRA.REPUL>
-0.641615

>  <SCORE.INTRA.REPUL.0>
0.641615

>  <SCORE.INTRA.SOLV>
-9.54883

>  <SCORE.INTRA.SOLV.lig_0>
-162.567

>  <SCORE.INTRA.VDW>
0.696291

>  <SCORE.INTRA.VDW.0>
-4.80338

>  <SCORE.INTRA.norm>
-0.51599

>  <SCORE.RESTR>
0.00175968

>  <SCORE.RESTR.CAVITY>
0.00175968

>  <SCORE.RESTR.norm>
4.18971e-05

>  <SCORE.SYSTEM>
0

>  <SCORE.SYSTEM.CONST>
0

>  <SCORE.SYSTEM.DIHEDRAL>
0

>  <SCORE.SYSTEM.SOLV>
0

>  <SCORE.SYSTEM.norm>
0

>  <SCORE.heavy>
42

>  <SCORE.norm>
-1.18205

>  <RMSD>
6.996

$$$$

 OpenBabel11021811393D
libRbt.so/2013.1/901 2013/11/27
 42 45  0  0  0  0  0  0  0  0999 V2000
   -3.7072    3.4252   -0.7565 C   0  0  2  0  0  0  0  0  0  0  0  0
   -2.9304    3.6921   -1.9644 O   0  0  0  0  0  0  0  0  0  0  0  0
   -3.5494    4.5715    0.2945 C   0  0  2  0  0  0  0  0  0  0  0  0
   -2.9572    5.7880   -0.3078 N   0  3  0  0  0  0  0  0  0  0  0  0
   -2.6971    4.0919    1.5080 C   0  0  1  0  0  0  0  0  0  0  0  0
   -2.5688    5.1421    2.4641 O   0  0  0  0  0  0  0  0  0  0  0  0
   -3.3342    2.8627    2.2098 C   0  0  2  0  0  0  0  0  0  0  0  0
   -2.3809    2.3036    3.1066 O   0  0  0  0  0  0  0  0  0  0  0  0
   -3.7864    1.7869    1.1698 C   0  0  2  0  0  0  0  0  0  0  0  0
   -3.3022    2.1428   -0.1660 O   0  0  0  0  0  0  0  0  0  0  0  0
   -5.3182    1.6154    1.0492 C   0  0  0  0  0  0  0  0  0  0  0  0
   -3.4757    3.3908   -6.2343 C   0  0  1  0  0  0  0  0  0  0  0  0
   -3.7555    2.8753   -7.5931 N   0  3  0  0  0  0  0  0  0  0  0  0
   -4.7640    3.4519   -5.3723 C   0  0  1  0  0  0  0  0  0  0  0  0
   -4.5058    3.8479   -3.8768 C   0  0  1  0  0  0  0  0  0  0  0  0
   -5.7088    3.5562   -3.1161 O   0  0  0  0  0  0  0  0  0  0  0  0
   -3.3218    3.0501   -3.2167 C   0  0  1  0  0  0  0  0  0  0  0  0
   -2.0631    2.9977   -4.1418 C   0  0  1  0  0  0  0  0  0  0  0  0
   -1.0056    2.1261   -3.5903 N   0  3  0  0  0  0  0  0  0  0  0  0
   -2.4135    2.4969   -5.5610 C   0  0  0  0  0  0  0  0  0  0  0  0
   -6.3192    2.2370   -3.2149 C   0  0  1  0  0  0  0  0  0  0  0  0
   -7.1311    1.9819   -1.9506 C   0  0  1  0  0  0  0  0  0  0  0  0
   -8.3954    2.7621   -2.2842 C   0  0  1  0  0  0  0  0  0  0  0  0
   -8.5935    2.4128   -3.7661 C   0  0  2  0  0  0  0  0  0  0  0  0
   -7.2625    2.2119   -4.2988 O   0  0  0  0  0  0  0  0  0  0  0  0
   -9.3181    3.5191   -4.5538 C   0  0  0  0  0  0  0  0  0  0  0  0
   -9.0555    6.0500   -0.6526 C   0  0  1  0  0  0  0  0  0  0  0  0
  -10.2810    5.4407   -1.3890 C   0  0  1  0  0  0  0  0  0  0  0  0
  -10.9208    4.2247   -0.6588 C   0  0  2  0  0  0  0  0  0  0  0  0
   -9.8455    3.1460   -0.3098 C   0  0  1  0  0  0  0  0  0  0  0  0
   -9.5227    2.3282   -1.4700 O   0  0  0  0  0  0  0  0  0  0  0  0
   -8.6692    5.1883    0.5877 C   0  0  1  0  0  0  0  0  0  0  0  0
   -8.6071    3.7757    0.2036 O   0  0  0  0  0  0  0  0  0  0  0  0
   -7.3099    5.6107    1.2025 C   0  0  0  0  0  0  0  0  0  0  0  0
   -5.9664    1.0652    2.2527 N   0  3  0  0  0  0  0  0  0  0  0  0
   -7.3969    0.5851   -1.8209 O   0  0  0  0  0  0  0  0  0  0  0  0
  -11.2714    6.4581   -1.5317 O   0  0  0  0  0  0  0  0  0  0  0  0
   -7.9614    6.1109   -1.5702 O   0  0  0  0  0  0  0  0  0  0  0  0
   -8.4917    4.6616   -4.6970 O   0  0  0  0  0  0  0  0  0  0  0  0
   -5.6562    4.4057   -5.9481 O   0  0  0  0  0  0  0  0  0  0  0  0
   -7.2780    5.4765    2.6705 N   0  3  0  0  0  0  0  0  0  0  0  0
  -12.0596    3.6673   -1.4300 N   0  3  0  0  0  0  0  0  0  0  0  0
  1  2  1  6  0  0  0
  1  3  1  0  0  0  0
  1 10  1  0  0  0  0
  3  4  1  6  0  0  0
  3  5  1  0  0  0  0
  5  6  1  1  0  0  0
  5  7  1  0  0  0  0
  7  8  1  1  0  0  0
  7  9  1  0  0  0  0
  9 10  1  0  0  0  0
  9 11  1  6  0  0  0
 11 35  1  0  0  0  0
 12 13  1  6  0  0  0
 12 14  1  0  0  0  0
 12 20  1  0  0  0  0
 14 15  1  0  0  0  0
 14 40  1  6  0  0  0
 15 16  1  1  0  0  0
 15 17  1  0  0  0  0
 17  2  1  1  0  0  0
 17 18  1  0  0  0  0
 18 19  1  1  0  0  0
 18 20  1  0  0  0  0
 21 16  1  1  0  0  0
 21 22  1  0  0  0  0
 21 25  1  0  0  0  0
 22 23  1  0  0  0  0
 22 36  1  6  0  0  0
 23 24  1  0  0  0  0
 23 31  1  1  0  0  0
 24 25  1  0  0  0  0
 24 26  1  6  0  0  0
 26 39  1  0  0  0  0
 27 28  1  0  0  0  0
 27 32  1  0  0  0  0
 27 38  1  6  0  0  0
 28 29  1  0  0  0  0
 28 37  1  1  0  0  0
 29 30  1  0  0  0  0
 29 42  1  6  0  0  0
 30 31  1  6  0  0  0
 30 33  1  0  0  0  0
 32 33  1  0  0  0  0
 32 34  1  6  0  0  0
 34 41  1  0  0  0  0
M  CHG  6   4   1  13   1  19   1  35   1  41   1  42   1
M  END
>  <CHROM.1>
-156.79677431,81.23972429,-97.53199445,-55.19761155,171.99807710,-66.46360922
-57.15359958,173.49543034,71.99973582,51.34347250,155.76716824,-167.45035295
67.30377230,99.14853611,69.54337969,179.00926973,171.84979513,169.33425344
156.49901456,92.69126212,145.21097513,49.98233490,-6.07260620,3.54703740
-1.62362145,-0.10494056,-0.16937706,1.48856381

>  <Name>


>  <RI>
0

>  <Rbt.Current_Directory>
/home/itssahil/PROJECTS/Mol_Feturizer/New_Systems/rnas/1ei2

>  <Rbt.Executable>
rbdock ($Id: //depot/dev/client3/rdock/2013.1/src/exe/rbdock.cxx#4 $)

>  <Rbt.Library>
libRbt.so (2013.1, Build901 2013/11/27)

>  <Rbt.Parameter_File>
/export/apps/rDock/src/rDock_2013.1_src/data/scripts/dock_solv.prm

>  <Rbt.Receptor>
prm/pocket_docking_3.prm

>  <SCORE>
-51.1931

>  <SCORE.INTER>
-35.7286

>  <SCORE.INTER.CONST>
1

>  <SCORE.INTER.POLAR>
-5.70413

>  <SCORE.INTER.ROT>
9

>  <SCORE.INTER.SOLV>
31.5189

>  <SCORE.INTER.VDW>
-24.9116

>  <SCORE.INTER.norm>
-0.850682

>  <SCORE.INTRA>
-16.2607

>  <SCORE.INTRA.DIHEDRAL>
-13.5249

>  <SCORE.INTRA.DIHEDRAL.0>
40.8761

>  <SCORE.INTRA.POLAR>
-0.0356147

>  <SCORE.INTRA.POLAR.0>
-0.0268208

>  <SCORE.INTRA.REPUL>
-0.169381

>  <SCORE.INTRA.REPUL.0>
0.641615

>  <SCORE.INTRA.SOLV>
-10.7047

>  <SCORE.INTRA.SOLV.lig_0>
-162.567

>  <SCORE.INTRA.VDW>
-3.17793

>  <SCORE.INTRA.VDW.0>
-4.80338

>  <SCORE.INTRA.norm>
-0.38716

>  <SCORE.RESTR>
0.796286

>  <SCORE.RESTR.CAVITY>
0.796286

>  <SCORE.RESTR.norm>
0.0189592

>  <SCORE.SYSTEM>
0

>  <SCORE.SYSTEM.CONST>
0

>  <SCORE.SYSTEM.DIHEDRAL>
0

>  <SCORE.SYSTEM.SOLV>
0

>  <SCORE.SYSTEM.norm>
0

>  <SCORE.heavy>
42

>  <SCORE.norm>
-1.21888

>  <RMSD>
6.997

$$$$

 OpenBabel11021811393D
libRbt.so/2013.1/901 2013/11/27
 42 45  0  0  0  0  0  0  0  0999 V2000
   -5.6285    4.4177   -0.7130 C   0  0  2  0  0  0  0  0  0  0  0  0
   -4.3342    4.4005   -0.0361 O   0  0  0  0  0  0  0  0  0  0  0  0
   -6.6457    5.3567    0.0133 C   0  0  2  0  0  0  0  0  0  0  0  0
   -5.9688    6.2559    0.9758 N   0  3  0  0  0  0  0  0  0  0  0  0
   -7.7507    4.5223    0.7287 C   0  0  1  0  0  0  0  0  0  0  0  0
   -8.6777    5.3894    1.3786 O   0  0  0  0  0  0  0  0  0  0  0  0
   -8.5318    3.6252   -0.2685 C   0  0  2  0  0  0  0  0  0  0  0  0
   -9.3108    2.6911    0.4707 O   0  0  0  0  0  0  0  0  0  0  0  0
   -7.5606    2.8690   -1.2320 C   0  0  2  0  0  0  0  0  0  0  0  0
   -6.1740    3.0567   -0.7989 O   0  0  0  0  0  0  0  0  0  0  0  0
   -7.6264    3.3349   -2.7047 C   0  0  0  0  0  0  0  0  0  0  0  0
   -2.3098    2.1093   -3.0811 C   0  0  1  0  0  0  0  0  0  0  0  0
   -1.2654    1.4921   -3.9289 N   0  3  0  0  0  0  0  0  0  0  0  0
   -2.3015    1.5184   -1.6469 C   0  0  1  0  0  0  0  0  0  0  0  0
   -3.2856    2.2386   -0.6606 C   0  0  1  0  0  0  0  0  0  0  0  0
   -2.9550    1.8254    0.6925 O   0  0  0  0  0  0  0  0  0  0  0  0
   -3.1853    3.8074   -0.7156 C   0  0  1  0  0  0  0  0  0  0  0  0
   -3.1689    4.3423   -2.1841 C   0  0  1  0  0  0  0  0  0  0  0  0
   -2.9255    5.7981   -2.2413 N   0  3  0  0  0  0  0  0  0  0  0  0
   -2.0938    3.6365   -3.0407 C   0  0  0  0  0  0  0  0  0  0  0  0
   -1.5777    1.4839    1.0232 C   0  0  1  0  0  0  0  0  0  0  0  0
   -0.7092    2.7198    0.8207 C   0  0  1  0  0  0  0  0  0  0  0  0
   -0.9990    3.4641    2.1170 C   0  0  1  0  0  0  0  0  0  0  0  0
   -0.9998    2.3184    3.1390 C   0  0  2  0  0  0  0  0  0  0  0  0
   -1.4743    1.1559    2.4185 O   0  0  0  0  0  0  0  0  0  0  0  0
   -1.9047    2.5951    4.3531 C   0  0  0  0  0  0  0  0  0  0  0  0
    2.9539    5.0205    4.8341 C   0  0  1  0  0  0  0  0  0  0  0  0
    2.4213    6.0622    3.8110 C   0  0  1  0  0  0  0  0  0  0  0  0
    0.8820    6.2817    3.8709 C   0  0  2  0  0  0  0  0  0  0  0  0
    0.1143    4.9234    3.7843 C   0  0  1  0  0  0  0  0  0  0  0  0
    0.0321    4.4506    2.4099 O   0  0  0  0  0  0  0  0  0  0  0  0
    1.7760    4.3294    5.5859 C   0  0  1  0  0  0  0  0  0  0  0  0
    0.7679    3.8886    4.6184 O   0  0  0  0  0  0  0  0  0  0  0  0
    2.2424    3.1135    6.4274 C   0  0  0  0  0  0  0  0  0  0  0  0
   -7.0581    2.3796   -3.6720 N   0  3  0  0  0  0  0  0  0  0  0  0
    0.6633    2.3365    0.7328 O   0  0  0  0  0  0  0  0  0  0  0  0
    3.0686    7.3093    4.0609 O   0  0  0  0  0  0  0  0  0  0  0  0
    3.7259    4.0471    4.1273 O   0  0  0  0  0  0  0  0  0  0  0  0
   -2.3370    1.3835    4.9478 O   0  0  0  0  0  0  0  0  0  0  0  0
   -2.6574    0.1379   -1.7175 O   0  0  0  0  0  0  0  0  0  0  0  0
    1.1258    2.4053    7.0796 N   0  3  0  0  0  0  0  0  0  0  0  0
    0.4336    7.2575    2.8467 N   0  3  0  0  0  0  0  0  0  0  0  0
  1  2  1  1  0  0  0
  1  3  1  0  0  0  0
  1 10  1  0  0  0  0
  3  4  1  1  0  0  0
  3  5  1  0  0  0  0
  5  6  1  6  0  0  0
  5  7  1  0  0  0  0
  7  8  1  1  0  0  0
  7  9  1  0  0  0  0
  9 10  1  0  0  0  0
  9 11  1  6  0  0  0
 11 35  1  0  0  0  0
 12 13  1  6  0  0  0
 12 14  1  0  0  0  0
 12 20  1  0  0  0  0
 14 15  1  0  0  0  0
 14 40  1  6  0  0  0
 15 16  1  1  0  0  0
 15 17  1  0  0  0  0
 17  2  1  1  0  0  0
 17 18  1  0  0  0  0
 18 19  1  1  0  0  0
 18 20  1  0  0  0  0
 21 16  1  1  0  0  0
 21 22  1  0  0  0  0
 21 25  1  0  0  0  0
 22 23  1  0  0  0  0
 22 36  1  1  0  0  0
 23 24  1  0  0  0  0
 23 31  1  1  0  0  0
 24 25  1  0  0  0  0
 24 26  1  1  0  0  0
 26 39  1  0  0  0  0
 27 28  1  0  0  0  0
 27 32  1  0  0  0  0
 27 38  1  6  0  0  0
 28 29  1  0  0  0  0
 28 37  1  1  0  0  0
 29 30  1  0  0  0  0
 29 42  1  6  0  0  0
 30 31  1  6  0  0  0
 30 33  1  0  0  0  0
 32 33  1  0  0  0  0
 32 34  1  6  0  0  0
 34 41  1  0  0  0  0
M  CHG  6   4   1  13   1  19   1  35   1  41   1  42   1
M  END
>  <CHROM.1>
-167.37039545,-76.41169946,171.09055325,-176.70687376,170.83289178,-161.65316641
61.64971526,57.73258532,-45.13997498,30.51257097,62.42293686,66.47527599
62.16851685,-161.23942155,154.80112260,64.91306380,178.34709190,60.23069377
50.23826693,-160.46520839,-176.64885805,-65.22952707,-2.40530938,3.60550957
1.16712263,2.52628612,0.15084694,-1.94154719

>  <Name>


>  <RI>
0

>  <Rbt.Current_Directory>
/home/itssahil/PROJECTS/Mol_Feturizer/New_Systems/rnas/1ei2

>  <Rbt.Executable>
rbdock ($Id: //depot/dev/client3/rdock/2013.1/src/exe/rbdock.cxx#4 $)

>  <Rbt.Library>
libRbt.so (2013.1, Build901 2013/11/27)

>  <Rbt.Parameter_File>
/export/apps/rDock/src/rDock_2013.1_src/data/scripts/dock_solv.prm

>  <Rbt.Receptor>
prm/pocket_docking_8.prm

>  <SCORE>
-57.1827

>  <SCORE.INTER>
-37.8077

>  <SCORE.INTER.CONST>
1

>  <SCORE.INTER.POLAR>
-6.95562

>  <SCORE.INTER.ROT>
9

>  <SCORE.INTER.SOLV>
24.3981

>  <SCORE.INTER.VDW>
-19.7524

>  <SCORE.INTER.norm>
-0.900183

>  <SCORE.INTRA>
-19.8499

>  <SCORE.INTRA.DIHEDRAL>
-25.8277

>  <SCORE.INTRA.DIHEDRAL.0>
40.8761

>  <SCORE.INTRA.POLAR>
0.0268208

>  <SCORE.INTRA.POLAR.0>
-0.0268208

>  <SCORE.INTRA.REPUL>
-0.586229

>  <SCORE.INTRA.REPUL.0>
0.641615

>  <SCORE.INTRA.SOLV>
-12.8752

>  <SCORE.INTRA.SOLV.lig_0>
-162.567

>  <SCORE.INTRA.VDW>
2.34145

>  <SCORE.INTRA.VDW.0>
-4.80338

>  <SCORE.INTRA.norm>
-0.472617

>  <SCORE.RESTR>
0.474913

>  <SCORE.RESTR.CAVITY>
0.474913

>  <SCORE.RESTR.norm>
0.0113075

>  <SCORE.SYSTEM>
0

>  <SCORE.SYSTEM.CONST>
0

>  <SCORE.SYSTEM.DIHEDRAL>
0

>  <SCORE.SYSTEM.SOLV>
0

>  <SCORE.SYSTEM.norm>
0

>  <SCORE.heavy>
42

>  <SCORE.norm>
-1.36149

>  <RMSD>
7.008

$$$$

 OpenBabel11021811393D
libRbt.so/2013.1/901 2013/11/27
 42 45  0  0  0  0  0  0  0  0999 V2000
   -2.9759    2.5030   -1.9438 C   0  0  2  0  0  0  0  0  0  0  0  0
   -2.5041    3.3880   -0.8818 O   0  0  0  0  0  0  0  0  0  0  0  0
   -1.7956    1.9846   -2.8281 C   0  0  2  0  0  0  0  0  0  0  0  0
   -0.4842    2.2173   -2.1806 N   0  3  0  0  0  0  0  0  0  0  0  0
   -1.8336    2.6454   -4.2391 C   0  0  1  0  0  0  0  0  0  0  0  0
   -0.7590    2.1574   -5.0393 O   0  0  0  0  0  0  0  0  0  0  0  0
   -3.1681    2.3537   -4.9763 C   0  0  2  0  0  0  0  0  0  0  0  0
   -3.2596    3.2082   -6.1108 O   0  0  0  0  0  0  0  0  0  0  0  0
   -4.3965    2.5783   -4.0360 C   0  0  2  0  0  0  0  0  0  0  0  0
   -3.9636    3.1967   -2.7808 O   0  0  0  0  0  0  0  0  0  0  0  0
   -5.1533    1.2867   -3.6498 C   0  0  0  0  0  0  0  0  0  0  0  0
   -3.9576    1.4288    2.6775 C   0  0  1  0  0  0  0  0  0  0  0  0
   -4.5015    1.1697    4.0293 N   0  3  0  0  0  0  0  0  0  0  0  0
   -5.0264    2.0561    1.7445 C   0  0  1  0  0  0  0  0  0  0  0  0
   -4.4672    2.4912    0.3453 C   0  0  1  0  0  0  0  0  0  0  0  0
   -5.4566    3.3413   -0.2944 O   0  0  0  0  0  0  0  0  0  0  0  0
   -3.1268    3.3092    0.4371 C   0  0  1  0  0  0  0  0  0  0  0  0
   -2.1011    2.6457    1.4120 C   0  0  1  0  0  0  0  0  0  0  0  0
   -0.9040    3.4872    1.6142 N   0  3  0  0  0  0  0  0  0  0  0  0
   -2.7280    2.3536    2.7939 C   0  0  0  0  0  0  0  0  0  0  0  0
   -5.0841    4.6851   -0.7166 C   0  0  1  0  0  0  0  0  0  0  0  0
   -6.2918    5.3382   -1.3782 C   0  0  1  0  0  0  0  0  0  0  0  0
   -7.0684    5.7744   -0.1432 C   0  0  1  0  0  0  0  0  0  0  0  0
   -5.9428    6.2895    0.7651 C   0  0  2  0  0  0  0  0  0  0  0  0
   -4.7801    5.4942    0.4314 O   0  0  0  0  0  0  0  0  0  0  0  0
   -6.2673    6.1512    2.2634 C   0  0  0  0  0  0  0  0  0  0  0  0
  -10.0363    3.7340    0.6341 C   0  0  1  0  0  0  0  0  0  0  0  0
   -9.8575    5.0301    1.4729 C   0  0  1  0  0  0  0  0  0  0  0  0
  -10.1860    6.3387    0.6978 C   0  0  2  0  0  0  0  0  0  0  0  0
   -9.4115    6.4014   -0.6579 C   0  0  1  0  0  0  0  0  0  0  0  0
   -8.0318    6.8205   -0.4584 O   0  0  0  0  0  0  0  0  0  0  0  0
  -10.3672    4.0755   -0.8505 C   0  0  1  0  0  0  0  0  0  0  0  0
   -9.4288    5.0878   -1.3419 O   0  0  0  0  0  0  0  0  0  0  0  0
  -10.3051    2.8308   -1.7729 C   0  0  0  0  0  0  0  0  0  0  0  0
   -4.3781    0.0474   -3.8357 N   0  3  0  0  0  0  0  0  0  0  0  0
   -5.8696    6.4600   -2.1541 O   0  0  0  0  0  0  0  0  0  0  0  0
  -10.7126    4.9496    2.6125 O   0  0  0  0  0  0  0  0  0  0  0  0
   -8.8257    2.9777    0.7074 O   0  0  0  0  0  0  0  0  0  0  0  0
   -5.6664    7.1959    3.0092 O   0  0  0  0  0  0  0  0  0  0  0  0
   -6.0721    1.1061    1.5412 O   0  0  0  0  0  0  0  0  0  0  0  0
   -8.9349    2.3159   -1.9499 N   0  3  0  0  0  0  0  0  0  0  0  0
   -9.9600    7.5390    1.5407 N   0  3  0  0  0  0  0  0  0  0  0  0
  1  2  1  1  0  0  0
  1  3  1  0  0  0  0
  1 10  1  0  0  0  0
  3  4  1  1  0  0  0
  3  5  1  0  0  0  0
  5  6  1  6  0  0  0
  5  7  1  0  0  0  0
  7  8  1  6  0  0  0
  7  9  1  0  0  0  0
  9 10  1  0  0  0  0
  9 11  1  1  0  0  0
 11 35  1  0  0  0  0
 12 13  1  1  0  0  0
 12 14  1  0  0  0  0
 12 20  1  0  0  0  0
 14 15  1  0  0  0  0
 14 40  1  6  0  0  0
 15 16  1  1  0  0  0
 15 17  1  0  0  0  0
 17  2  1  6  0  0  0
 17 18  1  0  0  0  0
 18 19  1  1  0  0  0
 18 20  1  0  0  0  0
 21 16  1  1  0  0  0
 21 22  1  0  0  0  0
 21 25  1  0  0  0  0
 22 23  1  0  0  0  0
 22 36  1  6  0  0  0
 23 24  1  0  0  0  0
 23 31  1  6  0  0  0
 24 25  1  0  0  0  0
 24 26  1  1  0  0  0
 26 39  1  0  0  0  0
 27 28  1  0  0  0  0
 27 32  1  0  0  0  0
 27 38  1  6  0  0  0
 28 29  1  0  0  0  0
 28 37  1  1  0  0  0
 29 30  1  0  0  0  0
 29 42  1  1  0  0  0
 30 31  1  1  0  0  0
 30 33  1  0  0  0  0
 32 33  1  0  0  0  0
 32 34  1  6  0  0  0
 34 41  1  0  0  0  0
M  CHG  6   4   1  13   1  19   1  35   1  41   1  42   1
M  END
>  <CHROM.1>
-141.48346212,-14.13326650,-38.56125624,-14.04659974,-51.30479511,19.32474512
-64.58821453,-62.78761983,-72.20463509,123.11514206,178.79452620,56.95058901
63.23567925,98.62014456,-148.09995254,59.53030337,-49.84937230,69.23018271
80.32678474,86.43230515,-68.78513183,-67.17770436,-5.59875815,3.72193927
-0.55633035,0.49436019,0.36674983,-1.69847341

>  <Name>


>  <RI>
0

>  <Rbt.Current_Directory>
/home/itssahil/PROJECTS/Mol_Feturizer/New_Systems/rnas/1ei2

>  <Rbt.Executable>
rbdock ($Id: //depot/dev/client3/rdock/2013.1/src/exe/rbdock.cxx#4 $)

>  <Rbt.Library>
libRbt.so (2013.1, Build901 2013/11/27)

>  <Rbt.Parameter_File>
/export/apps/rDock/src/rDock_2013.1_src/data/scripts/dock_solv.prm

>  <Rbt.Receptor>
prm/pocket_docking_2.prm

>  <SCORE>
-19.0656

>  <SCORE.INTER>
-22.3824

>  <SCORE.INTER.CONST>
1

>  <SCORE.INTER.POLAR>
-3.25398

>  <SCORE.INTER.ROT>
9

>  <SCORE.INTER.SOLV>
22.9689

>  <SCORE.INTER.VDW>
-21.3313

>  <SCORE.INTER.norm>
-0.532915

>  <SCORE.INTRA>
0.719771

>  <SCORE.INTRA.DIHEDRAL>
4.08474

>  <SCORE.INTRA.DIHEDRAL.0>
40.8761

>  <SCORE.INTRA.POLAR>
-0.61017

>  <SCORE.INTRA.POLAR.0>
-0.0268208

>  <SCORE.INTRA.REPUL>
-0.368275

>  <SCORE.INTRA.REPUL.0>
0.641615

>  <SCORE.INTRA.SOLV>
-3.7553

>  <SCORE.INTRA.SOLV.lig_0>
-162.567

>  <SCORE.INTRA.VDW>
4.47101

>  <SCORE.INTRA.VDW.0>
-4.80338

>  <SCORE.INTRA.norm>
0.0171374

>  <SCORE.RESTR>
2.59705

>  <SCORE.RESTR.CAVITY>
2.59705

>  <SCORE.RESTR.norm>
0.0618346

>  <SCORE.SYSTEM>
0

>  <SCORE.SYSTEM.CONST>
0

>  <SCORE.SYSTEM.DIHEDRAL>
0

>  <SCORE.SYSTEM.SOLV>
0

>  <SCORE.SYSTEM.norm>
0

>  <SCORE.heavy>
42

>  <SCORE.norm>
-0.453943

>  <RMSD>
7.020

$$$$

 OpenBabel11021811393D
libRbt.so/2013.1/901 2013/11/27
 42 45  0  0  0  0  0  0  0  0999 V2000
   -6.5860    3.2955   -3.8721 C   0  0  2  0  0  0  0  0  0  0  0  0
   -6.0415    2.0069   -4.2924 O   0  0  0  0  0  0  0  0  0  0  0  0
   -7.7493    3.1208   -2.8424 C   0  0  2  0  0  0  0  0  0  0  0  0
   -7.7818    1.7506   -2.2815 N   0  3  0  0  0  0  0  0  0  0  0  0
   -9.1193    3.4775   -3.4942 C   0  0  1  0  0  0  0  0  0  0  0  0
  -10.1706    3.3243   -2.5431 O   0  0  0  0  0  0  0  0  0  0  0  0
   -9.1432    4.9365   -4.0235 C   0  0  2  0  0  0  0  0  0  0  0  0
  -10.2893    5.1037   -4.8507 O   0  0  0  0  0  0  0  0  0  0  0  0
   -7.8467    5.2683   -4.8311 C   0  0  2  0  0  0  0  0  0  0  0  0
   -7.0578    4.0519   -5.0394 O   0  0  0  0  0  0  0  0  0  0  0  0
   -6.9075    6.2876   -4.1462 C   0  0  0  0  0  0  0  0  0  0  0  0
   -3.4647    0.2559   -7.2780 C   0  0  1  0  0  0  0  0  0  0  0  0
   -2.4456    0.0679   -8.3346 N   0  3  0  0  0  0  0  0  0  0  0  0
   -2.8128    0.5988   -5.9129 C   0  0  1  0  0  0  0  0  0  0  0  0
   -3.8478    0.9564   -4.7900 C   0  0  1  0  0  0  0  0  0  0  0  0
   -3.1264    1.5634   -3.6845 O   0  0  0  0  0  0  0  0  0  0  0  0
   -4.9465    1.9799   -5.2587 C   0  0  1  0  0  0  0  0  0  0  0  0
   -5.5458    1.5993   -6.6511 C   0  0  1  0  0  0  0  0  0  0  0  0
   -6.4671    2.6356   -7.1602 N   0  3  0  0  0  0  0  0  0  0  0  0
   -4.4424    1.3693   -7.7081 C   0  0  0  0  0  0  0  0  0  0  0  0
   -2.2113    0.7525   -2.8922 C   0  0  1  0  0  0  0  0  0  0  0  0
   -1.3596    1.6802   -2.0339 C   0  0  1  0  0  0  0  0  0  0  0  0
   -2.3353    1.9640   -0.8999 C   0  0  1  0  0  0  0  0  0  0  0  0
   -2.9607    0.5800   -0.6751 C   0  0  2  0  0  0  0  0  0  0  0  0
   -2.9512   -0.0653   -1.9709 O   0  0  0  0  0  0  0  0  0  0  0  0
   -4.3980    0.6503   -0.1286 C   0  0  0  0  0  0  0  0  0  0  0  0
   -2.3952    1.6476    3.9694 C   0  0  1  0  0  0  0  0  0  0  0  0
   -1.1960    2.4960    3.4619 C   0  0  1  0  0  0  0  0  0  0  0  0
   -1.5944    3.6352    2.4797 C   0  0  2  0  0  0  0  0  0  0  0  0
   -2.4692    3.0885    1.3061 C   0  0  1  0  0  0  0  0  0  0  0  0
   -1.6475    2.4474    0.2897 O   0  0  0  0  0  0  0  0  0  0  0  0
   -3.7123    2.0597    3.2443 C   0  0  1  0  0  0  0  0  0  0  0  0
   -3.4778    2.1225    1.7994 O   0  0  0  0  0  0  0  0  0  0  0  0
   -4.8782    1.0786    3.5305 C   0  0  0  0  0  0  0  0  0  0  0  0
   -7.5658    7.5383   -3.7293 N   0  3  0  0  0  0  0  0  0  0  0  0
   -0.2044    0.9822   -1.5680 O   0  0  0  0  0  0  0  0  0  0  0  0
   -0.5459    3.0764    4.5919 O   0  0  0  0  0  0  0  0  0  0  0  0
   -2.1089    0.2688    3.7245 O   0  0  0  0  0  0  0  0  0  0  0  0
   -4.8753   -0.6416    0.2057 O   0  0  0  0  0  0  0  0  0  0  0  0
   -2.0400   -0.5204   -5.4796 O   0  0  0  0  0  0  0  0  0  0  0  0
   -5.7951    1.5672    4.5767 N   0  3  0  0  0  0  0  0  0  0  0  0
   -0.4033    4.3820    2.0044 N   0  3  0  0  0  0  0  0  0  0  0  0
  1  2  1  6  0  0  0
  1  3  1  0  0  0  0
  1 10  1  0  0  0  0
  3  4  1  6  0  0  0
  3  5  1  0  0  0  0
  5  6  1  1  0  0  0
  5  7  1  0  0  0  0
  7  8  1  6  0  0  0
  7  9  1  0  0  0  0
  9 10  1  0  0  0  0
  9 11  1  1  0  0  0
 11 35  1  0  0  0  0
 12 13  1  6  0  0  0
 12 14  1  0  0  0  0
 12 20  1  0  0  0  0
 14 15  1  0  0  0  0
 14 40  1  1  0  0  0
 15 16  1  1  0  0  0
 15 17  1  0  0  0  0
 17  2  1  1  0  0  0
 17 18  1  0  0  0  0
 18 19  1  6  0  0  0
 18 20  1  0  0  0  0
 21 16  1  1  0  0  0
 21 22  1  0  0  0  0
 21 25  1  0  0  0  0
 22 23  1  0  0  0  0
 22 36  1  1  0  0  0
 23 24  1  0  0  0  0
 23 31  1  1  0  0  0
 24 25  1  0  0  0  0
 24 26  1  6  0  0  0
 26 39  1  0  0  0  0
 27 28  1  0  0  0  0
 27 32  1  0  0  0  0
 27 38  1  6  0  0  0
 28 29  1  0  0  0  0
 28 37  1  1  0  0  0
 29 30  1  0  0  0  0
 29 42  1  6  0  0  0
 30 31  1  6  0  0  0
 30 33  1  0  0  0  0
 32 33  1  0  0  0  0
 32 34  1  6  0  0  0
 34 41  1  0  0  0  0
M  CHG  6   4   1  13   1  19   1  35   1  41   1  42   1
M  END
>  <CHROM.1>
179.81358252,135.25745331,44.48532549,-64.66805963,49.49709147,-52.16479377
-64.06754061,-177.38534221,65.80825958,-68.26272877,166.91398938,-36.30024389
71.21252648,163.99642796,-173.31408914,-71.48011348,69.97056102,-70.17658744
-147.37905151,-176.45846214,99.07843891,-76.60755590,-4.46148991,2.24435086
-1.95603163,2.13085091,0.50678556,-1.73577633

>  <Name>


>  <RI>
0

>  <Rbt.Current_Directory>
/home/itssahil/PROJECTS/Mol_Feturizer/New_Systems/rnas/1ei2

>  <Rbt.Executable>
rbdock ($Id: //depot/dev/client3/rdock/2013.1/src/exe/rbdock.cxx#4 $)

>  <Rbt.Library>
libRbt.so (2013.1, Build901 2013/11/27)

>  <Rbt.Parameter_File>
/export/apps/rDock/src/rDock_2013.1_src/data/scripts/dock_solv.prm

>  <Rbt.Receptor>
prm/pocket_docking_5.prm

>  <SCORE>
-74.7763

>  <SCORE.INTER>
-53.4017

>  <SCORE.INTER.CONST>
1

>  <SCORE.INTER.POLAR>
-9.5002

>  <SCORE.INTER.ROT>
9

>  <SCORE.INTER.SOLV>
28.854

>  <SCORE.INTER.VDW>
-23.1518

>  <SCORE.INTER.norm>
-1.27147

>  <SCORE.INTRA>
-21.5314

>  <SCORE.INTRA.DIHEDRAL>
-19.8486

>  <SCORE.INTRA.DIHEDRAL.0>
40.8761

>  <SCORE.INTRA.POLAR>
-1.24385

>  <SCORE.INTRA.POLAR.0>
-0.0268208

>  <SCORE.INTRA.REPUL>
-0.641615

>  <SCORE.INTRA.REPUL.0>
0.641615

>  <SCORE.INTRA.SOLV>
-10.9417

>  <SCORE.INTRA.SOLV.lig_0>
-162.567

>  <SCORE.INTRA.VDW>
1.30098

>  <SCORE.INTRA.VDW.0>
-4.80338

>  <SCORE.INTRA.norm>
-0.512651

>  <SCORE.RESTR>
0.156782

>  <SCORE.RESTR.CAVITY>
0.156782

>  <SCORE.RESTR.norm>
0.0037329

>  <SCORE.SYSTEM>
0

>  <SCORE.SYSTEM.CONST>
0

>  <SCORE.SYSTEM.DIHEDRAL>
0

>  <SCORE.SYSTEM.SOLV>
0

>  <SCORE.SYSTEM.norm>
0

>  <SCORE.heavy>
42

>  <SCORE.norm>
-1.78039

>  <RMSD>
7.023

$$$$

 OpenBabel11021811393D
libRbt.so/2013.1/901 2013/11/27
 42 45  0  0  0  0  0  0  0  0999 V2000
   -3.6486    1.7155   -1.4125 C   0  0  2  0  0  0  0  0  0  0  0  0
   -4.9412    1.6415   -2.0887 O   0  0  0  0  0  0  0  0  0  0  0  0
   -3.8107    2.0617    0.1034 C   0  0  2  0  0  0  0  0  0  0  0  0
   -5.2085    1.8826    0.5587 N   0  3  0  0  0  0  0  0  0  0  0  0
   -3.3238    3.5139    0.3912 C   0  0  1  0  0  0  0  0  0  0  0  0
   -3.4670    3.8144    1.7778 O   0  0  0  0  0  0  0  0  0  0  0  0
   -1.8359    3.7120   -0.0042 C   0  0  2  0  0  0  0  0  0  0  0  0
   -1.5413    5.1044    0.0077 O   0  0  0  0  0  0  0  0  0  0  0  0
   -1.5401    3.1138   -1.4177 C   0  0  2  0  0  0  0  0  0  0  0  0
   -2.7904    2.7121   -2.0664 O   0  0  0  0  0  0  0  0  0  0  0  0
   -0.6304    1.8638   -1.4078 C   0  0  0  0  0  0  0  0  0  0  0  0
   -3.3112    0.6873   -5.9684 C   0  0  1  0  0  0  0  0  0  0  0  0
   -3.1741    0.3668   -7.4068 N   0  3  0  0  0  0  0  0  0  0  0  0
   -3.7816    2.1497   -5.7535 C   0  0  1  0  0  0  0  0  0  0  0  0
   -4.0891    2.5013   -4.2562 C   0  0  1  0  0  0  0  0  0  0  0  0
   -4.8164    3.7587   -4.2255 O   0  0  0  0  0  0  0  0  0  0  0  0
   -4.9758    1.4224   -3.5324 C   0  0  1  0  0  0  0  0  0  0  0  0
   -4.4718   -0.0311   -3.8084 C   0  0  1  0  0  0  0  0  0  0  0  0
   -5.3869   -1.0498   -3.2545 N   0  3  0  0  0  0  0  0  0  0  0  0
   -4.3012   -0.3027   -5.3200 C   0  0  0  0  0  0  0  0  0  0  0  0
   -6.1480    3.8330   -4.8119 C   0  0  1  0  0  0  0  0  0  0  0  0
   -7.1555    3.3065   -3.7966 C   0  0  1  0  0  0  0  0  0  0  0  0
   -7.3082    4.5358   -2.9112 C   0  0  1  0  0  0  0  0  0  0  0  0
   -7.3343    5.6655   -3.9506 C   0  0  2  0  0  0  0  0  0  0  0  0
   -6.5064    5.2049   -5.0452 O   0  0  0  0  0  0  0  0  0  0  0  0
   -6.7955    6.9996   -3.4036 C   0  0  0  0  0  0  0  0  0  0  0  0
   -8.7464    5.2131    1.6298 C   0  0  1  0  0  0  0  0  0  0  0  0
   -9.9655    5.0139    0.6866 C   0  0  1  0  0  0  0  0  0  0  0  0
   -9.8915    3.7262   -0.1837 C   0  0  2  0  0  0  0  0  0  0  0  0
   -8.5322    3.6398   -0.9497 C   0  0  1  0  0  0  0  0  0  0  0  0
   -8.5393    4.4862   -2.1341 O   0  0  0  0  0  0  0  0  0  0  0  0
   -7.6570    4.1301    1.3641 C   0  0  1  0  0  0  0  0  0  0  0  0
   -7.4029    4.0327   -0.0755 O   0  0  0  0  0  0  0  0  0  0  0  0
   -6.3260    4.4361    2.0982 C   0  0  0  0  0  0  0  0  0  0  0  0
   -0.7653    1.0025   -2.5957 N   0  3  0  0  0  0  0  0  0  0  0  0
   -8.3796    2.9805   -4.4553 O   0  0  0  0  0  0  0  0  0  0  0  0
  -11.1469    4.9559    1.4850 O   0  0  0  0  0  0  0  0  0  0  0  0
   -8.2090    6.5181    1.4041 O   0  0  0  0  0  0  0  0  0  0  0  0
   -5.3818    6.9720   -3.3067 O   0  0  0  0  0  0  0  0  0  0  0  0
   -2.7660    3.0328   -6.2290 O   0  0  0  0  0  0  0  0  0  0  0  0
   -5.6338    5.6217    1.5605 N   0  3  0  0  0  0  0  0  0  0  0  0
  -11.0639    3.6144   -1.0867 N   0  3  0  0  0  0  0  0  0  0  0  0
  1  2  1  6  0  0  0
  1  3  1  0  0  0  0
  1 10  1  0  0  0  0
  3  4  1  6  0  0  0
  3  5  1  0  0  0  0
  5  6  1  1  0  0  0
  5  7  1  0  0  0  0
  7  8  1  6  0  0  0
  7  9  1  0  0  0  0
  9 10  1  0  0  0  0
  9 11  1  1  0  0  0
 11 35  1  0  0  0  0
 12 13  1  6  0  0  0
 12 14  1  0  0  0  0
 12 20  1  0  0  0  0
 14 15  1  0  0  0  0
 14 40  1  1  0  0  0
 15 16  1  6  0  0  0
 15 17  1  0  0  0  0
 17  2  1  1  0  0  0
 17 18  1  0  0  0  0
 18 19  1  6  0  0  0
 18 20  1  0  0  0  0
 21 16  1  1  0  0  0
 21 22  1  0  0  0  0
 21 25  1  0  0  0  0
 22 23  1  0  0  0  0
 22 36  1  6  0  0  0
 23 24  1  0  0  0  0
 23 31  1  6  0  0  0
 24 25  1  0  0  0  0
 24 26  1  1  0  0  0
 26 39  1  0  0  0  0
 27 28  1  0  0  0  0
 27 32  1  0  0  0  0
 27 38  1  6  0  0  0
 28 29  1  0  0  0  0
 28 37  1  1  0  0  0
 29 30  1  0  0  0  0
 29 42  1  6  0  0  0
 30 31  1  6  0  0  0
 30 33  1  0  0  0  0
 32 33  1  0  0  0  0
 32 34  1  1  0  0  0
 34 41  1  0  0  0  0
M  CHG  6   4   1  13   1  19   1  35   1  41   1  42   1
M  END
>  <CHROM.1>
175.63971797,-53.83393267,50.06975226,61.57369374,-60.01287632,157.22403420
3.44372363,176.30433081,174.20526068,65.12436289,82.26322664,-100.21225505
-62.94476051,78.75320067,75.37868692,55.88896481,-59.35390358,74.63212900
-175.44677357,177.70018885,-68.13849035,78.34396701,-5.54649959,3.34382558
-1.99139966,-0.74600279,-0.30929599,1.25692339

>  <Name>


>  <RI>
0

>  <Rbt.Current_Directory>
/home/itssahil/PROJECTS/Mol_Feturizer/New_Systems/rnas/1ei2

>  <Rbt.Executable>
rbdock ($Id: //depot/dev/client3/rdock/2013.1/src/exe/rbdock.cxx#4 $)

>  <Rbt.Library>
libRbt.so (2013.1, Build901 2013/11/27)

>  <Rbt.Parameter_File>
/export/apps/rDock/src/rDock_2013.1_src/data/scripts/dock_solv.prm

>  <Rbt.Receptor>
prm/pocket_docking_2.prm

>  <SCORE>
-34.664

>  <SCORE.INTER>
-16.5611

>  <SCORE.INTER.CONST>
1

>  <SCORE.INTER.POLAR>
-2.84004

>  <SCORE.INTER.ROT>
9

>  <SCORE.INTER.SOLV>
20.8275

>  <SCORE.INTER.VDW>
-18.1164

>  <SCORE.INTER.norm>
-0.394311

>  <SCORE.INTRA>
-21.34

>  <SCORE.INTRA.DIHEDRAL>
-24.568

>  <SCORE.INTRA.DIHEDRAL.0>
40.8761

>  <SCORE.INTRA.POLAR>
-1.98573

>  <SCORE.INTRA.POLAR.0>
-0.0268208

>  <SCORE.INTRA.REPUL>
-0.499338

>  <SCORE.INTRA.REPUL.0>
0.641615

>  <SCORE.INTRA.SOLV>
-0.391088

>  <SCORE.INTRA.SOLV.lig_0>
-162.567

>  <SCORE.INTRA.VDW>
0.387742

>  <SCORE.INTRA.VDW.0>
-4.80338

>  <SCORE.INTRA.norm>
-0.508094

>  <SCORE.RESTR>
3.23706

>  <SCORE.RESTR.CAVITY>
3.23706

>  <SCORE.RESTR.norm>
0.0770729

>  <SCORE.SYSTEM>
0

>  <SCORE.SYSTEM.CONST>
0

>  <SCORE.SYSTEM.DIHEDRAL>
0

>  <SCORE.SYSTEM.SOLV>
0

>  <SCORE.SYSTEM.norm>
0

>  <SCORE.heavy>
42

>  <SCORE.norm>
-0.825332

>  <RMSD>
7.028

$$$$

 OpenBabel11021811393D
libRbt.so/2013.1/901 2013/11/27
 42 45  0  0  0  0  0  0  0  0999 V2000
   -6.3439    2.1964   -3.1616 C   0  0  2  0  0  0  0  0  0  0  0  0
   -4.8959    2.3862   -3.1941 O   0  0  0  0  0  0  0  0  0  0  0  0
   -7.1051    3.5068   -3.5455 C   0  0  2  0  0  0  0  0  0  0  0  0
   -6.2046    4.4960   -4.1809 N   0  3  0  0  0  0  0  0  0  0  0  0
   -7.8015    4.1248   -2.2958 C   0  0  1  0  0  0  0  0  0  0  0  0
   -8.5005    5.3131   -2.6601 O   0  0  0  0  0  0  0  0  0  0  0  0
   -8.8114    3.1376   -1.6516 C   0  0  2  0  0  0  0  0  0  0  0  0
   -9.1881    3.6383   -0.3737 O   0  0  0  0  0  0  0  0  0  0  0  0
   -8.1942    1.7088   -1.5065 C   0  0  2  0  0  0  0  0  0  0  0  0
   -6.7662    1.7418   -1.8304 O   0  0  0  0  0  0  0  0  0  0  0  0
   -8.8276    0.6400   -2.4267 C   0  0  0  0  0  0  0  0  0  0  0  0
   -3.9513   -1.7691   -2.5152 C   0  0  1  0  0  0  0  0  0  0  0  0
   -3.2223   -3.0451   -2.3395 N   0  3  0  0  0  0  0  0  0  0  0  0
   -3.6865   -0.7954   -1.3371 C   0  0  1  0  0  0  0  0  0  0  0  0
   -4.3118    0.6285   -1.5410 C   0  0  1  0  0  0  0  0  0  0  0  0
   -3.7321    1.5241   -0.5547 O   0  0  0  0  0  0  0  0  0  0  0  0
   -4.0239    1.2376   -2.9624 C   0  0  1  0  0  0  0  0  0  0  0  0
   -4.2802    0.2033   -4.1058 C   0  0  1  0  0  0  0  0  0  0  0  0
   -3.8695    0.7232   -5.4260 N   0  3  0  0  0  0  0  0  0  0  0  0
   -3.5350   -1.1270   -3.8549 C   0  0  0  0  0  0  0  0  0  0  0  0
   -2.5560    1.1028    0.1950 C   0  0  1  0  0  0  0  0  0  0  0  0
   -1.8866    2.3394    0.7829 C   0  0  1  0  0  0  0  0  0  0  0  0
   -2.7718    2.5677    2.0006 C   0  0  1  0  0  0  0  0  0  0  0  0
   -2.9863    1.1324    2.5017 C   0  0  2  0  0  0  0  0  0  0  0  0
   -2.9514    0.2989    1.3186 O   0  0  0  0  0  0  0  0  0  0  0  0
   -4.3231    0.9464    3.2417 C   0  0  0  0  0  0  0  0  0  0  0  0
   -5.2733    4.1166    5.0461 C   0  0  1  0  0  0  0  0  0  0  0  0
   -3.8456    3.9405    5.6342 C   0  0  1  0  0  0  0  0  0  0  0  0
   -2.7606    4.8137    4.9402 C   0  0  2  0  0  0  0  0  0  0  0  0
   -2.7882    4.6216    3.3897 C   0  0  1  0  0  0  0  0  0  0  0  0
   -2.1073    3.3960    2.9977 O   0  0  0  0  0  0  0  0  0  0  0  0
   -5.2446    5.0331    3.7854 C   0  0  1  0  0  0  0  0  0  0  0  0
   -4.1792    4.5913    2.8819 O   0  0  0  0  0  0  0  0  0  0  0  0
   -6.5942    5.0334    3.0222 C   0  0  0  0  0  0  0  0  0  0  0  0
   -8.3739   -0.7370   -2.1634 N   0  3  0  0  0  0  0  0  0  0  0  0
   -0.5455    2.0286    1.1617 O   0  0  0  0  0  0  0  0  0  0  0  0
   -3.8850    4.2802    7.0197 O   0  0  0  0  0  0  0  0  0  0  0  0
   -5.7838    2.8258    4.7051 O   0  0  0  0  0  0  0  0  0  0  0  0
   -5.2176    0.1553    2.4782 O   0  0  0  0  0  0  0  0  0  0  0  0
   -4.2255   -1.3624   -0.1432 O   0  0  0  0  0  0  0  0  0  0  0  0
   -7.6841    5.6696    3.7846 N   0  3  0  0  0  0  0  0  0  0  0  0
   -1.4169    4.5719    5.5218 N   0  3  0  0  0  0  0  0  0  0  0  0
  1  2  1  1  0  0  0
  1  3  1  0  0  0  0
  1 10  1  0  0  0  0
  3  4  1  1  0  0  0
  3  5  1  0  0  0  0
  5  6  1  6  0  0  0
  5  7  1  0  0  0  0
  7  8  1  1  0  0  0
  7  9  1  0  0  0  0
  9 10  1  0  0  0  0
  9 11  1  6  0  0  0
 11 35  1  0  0  0  0
 12 13  1  1  0  0  0
 12 14  1  0  0  0  0
 12 20  1  0  0  0  0
 14 15  1  0  0  0  0
 14 40  1  1  0  0  0
 15 16  1  1  0  0  0
 15 17  1  0  0  0  0
 17  2  1  6  0  0  0
 17 18  1  0  0  0  0
 18 19  1  6  0  0  0
 18 20  1  0  0  0  0
 21 16  1  1  0  0  0
 21 22  1  0  0  0  0
 21 25  1  0  0  0  0
 22 23  1  0  0  0  0
 22 36  1  1  0  0  0
 23 24  1  0  0  0  0
 23 31  1  1  0  0  0
 24 25  1  0  0  0  0
 24 26  1  6  0  0  0
 26 39  1  0  0  0  0
 27 28  1  0  0  0  0
 27 32  1  0  0  0  0
 27 38  1  6  0  0  0
 28 29  1  0  0  0  0
 28 37  1  1  0  0  0
 29 30  1  0  0  0  0
 29 42  1  1  0  0  0
 30 31  1  1  0  0  0
 30 33  1  0  0  0  0
 32 33  1  0  0  0  0
 32 34  1  6  0  0  0
 34 41  1  0  0  0  0
M  CHG  6   4   1  13   1  19   1  35   1  41   1  42   1
M  END
>  <CHROM.1>
-175.34251419,-59.57069949,-51.67534810,-65.59043350,-59.95906574,-172.19407569
-166.24657796,-88.27444357,-63.03863783,13.01173166,161.10188781,-177.99619004
-179.62668172,122.65333801,110.04169911,179.07979886,63.38767567,-55.31485665
-61.51365888,135.54257160,67.43182589,144.56287185,-4.88482577,2.18810298
0.32304891,1.85265164,0.60158892,-2.11602896

>  <Name>


>  <RI>
0

>  <Rbt.Current_Directory>
/home/itssahil/PROJECTS/Mol_Feturizer/New_Systems/rnas/1ei2

>  <Rbt.Executable>
rbdock ($Id: //depot/dev/client3/rdock/2013.1/src/exe/rbdock.cxx#4 $)

>  <Rbt.Library>
libRbt.so (2013.1, Build901 2013/11/27)

>  <Rbt.Parameter_File>
/export/apps/rDock/src/rDock_2013.1_src/data/scripts/dock_solv.prm

>  <Rbt.Receptor>
prm/pocket_docking_5.prm

>  <SCORE>
-39.3534

>  <SCORE.INTER>
-30.2845

>  <SCORE.INTER.CONST>
1

>  <SCORE.INTER.POLAR>
-5.33192

>  <SCORE.INTER.ROT>
9

>  <SCORE.INTER.SOLV>
21.9693

>  <SCORE.INTER.VDW>
-19.3397

>  <SCORE.INTER.norm>
-0.72106

>  <SCORE.INTRA>
-9.66275

>  <SCORE.INTRA.DIHEDRAL>
-8.81808

>  <SCORE.INTRA.DIHEDRAL.0>
40.8761

>  <SCORE.INTRA.POLAR>
0.0268208

>  <SCORE.INTRA.POLAR.0>
-0.0268208

>  <SCORE.INTRA.REPUL>
-0.641615

>  <SCORE.INTRA.REPUL.0>
0.641615

>  <SCORE.INTRA.SOLV>
-10.9174

>  <SCORE.INTRA.SOLV.lig_0>
-162.567

>  <SCORE.INTRA.VDW>
3.32186

>  <SCORE.INTRA.VDW.0>
-4.80338

>  <SCORE.INTRA.norm>
-0.230065

>  <SCORE.RESTR>
0.5939

>  <SCORE.RESTR.CAVITY>
0.5939

>  <SCORE.RESTR.norm>
0.0141405

>  <SCORE.SYSTEM>
0

>  <SCORE.SYSTEM.CONST>
0

>  <SCORE.SYSTEM.DIHEDRAL>
0

>  <SCORE.SYSTEM.SOLV>
0

>  <SCORE.SYSTEM.norm>
0

>  <SCORE.heavy>
42

>  <SCORE.norm>
-0.936985

>  <RMSD>
7.029

$$$$

 OpenBabel11021811393D
libRbt.so/2013.1/901 2013/11/27
 42 45  0  0  0  0  0  0  0  0999 V2000
   -6.8003    3.9459   -3.5666 C   0  0  2  0  0  0  0  0  0  0  0  0
   -6.1607    2.6390   -3.6957 O   0  0  0  0  0  0  0  0  0  0  0  0
   -7.9707    3.9143   -2.5307 C   0  0  2  0  0  0  0  0  0  0  0  0
   -7.9222    2.6976   -1.6878 N   0  3  0  0  0  0  0  0  0  0  0  0
   -9.3475    4.0248   -3.2526 C   0  0  1  0  0  0  0  0  0  0  0  0
  -10.4061    4.0051   -2.2974 O   0  0  0  0  0  0  0  0  0  0  0  0
   -9.4591    5.3306   -4.0842 C   0  0  2  0  0  0  0  0  0  0  0  0
  -10.5960    5.2347   -4.9351 O   0  0  0  0  0  0  0  0  0  0  0  0
   -8.1711    5.5724   -4.9363 C   0  0  2  0  0  0  0  0  0  0  0  0
   -7.2972    4.3987   -4.8724 O   0  0  0  0  0  0  0  0  0  0  0  0
   -7.3182    6.7789   -4.4814 C   0  0  0  0  0  0  0  0  0  0  0  0
   -2.9910    0.8898   -6.0438 C   0  0  1  0  0  0  0  0  0  0  0  0
   -1.7176    0.6747   -6.7666 N   0  3  0  0  0  0  0  0  0  0  0  0
   -2.7733    0.9367   -4.5087 C   0  0  1  0  0  0  0  0  0  0  0  0
   -4.0628    1.3116   -3.6983 C   0  0  1  0  0  0  0  0  0  0  0  0
   -3.6657    1.6390   -2.3396 O   0  0  0  0  0  0  0  0  0  0  0  0
   -4.8258    2.5567   -4.2829 C   0  0  1  0  0  0  0  0  0  0  0  0
   -4.9899    2.4677   -5.8347 C   0  0  1  0  0  0  0  0  0  0  0  0
   -5.5717    3.7011   -6.4023 N   0  3  0  0  0  0  0  0  0  0  0  0
   -3.6419    2.1976   -6.5404 C   0  0  0  0  0  0  0  0  0  0  0  0
   -2.7203    0.7788   -1.6403 C   0  0  1  0  0  0  0  0  0  0  0  0
   -1.6048    1.6465   -1.0697 C   0  0  1  0  0  0  0  0  0  0  0  0
   -2.2913    2.1721    0.1837 C   0  0  1  0  0  0  0  0  0  0  0  0
   -3.0282    0.9206    0.6817 C   0  0  2  0  0  0  0  0  0  0  0  0
   -3.3585    0.1654   -0.5083 O   0  0  0  0  0  0  0  0  0  0  0  0
   -4.3071    1.2498    1.4725 C   0  0  0  0  0  0  0  0  0  0  0  0
   -0.1928    2.1729    4.7966 C   0  0  1  0  0  0  0  0  0  0  0  0
    0.2862    3.3103    3.8520 C   0  0  1  0  0  0  0  0  0  0  0  0
   -0.8687    4.0830    3.1517 C   0  0  2  0  0  0  0  0  0  0  0  0
   -1.8550    3.1014    2.4409 C   0  0  1  0  0  0  0  0  0  0  0  0
   -1.3248    2.6562    1.1602 O   0  0  0  0  0  0  0  0  0  0  0  0
   -1.7371    1.9843    4.6988 C   0  0  1  0  0  0  0  0  0  0  0  0
   -2.1354    1.9209    3.2903 O   0  0  0  0  0  0  0  0  0  0  0  0
   -2.2250    0.7047    5.4258 C   0  0  0  0  0  0  0  0  0  0  0  0
   -7.8187    8.0866   -4.9403 N   0  3  0  0  0  0  0  0  0  0  0  0
   -0.4771    0.8327   -0.7466 O   0  0  0  0  0  0  0  0  0  0  0  0
    1.0546    4.2372    4.6181 O   0  0  0  0  0  0  0  0  0  0  0  0
    0.4754    0.9654    4.4247 O   0  0  0  0  0  0  0  0  0  0  0  0
   -5.0600    0.0763    1.7270 O   0  0  0  0  0  0  0  0  0  0  0  0
   -2.3166   -0.3428   -4.0709 O   0  0  0  0  0  0  0  0  0  0  0  0
   -2.5484    0.9395    6.8451 N   0  3  0  0  0  0  0  0  0  0  0  0
   -0.3451    5.1281    2.2375 N   0  3  0  0  0  0  0  0  0  0  0  0
  1  2  1  6  0  0  0
  1  3  1  0  0  0  0
  1 10  1  0  0  0  0
  3  4  1  6  0  0  0
  3  5  1  0  0  0  0
  5  6  1  1  0  0  0
  5  7  1  0  0  0  0
  7  8  1  6  0  0  0
  7  9  1  0  0  0  0
  9 10  1  0  0  0  0
  9 11  1  1  0  0  0
 11 35  1  0  0  0  0
 12 13  1  6  0  0  0
 12 14  1  0  0  0  0
 12 20  1  0  0  0  0
 14 15  1  0  0  0  0
 14 40  1  1  0  0  0
 15 16  1  1  0  0  0
 15 17  1  0  0  0  0
 17  2  1  1  0  0  0
 17 18  1  0  0  0  0
 18 19  1  6  0  0  0
 18 20  1  0  0  0  0
 21 16  1  1  0  0  0
 21 22  1  0  0  0  0
 21 25  1  0  0  0  0
 22 23  1  0  0  0  0
 22 36  1  1  0  0  0
 23 24  1  0  0  0  0
 23 31  1  1  0  0  0
 24 25  1  0  0  0  0
 24 26  1  6  0  0  0
 26 39  1  0  0  0  0
 27 28  1  0  0  0  0
 27 32  1  0  0  0  0
 27 38  1  6  0  0  0
 28 29  1  0  0  0  0
 28 37  1  1  0  0  0
 29 30  1  0  0  0  0
 29 42  1  6  0  0  0
 30 31  1  6  0  0  0
 30 33  1  0  0  0  0
 32 33  1  0  0  0  0
 32 34  1  1  0  0  0
 34 41  1  0  0  0  0
M  CHG  6   4   1  13   1  19   1  35   1  41   1  42   1
M  END
>  <CHROM.1>
-161.48329081,151.57716852,57.83399568,-173.40707901,-54.08772254,-79.95751986
-151.42797618,14.50484814,-57.55526334,-45.37039785,129.22165271,-66.19627301
171.50201489,-175.96481924,170.75259745,-79.56390816,-173.03245829,55.40778094
173.96297342,-157.58115603,89.25686661,-100.66968939,-4.05507720,2.65781619
-1.14183329,2.30534561,0.51501063,-1.75013551

>  <Name>


>  <RI>
0

>  <Rbt.Current_Directory>
/home/itssahil/PROJECTS/Mol_Feturizer/New_Systems/rnas/1ei2

>  <Rbt.Executable>
rbdock ($Id: //depot/dev/client3/rdock/2013.1/src/exe/rbdock.cxx#4 $)

>  <Rbt.Library>
libRbt.so (2013.1, Build901 2013/11/27)

>  <Rbt.Parameter_File>
/export/apps/rDock/src/rDock_2013.1_src/data/scripts/dock_solv.prm

>  <Rbt.Receptor>
prm/pocket_docking_8.prm

>  <SCORE>
-63.2705

>  <SCORE.INTER>
-50.4268

>  <SCORE.INTER.CONST>
1

>  <SCORE.INTER.POLAR>
-8.78929

>  <SCORE.INTER.ROT>
9

>  <SCORE.INTER.SOLV>
27.6605

>  <SCORE.INTER.VDW>
-23.1404

>  <SCORE.INTER.norm>
-1.20064

>  <SCORE.INTRA>
-12.8437

>  <SCORE.INTRA.DIHEDRAL>
-10.6744

>  <SCORE.INTRA.DIHEDRAL.0>
40.8761

>  <SCORE.INTRA.POLAR>
-0.634982

>  <SCORE.INTRA.POLAR.0>
-0.0268208

>  <SCORE.INTRA.REPUL>
-0.641615

>  <SCORE.INTRA.REPUL.0>
0.641615

>  <SCORE.INTRA.SOLV>
-11.886

>  <SCORE.INTRA.SOLV.lig_0>
-162.567

>  <SCORE.INTRA.VDW>
3.80354

>  <SCORE.INTRA.VDW.0>
-4.80338

>  <SCORE.INTRA.norm>
-0.305802

>  <SCORE.RESTR>
0

>  <SCORE.RESTR.CAVITY>
0

>  <SCORE.RESTR.norm>
0

>  <SCORE.SYSTEM>
0

>  <SCORE.SYSTEM.CONST>
0

>  <SCORE.SYSTEM.DIHEDRAL>
0

>  <SCORE.SYSTEM.SOLV>
0

>  <SCORE.SYSTEM.norm>
0

>  <SCORE.heavy>
42

>  <SCORE.norm>
-1.50644

>  <RMSD>
7.035

$$$$

 OpenBabel11021811393D
libRbt.so/2013.1/901 2013/11/27
 42 45  0  0  0  0  0  0  0  0999 V2000
   -7.9186    5.1736   -0.4786 C   0  0  2  0  0  0  0  0  0  0  0  0
   -6.4687    5.1559   -0.3016 O   0  0  0  0  0  0  0  0  0  0  0  0
   -8.5602    6.4513    0.1536 C   0  0  2  0  0  0  0  0  0  0  0  0
   -7.5413    7.4830    0.4547 N   0  3  0  0  0  0  0  0  0  0  0  0
   -9.3641    6.0855    1.4377 C   0  0  1  0  0  0  0  0  0  0  0  0
   -9.9527    7.2567    1.9992 O   0  0  0  0  0  0  0  0  0  0  0  0
  -10.4925    5.0622    1.1393 C   0  0  2  0  0  0  0  0  0  0  0  0
  -10.9886    4.5563    2.3737 O   0  0  0  0  0  0  0  0  0  0  0  0
   -9.9720    3.8874    0.2492 C   0  0  2  0  0  0  0  0  0  0  0  0
   -8.5162    3.9678    0.1096 O   0  0  0  0  0  0  0  0  0  0  0  0
  -10.5490    3.8648   -1.1849 C   0  0  0  0  0  0  0  0  0  0  0  0
   -5.9407    1.1804   -1.8942 C   0  0  1  0  0  0  0  0  0  0  0  0
   -5.3417   -0.0610   -2.4332 N   0  3  0  0  0  0  0  0  0  0  0  0
   -5.5822    1.3825   -0.3986 C   0  0  1  0  0  0  0  0  0  0  0  0
   -6.0633    2.7557    0.1869 C   0  0  1  0  0  0  0  0  0  0  0  0
   -5.3991    2.9630    1.4623 O   0  0  0  0  0  0  0  0  0  0  0  0
   -5.7149    3.9821   -0.7344 C   0  0  1  0  0  0  0  0  0  0  0  0
   -6.0709    3.7098   -2.2318 C   0  0  1  0  0  0  0  0  0  0  0  0
   -5.6092    4.7975   -3.1182 N   0  3  0  0  0  0  0  0  0  0  0  0
   -5.4613    2.3819   -2.7349 C   0  0  0  0  0  0  0  0  0  0  0  0
   -5.8785    2.2595    2.6447 C   0  0  1  0  0  0  0  0  0  0  0  0
   -4.6837    1.6351    3.3557 C   0  0  1  0  0  0  0  0  0  0  0  0
   -4.1540    2.8509    4.1039 C   0  0  1  0  0  0  0  0  0  0  0  0
   -5.4546    3.5102    4.5846 C   0  0  2  0  0  0  0  0  0  0  0  0
   -6.4450    3.1949    3.5770 O   0  0  0  0  0  0  0  0  0  0  0  0
   -5.3317    5.0358    4.7477 C   0  0  0  0  0  0  0  0  0  0  0  0
    0.3766    3.0982    6.1255 C   0  0  1  0  0  0  0  0  0  0  0  0
   -0.6229    2.2582    6.9685 C   0  0  1  0  0  0  0  0  0  0  0  0
   -1.3845    1.1725    6.1547 C   0  0  2  0  0  0  0  0  0  0  0  0
   -2.0546    1.7863    4.8835 C   0  0  1  0  0  0  0  0  0  0  0  0
   -3.2992    2.4634    5.2179 O   0  0  0  0  0  0  0  0  0  0  0  0
    0.2646    2.7393    4.6127 C   0  0  1  0  0  0  0  0  0  0  0  0
   -1.1444    2.7418    4.2109 O   0  0  0  0  0  0  0  0  0  0  0  0
    1.0548    3.7218    3.7104 C   0  0  0  0  0  0  0  0  0  0  0  0
  -12.0111    3.6934   -1.2509 N   0  3  0  0  0  0  0  0  0  0  0  0
   -5.1327    0.6215    4.2555 O   0  0  0  0  0  0  0  0  0  0  0  0
    0.1018    1.6160    8.0167 O   0  0  0  0  0  0  0  0  0  0  0  0
    0.0846    4.4830    6.3261 O   0  0  0  0  0  0  0  0  0  0  0  0
   -6.5692    5.6033    5.1418 O   0  0  0  0  0  0  0  0  0  0  0  0
   -6.1761    0.3306    0.3617 O   0  0  0  0  0  0  0  0  0  0  0  0
    0.5992    5.1176    3.8458 N   0  3  0  0  0  0  0  0  0  0  0  0
   -2.3479    0.4326    7.0072 N   0  3  0  0  0  0  0  0  0  0  0  0
  1  2  1  1  0  0  0
  1  3  1  0  0  0  0
  1 10  1  0  0  0  0
  3  4  1  1  0  0  0
  3  5  1  0  0  0  0
  5  6  1  6  0  0  0
  5  7  1  0  0  0  0
  7  8  1  1  0  0  0
  7  9  1  0  0  0  0
  9 10  1  0  0  0  0
  9 11  1  6  0  0  0
 11 35  1  0  0  0  0
 12 13  1  6  0  0  0
 12 14  1  0  0  0  0
 12 20  1  0  0  0  0
 14 15  1  0  0  0  0
 14 40  1  1  0  0  0
 15 16  1  1  0  0  0
 15 17  1  0  0  0  0
 17  2  1  1  0  0  0
 17 18  1  0  0  0  0
 18 19  1  6  0  0  0
 18 20  1  0  0  0  0
 21 16  1  6  0  0  0
 21 22  1  0  0  0  0
 21 25  1  0  0  0  0
 22 23  1  0  0  0  0
 22 36  1  1  0  0  0
 23 24  1  0  0  0  0
 23 31  1  1  0  0  0
 24 25  1  0  0  0  0
 24 26  1  6  0  0  0
 26 39  1  0  0  0  0
 27 28  1  0  0  0  0
 27 32  1  0  0  0  0
 27 38  1  6  0  0  0
 28 29  1  0  0  0  0
 28 37  1  1  0  0  0
 29 30  1  0  0  0  0
 29 42  1  1  0  0  0
 30 31  1  1  0  0  0
 30 33  1  0  0  0  0
 32 33  1  0  0  0  0
 32 34  1  6  0  0  0
 34 41  1  0  0  0  0
M  CHG  6   4   1  13   1  19   1  35   1  41   1  42   1
M  END
>  <CHROM.1>
175.06298807,-68.29966066,-155.17448100,67.44684509,-53.32118345,-61.99325364
-67.63118446,53.49481952,-60.79198620,-77.92647099,132.06109508,-178.85259960
-82.67442975,64.91832096,177.72120672,66.97301453,-50.55191231,64.29000881
-147.98036152,-168.35303297,-59.38618206,169.38750786,-5.29409329,3.40890554
2.23413746,2.62002488,0.46264792,-1.95014049

>  <Name>


>  <RI>
0

>  <Rbt.Current_Directory>
/home/itssahil/PROJECTS/Mol_Feturizer/New_Systems/rnas/1ei2

>  <Rbt.Executable>
rbdock ($Id: //depot/dev/client3/rdock/2013.1/src/exe/rbdock.cxx#4 $)

>  <Rbt.Library>
libRbt.so (2013.1, Build901 2013/11/27)

>  <Rbt.Parameter_File>
/export/apps/rDock/src/rDock_2013.1_src/data/scripts/dock_solv.prm

>  <Rbt.Receptor>
prm/pocket_docking_8.prm

>  <SCORE>
-50.7254

>  <SCORE.INTER>
-28.8587

>  <SCORE.INTER.CONST>
1

>  <SCORE.INTER.POLAR>
-4.36369

>  <SCORE.INTER.ROT>
9

>  <SCORE.INTER.SOLV>
29.6057

>  <SCORE.INTER.VDW>
-24.1621

>  <SCORE.INTER.norm>
-0.687113

>  <SCORE.INTRA>
-21.8666

>  <SCORE.INTRA.DIHEDRAL>
-23.658

>  <SCORE.INTRA.DIHEDRAL.0>
40.8761

>  <SCORE.INTRA.POLAR>
-0.929877

>  <SCORE.INTRA.POLAR.0>
-0.0268208

>  <SCORE.INTRA.REPUL>
-0.615772

>  <SCORE.INTRA.REPUL.0>
0.641615

>  <SCORE.INTRA.SOLV>
-10.914

>  <SCORE.INTRA.SOLV.lig_0>
-162.567

>  <SCORE.INTRA.VDW>
1.65983

>  <SCORE.INTRA.VDW.0>
-4.80338

>  <SCORE.INTRA.norm>
-0.520634

>  <SCORE.RESTR>
0

>  <SCORE.RESTR.CAVITY>
0

>  <SCORE.RESTR.norm>
0

>  <SCORE.SYSTEM>
0

>  <SCORE.SYSTEM.CONST>
0

>  <SCORE.SYSTEM.DIHEDRAL>
0

>  <SCORE.SYSTEM.SOLV>
0

>  <SCORE.SYSTEM.norm>
0

>  <SCORE.heavy>
42

>  <SCORE.norm>
-1.20775

>  <RMSD>
7.053

$$$$

 OpenBabel11021811393D
libRbt.so/2013.1/901 2013/11/27
 42 45  0  0  0  0  0  0  0  0999 V2000
   -2.6081    3.9714   -0.2667 C   0  0  2  0  0  0  0  0  0  0  0  0
   -1.9668    4.1153   -1.5712 O   0  0  0  0  0  0  0  0  0  0  0  0
   -2.7663    5.3505    0.4523 C   0  0  2  0  0  0  0  0  0  0  0  0
   -2.5634    6.4810   -0.4825 N   0  3  0  0  0  0  0  0  0  0  0  0
   -1.7867    5.4570    1.6598 C   0  0  1  0  0  0  0  0  0  0  0  0
   -1.9473    6.7142    2.3134 O   0  0  0  0  0  0  0  0  0  0  0  0
   -2.0268    4.3283    2.6980 C   0  0  2  0  0  0  0  0  0  0  0  0
   -0.9341    4.3062    3.6098 O   0  0  0  0  0  0  0  0  0  0  0  0
   -2.1706    2.9369    2.0003 C   0  0  2  0  0  0  0  0  0  0  0  0
   -1.8377    3.0497    0.5784 O   0  0  0  0  0  0  0  0  0  0  0  0
   -3.5896    2.3274    2.0710 C   0  0  0  0  0  0  0  0  0  0  0  0
   -1.0052    1.7838   -5.0726 C   0  0  1  0  0  0  0  0  0  0  0  0
   -1.0158    0.7517   -6.1332 N   0  3  0  0  0  0  0  0  0  0  0  0
   -2.2350    2.7231   -5.1800 C   0  0  1  0  0  0  0  0  0  0  0  0
   -2.3573    3.7426   -3.9945 C   0  0  1  0  0  0  0  0  0  0  0  0
   -3.6877    4.3254   -4.0327 O   0  0  0  0  0  0  0  0  0  0  0  0
   -2.1702    3.0793   -2.5806 C   0  0  1  0  0  0  0  0  0  0  0  0
   -0.9346    2.1229   -2.5410 C   0  0  1  0  0  0  0  0  0  0  0  0
   -0.8440    1.3867   -1.2636 N   0  3  0  0  0  0  0  0  0  0  0  0
   -0.9676    1.0937   -3.6931 C   0  0  0  0  0  0  0  0  0  0  0  0
   -4.7893    3.5642   -4.6069 C   0  0  1  0  0  0  0  0  0  0  0  0
   -5.6542    3.0303   -3.4712 C   0  0  1  0  0  0  0  0  0  0  0  0
   -6.4745    4.2734   -3.1544 C   0  0  1  0  0  0  0  0  0  0  0  0
   -6.7756    4.8129   -4.5599 C   0  0  2  0  0  0  0  0  0  0  0  0
   -5.6400    4.4328   -5.3731 O   0  0  0  0  0  0  0  0  0  0  0  0
   -6.9622    6.3405   -4.5913 C   0  0  0  0  0  0  0  0  0  0  0  0
  -10.9965    4.5968   -0.5867 C   0  0  1  0  0  0  0  0  0  0  0  0
   -9.9611    3.5012   -0.2084 C   0  0  1  0  0  0  0  0  0  0  0  0
   -8.5022    4.0252   -0.0740 C   0  0  2  0  0  0  0  0  0  0  0  0
   -8.0726    4.8307   -1.3422 C   0  0  1  0  0  0  0  0  0  0  0  0
   -7.6932    3.9401   -2.4294 O   0  0  0  0  0  0  0  0  0  0  0  0
  -10.2857    5.9512   -0.8875 C   0  0  1  0  0  0  0  0  0  0  0  0
   -9.1621    5.7236   -1.7999 O   0  0  0  0  0  0  0  0  0  0  0  0
  -11.2450    6.9984   -1.5097 C   0  0  0  0  0  0  0  0  0  0  0  0
   -3.6905    0.9553    1.5434 N   0  3  0  0  0  0  0  0  0  0  0  0
   -6.4785    1.9675   -3.9504 O   0  0  0  0  0  0  0  0  0  0  0  0
  -10.3531    2.9227    1.0359 O   0  0  0  0  0  0  0  0  0  0  0  0
  -11.7219    4.1552   -1.7364 O   0  0  0  0  0  0  0  0  0  0  0  0
   -7.1501    6.7996   -5.9189 O   0  0  0  0  0  0  0  0  0  0  0  0
   -2.1478    3.4549   -6.4024 O   0  0  0  0  0  0  0  0  0  0  0  0
  -10.6488    8.3443   -1.5928 N   0  3  0  0  0  0  0  0  0  0  0  0
   -7.5595    2.9262    0.2510 N   0  3  0  0  0  0  0  0  0  0  0  0
  1  2  1  6  0  0  0
  1  3  1  0  0  0  0
  1 10  1  0  0  0  0
  3  4  1  6  0  0  0
  3  5  1  0  0  0  0
  5  6  1  1  0  0  0
  5  7  1  0  0  0  0
  7  8  1  1  0  0  0
  7  9  1  0  0  0  0
  9 10  1  0  0  0  0
  9 11  1  6  0  0  0
 11 35  1  0  0  0  0
 12 13  1  6  0  0  0
 12 14  1  0  0  0  0
 12 20  1  0  0  0  0
 14 15  1  0  0  0  0
 14 40  1  6  0  0  0
 15 16  1  1  0  0  0
 15 17  1  0  0  0  0
 17  2  1  1  0  0  0
 17 18  1  0  0  0  0
 18 19  1  1  0  0  0
 18 20  1  0  0  0  0
 21 16  1  1  0  0  0
 21 22  1  0  0  0  0
 21 25  1  0  0  0  0
 22 23  1  0  0  0  0
 22 36  1  6  0  0  0
 23 24  1  0  0  0  0
 23 31  1  6  0  0  0
 24 25  1  0  0  0  0
 24 26  1  1  0  0  0
 26 39  1  0  0  0  0
 27 28  1  0  0  0  0
 27 32  1  0  0  0  0
 27 38  1  6  0  0  0
 28 29  1  0  0  0  0
 28 37  1  1  0  0  0
 29 30  1  0  0  0  0
 29 42  1  6  0  0  0
 30 31  1  6  0  0  0
 30 33  1  0  0  0  0
 32 33  1  0  0  0  0
 32 34  1  6  0  0  0
 34 41  1  0  0  0  0
M  CHG  6   4   1  13   1  19   1  35   1  41   1  42   1
M  END
>  <CHROM.1>
-157.46067171,139.73766866,155.36064282,64.23191714,62.97887685,-173.69247739
170.46633330,167.84324235,59.52857558,27.57648555,104.21448285,-16.25393567
172.72988543,139.32365355,176.15651164,-66.64911854,-57.70787310,167.73126874
-169.05443658,-135.02596937,170.52764898,-177.47096621,-5.04312309,3.99057712
-1.73187916,-0.02045585,-0.27071472,1.46241296

>  <Name>


>  <RI>
0

>  <Rbt.Current_Directory>
/home/itssahil/PROJECTS/Mol_Feturizer/New_Systems/rnas/1ei2

>  <Rbt.Executable>
rbdock ($Id: //depot/dev/client3/rdock/2013.1/src/exe/rbdock.cxx#4 $)

>  <Rbt.Library>
libRbt.so (2013.1, Build901 2013/11/27)

>  <Rbt.Parameter_File>
/export/apps/rDock/src/rDock_2013.1_src/data/scripts/dock_solv.prm

>  <Rbt.Receptor>
prm/pocket_docking_5.prm

>  <SCORE>
-55.6681

>  <SCORE.INTER>
-43.4418

>  <SCORE.INTER.CONST>
1

>  <SCORE.INTER.POLAR>
-7.07956

>  <SCORE.INTER.ROT>
9

>  <SCORE.INTER.SOLV>
31.9527

>  <SCORE.INTER.VDW>
-25.6136

>  <SCORE.INTER.norm>
-1.03433

>  <SCORE.INTRA>
-12.2362

>  <SCORE.INTRA.DIHEDRAL>
-4.08123

>  <SCORE.INTRA.DIHEDRAL.0>
40.8761

>  <SCORE.INTRA.POLAR>
-1.14042

>  <SCORE.INTRA.POLAR.0>
-0.0268208

>  <SCORE.INTRA.REPUL>
-0.625053

>  <SCORE.INTRA.REPUL.0>
0.641615

>  <SCORE.INTRA.SOLV>
-9.40261

>  <SCORE.INTRA.SOLV.lig_0>
-162.567

>  <SCORE.INTRA.VDW>
1.50839

>  <SCORE.INTRA.VDW.0>
-4.80338

>  <SCORE.INTRA.norm>
-0.291339

>  <SCORE.RESTR>
0.00994965

>  <SCORE.RESTR.CAVITY>
0.00994965

>  <SCORE.RESTR.norm>
0.000236896

>  <SCORE.SYSTEM>
0

>  <SCORE.SYSTEM.CONST>
0

>  <SCORE.SYSTEM.DIHEDRAL>
0

>  <SCORE.SYSTEM.SOLV>
0

>  <SCORE.SYSTEM.norm>
0

>  <SCORE.heavy>
42

>  <SCORE.norm>
-1.32543

>  <RMSD>
7.055

$$$$

 OpenBabel11021811393D
libRbt.so/2013.1/901 2013/11/27
 42 45  0  0  0  0  0  0  0  0999 V2000
   -3.2910    2.1801   -2.1185 C   0  0  2  0  0  0  0  0  0  0  0  0
   -3.9111    0.9105   -2.4891 O   0  0  0  0  0  0  0  0  0  0  0  0
   -2.6288    2.1064   -0.7044 C   0  0  2  0  0  0  0  0  0  0  0  0
   -2.4779    0.7072   -0.2435 N   0  3  0  0  0  0  0  0  0  0  0  0
   -3.4462    2.9376    0.3300 C   0  0  1  0  0  0  0  0  0  0  0  0
   -2.8273    2.8711    1.6129 O   0  0  0  0  0  0  0  0  0  0  0  0
   -3.5562    4.4288   -0.0868 C   0  0  2  0  0  0  0  0  0  0  0  0
   -4.5396    5.0592    0.7264 O   0  0  0  0  0  0  0  0  0  0  0  0
   -3.9386    4.5694   -1.5959 C   0  0  2  0  0  0  0  0  0  0  0  0
   -4.2865    3.2596   -2.1515 O   0  0  0  0  0  0  0  0  0  0  0  0
   -2.8156    5.1409   -2.4917 C   0  0  0  0  0  0  0  0  0  0  0  0
   -2.6460    0.1937   -6.5518 C   0  0  1  0  0  0  0  0  0  0  0  0
   -2.6286   -0.1727   -7.9856 N   0  3  0  0  0  0  0  0  0  0  0  0
   -3.4855    1.4739   -6.3016 C   0  0  1  0  0  0  0  0  0  0  0  0
   -3.6646    1.8258   -4.7837 C   0  0  1  0  0  0  0  0  0  0  0  0
   -4.7138    2.8244   -4.6702 O   0  0  0  0  0  0  0  0  0  0  0  0
   -4.0864    0.5921   -3.9038 C   0  0  1  0  0  0  0  0  0  0  0  0
   -3.2265   -0.6743   -4.2197 C   0  0  1  0  0  0  0  0  0  0  0  0
   -3.7169   -1.8701   -3.5045 N   0  3  0  0  0  0  0  0  0  0  0  0
   -3.2021   -0.9894   -5.7323 C   0  0  0  0  0  0  0  0  0  0  0  0
   -6.0966    2.4466   -4.9311 C   0  0  1  0  0  0  0  0  0  0  0  0
   -6.7592    2.0857   -3.6069 C   0  0  1  0  0  0  0  0  0  0  0  0
   -7.0769    3.4785   -3.0799 C   0  0  1  0  0  0  0  0  0  0  0  0
   -7.5575    4.1896   -4.3529 C   0  0  2  0  0  0  0  0  0  0  0  0
   -6.8264    3.5747   -5.4406 O   0  0  0  0  0  0  0  0  0  0  0  0
   -7.2971    5.7065   -4.3301 C   0  0  0  0  0  0  0  0  0  0  0  0
   -9.2106    5.7345    0.8191 C   0  0  1  0  0  0  0  0  0  0  0  0
   -9.8443    4.3567    0.4793 C   0  0  1  0  0  0  0  0  0  0  0  0
   -8.8114    3.2035    0.3236 C   0  0  2  0  0  0  0  0  0  0  0  0
   -7.6760    3.5937   -0.6765 C   0  0  1  0  0  0  0  0  0  0  0  0
   -8.1129    3.4402   -2.0567 O   0  0  0  0  0  0  0  0  0  0  0  0
   -7.6543    5.6545    0.7770 C   0  0  1  0  0  0  0  0  0  0  0  0
   -7.2305    4.9892   -0.4577 O   0  0  0  0  0  0  0  0  0  0  0  0
   -6.9867    7.0515    0.8595 C   0  0  0  0  0  0  0  0  0  0  0  0
   -2.5534    6.5779   -2.2979 N   0  3  0  0  0  0  0  0  0  0  0  0
   -7.9487    1.3346   -3.8509 O   0  0  0  0  0  0  0  0  0  0  0  0
  -10.7568    4.0124    1.5211 O   0  0  0  0  0  0  0  0  0  0  0  0
   -9.6803    6.6943   -0.1302 O   0  0  0  0  0  0  0  0  0  0  0  0
   -7.8187    6.2911   -3.1490 O   0  0  0  0  0  0  0  0  0  0  0  0
   -2.8493    2.5739   -6.9517 O   0  0  0  0  0  0  0  0  0  0  0  0
   -7.1655    7.6957    2.1737 N   0  3  0  0  0  0  0  0  0  0  0  0
   -9.4755    1.9261   -0.0364 N   0  3  0  0  0  0  0  0  0  0  0  0
  1  2  1  1  0  0  0
  1  3  1  0  0  0  0
  1 10  1  0  0  0  0
  3  4  1  1  0  0  0
  3  5  1  0  0  0  0
  5  6  1  1  0  0  0
  5  7  1  0  0  0  0
  7  8  1  1  0  0  0
  7  9  1  0  0  0  0
  9 10  1  0  0  0  0
  9 11  1  6  0  0  0
 11 35  1  0  0  0  0
 12 13  1  6  0  0  0
 12 14  1  0  0  0  0
 12 20  1  0  0  0  0
 14 15  1  0  0  0  0
 14 40  1  6  0  0  0
 15 16  1  6  0  0  0
 15 17  1  0  0  0  0
 17  2  1  1  0  0  0
 17 18  1  0  0  0  0
 18 19  1  1  0  0  0
 18 20  1  0  0  0  0
 21 16  1  1  0  0  0
 21 22  1  0  0  0  0
 21 25  1  0  0  0  0
 22 23  1  0  0  0  0
 22 36  1  6  0  0  0
 23 24  1  0  0  0  0
 23 31  1  1  0  0  0
 24 25  1  0  0  0  0
 24 26  1  1  0  0  0
 26 39  1  0  0  0  0
 27 28  1  0  0  0  0
 27 32  1  0  0  0  0
 27 38  1  6  0  0  0
 28 29  1  0  0  0  0
 28 37  1  1  0  0  0
 29 30  1  0  0  0  0
 29 42  1  6  0  0  0
 30 31  1  6  0  0  0
 30 33  1  0  0  0  0
 32 33  1  0  0  0  0
 32 34  1  6  0  0  0
 34 41  1  0  0  0  0
M  CHG  6   4   1  13   1  19   1  35   1  41   1  42   1
M  END
>  <CHROM.1>
-155.22543604,-5.65627131,-43.23601072,64.14829918,63.79053973,-72.12033451
-48.65136046,-68.09065985,-61.22515690,70.40790361,94.31721583,67.93546317
-170.06374930,103.69464280,-52.44203811,61.54006187,176.73068817,66.09329396
161.47265190,-166.65697998,68.19824041,-57.74052949,-5.59671878,3.21044719
-2.23646721,-0.95833216,-0.27883557,1.06647576

>  <Name>


>  <RI>
0

>  <Rbt.Current_Directory>
/home/itssahil/PROJECTS/Mol_Feturizer/New_Systems/rnas/1ei2

>  <Rbt.Executable>
rbdock ($Id: //depot/dev/client3/rdock/2013.1/src/exe/rbdock.cxx#4 $)

>  <Rbt.Library>
libRbt.so (2013.1, Build901 2013/11/27)

>  <Rbt.Parameter_File>
/export/apps/rDock/src/rDock_2013.1_src/data/scripts/dock_solv.prm

>  <Rbt.Receptor>
prm/pocket_docking_3.prm

>  <SCORE>
-38.4216

>  <SCORE.INTER>
-18.0607

>  <SCORE.INTER.CONST>
1

>  <SCORE.INTER.POLAR>
-4.13647

>  <SCORE.INTER.ROT>
9

>  <SCORE.INTER.SOLV>
28.9242

>  <SCORE.INTER.VDW>
-17.4936

>  <SCORE.INTER.norm>
-0.430016

>  <SCORE.INTRA>
-21.0875

>  <SCORE.INTRA.DIHEDRAL>
-14.9827

>  <SCORE.INTRA.DIHEDRAL.0>
40.8761

>  <SCORE.INTRA.POLAR>
-1.05025

>  <SCORE.INTRA.POLAR.0>
-0.0268208

>  <SCORE.INTRA.REPUL>
-0.641615

>  <SCORE.INTRA.REPUL.0>
0.641615

>  <SCORE.INTRA.SOLV>
-10.9145

>  <SCORE.INTRA.SOLV.lig_0>
-162.567

>  <SCORE.INTRA.VDW>
-1.36001

>  <SCORE.INTRA.VDW.0>
-4.80338

>  <SCORE.INTRA.norm>
-0.502084

>  <SCORE.RESTR>
0.72661

>  <SCORE.RESTR.CAVITY>
0.72661

>  <SCORE.RESTR.norm>
0.0173002

>  <SCORE.SYSTEM>
0

>  <SCORE.SYSTEM.CONST>
0

>  <SCORE.SYSTEM.DIHEDRAL>
0

>  <SCORE.SYSTEM.SOLV>
0

>  <SCORE.SYSTEM.norm>
0

>  <SCORE.heavy>
42

>  <SCORE.norm>
-0.9148

>  <RMSD>
7.065

$$$$

 OpenBabel11021811393D
libRbt.so/2013.1/901 2013/11/27
 42 45  0  0  0  0  0  0  0  0999 V2000
   -2.7366    5.7885    4.2970 C   0  0  2  0  0  0  0  0  0  0  0  0
   -3.5430    4.6251    3.9366 O   0  0  0  0  0  0  0  0  0  0  0  0
   -3.0032    6.9935    3.3375 C   0  0  2  0  0  0  0  0  0  0  0  0
   -4.2343    6.7945    2.5388 N   0  3  0  0  0  0  0  0  0  0  0  0
   -1.7788    7.2349    2.4040 C   0  0  1  0  0  0  0  0  0  0  0  0
   -2.0295    8.3420    1.5410 O   0  0  0  0  0  0  0  0  0  0  0  0
   -0.4857    7.5240    3.2125 C   0  0  2  0  0  0  0  0  0  0  0  0
    0.6304    7.4457    2.3328 O   0  0  0  0  0  0  0  0  0  0  0  0
   -0.3131    6.5088    4.3885 C   0  0  2  0  0  0  0  0  0  0  0  0
   -1.3097    5.4408    4.2824 O   0  0  0  0  0  0  0  0  0  0  0  0
   -0.4791    7.1245    5.7969 C   0  0  0  0  0  0  0  0  0  0  0  0
   -1.1774    1.7973    6.1787 C   0  0  1  0  0  0  0  0  0  0  0  0
   -0.7199    0.5810    6.8870 N   0  3  0  0  0  0  0  0  0  0  0  0
   -1.2745    1.5624    4.6485 C   0  0  1  0  0  0  0  0  0  0  0  0
   -1.8970    2.7681    3.8619 C   0  0  1  0  0  0  0  0  0  0  0  0
   -2.2318    2.3125    2.5236 O   0  0  0  0  0  0  0  0  0  0  0  0
   -3.2140    3.3257    4.5167 C   0  0  1  0  0  0  0  0  0  0  0  0
   -3.0659    3.5145    6.0612 C   0  0  1  0  0  0  0  0  0  0  0  0
   -4.3431    3.8949    6.6983 N   0  3  0  0  0  0  0  0  0  0  0  0
   -2.5431    2.2334    6.7491 C   0  0  0  0  0  0  0  0  0  0  0  0
   -2.9523    1.0579    2.3510 C   0  0  1  0  0  0  0  0  0  0  0  0
   -4.4480    1.3493    2.3798 C   0  0  1  0  0  0  0  0  0  0  0  0
   -4.6508    1.8411    0.9531 C   0  0  1  0  0  0  0  0  0  0  0  0
   -3.7708    0.8644    0.1602 C   0  0  2  0  0  0  0  0  0  0  0  0
   -2.6838    0.5122    1.0490 O   0  0  0  0  0  0  0  0  0  0  0  0
   -3.2160    1.4733   -1.1401 C   0  0  0  0  0  0  0  0  0  0  0  0
   -9.1879    1.7434   -1.6579 C   0  0  1  0  0  0  0  0  0  0  0  0
   -8.9848    2.6260   -0.3949 C   0  0  1  0  0  0  0  0  0  0  0  0
   -7.6486    3.4233   -0.3854 C   0  0  2  0  0  0  0  0  0  0  0  0
   -6.4286    2.4839   -0.6515 C   0  0  1  0  0  0  0  0  0  0  0  0
   -6.0488    1.7585    0.5521 O   0  0  0  0  0  0  0  0  0  0  0  0
   -7.9141    1.7596   -2.5565 C   0  0  1  0  0  0  0  0  0  0  0  0
   -6.7284    1.5153   -1.7312 O   0  0  0  0  0  0  0  0  0  0  0  0
   -7.9747    0.7027   -3.6893 C   0  0  0  0  0  0  0  0  0  0  0  0
    0.2624    6.4233    6.8598 N   0  3  0  0  0  0  0  0  0  0  0  0
   -5.1705    0.1425    2.6251 O   0  0  0  0  0  0  0  0  0  0  0  0
  -10.0676    3.5520   -0.3146 O   0  0  0  0  0  0  0  0  0  0  0  0
   -9.4753    0.4087   -1.2349 O   0  0  0  0  0  0  0  0  0  0  0  0
   -2.4041    2.6016   -0.8635 O   0  0  0  0  0  0  0  0  0  0  0  0
    0.0353    1.3139    4.1385 O   0  0  0  0  0  0  0  0  0  0  0  0
   -8.7692    1.1492   -4.8483 N   0  3  0  0  0  0  0  0  0  0  0  0
   -7.4988    4.2148    0.8610 N   0  3  0  0  0  0  0  0  0  0  0  0
  1  2  1  6  0  0  0
  1  3  1  0  0  0  0
  1 10  1  0  0  0  0
  3  4  1  6  0  0  0
  3  5  1  0  0  0  0
  5  6  1  6  0  0  0
  5  7  1  0  0  0  0
  7  8  1  6  0  0  0
  7  9  1  0  0  0  0
  9 10  1  0  0  0  0
  9 11  1  1  0  0  0
 11 35  1  0  0  0  0
 12 13  1  1  0  0  0
 12 14  1  0  0  0  0
 12 20  1  0  0  0  0
 14 15  1  0  0  0  0
 14 40  1  6  0  0  0
 15 16  1  6  0  0  0
 15 17  1  0  0  0  0
 17  2  1  6  0  0  0
 17 18  1  0  0  0  0
 18 19  1  1  0  0  0
 18 20  1  0  0  0  0
 21 16  1  6  0  0  0
 21 22  1  0  0  0  0
 21 25  1  0  0  0  0
 22 23  1  0  0  0  0
 22 36  1  6  0  0  0
 23 24  1  0  0  0  0
 23 31  1  6  0  0  0
 24 25  1  0  0  0  0
 24 26  1  6  0  0  0
 26 39  1  0  0  0  0
 27 28  1  0  0  0  0
 27 32  1  0  0  0  0
 27 38  1  1  0  0  0
 28 29  1  0  0  0  0
 28 37  1  6  0  0  0
 29 30  1  0  0  0  0
 29 42  1  1  0  0  0
 30 31  1  1  0  0  0
 30 33  1  0  0  0  0
 32 33  1  0  0  0  0
 32 34  1  6  0  0  0
 34 41  1  0  0  0  0
M  CHG  6   4   1  13   1  19   1  35   1  41   1  42   1
M  END
>  <CHROM.1>
166.18436348,-72.89500174,65.54197692,-174.92355959,68.70790538,-152.63850192
53.22340345,-144.32743854,72.85676045,47.31587145,89.42502246,-167.08306148
178.88919151,165.76379685,60.88758778,-71.59461612,64.40462358,62.27599398
-56.35247886,-127.37647188,81.03032796,122.46179765,-3.95448581,3.30803636
2.10037936,0.15497249,-0.81610095,-0.25014711

>  <Name>


>  <RI>
0

>  <Rbt.Current_Directory>
/home/itssahil/PROJECTS/Mol_Feturizer/New_Systems/rnas/1ei2

>  <Rbt.Executable>
rbdock ($Id: //depot/dev/client3/rdock/2013.1/src/exe/rbdock.cxx#4 $)

>  <Rbt.Library>
libRbt.so (2013.1, Build901 2013/11/27)

>  <Rbt.Parameter_File>
/export/apps/rDock/src/rDock_2013.1_src/data/scripts/dock_solv.prm

>  <Rbt.Receptor>
prm/pocket_docking_8.prm

>  <SCORE>
-67.1554

>  <SCORE.INTER>
-50.9289

>  <SCORE.INTER.CONST>
1

>  <SCORE.INTER.POLAR>
-9.21462

>  <SCORE.INTER.ROT>
9

>  <SCORE.INTER.SOLV>
24.4338

>  <SCORE.INTER.VDW>
-20.9818

>  <SCORE.INTER.norm>
-1.21259

>  <SCORE.INTRA>
-16.2264

>  <SCORE.INTRA.DIHEDRAL>
-13.7978

>  <SCORE.INTRA.DIHEDRAL.0>
40.8761

>  <SCORE.INTRA.POLAR>
0.010418

>  <SCORE.INTRA.POLAR.0>
-0.0268208

>  <SCORE.INTRA.REPUL>
-0.641615

>  <SCORE.INTRA.REPUL.0>
0.641615

>  <SCORE.INTRA.SOLV>
-13.3181

>  <SCORE.INTRA.SOLV.lig_0>
-162.567

>  <SCORE.INTRA.VDW>
0.504182

>  <SCORE.INTRA.VDW.0>
-4.80338

>  <SCORE.INTRA.norm>
-0.386344

>  <SCORE.RESTR>
0

>  <SCORE.RESTR.CAVITY>
0

>  <SCORE.RESTR.norm>
0

>  <SCORE.SYSTEM>
0

>  <SCORE.SYSTEM.CONST>
0

>  <SCORE.SYSTEM.DIHEDRAL>
0

>  <SCORE.SYSTEM.SOLV>
0

>  <SCORE.SYSTEM.norm>
0

>  <SCORE.heavy>
42

>  <SCORE.norm>
-1.59894

>  <RMSD>
7.070

$$$$

 OpenBabel11021811393D
libRbt.so/2013.1/901 2013/11/27
 42 45  0  0  0  0  0  0  0  0999 V2000
   -2.8130    3.3935   -1.1537 C   0  0  2  0  0  0  0  0  0  0  0  0
   -3.2719    4.2188   -0.0392 O   0  0  0  0  0  0  0  0  0  0  0  0
   -3.5432    3.7660   -2.4848 C   0  0  2  0  0  0  0  0  0  0  0  0
   -4.2423    5.0672   -2.3794 N   0  3  0  0  0  0  0  0  0  0  0  0
   -4.5400    2.6417   -2.8988 C   0  0  1  0  0  0  0  0  0  0  0  0
   -5.1921    2.9879   -4.1188 O   0  0  0  0  0  0  0  0  0  0  0  0
   -3.8232    1.2787   -3.0933 C   0  0  2  0  0  0  0  0  0  0  0  0
   -4.8065    0.2535   -3.1805 O   0  0  0  0  0  0  0  0  0  0  0  0
   -2.8415    0.9806   -1.9140 C   0  0  2  0  0  0  0  0  0  0  0  0
   -3.0174    1.9712   -0.8495 O   0  0  0  0  0  0  0  0  0  0  0  0
   -1.3450    1.0144   -2.3008 C   0  0  0  0  0  0  0  0  0  0  0  0
   -2.1735    1.3777    3.0172 C   0  0  1  0  0  0  0  0  0  0  0  0
   -1.8682    0.7483    4.3214 N   0  3  0  0  0  0  0  0  0  0  0  0
   -3.6843    1.7025    2.8817 C   0  0  1  0  0  0  0  0  0  0  0  0
   -4.0442    2.5063    1.5839 C   0  0  1  0  0  0  0  0  0  0  0  0
   -5.3943    3.0230    1.7300 O   0  0  0  0  0  0  0  0  0  0  0  0
   -3.0924    3.7317    1.3261 C   0  0  1  0  0  0  0  0  0  0  0  0
   -1.5868    3.3519    1.5049 C   0  0  1  0  0  0  0  0  0  0  0  0
   -0.7024    4.5313    1.4101 N   0  3  0  0  0  0  0  0  0  0  0  0
   -1.3265    2.6578    2.8607 C   0  0  0  0  0  0  0  0  0  0  0  0
   -6.2841    3.0444    0.5765 C   0  0  1  0  0  0  0  0  0  0  0  0
   -7.7232    3.1048    1.0748 C   0  0  1  0  0  0  0  0  0  0  0  0
   -7.8357    4.5914    1.3839 C   0  0  1  0  0  0  0  0  0  0  0  0
   -7.0940    5.2131    0.1920 C   0  0  2  0  0  0  0  0  0  0  0  0
   -6.0797    4.2494   -0.1794 O   0  0  0  0  0  0  0  0  0  0  0  0
   -6.4416    6.5662    0.5282 C   0  0  0  0  0  0  0  0  0  0  0  0
  -11.7229    4.0297   -1.3005 C   0  0  1  0  0  0  0  0  0  0  0  0
  -12.0975    4.6791    0.0608 C   0  0  1  0  0  0  0  0  0  0  0  0
  -11.2844    5.9623    0.3975 C   0  0  2  0  0  0  0  0  0  0  0  0
   -9.7481    5.7075    0.2678 C   0  0  1  0  0  0  0  0  0  0  0  0
   -9.2260    5.0225    1.4414 O   0  0  0  0  0  0  0  0  0  0  0  0
  -10.4998    4.7527   -1.9420 C   0  0  1  0  0  0  0  0  0  0  0  0
   -9.4415    4.9083   -0.9409 O   0  0  0  0  0  0  0  0  0  0  0  0
   -9.9356    3.9886   -3.1674 C   0  0  0  0  0  0  0  0  0  0  0  0
   -0.9786    2.1032   -3.2235 N   0  3  0  0  0  0  0  0  0  0  0  0
   -8.6135    2.7191    0.0273 O   0  0  0  0  0  0  0  0  0  0  0  0
  -13.4844    5.0138    0.0328 O   0  0  0  0  0  0  0  0  0  0  0  0
  -11.4177    2.6517   -1.0750 O   0  0  0  0  0  0  0  0  0  0  0  0
   -5.4006    6.4036    1.4761 O   0  0  0  0  0  0  0  0  0  0  0  0
   -4.4180    0.4781    2.8768 O   0  0  0  0  0  0  0  0  0  0  0  0
   -8.7956    4.6786   -3.7985 N   0  3  0  0  0  0  0  0  0  0  0  0
  -11.6623    6.5109    1.7236 N   0  3  0  0  0  0  0  0  0  0  0  0
  1  2  1  1  0  0  0
  1  3  1  0  0  0  0
  1 10  1  0  0  0  0
  3  4  1  1  0  0  0
  3  5  1  0  0  0  0
  5  6  1  6  0  0  0
  5  7  1  0  0  0  0
  7  8  1  1  0  0  0
  7  9  1  0  0  0  0
  9 10  1  0  0  0  0
  9 11  1  6  0  0  0
 11 35  1  0  0  0  0
 12 13  1  1  0  0  0
 12 14  1  0  0  0  0
 12 20  1  0  0  0  0
 14 15  1  0  0  0  0
 14 40  1  6  0  0  0
 15 16  1  1  0  0  0
 15 17  1  0  0  0  0
 17  2  1  6  0  0  0
 17 18  1  0  0  0  0
 18 19  1  1  0  0  0
 18 20  1  0  0  0  0
 21 16  1  1  0  0  0
 21 22  1  0  0  0  0
 21 25  1  0  0  0  0
 22 23  1  0  0  0  0
 22 36  1  6  0  0  0
 23 24  1  0  0  0  0
 23 31  1  6  0  0  0
 24 25  1  0  0  0  0
 24 26  1  1  0  0  0
 26 39  1  0  0  0  0
 27 28  1  0  0  0  0
 27 32  1  0  0  0  0
 27 38  1  1  0  0  0
 28 29  1  0  0  0  0
 28 37  1  6  0  0  0
 29 30  1  0  0  0  0
 29 42  1  1  0  0  0
 30 31  1  1  0  0  0
 30 33  1  0  0  0  0
 32 33  1  0  0  0  0
 32 34  1  6  0  0  0
 34 41  1  0  0  0  0
M  CHG  6   4   1  13   1  19   1  35   1  41   1  42   1
M  END
>  <CHROM.1>
158.08296196,-69.37853415,-53.22754467,-174.17090320,71.29640194,40.62219507
70.16287446,157.96146171,177.35790233,-141.72554292,158.49981415,91.79540412
63.08831729,-100.89832428,65.96143517,165.30318973,-61.55235157,170.61314448
49.39536592,173.34001120,178.81309063,65.92732002,-6.04779559,3.52013687
-0.18870377,-0.03497651,0.30199267,-1.70496094

>  <Name>


>  <RI>
0

>  <Rbt.Current_Directory>
/home/itssahil/PROJECTS/Mol_Feturizer/New_Systems/rnas/1ei2

>  <Rbt.Executable>
rbdock ($Id: //depot/dev/client3/rdock/2013.1/src/exe/rbdock.cxx#4 $)

>  <Rbt.Library>
libRbt.so (2013.1, Build901 2013/11/27)

>  <Rbt.Parameter_File>
/export/apps/rDock/src/rDock_2013.1_src/data/scripts/dock_solv.prm

>  <Rbt.Receptor>
prm/pocket_docking_2.prm

>  <SCORE>
-43.0794

>  <SCORE.INTER>
-28.2655

>  <SCORE.INTER.CONST>
1

>  <SCORE.INTER.POLAR>
-4.73536

>  <SCORE.INTER.ROT>
9

>  <SCORE.INTER.SOLV>
23.7575

>  <SCORE.INTER.VDW>
-20.5783

>  <SCORE.INTER.norm>
-0.672988

>  <SCORE.INTRA>
-20.152

>  <SCORE.INTRA.DIHEDRAL>
-17.2865

>  <SCORE.INTRA.DIHEDRAL.0>
40.8761

>  <SCORE.INTRA.POLAR>
-2.14965

>  <SCORE.INTRA.POLAR.0>
-0.0268208

>  <SCORE.INTRA.REPUL>
-0.478684

>  <SCORE.INTRA.REPUL.0>
0.641615

>  <SCORE.INTRA.SOLV>
-4.14854

>  <SCORE.INTRA.SOLV.lig_0>
-162.567

>  <SCORE.INTRA.VDW>
0.267789

>  <SCORE.INTRA.VDW.0>
-4.80338

>  <SCORE.INTRA.norm>
-0.479808

>  <SCORE.RESTR>
5.33809

>  <SCORE.RESTR.CAVITY>
5.33809

>  <SCORE.RESTR.norm>
0.127097

>  <SCORE.SYSTEM>
0

>  <SCORE.SYSTEM.CONST>
0

>  <SCORE.SYSTEM.DIHEDRAL>
0

>  <SCORE.SYSTEM.SOLV>
0

>  <SCORE.SYSTEM.norm>
0

>  <SCORE.heavy>
42

>  <SCORE.norm>
-1.0257

>  <RMSD>
7.089

$$$$

 OpenBabel11021811393D
libRbt.so/2013.1/901 2013/11/27
 42 45  0  0  0  0  0  0  0  0999 V2000
   -6.3798    3.4367   -4.8999 C   0  0  2  0  0  0  0  0  0  0  0  0
   -5.0841    3.8426   -4.3614 O   0  0  0  0  0  0  0  0  0  0  0  0
   -7.3529    4.6525   -5.0366 C   0  0  2  0  0  0  0  0  0  0  0  0
   -6.6340    5.9429   -4.9310 N   0  3  0  0  0  0  0  0  0  0  0  0
   -8.4886    4.5706   -3.9725 C   0  0  1  0  0  0  0  0  0  0  0  0
   -9.3750    5.6787   -4.1136 O   0  0  0  0  0  0  0  0  0  0  0  0
   -9.3118    3.2616   -4.1076 C   0  0  2  0  0  0  0  0  0  0  0  0
  -10.1258    3.1122   -2.9497 O   0  0  0  0  0  0  0  0  0  0  0  0
   -8.3780    2.0185   -4.2700 C   0  0  2  0  0  0  0  0  0  0  0  0
   -6.9827    2.4041   -4.0470 O   0  0  0  0  0  0  0  0  0  0  0  0
   -8.4313    1.3541   -5.6650 C   0  0  0  0  0  0  0  0  0  0  0  0
   -3.0617    0.1743   -5.3974 C   0  0  1  0  0  0  0  0  0  0  0  0
   -2.0309   -0.8727   -5.5755 N   0  3  0  0  0  0  0  0  0  0  0  0
   -3.4211    0.3704   -3.9012 C   0  0  1  0  0  0  0  0  0  0  0  0
   -4.3973    1.5694   -3.6374 C   0  0  1  0  0  0  0  0  0  0  0  0
   -4.3964    1.8499   -2.2118 O   0  0  0  0  0  0  0  0  0  0  0  0
   -3.9770    2.8900   -4.3812 C   0  0  1  0  0  0  0  0  0  0  0  0
   -3.5989    2.6263   -5.8747 C   0  0  1  0  0  0  0  0  0  0  0  0
   -3.0628    3.8352   -6.5327 N   0  3  0  0  0  0  0  0  0  0  0  0
   -2.5546    1.4956   -6.0119 C   0  0  0  0  0  0  0  0  0  0  0  0
   -4.4987    0.7491   -1.2628 C   0  0  1  0  0  0  0  0  0  0  0  0
   -4.3012    1.3012    0.1440 C   0  0  1  0  0  0  0  0  0  0  0  0
   -5.6922    1.8617    0.4076 C   0  0  1  0  0  0  0  0  0  0  0  0
   -6.5864    0.7669   -0.1915 C   0  0  2  0  0  0  0  0  0  0  0  0
   -5.8271    0.2016   -1.2867 O   0  0  0  0  0  0  0  0  0  0  0  0
   -7.9350    1.3042   -0.7033 C   0  0  0  0  0  0  0  0  0  0  0  0
   -5.8867    5.0249    4.2472 C   0  0  1  0  0  0  0  0  0  0  0  0
   -6.1807    3.5523    4.6476 C   0  0  1  0  0  0  0  0  0  0  0  0
   -5.1230    2.5319    4.1365 C   0  0  2  0  0  0  0  0  0  0  0  0
   -4.8828    2.6893    2.6005 C   0  0  1  0  0  0  0  0  0  0  0  0
   -5.9359    2.0407    1.8326 O   0  0  0  0  0  0  0  0  0  0  0  0
   -4.6589    5.1048    3.2899 C   0  0  1  0  0  0  0  0  0  0  0  0
   -4.8083    4.1181    2.2172 O   0  0  0  0  0  0  0  0  0  0  0  0
   -4.4839    6.5139    2.6671 C   0  0  0  0  0  0  0  0  0  0  0  0
   -8.3580    2.2991   -6.7932 N   0  3  0  0  0  0  0  0  0  0  0  0
   -3.9875    0.2358    1.0413 O   0  0  0  0  0  0  0  0  0  0  0  0
   -6.2354    3.4759    6.0715 O   0  0  0  0  0  0  0  0  0  0  0  0
   -7.0470    5.5590    3.6057 O   0  0  0  0  0  0  0  0  0  0  0  0
   -8.9768    0.3769   -0.4515 O   0  0  0  0  0  0  0  0  0  0  0  0
   -4.0284   -0.8263   -3.4147 O   0  0  0  0  0  0  0  0  0  0  0  0
   -3.2652    6.6303    1.8454 N   0  3  0  0  0  0  0  0  0  0  0  0
   -5.4805    1.1434    4.5192 N   0  3  0  0  0  0  0  0  0  0  0  0
  1  2  1  1  0  0  0
  1  3  1  0  0  0  0
  1 10  1  0  0  0  0
  3  4  1  1  0  0  0
  3  5  1  0  0  0  0
  5  6  1  6  0  0  0
  5  7  1  0  0  0  0
  7  8  1  1  0  0  0
  7  9  1  0  0  0  0
  9 10  1  0  0  0  0
  9 11  1  6  0  0  0
 11 35  1  0  0  0  0
 12 13  1  1  0  0  0
 12 14  1  0  0  0  0
 12 20  1  0  0  0  0
 14 15  1  0  0  0  0
 14 40  1  6  0  0  0
 15 16  1  1  0  0  0
 15 17  1  0  0  0  0
 17  2  1  6  0  0  0
 17 18  1  0  0  0  0
 18 19  1  1  0  0  0
 18 20  1  0  0  0  0
 21 16  1  6  0  0  0
 21 22  1  0  0  0  0
 21 25  1  0  0  0  0
 22 23  1  0  0  0  0
 22 36  1  1  0  0  0
 23 24  1  0  0  0  0
 23 31  1  1  0  0  0
 24 25  1  0  0  0  0
 24 26  1  6  0  0  0
 26 39  1  0  0  0  0
 27 28  1  0  0  0  0
 27 32  1  0  0  0  0
 27 38  1  6  0  0  0
 28 29  1  0  0  0  0
 28 37  1  1  0  0  0
 29 30  1  0  0  0  0
 29 42  1  6  0  0  0
 30 31  1  6  0  0  0
 30 33  1  0  0  0  0
 32 33  1  0  0  0  0
 32 34  1  6  0  0  0
 34 41  1  0  0  0  0
M  CHG  6   4   1  13   1  19   1  35   1  41   1  42   1
M  END
>  <CHROM.1>
-169.47609164,-55.93491998,-67.38981365,-170.69536473,87.20296627,46.30727489
75.38815640,52.57625202,-59.05150778,-45.59103450,173.08051986,-67.84951070
70.25163812,46.59922626,-142.91513641,65.55385886,81.52760067,178.42880652
45.33423623,-167.24059285,175.41061757,165.49508821,-5.76215893,2.64814034
-1.48303269,1.58941188,0.64753240,-1.72727725

>  <Name>


>  <RI>
0

>  <Rbt.Current_Directory>
/home/itssahil/PROJECTS/Mol_Feturizer/New_Systems/rnas/1ei2

>  <Rbt.Executable>
rbdock ($Id: //depot/dev/client3/rdock/2013.1/src/exe/rbdock.cxx#4 $)

>  <Rbt.Library>
libRbt.so (2013.1, Build901 2013/11/27)

>  <Rbt.Parameter_File>
/export/apps/rDock/src/rDock_2013.1_src/data/scripts/dock_solv.prm

>  <Rbt.Receptor>
prm/pocket_docking_8.prm

>  <SCORE>
-67.3649

>  <SCORE.INTER>
-48.462

>  <SCORE.INTER.CONST>
1

>  <SCORE.INTER.POLAR>
-7.95247

>  <SCORE.INTER.ROT>
9

>  <SCORE.INTER.SOLV>
28.9545

>  <SCORE.INTER.VDW>
-25.0513

>  <SCORE.INTER.norm>
-1.15386

>  <SCORE.INTRA>
-18.9029

>  <SCORE.INTRA.DIHEDRAL>
-24.2963

>  <SCORE.INTRA.DIHEDRAL.0>
40.8761

>  <SCORE.INTRA.POLAR>
0.0268208

>  <SCORE.INTRA.POLAR.0>
-0.0268208

>  <SCORE.INTRA.REPUL>
-0.641615

>  <SCORE.INTRA.REPUL.0>
0.641615

>  <SCORE.INTRA.SOLV>
-8.97741

>  <SCORE.INTRA.SOLV.lig_0>
-162.567

>  <SCORE.INTRA.VDW>
0.850885

>  <SCORE.INTRA.VDW.0>
-4.80338

>  <SCORE.INTRA.norm>
-0.450068

>  <SCORE.RESTR>
0

>  <SCORE.RESTR.CAVITY>
0

>  <SCORE.RESTR.norm>
0

>  <SCORE.SYSTEM>
0

>  <SCORE.SYSTEM.CONST>
0

>  <SCORE.SYSTEM.DIHEDRAL>
0

>  <SCORE.SYSTEM.SOLV>
0

>  <SCORE.SYSTEM.norm>
0

>  <SCORE.heavy>
42

>  <SCORE.norm>
-1.60393

>  <RMSD>
7.112

$$$$

 OpenBabel11021811393D
libRbt.so/2013.1/901 2013/11/27
 42 45  0  0  0  0  0  0  0  0999 V2000
   -3.6004    2.2117   -2.4586 C   0  0  2  0  0  0  0  0  0  0  0  0
   -3.0050    1.5692   -1.2898 O   0  0  0  0  0  0  0  0  0  0  0  0
   -4.5985    1.2590   -3.1934 C   0  0  2  0  0  0  0  0  0  0  0  0
   -4.9648    0.0966   -2.3521 N   0  3  0  0  0  0  0  0  0  0  0  0
   -4.0052    0.7839   -4.5540 C   0  0  1  0  0  0  0  0  0  0  0  0
   -4.9282   -0.0758   -5.2192 O   0  0  0  0  0  0  0  0  0  0  0  0
   -3.6825    1.9787   -5.4908 C   0  0  2  0  0  0  0  0  0  0  0  0
   -2.8888    1.5083   -6.5745 O   0  0  0  0  0  0  0  0  0  0  0  0
   -2.9258    3.1119   -4.7248 C   0  0  2  0  0  0  0  0  0  0  0  0
   -2.5498    2.6509   -3.3863 O   0  0  0  0  0  0  0  0  0  0  0  0
   -3.7430    4.4093   -4.5277 C   0  0  0  0  0  0  0  0  0  0  0  0
   -3.8920    1.5417    2.9330 C   0  0  1  0  0  0  0  0  0  0  0  0
   -4.0816    1.9506    4.3428 N   0  3  0  0  0  0  0  0  0  0  0  0
   -4.9527    2.1896    2.0049 C   0  0  1  0  0  0  0  0  0  0  0  0
   -4.7118    1.9131    0.4800 C   0  0  1  0  0  0  0  0  0  0  0  0
   -5.5525    2.8190   -0.2838 O   0  0  0  0  0  0  0  0  0  0  0  0
   -3.2238    2.1541    0.0306 C   0  0  1  0  0  0  0  0  0  0  0  0
   -2.2011    1.5041    1.0178 C   0  0  1  0  0  0  0  0  0  0  0  0
   -0.8061    1.8543    0.6811 N   0  3  0  0  0  0  0  0  0  0  0  0
   -2.4676    1.9249    2.4806 C   0  0  0  0  0  0  0  0  0  0  0  0
   -5.0966    4.1790   -0.5392 C   0  0  1  0  0  0  0  0  0  0  0  0
   -6.2710    4.9932   -1.0691 C   0  0  1  0  0  0  0  0  0  0  0  0
   -6.9845    5.3127    0.2375 C   0  0  1  0  0  0  0  0  0  0  0  0
   -5.8035    5.6267    1.1670 C   0  0  2  0  0  0  0  0  0  0  0  0
   -4.7084    4.8069    0.6937 O   0  0  0  0  0  0  0  0  0  0  0  0
   -6.1003    5.3131    2.6445 C   0  0  0  0  0  0  0  0  0  0  0  0
  -10.0905    3.3295    0.3938 C   0  0  1  0  0  0  0  0  0  0  0  0
   -9.9218    4.4173    1.4908 C   0  0  1  0  0  0  0  0  0  0  0  0
  -10.1341    5.8720    0.9809 C   0  0  2  0  0  0  0  0  0  0  0  0
   -9.2560    6.1625   -0.2786 C   0  0  1  0  0  0  0  0  0  0  0  0
   -7.8791    6.4533    0.0939 O   0  0  0  0  0  0  0  0  0  0  0  0
  -10.2918    3.9818   -1.0077 C   0  0  1  0  0  0  0  0  0  0  0  0
   -9.2765    5.0171   -1.2173 O   0  0  0  0  0  0  0  0  0  0  0  0
  -10.2120    2.9473   -2.1598 C   0  0  0  0  0  0  0  0  0  0  0  0
   -2.9329    5.5961   -4.2012 N   0  3  0  0  0  0  0  0  0  0  0  0
   -5.7898    6.1771   -1.7058 O   0  0  0  0  0  0  0  0  0  0  0  0
  -10.8644    4.1576    2.5303 O   0  0  0  0  0  0  0  0  0  0  0  0
   -8.9222    2.5061    0.3906 O   0  0  0  0  0  0  0  0  0  0  0  0
   -7.2494    6.0135    3.0889 O   0  0  0  0  0  0  0  0  0  0  0  0
   -6.2409    1.6881    2.3604 O   0  0  0  0  0  0  0  0  0  0  0  0
   -9.9976    3.5721   -3.4779 N   0  3  0  0  0  0  0  0  0  0  0  0
   -9.9227    6.8627    2.0654 N   0  3  0  0  0  0  0  0  0  0  0  0
  1  2  1  1  0  0  0
  1  3  1  0  0  0  0
  1 10  1  0  0  0  0
  3  4  1  1  0  0  0
  3  5  1  0  0  0  0
  5  6  1  6  0  0  0
  5  7  1  0  0  0  0
  7  8  1  6  0  0  0
  7  9  1  0  0  0  0
  9 10  1  0  0  0  0
  9 11  1  1  0  0  0
 11 35  1  0  0  0  0
 12 13  1  1  0  0  0
 12 14  1  0  0  0  0
 12 20  1  0  0  0  0
 14 15  1  0  0  0  0
 14 40  1  1  0  0  0
 15 16  1  6  0  0  0
 15 17  1  0  0  0  0
 17  2  1  6  0  0  0
 17 18  1  0  0  0  0
 18 19  1  6  0  0  0
 18 20  1  0  0  0  0
 21 16  1  1  0  0  0
 21 22  1  0  0  0  0
 21 25  1  0  0  0  0
 22 23  1  0  0  0  0
 22 36  1  1  0  0  0
 23 24  1  0  0  0  0
 23 31  1  6  0  0  0
 24 25  1  0  0  0  0
 24 26  1  1  0  0  0
 26 39  1  0  0  0  0
 27 28  1  0  0  0  0
 27 32  1  0  0  0  0
 27 38  1  6  0  0  0
 28 29  1  0  0  0  0
 28 37  1  1  0  0  0
 29 30  1  0  0  0  0
 29 42  1  1  0  0  0
 30 31  1  1  0  0  0
 30 33  1  0  0  0  0
 32 33  1  0  0  0  0
 32 34  1  6  0  0  0
 34 41  1  0  0  0  0
M  CHG  6   4   1  13   1  19   1  35   1  41   1  42   1
M  END
>  <CHROM.1>
-119.02987276,71.98960391,81.62091491,-165.40386926,-60.75973056,-161.80632150
-178.01913523,71.79904834,-64.44528873,83.04516350,-167.37074953,56.13524438
55.35547897,91.13431064,-56.68818822,-66.69612422,-61.22006356,-67.76443225
-71.44915120,87.04350412,-162.88755979,151.45526972,-5.87651010,3.39350925
-0.66013158,-0.64960728,-0.42465057,1.48436842

>  <Name>


>  <RI>
0

>  <Rbt.Current_Directory>
/home/itssahil/PROJECTS/Mol_Feturizer/New_Systems/rnas/1ei2

>  <Rbt.Executable>
rbdock ($Id: //depot/dev/client3/rdock/2013.1/src/exe/rbdock.cxx#4 $)

>  <Rbt.Library>
libRbt.so (2013.1, Build901 2013/11/27)

>  <Rbt.Parameter_File>
/export/apps/rDock/src/rDock_2013.1_src/data/scripts/dock_solv.prm

>  <Rbt.Receptor>
prm/pocket_docking_2.prm

>  <SCORE>
-33.3547

>  <SCORE.INTER>
-13.4809

>  <SCORE.INTER.CONST>
1

>  <SCORE.INTER.POLAR>
-2.04662

>  <SCORE.INTER.ROT>
9

>  <SCORE.INTER.SOLV>
29.6944

>  <SCORE.INTER.VDW>
-21.6634

>  <SCORE.INTER.norm>
-0.320974

>  <SCORE.INTRA>
-21.8621

>  <SCORE.INTRA.DIHEDRAL>
-15.1412

>  <SCORE.INTRA.DIHEDRAL.0>
40.8761

>  <SCORE.INTRA.POLAR>
-1.47356

>  <SCORE.INTRA.POLAR.0>
-0.0268208

>  <SCORE.INTRA.REPUL>
-0.632946

>  <SCORE.INTRA.REPUL.0>
0.641615

>  <SCORE.INTRA.SOLV>
-7.09962

>  <SCORE.INTRA.SOLV.lig_0>
-162.567

>  <SCORE.INTRA.VDW>
-2.56682

>  <SCORE.INTRA.VDW.0>
-4.80338

>  <SCORE.INTRA.norm>
-0.520525

>  <SCORE.RESTR>
1.98833

>  <SCORE.RESTR.CAVITY>
1.98833

>  <SCORE.RESTR.norm>
0.0473413

>  <SCORE.SYSTEM>
0

>  <SCORE.SYSTEM.CONST>
0

>  <SCORE.SYSTEM.DIHEDRAL>
0

>  <SCORE.SYSTEM.SOLV>
0

>  <SCORE.SYSTEM.norm>
0

>  <SCORE.heavy>
42

>  <SCORE.norm>
-0.794158

>  <RMSD>
7.113

$$$$

 OpenBabel11021811393D
libRbt.so/2013.1/901 2013/11/27
 42 45  0  0  0  0  0  0  0  0999 V2000
   -4.1972    1.8777    0.0713 C   0  0  2  0  0  0  0  0  0  0  0  0
   -5.3128    1.7700   -0.8654 O   0  0  0  0  0  0  0  0  0  0  0  0
   -4.6334    1.5210    1.5295 C   0  0  2  0  0  0  0  0  0  0  0  0
   -5.9440    0.8319    1.5552 N   0  3  0  0  0  0  0  0  0  0  0  0
   -4.6701    2.7989    2.4210 C   0  0  1  0  0  0  0  0  0  0  0  0
   -5.0591    2.4597    3.7503 O   0  0  0  0  0  0  0  0  0  0  0  0
   -3.2875    3.5024    2.4771 C   0  0  2  0  0  0  0  0  0  0  0  0
   -3.4547    4.7932    3.0529 O   0  0  0  0  0  0  0  0  0  0  0  0
   -2.6572    3.6289    1.0523 C   0  0  2  0  0  0  0  0  0  0  0  0
   -3.6318    3.2327    0.0333 O   0  0  0  0  0  0  0  0  0  0  0  0
   -1.4045    2.7518    0.8249 C   0  0  0  0  0  0  0  0  0  0  0  0
   -3.3434    3.6874   -4.1918 C   0  0  1  0  0  0  0  0  0  0  0  0
   -2.9411    4.0913   -5.5576 N   0  3  0  0  0  0  0  0  0  0  0  0
   -4.7704    4.1884   -3.8472 C   0  0  1  0  0  0  0  0  0  0  0  0
   -5.3095    3.6637   -2.4710 C   0  0  1  0  0  0  0  0  0  0  0  0
   -6.7381    3.9223   -2.4148 O   0  0  0  0  0  0  0  0  0  0  0  0
   -5.0987    2.1182   -2.2677 C   0  0  1  0  0  0  0  0  0  0  0  0
   -3.6537    1.6678   -2.6577 C   0  0  1  0  0  0  0  0  0  0  0  0
   -3.4987    0.1996   -2.6099 N   0  3  0  0  0  0  0  0  0  0  0  0
   -3.2634    2.1512   -4.0725 C   0  0  0  0  0  0  0  0  0  0  0  0
   -7.6665    2.8053   -2.3005 C   0  0  1  0  0  0  0  0  0  0  0  0
   -8.2124    2.7716   -0.8779 C   0  0  1  0  0  0  0  0  0  0  0  0
   -9.2816    3.8511   -0.9774 C   0  0  1  0  0  0  0  0  0  0  0  0
   -9.8873    3.5613   -2.3582 C   0  0  2  0  0  0  0  0  0  0  0  0
   -8.8035    3.0222   -3.1521 O   0  0  0  0  0  0  0  0  0  0  0  0
  -10.4680    4.8154   -3.0361 C   0  0  0  0  0  0  0  0  0  0  0  0
   -8.0445    6.7597    0.8442 C   0  0  1  0  0  0  0  0  0  0  0  0
   -9.4753    6.8255    0.2410 C   0  0  1  0  0  0  0  0  0  0  0  0
  -10.5378    6.0128    1.0359 C   0  0  2  0  0  0  0  0  0  0  0  0
  -10.0637    4.5427    1.2717 C   0  0  1  0  0  0  0  0  0  0  0  0
  -10.2701    3.7250    0.0851 O   0  0  0  0  0  0  0  0  0  0  0  0
   -7.9917    5.7589    2.0383 C   0  0  1  0  0  0  0  0  0  0  0  0
   -8.6327    4.4995    1.6516 O   0  0  0  0  0  0  0  0  0  0  0  0
   -6.5419    5.4714    2.5067 C   0  0  0  0  0  0  0  0  0  0  0  0
   -0.2540    3.0998    1.6771 N   0  3  0  0  0  0  0  0  0  0  0  0
   -8.7847    1.4911   -0.6104 O   0  0  0  0  0  0  0  0  0  0  0  0
   -9.8841    8.1922    0.2016 O   0  0  0  0  0  0  0  0  0  0  0  0
   -7.1396    6.3489   -0.1831 O   0  0  0  0  0  0  0  0  0  0  0  0
   -9.6879    5.9597   -2.7349 O   0  0  0  0  0  0  0  0  0  0  0  0
   -4.7610    5.6154   -3.8180 O   0  0  0  0  0  0  0  0  0  0  0  0
   -6.4726    5.0019    3.9027 N   0  3  0  0  0  0  0  0  0  0  0  0
  -11.8714    6.0860    0.3890 N   0  3  0  0  0  0  0  0  0  0  0  0
  1  2  1  6  0  0  0
  1  3  1  0  0  0  0
  1 10  1  0  0  0  0
  3  4  1  6  0  0  0
  3  5  1  0  0  0  0
  5  6  1  1  0  0  0
  5  7  1  0  0  0  0
  7  8  1  6  0  0  0
  7  9  1  0  0  0  0
  9 10  1  0  0  0  0
  9 11  1  1  0  0  0
 11 35  1  0  0  0  0
 12 13  1  6  0  0  0
 12 14  1  0  0  0  0
 12 20  1  0  0  0  0
 14 15  1  0  0  0  0
 14 40  1  1  0  0  0
 15 16  1  6  0  0  0
 15 17  1  0  0  0  0
 17  2  1  1  0  0  0
 17 18  1  0  0  0  0
 18 19  1  6  0  0  0
 18 20  1  0  0  0  0
 21 16  1  1  0  0  0
 21 22  1  0  0  0  0
 21 25  1  0  0  0  0
 22 23  1  0  0  0  0
 22 36  1  6  0  0  0
 23 24  1  0  0  0  0
 23 31  1  1  0  0  0
 24 25  1  0  0  0  0
 24 26  1  6  0  0  0
 26 39  1  0  0  0  0
 27 28  1  0  0  0  0
 27 32  1  0  0  0  0
 27 38  1  6  0  0  0
 28 29  1  0  0  0  0
 28 37  1  1  0  0  0
 29 30  1  0  0  0  0
 29 42  1  6  0  0  0
 30 31  1  6  0  0  0
 30 33  1  0  0  0  0
 32 33  1  0  0  0  0
 32 34  1  6  0  0  0
 34 41  1  0  0  0  0
M  CHG  6   4   1  13   1  19   1  35   1  41   1  42   1
M  END
>  <CHROM.1>
177.64256032,-86.38995677,-80.53076413,58.77934115,66.15011209,-63.87263877
-82.91922567,-53.70372480,61.06045057,118.18788841,105.99476608,47.30711358
61.10079436,95.53219511,35.48815939,173.14888183,67.21820109,61.78749362
66.17934210,79.71887997,156.81528490,22.70170048,-6.36803177,3.84795925,-0.42237304
-0.11637464,-0.38640475,1.44945948

>  <Name>


>  <RI>
0

>  <Rbt.Current_Directory>
/home/itssahil/PROJECTS/Mol_Feturizer/New_Systems/rnas/1ei2

>  <Rbt.Executable>
rbdock ($Id: //depot/dev/client3/rdock/2013.1/src/exe/rbdock.cxx#4 $)

>  <Rbt.Library>
libRbt.so (2013.1, Build901 2013/11/27)

>  <Rbt.Parameter_File>
/export/apps/rDock/src/rDock_2013.1_src/data/scripts/dock_solv.prm

>  <Rbt.Receptor>
prm/pocket_docking_2.prm

>  <SCORE>
-27.4466

>  <SCORE.INTER>
-23.6251

>  <SCORE.INTER.CONST>
1

>  <SCORE.INTER.POLAR>
-4.23868

>  <SCORE.INTER.ROT>
9

>  <SCORE.INTER.SOLV>
23.4721

>  <SCORE.INTER.VDW>
-19.0451

>  <SCORE.INTER.norm>
-0.562502

>  <SCORE.INTRA>
-10.7959

>  <SCORE.INTRA.DIHEDRAL>
-8.3268

>  <SCORE.INTRA.DIHEDRAL.0>
40.8761

>  <SCORE.INTRA.POLAR>
-1.06983

>  <SCORE.INTRA.POLAR.0>
-0.0268208

>  <SCORE.INTRA.REPUL>
-0.236743

>  <SCORE.INTRA.REPUL.0>
0.641615

>  <SCORE.INTRA.SOLV>
-2.73203

>  <SCORE.INTRA.SOLV.lig_0>
-162.567

>  <SCORE.INTRA.VDW>
-0.445373

>  <SCORE.INTRA.VDW.0>
-4.80338

>  <SCORE.INTRA.norm>
-0.257045

>  <SCORE.RESTR>
6.97439

>  <SCORE.RESTR.CAVITY>
6.97439

>  <SCORE.RESTR.norm>
0.166057

>  <SCORE.SYSTEM>
0

>  <SCORE.SYSTEM.CONST>
0

>  <SCORE.SYSTEM.DIHEDRAL>
0

>  <SCORE.SYSTEM.SOLV>
0

>  <SCORE.SYSTEM.norm>
0

>  <SCORE.heavy>
42

>  <SCORE.norm>
-0.65349

>  <RMSD>
7.115

$$$$

 OpenBabel11021811393D
libRbt.so/2013.1/901 2013/11/27
 42 45  0  0  0  0  0  0  0  0999 V2000
   -2.9900    3.7971   -2.4782 C   0  0  2  0  0  0  0  0  0  0  0  0
   -2.8177    3.2574   -1.1318 O   0  0  0  0  0  0  0  0  0  0  0  0
   -3.4080    5.3031   -2.4456 C   0  0  2  0  0  0  0  0  0  0  0  0
   -3.1860    5.9035   -1.1102 N   0  3  0  0  0  0  0  0  0  0  0  0
   -4.8953    5.4707   -2.8801 C   0  0  1  0  0  0  0  0  0  0  0  0
   -5.2618    6.8486   -2.8563 O   0  0  0  0  0  0  0  0  0  0  0  0
   -5.1437    4.9200   -4.3099 C   0  0  2  0  0  0  0  0  0  0  0  0
   -6.5473    4.8354   -4.5296 O   0  0  0  0  0  0  0  0  0  0  0  0
   -4.4862    3.5144   -4.4986 C   0  0  2  0  0  0  0  0  0  0  0  0
   -3.9907    3.0137   -3.2145 O   0  0  0  0  0  0  0  0  0  0  0  0
   -3.2839    3.4939   -5.4703 C   0  0  0  0  0  0  0  0  0  0  0  0
   -3.5450   -0.9392   -1.8247 C   0  0  1  0  0  0  0  0  0  0  0  0
   -3.4299   -2.4147   -1.8269 N   0  3  0  0  0  0  0  0  0  0  0  0
   -3.8945   -0.3976   -0.4138 C   0  0  1  0  0  0  0  0  0  0  0  0
   -3.8818    1.1678   -0.3164 C   0  0  1  0  0  0  0  0  0  0  0  0
   -3.8973    1.5351    1.0892 O   0  0  0  0  0  0  0  0  0  0  0  0
   -2.6063    1.8219   -0.9639 C   0  0  1  0  0  0  0  0  0  0  0  0
   -2.2872    1.2172   -2.3694 C   0  0  1  0  0  0  0  0  0  0  0  0
   -1.0096    1.7215   -2.9129 N   0  3  0  0  0  0  0  0  0  0  0  0
   -2.2222   -0.3262   -2.3296 C   0  0  0  0  0  0  0  0  0  0  0  0
   -5.1019    1.3104    1.8773 C   0  0  1  0  0  0  0  0  0  0  0  0
   -4.8081    1.6754    3.3276 C   0  0  1  0  0  0  0  0  0  0  0  0
   -4.9514    3.1895    3.2554 C   0  0  1  0  0  0  0  0  0  0  0  0
   -6.1791    3.3419    2.3461 C   0  0  2  0  0  0  0  0  0  0  0  0
   -6.1423    2.2051    1.4506 O   0  0  0  0  0  0  0  0  0  0  0  0
   -6.1719    4.6527    1.5392 C   0  0  0  0  0  0  0  0  0  0  0  0
   -1.4081    3.3161    4.0022 C   0  0  1  0  0  0  0  0  0  0  0  0
   -2.2051    4.6227    3.7323 C   0  0  1  0  0  0  0  0  0  0  0  0
   -3.0906    5.0847    4.9254 C   0  0  2  0  0  0  0  0  0  0  0  0
   -4.0101    3.9256    5.4281 C   0  0  1  0  0  0  0  0  0  0  0  0
   -5.1774    3.7693    4.5724 O   0  0  0  0  0  0  0  0  0  0  0  0
   -1.8090    2.6956    5.3750 C   0  0  1  0  0  0  0  0  0  0  0  0
   -3.2693    2.6441    5.4823 O   0  0  0  0  0  0  0  0  0  0  0  0
   -1.2317    1.2703    5.5723 C   0  0  0  0  0  0  0  0  0  0  0  0
   -3.6491    3.5990   -6.8940 N   0  3  0  0  0  0  0  0  0  0  0  0
   -5.7956    1.0963    4.1809 O   0  0  0  0  0  0  0  0  0  0  0  0
   -1.2754    5.6614    3.4269 O   0  0  0  0  0  0  0  0  0  0  0  0
   -1.6821    2.3932    2.9458 O   0  0  0  0  0  0  0  0  0  0  0  0
   -6.0009    5.7708    2.3931 O   0  0  0  0  0  0  0  0  0  0  0  0
   -5.1934   -0.8655   -0.0516 O   0  0  0  0  0  0  0  0  0  0  0  0
    0.2425    1.2427    5.5664 N   0  3  0  0  0  0  0  0  0  0  0  0
   -3.8522    6.3137    4.5910 N   0  3  0  0  0  0  0  0  0  0  0  0
  1  2  1  1  0  0  0
  1  3  1  0  0  0  0
  1 10  1  0  0  0  0
  3  4  1  1  0  0  0
  3  5  1  0  0  0  0
  5  6  1  6  0  0  0
  5  7  1  0  0  0  0
  7  8  1  1  0  0  0
  7  9  1  0  0  0  0
  9 10  1  0  0  0  0
  9 11  1  6  0  0  0
 11 35  1  0  0  0  0
 12 13  1  1  0  0  0
 12 14  1  0  0  0  0
 12 20  1  0  0  0  0
 14 15  1  0  0  0  0
 14 40  1  6  0  0  0
 15 16  1  1  0  0  0
 15 17  1  0  0  0  0
 17  2  1  6  0  0  0
 17 18  1  0  0  0  0
 18 19  1  1  0  0  0
 18 20  1  0  0  0  0
 21 16  1  6  0  0  0
 21 22  1  0  0  0  0
 21 25  1  0  0  0  0
 22 23  1  0  0  0  0
 22 36  1  1  0  0  0
 23 24  1  0  0  0  0
 23 31  1  1  0  0  0
 24 25  1  0  0  0  0
 24 26  1  6  0  0  0
 26 39  1  0  0  0  0
 27 28  1  0  0  0  0
 27 32  1  0  0  0  0
 27 38  1  6  0  0  0
 28 29  1  0  0  0  0
 28 37  1  1  0  0  0
 29 30  1  0  0  0  0
 29 42  1  6  0  0  0
 30 31  1  6  0  0  0
 30 33  1  0  0  0  0
 32 33  1  0  0  0  0
 32 34  1  6  0  0  0
 34 41  1  0  0  0  0
M  CHG  6   4   1  13   1  19   1  35   1  41   1  42   1
M  END
>  <CHROM.1>
171.74115537,-109.37601623,70.20846504,-173.98119895,68.97537065,-74.35654543
-171.08262562,-49.44051751,-53.15156660,-70.12208832,175.44736770,-148.63370172
176.34552257,78.76056320,-53.25147583,177.12606947,-49.45746063,58.56217148
172.69656996,72.53009479,61.83321328,-44.31815129,-3.70634927,2.94143082
0.52033123,1.92649668,1.26255773,-1.90039985

>  <Name>


>  <RI>
0

>  <Rbt.Current_Directory>
/home/itssahil/PROJECTS/Mol_Feturizer/New_Systems/rnas/1ei2

>  <Rbt.Executable>
rbdock ($Id: //depot/dev/client3/rdock/2013.1/src/exe/rbdock.cxx#4 $)

>  <Rbt.Library>
libRbt.so (2013.1, Build901 2013/11/27)

>  <Rbt.Parameter_File>
/export/apps/rDock/src/rDock_2013.1_src/data/scripts/dock_solv.prm

>  <Rbt.Receptor>
prm/pocket_docking_6.prm

>  <SCORE>
-52.1241

>  <SCORE.INTER>
-30.4135

>  <SCORE.INTER.CONST>
1

>  <SCORE.INTER.POLAR>
-5.18204

>  <SCORE.INTER.ROT>
9

>  <SCORE.INTER.SOLV>
33.87

>  <SCORE.INTER.VDW>
-23.8922

>  <SCORE.INTER.norm>
-0.724132

>  <SCORE.INTRA>
-21.7106

>  <SCORE.INTRA.DIHEDRAL>
-24.1077

>  <SCORE.INTRA.DIHEDRAL.0>
40.8761

>  <SCORE.INTRA.POLAR>
-1.44862

>  <SCORE.INTRA.POLAR.0>
-0.0268208

>  <SCORE.INTRA.REPUL>
-0.641615

>  <SCORE.INTRA.REPUL.0>
0.641615

>  <SCORE.INTRA.SOLV>
-7.74566

>  <SCORE.INTRA.SOLV.lig_0>
-162.567

>  <SCORE.INTRA.VDW>
2.34942

>  <SCORE.INTRA.VDW.0>
-4.80338

>  <SCORE.INTRA.norm>
-0.516919

>  <SCORE.RESTR>
0

>  <SCORE.RESTR.CAVITY>
0

>  <SCORE.RESTR.norm>
0

>  <SCORE.SYSTEM>
0

>  <SCORE.SYSTEM.CONST>
0

>  <SCORE.SYSTEM.DIHEDRAL>
0

>  <SCORE.SYSTEM.SOLV>
0

>  <SCORE.SYSTEM.norm>
0

>  <SCORE.heavy>
42

>  <SCORE.norm>
-1.24105

>  <RMSD>
7.118

$$$$

 OpenBabel11021811393D
libRbt.so/2013.1/901 2013/11/27
 42 45  0  0  0  0  0  0  0  0999 V2000
   -6.0099    3.9100   -5.0518 C   0  0  2  0  0  0  0  0  0  0  0  0
   -4.7474    3.8574   -4.3190 O   0  0  0  0  0  0  0  0  0  0  0  0
   -6.8702    5.1447   -4.6286 C   0  0  2  0  0  0  0  0  0  0  0  0
   -6.0703    6.1351   -3.8720 N   0  3  0  0  0  0  0  0  0  0  0  0
   -8.1092    4.6933   -3.7980 C   0  0  1  0  0  0  0  0  0  0  0  0
   -8.8912    5.8265   -3.4266 O   0  0  0  0  0  0  0  0  0  0  0  0
   -9.0110    3.7127   -4.5946 C   0  0  2  0  0  0  0  0  0  0  0  0
   -9.9453    3.1209   -3.6987 O   0  0  0  0  0  0  0  0  0  0  0  0
   -8.1620    2.6021   -5.2939 C   0  0  2  0  0  0  0  0  0  0  0  0
   -6.7708    2.6715   -4.8411 O   0  0  0  0  0  0  0  0  0  0  0  0
   -8.1259    2.6982   -6.8365 C   0  0  0  0  0  0  0  0  0  0  0  0
   -3.4873    0.0886   -6.0007 C   0  0  1  0  0  0  0  0  0  0  0  0
   -2.6772   -1.0850   -6.3968 N   0  3  0  0  0  0  0  0  0  0  0  0
   -3.7379    0.1168   -4.4702 C   0  0  1  0  0  0  0  0  0  0  0  0
   -4.4623    1.4157   -3.9720 C   0  0  1  0  0  0  0  0  0  0  0  0
   -4.3466    1.4731   -2.5248 O   0  0  0  0  0  0  0  0  0  0  0  0
   -3.8379    2.7382   -4.5508 C   0  0  1  0  0  0  0  0  0  0  0  0
   -3.5815    2.6405   -6.0896 C   0  0  1  0  0  0  0  0  0  0  0  0
   -2.8602    3.8209   -6.6076 N   0  3  0  0  0  0  0  0  0  0  0  0
   -2.7719    1.3769   -6.4580 C   0  0  0  0  0  0  0  0  0  0  0  0
   -4.5998    0.2748   -1.7357 C   0  0  1  0  0  0  0  0  0  0  0  0
   -4.2505    0.5685   -0.2815 C   0  0  1  0  0  0  0  0  0  0  0  0
   -5.5101    1.3067    0.1508 C   0  0  1  0  0  0  0  0  0  0  0  0
   -6.6059    0.4788   -0.5354 C   0  0  2  0  0  0  0  0  0  0  0  0
   -6.0032   -0.0340   -1.7476 O   0  0  0  0  0  0  0  0  0  0  0  0
   -7.8601    1.3039   -0.8751 C   0  0  0  0  0  0  0  0  0  0  0  0
   -5.9338    4.6618    3.4473 C   0  0  1  0  0  0  0  0  0  0  0  0
   -6.2498    3.2704    4.0632 C   0  0  1  0  0  0  0  0  0  0  0  0
   -5.1251    2.2148    3.8586 C   0  0  2  0  0  0  0  0  0  0  0  0
   -4.7116    2.1147    2.3550 C   0  0  1  0  0  0  0  0  0  0  0  0
   -5.6592    1.3077    1.5999 O   0  0  0  0  0  0  0  0  0  0  0  0
   -4.6051    4.6189    2.6331 C   0  0  1  0  0  0  0  0  0  0  0  0
   -4.6148    3.4582    1.7391 O   0  0  0  0  0  0  0  0  0  0  0  0
   -4.3804    5.9055    1.7974 C   0  0  0  0  0  0  0  0  0  0  0  0
   -9.4014    2.3707   -7.4975 N   0  3  0  0  0  0  0  0  0  0  0  0
   -4.0905   -0.6569    0.4337 O   0  0  0  0  0  0  0  0  0  0  0  0
   -6.4674    3.4376    5.4636 O   0  0  0  0  0  0  0  0  0  0  0  0
   -7.0201    5.0372    2.5977 O   0  0  0  0  0  0  0  0  0  0  0  0
   -7.7345    1.9134   -2.1485 O   0  0  0  0  0  0  0  0  0  0  0  0
   -4.5342   -1.0132   -4.1148 O   0  0  0  0  0  0  0  0  0  0  0  0
   -4.3371    7.1258    2.6238 N   0  3  0  0  0  0  0  0  0  0  0  0
   -5.5035    0.9010    4.4355 N   0  3  0  0  0  0  0  0  0  0  0  0
  1  2  1  1  0  0  0
  1  3  1  0  0  0  0
  1 10  1  0  0  0  0
  3  4  1  1  0  0  0
  3  5  1  0  0  0  0
  5  6  1  6  0  0  0
  5  7  1  0  0  0  0
  7  8  1  1  0  0  0
  7  9  1  0  0  0  0
  9 10  1  0  0  0  0
  9 11  1  6  0  0  0
 11 35  1  0  0  0  0
 12 13  1  1  0  0  0
 12 14  1  0  0  0  0
 12 20  1  0  0  0  0
 14 15  1  0  0  0  0
 14 40  1  6  0  0  0
 15 16  1  1  0  0  0
 15 17  1  0  0  0  0
 17  2  1  6  0  0  0
 17 18  1  0  0  0  0
 18 19  1  1  0  0  0
 18 20  1  0  0  0  0
 21 16  1  6  0  0  0
 21 22  1  0  0  0  0
 21 25  1  0  0  0  0
 22 23  1  0  0  0  0
 22 36  1  1  0  0  0
 23 24  1  0  0  0  0
 23 31  1  1  0  0  0
 24 25  1  0  0  0  0
 24 26  1  6  0  0  0
 26 39  1  0  0  0  0
 27 28  1  0  0  0  0
 27 32  1  0  0  0  0
 27 38  1  6  0  0  0
 28 29  1  0  0  0  0
 28 37  1  1  0  0  0
 29 30  1  0  0  0  0
 29 42  1  6  0  0  0
 30 31  1  6  0  0  0
 30 33  1  0  0  0  0
 32 33  1  0  0  0  0
 32 34  1  6  0  0  0
 34 41  1  0  0  0  0
M  CHG  6   4   1  13   1  19   1  35   1  41   1  42   1
M  END
>  <CHROM.1>
177.68767253,-69.14151268,65.16647718,-161.80670685,102.38821634,-70.01165555
58.65574141,-55.92182574,65.06091796,-45.15806786,173.38417497,168.20261698
67.43884896,69.74024475,87.79611358,174.88838686,48.56881700,-165.06659134
-88.80129890,170.61856253,58.95026600,-55.72876926,-5.73301918,2.57069709
-1.87067034,1.60235941,0.88521872,-1.72013309

>  <Name>


>  <RI>
0

>  <Rbt.Current_Directory>
/home/itssahil/PROJECTS/Mol_Feturizer/New_Systems/rnas/1ei2

>  <Rbt.Executable>
rbdock ($Id: //depot/dev/client3/rdock/2013.1/src/exe/rbdock.cxx#4 $)

>  <Rbt.Library>
libRbt.so (2013.1, Build901 2013/11/27)

>  <Rbt.Parameter_File>
/export/apps/rDock/src/rDock_2013.1_src/data/scripts/dock_solv.prm

>  <Rbt.Receptor>
prm/pocket_docking_5.prm

>  <SCORE>
-63.6752

>  <SCORE.INTER>
-40.9272

>  <SCORE.INTER.CONST>
1

>  <SCORE.INTER.POLAR>
-7.75081

>  <SCORE.INTER.ROT>
9

>  <SCORE.INTER.SOLV>
35.9986

>  <SCORE.INTER.VDW>
-23.0483

>  <SCORE.INTER.norm>
-0.974457

>  <SCORE.INTRA>
-23.1176

>  <SCORE.INTRA.DIHEDRAL>
-23.2645

>  <SCORE.INTRA.DIHEDRAL.0>
40.8761

>  <SCORE.INTRA.POLAR>
-0.971697

>  <SCORE.INTRA.POLAR.0>
-0.0268208

>  <SCORE.INTRA.REPUL>
-0.633446

>  <SCORE.INTRA.REPUL.0>
0.641615

>  <SCORE.INTRA.SOLV>
-10.8103

>  <SCORE.INTRA.SOLV.lig_0>
-162.567

>  <SCORE.INTRA.VDW>
0.390779

>  <SCORE.INTRA.VDW.0>
-4.80338

>  <SCORE.INTRA.norm>
-0.550419

>  <SCORE.RESTR>
0.369585

>  <SCORE.RESTR.CAVITY>
0.369585

>  <SCORE.RESTR.norm>
0.00879963

>  <SCORE.SYSTEM>
0

>  <SCORE.SYSTEM.CONST>
0

>  <SCORE.SYSTEM.DIHEDRAL>
0

>  <SCORE.SYSTEM.SOLV>
0

>  <SCORE.SYSTEM.norm>
0

>  <SCORE.heavy>
42

>  <SCORE.norm>
-1.51608

>  <RMSD>
7.123

$$$$

 OpenBabel11021811393D
libRbt.so/2013.1/901 2013/11/27
 42 45  0  0  0  0  0  0  0  0999 V2000
   -4.1707    1.3458   -1.2228 C   0  0  2  0  0  0  0  0  0  0  0  0
   -2.9962    1.9346   -1.8612 O   0  0  0  0  0  0  0  0  0  0  0  0
   -4.0924   -0.2154   -1.2013 C   0  0  2  0  0  0  0  0  0  0  0  0
   -2.7245   -0.6985   -1.4989 N   0  3  0  0  0  0  0  0  0  0  0  0
   -5.1190   -0.8316   -2.1989 C   0  0  1  0  0  0  0  0  0  0  0  0
   -5.0454   -2.2552   -2.1629 O   0  0  0  0  0  0  0  0  0  0  0  0
   -6.5739   -0.4054   -1.8654 C   0  0  2  0  0  0  0  0  0  0  0  0
   -7.4140   -0.7522   -2.9606 O   0  0  0  0  0  0  0  0  0  0  0  0
   -6.6652    1.1298   -1.5854 C   0  0  2  0  0  0  0  0  0  0  0  0
   -5.3932    1.7781   -1.9126 O   0  0  0  0  0  0  0  0  0  0  0  0
   -6.9786    1.4964   -0.1165 C   0  0  0  0  0  0  0  0  0  0  0  0
   -5.0976    3.3289   -5.3626 C   0  0  1  0  0  0  0  0  0  0  0  0
   -5.4184    3.9420   -6.6709 N   0  3  0  0  0  0  0  0  0  0  0  0
   -4.2456    2.0434   -5.5300 C   0  0  1  0  0  0  0  0  0  0  0  0
   -3.7484    1.4333   -4.1734 C   0  0  1  0  0  0  0  0  0  0  0  0
   -2.7165    0.4537   -4.4675 O   0  0  0  0  0  0  0  0  0  0  0  0
   -3.1255    2.5014   -3.2011 C   0  0  1  0  0  0  0  0  0  0  0  0
   -4.0119    3.7844   -3.0948 C   0  0  1  0  0  0  0  0  0  0  0  0
   -3.3583    4.8457   -2.3022 N   0  3  0  0  0  0  0  0  0  0  0  0
   -4.3575    4.3608   -4.4863 C   0  0  0  0  0  0  0  0  0  0  0  0
   -1.6541    0.7892   -5.4064 C   0  0  1  0  0  0  0  0  0  0  0  0
   -0.7093   -0.4017   -5.5160 C   0  0  1  0  0  0  0  0  0  0  0  0
   -1.4965   -1.2781   -6.4807 C   0  0  1  0  0  0  0  0  0  0  0  0
   -2.0238   -0.2408   -7.4823 C   0  0  2  0  0  0  0  0  0  0  0  0
   -2.2019    0.9778   -6.7215 O   0  0  0  0  0  0  0  0  0  0  0  0
   -3.3540   -0.6569   -8.1357 C   0  0  0  0  0  0  0  0  0  0  0  0
   -3.7710   -3.9787   -5.7032 C   0  0  1  0  0  0  0  0  0  0  0  0
   -3.6809   -3.2840   -7.0906 C   0  0  1  0  0  0  0  0  0  0  0  0
   -2.4704   -3.7435   -7.9536 C   0  0  2  0  0  0  0  0  0  0  0  0
   -1.1330   -3.6372   -7.1522 C   0  0  1  0  0  0  0  0  0  0  0  0
   -0.6422   -2.2670   -7.1242 O   0  0  0  0  0  0  0  0  0  0  0  0
   -2.5217   -4.8763   -5.4503 C   0  0  1  0  0  0  0  0  0  0  0  0
   -1.3048   -4.1229   -5.7635 O   0  0  0  0  0  0  0  0  0  0  0  0
   -2.4447   -5.3863   -3.9882 C   0  0  0  0  0  0  0  0  0  0  0  0
   -6.1905    0.7493    0.8795 N   0  3  0  0  0  0  0  0  0  0  0  0
    0.5321    0.0173   -6.0834 O   0  0  0  0  0  0  0  0  0  0  0  0
   -4.8824   -3.5587   -7.8097 O   0  0  0  0  0  0  0  0  0  0  0  0
   -3.8630   -2.9678   -4.6969 O   0  0  0  0  0  0  0  0  0  0  0  0
   -3.8505    0.3741   -8.9719 O   0  0  0  0  0  0  0  0  0  0  0  0
   -5.0258    1.0616   -6.2118 O   0  0  0  0  0  0  0  0  0  0  0  0
   -2.3804   -6.8564   -3.8961 N   0  3  0  0  0  0  0  0  0  0  0  0
   -2.4203   -3.0175   -9.2469 N   0  3  0  0  0  0  0  0  0  0  0  0
  1  2  1  6  0  0  0
  1  3  1  0  0  0  0
  1 10  1  0  0  0  0
  3  4  1  6  0  0  0
  3  5  1  0  0  0  0
  5  6  1  1  0  0  0
  5  7  1  0  0  0  0
  7  8  1  6  0  0  0
  7  9  1  0  0  0  0
  9 10  1  0  0  0  0
  9 11  1  1  0  0  0
 11 35  1  0  0  0  0
 12 13  1  6  0  0  0
 12 14  1  0  0  0  0
 12 20  1  0  0  0  0
 14 15  1  0  0  0  0
 14 40  1  1  0  0  0
 15 16  1  6  0  0  0
 15 17  1  0  0  0  0
 17  2  1  1  0  0  0
 17 18  1  0  0  0  0
 18 19  1  1  0  0  0
 18 20  1  0  0  0  0
 21 16  1  1  0  0  0
 21 22  1  0  0  0  0
 21 25  1  0  0  0  0
 22 23  1  0  0  0  0
 22 36  1  6  0  0  0
 23 24  1  0  0  0  0
 23 31  1  6  0  0  0
 24 25  1  0  0  0  0
 24 26  1  1  0  0  0
 26 39  1  0  0  0  0
 27 28  1  0  0  0  0
 27 32  1  0  0  0  0
 27 38  1  1  0  0  0
 28 29  1  0  0  0  0
 28 37  1  6  0  0  0
 29 30  1  0  0  0  0
 29 42  1  6  0  0  0
 30 31  1  1  0  0  0
 30 33  1  0  0  0  0
 32 33  1  0  0  0  0
 32 34  1  1  0  0  0
 34 41  1  0  0  0  0
M  CHG  6   4   1  13   1  19   1  35   1  41   1  42   1
M  END
>  <CHROM.1>
106.11817942,-53.71643493,-60.50219923,-84.49273558,-68.38471984,45.59172918
-157.18167489,-28.31820408,-53.11404470,46.40917684,179.38268716,49.88672539
-47.13070690,132.66994606,175.52721935,64.82088402,-55.99184177,160.15898999
97.00196474,61.89040177,123.55285267,-161.94597479,-3.59311895,-0.42020244
-4.63051534,2.58344853,1.13076448,-0.26476022

>  <Name>


>  <RI>
0

>  <Rbt.Current_Directory>
/home/itssahil/PROJECTS/Mol_Feturizer/New_Systems/rnas/1ei2

>  <Rbt.Executable>
rbdock ($Id: //depot/dev/client3/rdock/2013.1/src/exe/rbdock.cxx#4 $)

>  <Rbt.Library>
libRbt.so (2013.1, Build901 2013/11/27)

>  <Rbt.Parameter_File>
/export/apps/rDock/src/rDock_2013.1_src/data/scripts/dock_solv.prm

>  <Rbt.Receptor>
prm/blind_docking_40.prm

>  <SCORE>
71.751

>  <SCORE.INTER>
63.7337

>  <SCORE.INTER.CONST>
1

>  <SCORE.INTER.POLAR>
-4.32652

>  <SCORE.INTER.ROT>
9

>  <SCORE.INTER.SOLV>
44.2741

>  <SCORE.INTER.VDW>
32.5528

>  <SCORE.INTER.norm>
1.51747

>  <SCORE.INTRA>
-10.0825

>  <SCORE.INTRA.DIHEDRAL>
-7.80562

>  <SCORE.INTRA.DIHEDRAL.0>
40.8761

>  <SCORE.INTRA.POLAR>
-1.78076

>  <SCORE.INTRA.POLAR.0>
-0.0268208

>  <SCORE.INTRA.REPUL>
-0.623951

>  <SCORE.INTRA.REPUL.0>
0.641615

>  <SCORE.INTRA.SOLV>
-1.39141

>  <SCORE.INTRA.SOLV.lig_0>
-162.567

>  <SCORE.INTRA.VDW>
3.69035

>  <SCORE.INTRA.VDW.0>
-4.80338

>  <SCORE.INTRA.norm>
-0.240059

>  <SCORE.RESTR>
18.0998

>  <SCORE.RESTR.CAVITY>
18.0998

>  <SCORE.RESTR.norm>
0.430948

>  <SCORE.SYSTEM>
0

>  <SCORE.SYSTEM.CONST>
0

>  <SCORE.SYSTEM.DIHEDRAL>
0

>  <SCORE.SYSTEM.SOLV>
0

>  <SCORE.SYSTEM.norm>
0

>  <SCORE.heavy>
42

>  <SCORE.norm>
1.70836

>  <RMSD>
7.130

$$$$

 OpenBabel11021811393D
libRbt.so/2013.1/901 2013/11/27
 42 45  0  0  0  0  0  0  0  0999 V2000
   -5.5768    3.3918   -5.1981 C   0  0  2  0  0  0  0  0  0  0  0  0
   -4.8684    2.8554   -4.0388 O   0  0  0  0  0  0  0  0  0  0  0  0
   -6.8818    4.1432   -4.7784 C   0  0  2  0  0  0  0  0  0  0  0  0
   -6.9019    4.4352   -3.3267 N   0  3  0  0  0  0  0  0  0  0  0  0
   -8.1436    3.3259   -5.1892 C   0  0  1  0  0  0  0  0  0  0  0  0
   -9.3271    4.0256   -4.8106 O   0  0  0  0  0  0  0  0  0  0  0  0
   -8.1915    3.0698   -6.7195 C   0  0  2  0  0  0  0  0  0  0  0  0
   -9.1884    2.0901   -6.9879 O   0  0  0  0  0  0  0  0  0  0  0  0
   -6.8060    2.5855   -7.2572 C   0  0  2  0  0  0  0  0  0  0  0  0
   -5.8996    2.3118   -6.1397 O   0  0  0  0  0  0  0  0  0  0  0  0
   -6.0815    3.6014   -8.1701 C   0  0  0  0  0  0  0  0  0  0  0  0
   -1.7555    0.8284   -6.2345 C   0  0  1  0  0  0  0  0  0  0  0  0
   -0.4633    0.2217   -6.6251 N   0  3  0  0  0  0  0  0  0  0  0  0
   -2.4430    0.0230   -5.1010 C   0  0  1  0  0  0  0  0  0  0  0  0
   -3.7422    0.7009   -4.5421 C   0  0  1  0  0  0  0  0  0  0  0  0
   -4.0997    0.0402   -3.2984 O   0  0  0  0  0  0  0  0  0  0  0  0
   -3.5615    2.2321   -4.2311 C   0  0  1  0  0  0  0  0  0  0  0  0
   -2.8385    2.9849   -5.3945 C   0  0  1  0  0  0  0  0  0  0  0  0
   -2.5350    4.3873   -5.0435 N   0  3  0  0  0  0  0  0  0  0  0  0
   -1.5188    2.2888   -5.7966 C   0  0  0  0  0  0  0  0  0  0  0  0
   -3.0918   -0.1312   -2.2604 C   0  0  1  0  0  0  0  0  0  0  0  0
   -2.5056    1.2346   -1.9229 C   0  0  1  0  0  0  0  0  0  0  0  0
   -3.5906    1.7686   -0.9976 C   0  0  1  0  0  0  0  0  0  0  0  0
   -3.9331    0.5221   -0.1694 C   0  0  2  0  0  0  0  0  0  0  0  0
   -3.7074   -0.6037   -1.0510 O   0  0  0  0  0  0  0  0  0  0  0  0
   -5.3869    0.5160    0.3364 C   0  0  0  0  0  0  0  0  0  0  0  0
   -2.9861    4.2894    3.3966 C   0  0  1  0  0  0  0  0  0  0  0  0
   -2.5715    5.0539    2.1085 C   0  0  1  0  0  0  0  0  0  0  0  0
   -3.6335    5.0068    0.9723 C   0  0  2  0  0  0  0  0  0  0  0  0
   -4.0735    3.5379    0.6712 C   0  0  1  0  0  0  0  0  0  0  0  0
   -3.0952    2.8546   -0.1626 O   0  0  0  0  0  0  0  0  0  0  0  0
   -4.3275    3.5251    3.1802 C   0  0  1  0  0  0  0  0  0  0  0  0
   -4.2664    2.7727    1.9245 O   0  0  0  0  0  0  0  0  0  0  0  0
   -4.6494    2.5521    4.3437 C   0  0  0  0  0  0  0  0  0  0  0  0
   -4.9470    3.0412   -8.9253 N   0  3  0  0  0  0  0  0  0  0  0  0
   -1.2651    1.0713   -1.2353 O   0  0  0  0  0  0  0  0  0  0  0  0
   -2.3335    6.4182    2.4524 O   0  0  0  0  0  0  0  0  0  0  0  0
   -1.9441    3.3703    3.7317 O   0  0  0  0  0  0  0  0  0  0  0  0
   -6.2217   -0.2285   -0.5340 O   0  0  0  0  0  0  0  0  0  0  0  0
   -2.7828   -1.2709   -5.5988 O   0  0  0  0  0  0  0  0  0  0  0  0
   -5.0991    3.2464    5.5642 N   0  3  0  0  0  0  0  0  0  0  0  0
   -3.1623    5.7217   -0.2398 N   0  3  0  0  0  0  0  0  0  0  0  0
  1  2  1  1  0  0  0
  1  3  1  0  0  0  0
  1 10  1  0  0  0  0
  3  4  1  1  0  0  0
  3  5  1  0  0  0  0
  5  6  1  6  0  0  0
  5  7  1  0  0  0  0
  7  8  1  1  0  0  0
  7  9  1  0  0  0  0
  9 10  1  0  0  0  0
  9 11  1  6  0  0  0
 11 35  1  0  0  0  0
 12 13  1  1  0  0  0
 12 14  1  0  0  0  0
 12 20  1  0  0  0  0
 14 15  1  0  0  0  0
 14 40  1  6  0  0  0
 15 16  1  1  0  0  0
 15 17  1  0  0  0  0
 17  2  1  6  0  0  0
 17 18  1  0  0  0  0
 18 19  1  1  0  0  0
 18 20  1  0  0  0  0
 21 16  1  6  0  0  0
 21 22  1  0  0  0  0
 21 25  1  0  0  0  0
 22 23  1  0  0  0  0
 22 36  1  1  0  0  0
 23 24  1  0  0  0  0
 23 31  1  1  0  0  0
 24 25  1  0  0  0  0
 24 26  1  6  0  0  0
 26 39  1  0  0  0  0
 27 28  1  0  0  0  0
 27 32  1  0  0  0  0
 27 38  1  6  0  0  0
 28 29  1  0  0  0  0
 28 37  1  1  0  0  0
 29 30  1  0  0  0  0
 29 42  1  6  0  0  0
 30 31  1  6  0  0  0
 30 33  1  0  0  0  0
 32 33  1  0  0  0  0
 32 34  1  1  0  0  0
 34 41  1  0  0  0  0
M  CHG  6   4   1  13   1  19   1  35   1  41   1  42   1
M  END
>  <CHROM.1>
-174.23552523,-88.62134305,-60.28400318,62.13707216,70.89586775,-166.33381096
-63.77233200,-161.42321483,64.56942373,50.65119920,55.28713136,-67.68472367
-179.80660772,174.09085725,95.81483042,73.54987056,174.11407258,-58.69969578
-75.79931105,-153.34564823,74.18944927,168.76743014,-4.29660948,2.48004751
-2.44449939,1.79239081,0.52425407,-1.81149994

>  <Name>


>  <RI>
0

>  <Rbt.Current_Directory>
/home/itssahil/PROJECTS/Mol_Feturizer/New_Systems/rnas/1ei2

>  <Rbt.Executable>
rbdock ($Id: //depot/dev/client3/rdock/2013.1/src/exe/rbdock.cxx#4 $)

>  <Rbt.Library>
libRbt.so (2013.1, Build901 2013/11/27)

>  <Rbt.Parameter_File>
/export/apps/rDock/src/rDock_2013.1_src/data/scripts/dock_solv.prm

>  <Rbt.Receptor>
prm/pocket_docking_5.prm

>  <SCORE>
-58.3819

>  <SCORE.INTER>
-39.4967

>  <SCORE.INTER.CONST>
1

>  <SCORE.INTER.POLAR>
-6.55926

>  <SCORE.INTER.ROT>
9

>  <SCORE.INTER.SOLV>
28.9856

>  <SCORE.INTER.VDW>
-23.7288

>  <SCORE.INTER.norm>
-0.940397

>  <SCORE.INTRA>
-18.9737

>  <SCORE.INTRA.DIHEDRAL>
-24.5599

>  <SCORE.INTRA.DIHEDRAL.0>
40.8761

>  <SCORE.INTRA.POLAR>
0.0268208

>  <SCORE.INTRA.POLAR.0>
-0.0268208

>  <SCORE.INTRA.REPUL>
-0.641615

>  <SCORE.INTRA.REPUL.0>
0.641615

>  <SCORE.INTRA.SOLV>
-12.1214

>  <SCORE.INTRA.SOLV.lig_0>
-162.567

>  <SCORE.INTRA.VDW>
2.4838

>  <SCORE.INTRA.VDW.0>
-4.80338

>  <SCORE.INTRA.norm>
-0.451755

>  <SCORE.RESTR>
0.0884306

>  <SCORE.RESTR.CAVITY>
0.0884306

>  <SCORE.RESTR.norm>
0.00210549

>  <SCORE.SYSTEM>
0

>  <SCORE.SYSTEM.CONST>
0

>  <SCORE.SYSTEM.DIHEDRAL>
0

>  <SCORE.SYSTEM.SOLV>
0

>  <SCORE.SYSTEM.norm>
0

>  <SCORE.heavy>
42

>  <SCORE.norm>
-1.39005

>  <RMSD>
7.142

$$$$

 OpenBabel11021811393D
libRbt.so/2013.1/901 2013/11/27
 42 45  0  0  0  0  0  0  0  0999 V2000
   -2.4184    2.7007   -1.8194 C   0  0  2  0  0  0  0  0  0  0  0  0
   -2.5792    1.3756   -2.4128 O   0  0  0  0  0  0  0  0  0  0  0  0
   -1.4804    2.6618   -0.5694 C   0  0  2  0  0  0  0  0  0  0  0  0
   -0.7141    1.3965   -0.4999 N   0  3  0  0  0  0  0  0  0  0  0  0
   -2.2985    2.8782    0.7393 C   0  0  1  0  0  0  0  0  0  0  0  0
   -1.4313    2.8510    1.8710 O   0  0  0  0  0  0  0  0  0  0  0  0
   -3.0529    4.2348    0.7299 C   0  0  2  0  0  0  0  0  0  0  0  0
   -3.9936    4.2419    1.7978 O   0  0  0  0  0  0  0  0  0  0  0  0
   -3.7857    4.4669   -0.6312 C   0  0  2  0  0  0  0  0  0  0  0  0
   -3.7279    3.2524   -1.4479 O   0  0  0  0  0  0  0  0  0  0  0  0
   -3.1914    5.6037   -1.4941 C   0  0  0  0  0  0  0  0  0  0  0  0
   -3.0965    1.4823   -6.6954 C   0  0  1  0  0  0  0  0  0  0  0  0
   -3.6561    1.3392   -8.0580 N   0  3  0  0  0  0  0  0  0  0  0  0
   -3.8590    2.5569   -5.8769 C   0  0  1  0  0  0  0  0  0  0  0  0
   -3.4083    2.6471   -4.3773 C   0  0  1  0  0  0  0  0  0  0  0  0
   -4.3933    3.4329   -3.6540 O   0  0  0  0  0  0  0  0  0  0  0  0
   -3.3086    1.2449   -3.6714 C   0  0  1  0  0  0  0  0  0  0  0  0
   -2.5568    0.1968   -4.5541 C   0  0  1  0  0  0  0  0  0  0  0  0
   -2.5919   -1.1553   -3.9604 N   0  3  0  0  0  0  0  0  0  0  0  0
   -3.1479    0.1165   -5.9796 C   0  0  0  0  0  0  0  0  0  0  0  0
   -5.8070    3.1022   -3.7765 C   0  0  1  0  0  0  0  0  0  0  0  0
   -6.4209    3.0713   -2.3819 C   0  0  1  0  0  0  0  0  0  0  0  0
   -6.6308    4.5616   -2.1505 C   0  0  1  0  0  0  0  0  0  0  0  0
   -7.1341    5.0213   -3.5262 C   0  0  2  0  0  0  0  0  0  0  0  0
   -6.4959    4.1451   -4.4856 O   0  0  0  0  0  0  0  0  0  0  0  0
   -6.7862    6.4885   -3.8351 C   0  0  0  0  0  0  0  0  0  0  0  0
   -8.6311    5.9979    2.4012 C   0  0  1  0  0  0  0  0  0  0  0  0
   -9.3985    4.9449    1.5540 C   0  0  1  0  0  0  0  0  0  0  0  0
   -8.5016    3.8023    0.9963 C   0  0  2  0  0  0  0  0  0  0  0  0
   -7.2602    4.3767    0.2408 C   0  0  1  0  0  0  0  0  0  0  0  0
   -7.6138    4.8075   -1.1040 O   0  0  0  0  0  0  0  0  0  0  0  0
   -7.0962    5.7274    2.3642 C   0  0  1  0  0  0  0  0  0  0  0  0
   -6.6685    5.5165    0.9789 O   0  0  0  0  0  0  0  0  0  0  0  0
   -6.2749    6.8887    2.9813 C   0  0  0  0  0  0  0  0  0  0  0  0
   -4.1365    6.1953   -2.4575 N   0  3  0  0  0  0  0  0  0  0  0  0
   -7.6624    2.3670   -2.4162 O   0  0  0  0  0  0  0  0  0  0  0  0
  -10.4166    4.3669    2.3700 O   0  0  0  0  0  0  0  0  0  0  0  0
   -8.9153    7.2958    1.8744 O   0  0  0  0  0  0  0  0  0  0  0  0
   -7.5504    7.3695   -3.0298 O   0  0  0  0  0  0  0  0  0  0  0  0
   -3.6565    3.8298   -6.4902 O   0  0  0  0  0  0  0  0  0  0  0  0
   -6.1441    8.0438    2.0743 N   0  3  0  0  0  0  0  0  0  0  0  0
   -9.2857    2.8534    0.1675 N   0  3  0  0  0  0  0  0  0  0  0  0
  1  2  1  1  0  0  0
  1  3  1  0  0  0  0
  1 10  1  0  0  0  0
  3  4  1  1  0  0  0
  3  5  1  0  0  0  0
  5  6  1  1  0  0  0
  5  7  1  0  0  0  0
  7  8  1  1  0  0  0
  7  9  1  0  0  0  0
  9 10  1  0  0  0  0
  9 11  1  6  0  0  0
 11 35  1  0  0  0  0
 12 13  1  6  0  0  0
 12 14  1  0  0  0  0
 12 20  1  0  0  0  0
 14 15  1  0  0  0  0
 14 40  1  6  0  0  0
 15 16  1  1  0  0  0
 15 17  1  0  0  0  0
 17  2  1  1  0  0  0
 17 18  1  0  0  0  0
 18 19  1  1  0  0  0
 18 20  1  0  0  0  0
 21 16  1  1  0  0  0
 21 22  1  0  0  0  0
 21 25  1  0  0  0  0
 22 23  1  0  0  0  0
 22 36  1  6  0  0  0
 23 24  1  0  0  0  0
 23 31  1  1  0  0  0
 24 25  1  0  0  0  0
 24 26  1  6  0  0  0
 26 39  1  0  0  0  0
 27 28  1  0  0  0  0
 27 32  1  0  0  0  0
 27 38  1  6  0  0  0
 28 29  1  0  0  0  0
 28 37  1  1  0  0  0
 29 30  1  0  0  0  0
 29 42  1  6  0  0  0
 30 31  1  6  0  0  0
 30 33  1  0  0  0  0
 32 33  1  0  0  0  0
 32 34  1  6  0  0  0
 34 41  1  0  0  0  0
M  CHG  6   4   1  13   1  19   1  35   1  41   1  42   1
M  END
>  <CHROM.1>
-173.62655511,17.54841341,-11.19254811,-69.54124090,-161.49117201,-156.20795597
-75.10738315,-31.96370212,178.53515944,50.44863667,132.83254881,-46.59031306
62.47620210,65.23592202,-70.58863798,175.54865281,177.20694800,169.42926208
12.13703662,-142.26992667,-77.61347345,143.39951274,-5.19179743,3.78626963
-1.61471738,-0.92782052,-0.46990490,1.30592014

>  <Name>


>  <RI>
0

>  <Rbt.Current_Directory>
/home/itssahil/PROJECTS/Mol_Feturizer/New_Systems/rnas/1ei2

>  <Rbt.Executable>
rbdock ($Id: //depot/dev/client3/rdock/2013.1/src/exe/rbdock.cxx#4 $)

>  <Rbt.Library>
libRbt.so (2013.1, Build901 2013/11/27)

>  <Rbt.Parameter_File>
/export/apps/rDock/src/rDock_2013.1_src/data/scripts/dock_solv.prm

>  <Rbt.Receptor>
prm/pocket_docking_2.prm

>  <SCORE>
-36.2755

>  <SCORE.INTER>
-27.5741

>  <SCORE.INTER.CONST>
1

>  <SCORE.INTER.POLAR>
-4.70999

>  <SCORE.INTER.ROT>
9

>  <SCORE.INTER.SOLV>
25.7194

>  <SCORE.INTER.VDW>
-20.8559

>  <SCORE.INTER.norm>
-0.656525

>  <SCORE.INTRA>
-12.8082

>  <SCORE.INTRA.DIHEDRAL>
-4.81467

>  <SCORE.INTRA.DIHEDRAL.0>
40.8761

>  <SCORE.INTRA.POLAR>
-3.07265

>  <SCORE.INTRA.POLAR.0>
-0.0268208

>  <SCORE.INTRA.REPUL>
-0.641615

>  <SCORE.INTRA.REPUL.0>
0.641615

>  <SCORE.INTRA.SOLV>
1.12579

>  <SCORE.INTRA.SOLV.lig_0>
-162.567

>  <SCORE.INTRA.VDW>
2.69137

>  <SCORE.INTRA.VDW.0>
-4.80338

>  <SCORE.INTRA.norm>
-0.304956

>  <SCORE.RESTR>
4.10674

>  <SCORE.RESTR.CAVITY>
4.10674

>  <SCORE.RESTR.norm>
0.0977795

>  <SCORE.SYSTEM>
0

>  <SCORE.SYSTEM.CONST>
0

>  <SCORE.SYSTEM.DIHEDRAL>
0

>  <SCORE.SYSTEM.SOLV>
0

>  <SCORE.SYSTEM.norm>
0

>  <SCORE.heavy>
42

>  <SCORE.norm>
-0.863702

>  <RMSD>
7.167

$$$$

 OpenBabel11021811393D
libRbt.so/2013.1/901 2013/11/27
 42 45  0  0  0  0  0  0  0  0999 V2000
   -5.1565    3.0140   -2.9196 C   0  0  2  0  0  0  0  0  0  0  0  0
   -4.0831    2.2022   -2.3518 O   0  0  0  0  0  0  0  0  0  0  0  0
   -6.1958    2.1367   -3.6904 C   0  0  2  0  0  0  0  0  0  0  0  0
   -6.0453    0.6995   -3.3666 N   0  3  0  0  0  0  0  0  0  0  0  0
   -6.0772    2.3662   -5.2274 C   0  0  1  0  0  0  0  0  0  0  0  0
   -7.0363    1.5689   -5.9187 O   0  0  0  0  0  0  0  0  0  0  0  0
   -6.3077    3.8533   -5.6076 C   0  0  2  0  0  0  0  0  0  0  0  0
   -5.9045    4.0474   -6.9587 O   0  0  0  0  0  0  0  0  0  0  0  0
   -5.5062    4.8102   -4.6667 C   0  0  2  0  0  0  0  0  0  0  0  0
   -4.5999    4.0365   -3.8150 O   0  0  0  0  0  0  0  0  0  0  0  0
   -6.3828    5.6583   -3.7166 C   0  0  0  0  0  0  0  0  0  0  0  0
   -1.2265    2.6437    0.8520 C   0  0  1  0  0  0  0  0  0  0  0  0
   -0.1180    3.1297    1.7037 N   0  3  0  0  0  0  0  0  0  0  0  0
   -2.4130    3.6427    0.8371 C   0  0  1  0  0  0  0  0  0  0  0  0
   -3.5543    3.2539   -0.1659 C   0  0  1  0  0  0  0  0  0  0  0  0
   -4.4280    4.4035   -0.3270 O   0  0  0  0  0  0  0  0  0  0  0  0
   -3.0221    2.8587   -1.5924 C   0  0  1  0  0  0  0  0  0  0  0  0
   -1.8104    1.8746   -1.5136 C   0  0  1  0  0  0  0  0  0  0  0  0
   -1.2158    1.6197   -2.8416 N   0  3  0  0  0  0  0  0  0  0  0  0
   -0.7001    2.4040   -0.5784 C   0  0  0  0  0  0  0  0  0  0  0  0
   -5.3619    4.7508    0.7359 C   0  0  1  0  0  0  0  0  0  0  0  0
   -6.3089    5.8266    0.2177 C   0  0  1  0  0  0  0  0  0  0  0  0
   -7.2858    4.9643   -0.5702 C   0  0  1  0  0  0  0  0  0  0  0  0
   -7.4541    3.7558    0.3617 C   0  0  2  0  0  0  0  0  0  0  0  0
   -6.1891    3.6191    1.0523 O   0  0  0  0  0  0  0  0  0  0  0  0
   -7.7894    2.4563   -0.3921 C   0  0  0  0  0  0  0  0  0  0  0  0
  -11.9035    6.4042    0.9140 C   0  0  1  0  0  0  0  0  0  0  0  0
  -11.5628    6.7188   -0.5693 C   0  0  1  0  0  0  0  0  0  0  0  0
  -10.9725    5.5125   -1.3551 C   0  0  2  0  0  0  0  0  0  0  0  0
   -9.7638    4.8795   -0.5934 C   0  0  1  0  0  0  0  0  0  0  0  0
   -8.5484    5.6550   -0.7951 O   0  0  0  0  0  0  0  0  0  0  0  0
  -11.4266    4.9712    1.3006 C   0  0  1  0  0  0  0  0  0  0  0  0
  -10.0434    4.7783    0.8576 O   0  0  0  0  0  0  0  0  0  0  0  0
  -11.5158    4.7083    2.8260 C   0  0  0  0  0  0  0  0  0  0  0  0
   -6.5238    7.0699   -4.1151 N   0  3  0  0  0  0  0  0  0  0  0  0
   -6.9510    6.4747    1.3160 O   0  0  0  0  0  0  0  0  0  0  0  0
  -12.7564    7.1475   -1.2235 O   0  0  0  0  0  0  0  0  0  0  0  0
  -11.2612    7.3769    1.7413 O   0  0  0  0  0  0  0  0  0  0  0  0
   -9.1319    2.0677   -0.1568 O   0  0  0  0  0  0  0  0  0  0  0  0
   -2.9671    3.7164    2.1505 O   0  0  0  0  0  0  0  0  0  0  0  0
  -12.8947    4.7883    3.3420 N   0  3  0  0  0  0  0  0  0  0  0  0
  -10.6347    5.8879   -2.7506 N   0  3  0  0  0  0  0  0  0  0  0  0
  1  2  1  6  0  0  0
  1  3  1  0  0  0  0
  1 10  1  0  0  0  0
  3  4  1  6  0  0  0
  3  5  1  0  0  0  0
  5  6  1  6  0  0  0
  5  7  1  0  0  0  0
  7  8  1  6  0  0  0
  7  9  1  0  0  0  0
  9 10  1  0  0  0  0
  9 11  1  1  0  0  0
 11 35  1  0  0  0  0
 12 13  1  1  0  0  0
 12 14  1  0  0  0  0
 12 20  1  0  0  0  0
 14 15  1  0  0  0  0
 14 40  1  1  0  0  0
 15 16  1  6  0  0  0
 15 17  1  0  0  0  0
 17  2  1  6  0  0  0
 17 18  1  0  0  0  0
 18 19  1  6  0  0  0
 18 20  1  0  0  0  0
 21 16  1  6  0  0  0
 21 22  1  0  0  0  0
 21 25  1  0  0  0  0
 22 23  1  0  0  0  0
 22 36  1  1  0  0  0
 23 24  1  0  0  0  0
 23 31  1  1  0  0  0
 24 25  1  0  0  0  0
 24 26  1  6  0  0  0
 26 39  1  0  0  0  0
 27 28  1  0  0  0  0
 27 32  1  0  0  0  0
 27 38  1  1  0  0  0
 28 29  1  0  0  0  0
 28 37  1  6  0  0  0
 29 30  1  0  0  0  0
 29 42  1  6  0  0  0
 30 31  1  1  0  0  0
 30 33  1  0  0  0  0
 32 33  1  0  0  0  0
 32 34  1  1  0  0  0
 34 41  1  0  0  0  0
M  CHG  6   4   1  13   1  19   1  35   1  41   1  42   1
M  END
>  <CHROM.1>
-179.84072822,75.89594194,163.89655397,-58.89690645,-124.87878587,-104.18703380
-140.31165249,165.80917621,-55.39622699,-75.05070928,-170.29452441,21.11257310
72.95050047,-136.27812851,-109.07265567,-59.87651824,75.90809714,-57.18278876
50.87379976,-158.55127574,62.13997079,78.53392469,-6.72044876,4.14567296
-1.13523229,0.29462822,0.31509469,-1.69264048

>  <Name>


>  <RI>
0

>  <Rbt.Current_Directory>
/home/itssahil/PROJECTS/Mol_Feturizer/New_Systems/rnas/1ei2

>  <Rbt.Executable>
rbdock ($Id: //depot/dev/client3/rdock/2013.1/src/exe/rbdock.cxx#4 $)

>  <Rbt.Library>
libRbt.so (2013.1, Build901 2013/11/27)

>  <Rbt.Parameter_File>
/export/apps/rDock/src/rDock_2013.1_src/data/scripts/dock_solv.prm

>  <Rbt.Receptor>
prm/pocket_docking_3.prm

>  <SCORE>
-47.2572

>  <SCORE.INTER>
-38.4845

>  <SCORE.INTER.CONST>
1

>  <SCORE.INTER.POLAR>
-6.90292

>  <SCORE.INTER.ROT>
9

>  <SCORE.INTER.SOLV>
26.0465

>  <SCORE.INTER.VDW>
-20.9287

>  <SCORE.INTER.norm>
-0.916297

>  <SCORE.INTRA>
-10.0778

>  <SCORE.INTRA.DIHEDRAL>
-3.96242

>  <SCORE.INTRA.DIHEDRAL.0>
40.8761

>  <SCORE.INTRA.POLAR>
0.0268208

>  <SCORE.INTRA.POLAR.0>
-0.0268208

>  <SCORE.INTRA.REPUL>
-0.522324

>  <SCORE.INTRA.REPUL.0>
0.641615

>  <SCORE.INTRA.SOLV>
-12.7126

>  <SCORE.INTRA.SOLV.lig_0>
-162.567

>  <SCORE.INTRA.VDW>
0.780069

>  <SCORE.INTRA.VDW.0>
-4.80338

>  <SCORE.INTRA.norm>
-0.239949

>  <SCORE.RESTR>
1.30517

>  <SCORE.RESTR.CAVITY>
1.30517

>  <SCORE.RESTR.norm>
0.0310754

>  <SCORE.SYSTEM>
0

>  <SCORE.SYSTEM.CONST>
0

>  <SCORE.SYSTEM.DIHEDRAL>
0

>  <SCORE.SYSTEM.SOLV>
0

>  <SCORE.SYSTEM.norm>
0

>  <SCORE.heavy>
42

>  <SCORE.norm>
-1.12517

>  <RMSD>
7.183

$$$$

 OpenBabel11021811393D
libRbt.so/2013.1/901 2013/11/27
 42 45  0  0  0  0  0  0  0  0999 V2000
   -5.6738    3.7001   -6.0724 C   0  0  2  0  0  0  0  0  0  0  0  0
   -5.3357    4.1192   -4.7145 O   0  0  0  0  0  0  0  0  0  0  0  0
   -6.9987    2.8710   -6.1060 C   0  0  2  0  0  0  0  0  0  0  0  0
   -7.7626    3.0095   -4.8449 N   0  3  0  0  0  0  0  0  0  0  0  0
   -6.7012    1.3702   -6.4030 C   0  0  1  0  0  0  0  0  0  0  0  0
   -7.9173    0.6265   -6.4412 O   0  0  0  0  0  0  0  0  0  0  0  0
   -5.9683    1.1853   -7.7587 C   0  0  2  0  0  0  0  0  0  0  0  0
   -5.4738   -0.1473   -7.8328 O   0  0  0  0  0  0  0  0  0  0  0  0
   -4.7913    2.2026   -7.9108 C   0  0  2  0  0  0  0  0  0  0  0  0
   -4.5749    2.9147   -6.6493 O   0  0  0  0  0  0  0  0  0  0  0  0
   -5.0146    3.2849   -8.9920 C   0  0  0  0  0  0  0  0  0  0  0  0
   -1.9842    1.4357   -4.2834 C   0  0  1  0  0  0  0  0  0  0  0  0
   -0.8230    0.6964   -3.7397 N   0  3  0  0  0  0  0  0  0  0  0  0
   -3.3040    1.0162   -3.5844 C   0  0  1  0  0  0  0  0  0  0  0  0
   -4.5462    1.8723   -4.0132 C   0  0  1  0  0  0  0  0  0  0  0  0
   -5.6233    1.6114   -3.0736 O   0  0  0  0  0  0  0  0  0  0  0  0
   -4.2700    3.4208   -4.0004 C   0  0  1  0  0  0  0  0  0  0  0  0
   -2.9151    3.7799   -4.6918 C   0  0  1  0  0  0  0  0  0  0  0  0
   -2.5828    5.2122   -4.5501 N   0  3  0  0  0  0  0  0  0  0  0  0
   -1.7420    2.9509   -4.1223 C   0  0  0  0  0  0  0  0  0  0  0  0
   -5.8505    0.2522   -2.6006 C   0  0  1  0  0  0  0  0  0  0  0  0
   -4.9436   -0.0027   -1.4025 C   0  0  1  0  0  0  0  0  0  0  0  0
   -5.7520    0.6789   -0.3069 C   0  0  1  0  0  0  0  0  0  0  0  0
   -7.1830    0.2565   -0.6689 C   0  0  2  0  0  0  0  0  0  0  0  0
   -7.1949    0.1209   -2.1101 O   0  0  0  0  0  0  0  0  0  0  0  0
   -8.2435    1.2797   -0.2241 C   0  0  0  0  0  0  0  0  0  0  0  0
   -3.4115    3.3982    0.1604 C   0  0  1  0  0  0  0  0  0  0  0  0
   -4.7644    3.3528    0.9240 C   0  0  1  0  0  0  0  0  0  0  0  0
   -4.7838    2.3616    2.1234 C   0  0  2  0  0  0  0  0  0  0  0  0
   -4.3033    0.9397    1.6885 C   0  0  1  0  0  0  0  0  0  0  0  0
   -5.3659    0.2065    1.0158 O   0  0  0  0  0  0  0  0  0  0  0  0
   -2.4322    2.3131    0.7022 C   0  0  1  0  0  0  0  0  0  0  0  0
   -3.1270    1.0264    0.7927 O   0  0  0  0  0  0  0  0  0  0  0  0
   -1.1737    2.1526   -0.1891 C   0  0  0  0  0  0  0  0  0  0  0  0
   -3.8530    4.1608   -9.2265 N   0  3  0  0  0  0  0  0  0  0  0  0
   -4.8305   -1.4073   -1.1725 O   0  0  0  0  0  0  0  0  0  0  0  0
   -5.0493    4.6631    1.4122 O   0  0  0  0  0  0  0  0  0  0  0  0
   -3.6691    3.1798   -1.2285 O   0  0  0  0  0  0  0  0  0  0  0  0
   -9.5496    0.8135   -0.5168 O   0  0  0  0  0  0  0  0  0  0  0  0
   -3.5685   -0.3532   -3.8878 O   0  0  0  0  0  0  0  0  0  0  0  0
    0.0790    2.4534    0.5279 N   0  3  0  0  0  0  0  0  0  0  0  0
   -6.1118    2.3380    2.7854 N   0  3  0  0  0  0  0  0  0  0  0  0
  1  2  1  1  0  0  0
  1  3  1  0  0  0  0
  1 10  1  0  0  0  0
  3  4  1  1  0  0  0
  3  5  1  0  0  0  0
  5  6  1  6  0  0  0
  5  7  1  0  0  0  0
  7  8  1  1  0  0  0
  7  9  1  0  0  0  0
  9 10  1  0  0  0  0
  9 11  1  6  0  0  0
 11 35  1  0  0  0  0
 12 13  1  1  0  0  0
 12 14  1  0  0  0  0
 12 20  1  0  0  0  0
 14 15  1  0  0  0  0
 14 40  1  6  0  0  0
 15 16  1  1  0  0  0
 15 17  1  0  0  0  0
 17  2  1  6  0  0  0
 17 18  1  0  0  0  0
 18 19  1  1  0  0  0
 18 20  1  0  0  0  0
 21 16  1  1  0  0  0
 21 22  1  0  0  0  0
 21 25  1  0  0  0  0
 22 23  1  0  0  0  0
 22 36  1  1  0  0  0
 23 24  1  0  0  0  0
 23 31  1  1  0  0  0
 24 25  1  0  0  0  0
 24 26  1  6  0  0  0
 26 39  1  0  0  0  0
 27 28  1  0  0  0  0
 27 32  1  0  0  0  0
 27 38  1  6  0  0  0
 28 29  1  0  0  0  0
 28 37  1  1  0  0  0
 29 30  1  0  0  0  0
 29 42  1  6  0  0  0
 30 31  1  6  0  0  0
 30 33  1  0  0  0  0
 32 33  1  0  0  0  0
 32 34  1  6  0  0  0
 34 41  1  0  0  0  0
M  CHG  6   4   1  13   1  19   1  35   1  41   1  42   1
M  END
>  <CHROM.1>
103.97586816,-52.96441498,-63.16719040,62.22106760,175.45511906,-174.27531049
170.13306330,-20.79116070,-59.33991106,-40.50335653,85.84813977,83.93377373
58.84588511,90.35406319,-176.92646151,-61.54768523,169.73660022,58.16773653
65.81202962,69.83924432,118.95394399,165.61395098,-4.74187656,1.93542160
-2.88951342,1.65344558,-0.33222914,-1.46039156

>  <Name>


>  <RI>
0

>  <Rbt.Current_Directory>
/home/itssahil/PROJECTS/Mol_Feturizer/New_Systems/rnas/1ei2

>  <Rbt.Executable>
rbdock ($Id: //depot/dev/client3/rdock/2013.1/src/exe/rbdock.cxx#4 $)

>  <Rbt.Library>
libRbt.so (2013.1, Build901 2013/11/27)

>  <Rbt.Parameter_File>
/export/apps/rDock/src/rDock_2013.1_src/data/scripts/dock_solv.prm

>  <Rbt.Receptor>
prm/pocket_docking_4.prm

>  <SCORE>
-50.6048

>  <SCORE.INTER>
-31.608

>  <SCORE.INTER.CONST>
1

>  <SCORE.INTER.POLAR>
-5.77188

>  <SCORE.INTER.ROT>
9

>  <SCORE.INTER.SOLV>
40.5576

>  <SCORE.INTER.VDW>
-24.9516

>  <SCORE.INTER.norm>
-0.752571

>  <SCORE.INTRA>
-19.1519

>  <SCORE.INTRA.DIHEDRAL>
-14.3887

>  <SCORE.INTRA.DIHEDRAL.0>
40.8761

>  <SCORE.INTRA.POLAR>
-1.13985

>  <SCORE.INTRA.POLAR.0>
-0.0268208

>  <SCORE.INTRA.REPUL>
-0.641615

>  <SCORE.INTRA.REPUL.0>
0.641615

>  <SCORE.INTRA.SOLV>
-8.03447

>  <SCORE.INTRA.SOLV.lig_0>
-162.567

>  <SCORE.INTRA.VDW>
-0.856804

>  <SCORE.INTRA.VDW.0>
-4.80338

>  <SCORE.INTRA.norm>
-0.455998

>  <SCORE.RESTR>
0.155143

>  <SCORE.RESTR.CAVITY>
0.155143

>  <SCORE.RESTR.norm>
0.00369388

>  <SCORE.SYSTEM>
0

>  <SCORE.SYSTEM.CONST>
0

>  <SCORE.SYSTEM.DIHEDRAL>
0

>  <SCORE.SYSTEM.SOLV>
0

>  <SCORE.SYSTEM.norm>
0

>  <SCORE.heavy>
42

>  <SCORE.norm>
-1.20488

>  <RMSD>
7.187

$$$$

 OpenBabel11021811393D
libRbt.so/2013.1/901 2013/11/27
 42 45  0  0  0  0  0  0  0  0999 V2000
   -5.4461    2.6004   -4.2672 C   0  0  2  0  0  0  0  0  0  0  0  0
   -6.3283    3.7445   -4.4828 O   0  0  0  0  0  0  0  0  0  0  0  0
   -4.1858    2.6632   -5.1899 C   0  0  2  0  0  0  0  0  0  0  0  0
   -4.0107    4.0077   -5.7856 N   0  3  0  0  0  0  0  0  0  0  0  0
   -4.2654    1.5773   -6.3049 C   0  0  1  0  0  0  0  0  0  0  0  0
   -3.1064    1.6377   -7.1334 O   0  0  0  0  0  0  0  0  0  0  0  0
   -4.3715    0.1474   -5.7104 C   0  0  2  0  0  0  0  0  0  0  0  0
   -4.7297   -0.7549   -6.7512 O   0  0  0  0  0  0  0  0  0  0  0  0
   -5.4300    0.0876   -4.5618 C   0  0  2  0  0  0  0  0  0  0  0  0
   -6.1757    1.3467   -4.4980 O   0  0  0  0  0  0  0  0  0  0  0  0
   -4.8357   -0.1414   -3.1530 C   0  0  0  0  0  0  0  0  0  0  0  0
   -9.6180    5.8945   -2.7010 C   0  0  1  0  0  0  0  0  0  0  0  0
  -10.8306    6.2378   -1.9250 N   0  3  0  0  0  0  0  0  0  0  0  0
   -8.4232    5.5581   -1.7707 C   0  0  1  0  0  0  0  0  0  0  0  0
   -7.1539    5.0415   -2.5335 C   0  0  1  0  0  0  0  0  0  0  0  0
   -6.2440    4.4623   -1.5601 O   0  0  0  0  0  0  0  0  0  0  0  0
   -7.4770    3.9316   -3.6002 C   0  0  1  0  0  0  0  0  0  0  0  0
   -8.7059    4.3122   -4.4879 C   0  0  1  0  0  0  0  0  0  0  0  0
   -9.1024    3.2100   -5.3878 N   0  3  0  0  0  0  0  0  0  0  0  0
   -9.9318    4.7061   -3.6336 C   0  0  0  0  0  0  0  0  0  0  0  0
   -6.6480    3.2770   -0.8154 C   0  0  1  0  0  0  0  0  0  0  0  0
   -5.4008    2.6179   -0.2383 C   0  0  1  0  0  0  0  0  0  0  0  0
   -5.1756    3.4982    0.9835 C   0  0  1  0  0  0  0  0  0  0  0  0
   -6.6105    3.6936    1.4937 C   0  0  2  0  0  0  0  0  0  0  0  0
   -7.4500    3.6565    0.3150 O   0  0  0  0  0  0  0  0  0  0  0  0
   -6.8072    5.0237    2.2429 C   0  0  0  0  0  0  0  0  0  0  0  0
   -2.1343    4.6835   -0.5752 C   0  0  1  0  0  0  0  0  0  0  0  0
   -2.6512    5.2812    0.7629 C   0  0  1  0  0  0  0  0  0  0  0  0
   -2.3814    4.3844    2.0055 C   0  0  2  0  0  0  0  0  0  0  0  0
   -2.8952    2.9272    1.7724 C   0  0  1  0  0  0  0  0  0  0  0  0
   -4.3344    2.8370    1.9720 O   0  0  0  0  0  0  0  0  0  0  0  0
   -1.5907    3.2378   -0.3635 C   0  0  1  0  0  0  0  0  0  0  0  0
   -2.5610    2.4570    0.4082 O   0  0  0  0  0  0  0  0  0  0  0  0
   -1.3001    2.5120   -1.7024 C   0  0  0  0  0  0  0  0  0  0  0  0
   -3.4982    0.4438   -2.9534 N   0  3  0  0  0  0  0  0  0  0  0  0
   -5.6945    1.2711    0.1339 O   0  0  0  0  0  0  0  0  0  0  0  0
   -2.0168    6.5432    0.9665 O   0  0  0  0  0  0  0  0  0  0  0  0
   -3.2140    4.6714   -1.5117 O   0  0  0  0  0  0  0  0  0  0  0  0
   -8.1822    5.2707    2.4817 O   0  0  0  0  0  0  0  0  0  0  0  0
   -8.0680    6.7305   -1.0381 O   0  0  0  0  0  0  0  0  0  0  0  0
   -0.3559    1.3894   -1.5531 N   0  3  0  0  0  0  0  0  0  0  0  0
   -2.9311    4.9927    3.2425 N   0  3  0  0  0  0  0  0  0  0  0  0
  1  2  1  6  0  0  0
  1  3  1  0  0  0  0
  1 10  1  0  0  0  0
  3  4  1  6  0  0  0
  3  5  1  0  0  0  0
  5  6  1  1  0  0  0
  5  7  1  0  0  0  0
  7  8  1  6  0  0  0
  7  9  1  0  0  0  0
  9 10  1  0  0  0  0
  9 11  1  1  0  0  0
 11 35  1  0  0  0  0
 12 13  1  1  0  0  0
 12 14  1  0  0  0  0
 12 20  1  0  0  0  0
 14 15  1  0  0  0  0
 14 40  1  6  0  0  0
 15 16  1  1  0  0  0
 15 17  1  0  0  0  0
 17  2  1  6  0  0  0
 17 18  1  0  0  0  0
 18 19  1  1  0  0  0
 18 20  1  0  0  0  0
 21 16  1  1  0  0  0
 21 22  1  0  0  0  0
 21 25  1  0  0  0  0
 22 23  1  0  0  0  0
 22 36  1  1  0  0  0
 23 24  1  0  0  0  0
 23 31  1  1  0  0  0
 24 25  1  0  0  0  0
 24 26  1  6  0  0  0
 26 39  1  0  0  0  0
 27 28  1  0  0  0  0
 27 32  1  0  0  0  0
 27 38  1  6  0  0  0
 28 29  1  0  0  0  0
 28 37  1  1  0  0  0
 29 30  1  0  0  0  0
 29 42  1  1  0  0  0
 30 31  1  6  0  0  0
 30 33  1  0  0  0  0
 32 33  1  0  0  0  0
 32 34  1  6  0  0  0
 34 41  1  0  0  0  0
M  CHG  6   4   1  13   1  19   1  35   1  41   1  42   1
M  END
>  <CHROM.1>
-173.05608242,101.49833557,177.23768091,58.78606964,-167.48091731,32.08105885
-52.71827735,-166.46621663,-67.05791362,64.25041069,161.38290271,-70.90226487
-178.14673124,83.55243725,169.47347374,66.92280705,52.14373655,31.00952753
58.80668404,69.23613294,158.93280333,-154.28569662,-5.27956816,3.37477607
-1.84462628,-1.73122147,-0.38997269,1.13336642

>  <Name>


>  <RI>
0

>  <Rbt.Current_Directory>
/home/itssahil/PROJECTS/Mol_Feturizer/New_Systems/rnas/1ei2

>  <Rbt.Executable>
rbdock ($Id: //depot/dev/client3/rdock/2013.1/src/exe/rbdock.cxx#4 $)

>  <Rbt.Library>
libRbt.so (2013.1, Build901 2013/11/27)

>  <Rbt.Parameter_File>
/export/apps/rDock/src/rDock_2013.1_src/data/scripts/dock_solv.prm

>  <Rbt.Receptor>
prm/pocket_docking_3.prm

>  <SCORE>
-49.7942

>  <SCORE.INTER>
-34.6601

>  <SCORE.INTER.CONST>
1

>  <SCORE.INTER.POLAR>
-6.95561

>  <SCORE.INTER.ROT>
9

>  <SCORE.INTER.SOLV>
25.1478

>  <SCORE.INTER.VDW>
-17.904

>  <SCORE.INTER.norm>
-0.825242

>  <SCORE.INTRA>
-16.2448

>  <SCORE.INTRA.DIHEDRAL>
-18.1866

>  <SCORE.INTRA.DIHEDRAL.0>
40.8761

>  <SCORE.INTRA.POLAR>
0.0268208

>  <SCORE.INTRA.POLAR.0>
-0.0268208

>  <SCORE.INTRA.REPUL>
-0.550732

>  <SCORE.INTRA.REPUL.0>
0.641615

>  <SCORE.INTRA.SOLV>
-3.16835

>  <SCORE.INTRA.SOLV.lig_0>
-162.567

>  <SCORE.INTRA.VDW>
-2.90488

>  <SCORE.INTRA.VDW.0>
-4.80338

>  <SCORE.INTRA.norm>
-0.386781

>  <SCORE.RESTR>
1.11071

>  <SCORE.RESTR.CAVITY>
1.11071

>  <SCORE.RESTR.norm>
0.0264455

>  <SCORE.SYSTEM>
0

>  <SCORE.SYSTEM.CONST>
0

>  <SCORE.SYSTEM.DIHEDRAL>
0

>  <SCORE.SYSTEM.SOLV>
0

>  <SCORE.SYSTEM.norm>
0

>  <SCORE.heavy>
42

>  <SCORE.norm>
-1.18558

>  <RMSD>
7.193

$$$$

 OpenBabel11021811393D
libRbt.so/2013.1/901 2013/11/27
 42 45  0  0  0  0  0  0  0  0999 V2000
   -2.5885    3.7400   -0.9635 C   0  0  2  0  0  0  0  0  0  0  0  0
   -2.3614    4.1697   -2.3410 O   0  0  0  0  0  0  0  0  0  0  0  0
   -2.4945    4.9382    0.0362 C   0  0  2  0  0  0  0  0  0  0  0  0
   -2.5537    6.2413   -0.6649 N   0  3  0  0  0  0  0  0  0  0  0  0
   -1.1979    4.8378    0.8950 C   0  0  1  0  0  0  0  0  0  0  0  0
   -1.1284    5.9298    1.8095 O   0  0  0  0  0  0  0  0  0  0  0  0
   -1.1433    3.5142    1.7040 C   0  0  2  0  0  0  0  0  0  0  0  0
    0.1704    3.3521    2.2270 O   0  0  0  0  0  0  0  0  0  0  0  0
   -1.5194    2.2876    0.8109 C   0  0  2  0  0  0  0  0  0  0  0  0
   -1.6224    2.6982   -0.5913 O   0  0  0  0  0  0  0  0  0  0  0  0
   -2.8665    1.6203    1.1720 C   0  0  0  0  0  0  0  0  0  0  0  0
   -3.6653    3.4049   -6.3827 C   0  0  1  0  0  0  0  0  0  0  0  0
   -4.1515    2.7385   -7.6114 N   0  3  0  0  0  0  0  0  0  0  0  0
   -4.7717    3.4758   -5.2978 C   0  0  1  0  0  0  0  0  0  0  0  0
   -4.2720    4.0361   -3.9207 C   0  0  1  0  0  0  0  0  0  0  0  0
   -5.2862    3.7515   -2.9200 O   0  0  0  0  0  0  0  0  0  0  0  0
   -2.9273    3.3818   -3.4330 C   0  0  1  0  0  0  0  0  0  0  0  0
   -1.8621    3.3113   -4.5747 C   0  0  1  0  0  0  0  0  0  0  0  0
   -0.6559    2.5652   -4.1624 N   0  3  0  0  0  0  0  0  0  0  0  0
   -2.4300    2.6492   -5.8502 C   0  0  0  0  0  0  0  0  0  0  0  0
   -5.4345    2.3935   -2.4135 C   0  0  1  0  0  0  0  0  0  0  0  0
   -6.2490    2.4419   -1.1262 C   0  0  1  0  0  0  0  0  0  0  0  0
   -7.6540    2.5452   -1.7040 C   0  0  1  0  0  0  0  0  0  0  0  0
   -7.5786    1.5619   -2.8807 C   0  0  2  0  0  0  0  0  0  0  0  0
   -6.2052    1.6063   -3.3362 O   0  0  0  0  0  0  0  0  0  0  0  0
   -8.5312    1.9278   -4.0331 C   0  0  0  0  0  0  0  0  0  0  0  0
   -7.5740    5.7724   -0.0785 C   0  0  1  0  0  0  0  0  0  0  0  0
   -8.7192    5.3391   -1.0355 C   0  0  1  0  0  0  0  0  0  0  0  0
   -9.7500    4.3664   -0.3931 C   0  0  2  0  0  0  0  0  0  0  0  0
   -9.0365    3.1424    0.2660 C   0  0  1  0  0  0  0  0  0  0  0  0
   -8.6633    2.1495   -0.7311 O   0  0  0  0  0  0  0  0  0  0  0  0
   -7.6574    4.9986    1.2722 C   0  0  1  0  0  0  0  0  0  0  0  0
   -7.8272    3.5675    1.0081 O   0  0  0  0  0  0  0  0  0  0  0  0
   -6.4000    5.2095    2.1545 C   0  0  0  0  0  0  0  0  0  0  0  0
   -3.2612    0.5199    0.2749 N   0  3  0  0  0  0  0  0  0  0  0  0
   -6.0713    1.2278   -0.3962 O   0  0  0  0  0  0  0  0  0  0  0  0
   -9.4089    6.5102   -1.4706 O   0  0  0  0  0  0  0  0  0  0  0  0
   -6.3245    5.5090   -0.7207 O   0  0  0  0  0  0  0  0  0  0  0  0
   -8.4291    0.9895   -5.0904 O   0  0  0  0  0  0  0  0  0  0  0  0
   -5.8271    4.3111   -5.7729 O   0  0  0  0  0  0  0  0  0  0  0  0
   -6.5857    4.7391    3.5395 N   0  3  0  0  0  0  0  0  0  0  0  0
  -10.7939    3.9623   -1.3673 N   0  3  0  0  0  0  0  0  0  0  0  0
  1  2  1  6  0  0  0
  1  3  1  0  0  0  0
  1 10  1  0  0  0  0
  3  4  1  6  0  0  0
  3  5  1  0  0  0  0
  5  6  1  1  0  0  0
  5  7  1  0  0  0  0
  7  8  1  6  0  0  0
  7  9  1  0  0  0  0
  9 10  1  0  0  0  0
  9 11  1  1  0  0  0
 11 35  1  0  0  0  0
 12 13  1  6  0  0  0
 12 14  1  0  0  0  0
 12 20  1  0  0  0  0
 14 15  1  0  0  0  0
 14 40  1  6  0  0  0
 15 16  1  1  0  0  0
 15 17  1  0  0  0  0
 17  2  1  1  0  0  0
 17 18  1  0  0  0  0
 18 19  1  1  0  0  0
 18 20  1  0  0  0  0
 21 16  1  6  0  0  0
 21 22  1  0  0  0  0
 21 25  1  0  0  0  0
 22 23  1  0  0  0  0
 22 36  1  6  0  0  0
 23 24  1  0  0  0  0
 23 31  1  1  0  0  0
 24 25  1  0  0  0  0
 24 26  1  6  0  0  0
 26 39  1  0  0  0  0
 27 28  1  0  0  0  0
 27 32  1  0  0  0  0
 27 38  1  6  0  0  0
 28 29  1  0  0  0  0
 28 37  1  1  0  0  0
 29 30  1  0  0  0  0
 29 42  1  6  0  0  0
 30 31  1  6  0  0  0
 30 33  1  0  0  0  0
 32 33  1  0  0  0  0
 32 34  1  6  0  0  0
 34 41  1  0  0  0  0
M  CHG  6   4   1  13   1  19   1  35   1  41   1  42   1
M  END
>  <CHROM.1>
-154.90696827,98.19699116,122.99195387,66.59155968,175.37817725,176.23296190
-154.91218511,-49.27366124,67.46364882,74.98013249,163.69919860,61.20984881
-54.91406201,80.13007218,-179.75452101,-59.02580628,57.37959413,174.84694690
-65.19108501,65.80789122,167.25470499,147.21422163,-5.08203014,3.50457755
-1.52836537,0.17912366,-0.03493176,1.34409640

>  <Name>


>  <RI>
0

>  <Rbt.Current_Directory>
/home/itssahil/PROJECTS/Mol_Feturizer/New_Systems/rnas/1ei2

>  <Rbt.Executable>
rbdock ($Id: //depot/dev/client3/rdock/2013.1/src/exe/rbdock.cxx#4 $)

>  <Rbt.Library>
libRbt.so (2013.1, Build901 2013/11/27)

>  <Rbt.Parameter_File>
/export/apps/rDock/src/rDock_2013.1_src/data/scripts/dock_solv.prm

>  <Rbt.Receptor>
prm/pocket_docking_3.prm

>  <SCORE>
-50.4821

>  <SCORE.INTER>
-28.093

>  <SCORE.INTER.CONST>
1

>  <SCORE.INTER.POLAR>
-3.93026

>  <SCORE.INTER.ROT>
9

>  <SCORE.INTER.SOLV>
31.332

>  <SCORE.INTER.VDW>
-25.6718

>  <SCORE.INTER.norm>
-0.668881

>  <SCORE.INTRA>
-23.4124

>  <SCORE.INTRA.DIHEDRAL>
-19.2163

>  <SCORE.INTRA.DIHEDRAL.0>
40.8761

>  <SCORE.INTRA.POLAR>
-1.38625

>  <SCORE.INTRA.POLAR.0>
-0.0268208

>  <SCORE.INTRA.REPUL>
-0.641001

>  <SCORE.INTRA.REPUL.0>
0.641615

>  <SCORE.INTRA.SOLV>
-7.10695

>  <SCORE.INTRA.SOLV.lig_0>
-162.567

>  <SCORE.INTRA.VDW>
-2.33256

>  <SCORE.INTRA.VDW.0>
-4.80338

>  <SCORE.INTRA.norm>
-0.557439

>  <SCORE.RESTR>
1.02338

>  <SCORE.RESTR.CAVITY>
1.02338

>  <SCORE.RESTR.norm>
0.0243661

>  <SCORE.SYSTEM>
0

>  <SCORE.SYSTEM.CONST>
0

>  <SCORE.SYSTEM.DIHEDRAL>
0

>  <SCORE.SYSTEM.SOLV>
0

>  <SCORE.SYSTEM.norm>
0

>  <SCORE.heavy>
42

>  <SCORE.norm>
-1.20195

>  <RMSD>
7.204

$$$$

 OpenBabel11021811393D
libRbt.so/2013.1/901 2013/11/27
 42 45  0  0  0  0  0  0  0  0999 V2000
   -7.2318    2.6006   -4.4552 C   0  0  2  0  0  0  0  0  0  0  0  0
   -6.5144    1.3756   -4.7990 O   0  0  0  0  0  0  0  0  0  0  0  0
   -8.5424    2.7548   -5.2932 C   0  0  2  0  0  0  0  0  0  0  0  0
   -8.9196    1.4858   -5.9568 N   0  3  0  0  0  0  0  0  0  0  0  0
   -8.3933    3.8973   -6.3427 C   0  0  1  0  0  0  0  0  0  0  0  0
   -9.5977    4.0351   -7.0935 O   0  0  0  0  0  0  0  0  0  0  0  0
   -8.0738    5.2594   -5.6704 C   0  0  2  0  0  0  0  0  0  0  0  0
   -7.6675    6.1811   -6.6759 O   0  0  0  0  0  0  0  0  0  0  0  0
   -6.9501    5.1111   -4.5940 C   0  0  2  0  0  0  0  0  0  0  0  0
   -6.3657    3.7695   -4.6574 O   0  0  0  0  0  0  0  0  0  0  0  0
   -7.4266    5.3128   -3.1371 C   0  0  0  0  0  0  0  0  0  0  0  0
   -2.7562    0.0803   -6.4779 C   0  0  1  0  0  0  0  0  0  0  0  0
   -1.3402    0.0249   -6.9046 N   0  3  0  0  0  0  0  0  0  0  0  0
   -2.8887    0.0081   -4.9340 C   0  0  1  0  0  0  0  0  0  0  0  0
   -4.3545    0.2133   -4.4150 C   0  0  1  0  0  0  0  0  0  0  0  0
   -4.2998    0.4486   -2.9823 O   0  0  0  0  0  0  0  0  0  0  0  0
   -5.0809    1.4447   -5.0708 C   0  0  1  0  0  0  0  0  0  0  0  0
   -4.8886    1.4807   -6.6215 C   0  0  1  0  0  0  0  0  0  0  0  0
   -5.4417    2.7125   -7.2203 N   0  3  0  0  0  0  0  0  0  0  0  0
   -3.3990    1.3746   -7.0183 C   0  0  0  0  0  0  0  0  0  0  0  0
   -4.1648   -0.6819   -2.0732 C   0  0  1  0  0  0  0  0  0  0  0  0
   -3.3496   -0.2380   -0.8644 C   0  0  1  0  0  0  0  0  0  0  0  0
   -4.4294    0.4762   -0.0629 C   0  0  1  0  0  0  0  0  0  0  0  0
   -5.6288   -0.4633   -0.2522 C   0  0  2  0  0  0  0  0  0  0  0  0
   -5.4539   -1.0571   -1.5608 O   0  0  0  0  0  0  0  0  0  0  0  0
   -6.9824    0.2658   -0.1778 C   0  0  0  0  0  0  0  0  0  0  0  0
   -3.7604    4.3359    2.1932 C   0  0  1  0  0  0  0  0  0  0  0  0
   -4.0059    3.1975    3.2224 C   0  0  1  0  0  0  0  0  0  0  0  0
   -3.0058    2.0110    3.1077 C   0  0  2  0  0  0  0  0  0  0  0  0
   -2.9310    1.4754    1.6416 C   0  0  1  0  0  0  0  0  0  0  0  0
   -4.0580    0.6048    1.3398 O   0  0  0  0  0  0  0  0  0  0  0  0
   -2.6418    3.9383    1.1828 C   0  0  1  0  0  0  0  0  0  0  0  0
   -2.9018    2.5914    0.6682 O   0  0  0  0  0  0  0  0  0  0  0  0
   -2.5381    4.9282   -0.0060 C   0  0  0  0  0  0  0  0  0  0  0  0
   -7.9113    6.6716   -2.8372 N   0  3  0  0  0  0  0  0  0  0  0  0
   -2.8531   -1.3825   -0.1699 O   0  0  0  0  0  0  0  0  0  0  0  0
   -3.9084    3.7492    4.5348 O   0  0  0  0  0  0  0  0  0  0  0  0
   -4.9839    4.5890    1.4990 O   0  0  0  0  0  0  0  0  0  0  0  0
   -7.1392    1.1532   -1.2716 O   0  0  0  0  0  0  0  0  0  0  0  0
   -2.4242   -1.2675   -4.4930 O   0  0  0  0  0  0  0  0  0  0  0  0
   -2.1702    6.2927    0.4143 N   0  3  0  0  0  0  0  0  0  0  0  0
   -3.3165    0.9434    4.0905 N   0  3  0  0  0  0  0  0  0  0  0  0
  1  2  1  6  0  0  0
  1  3  1  0  0  0  0
  1 10  1  0  0  0  0
  3  4  1  6  0  0  0
  3  5  1  0  0  0  0
  5  6  1  1  0  0  0
  5  7  1  0  0  0  0
  7  8  1  6  0  0  0
  7  9  1  0  0  0  0
  9 10  1  0  0  0  0
  9 11  1  1  0  0  0
 11 35  1  0  0  0  0
 12 13  1  1  0  0  0
 12 14  1  0  0  0  0
 12 20  1  0  0  0  0
 14 15  1  0  0  0  0
 14 40  1  6  0  0  0
 15 16  1  1  0  0  0
 15 17  1  0  0  0  0
 17  2  1  6  0  0  0
 17 18  1  0  0  0  0
 18 19  1  1  0  0  0
 18 20  1  0  0  0  0
 21 16  1  6  0  0  0
 21 22  1  0  0  0  0
 21 25  1  0  0  0  0
 22 23  1  0  0  0  0
 22 36  1  1  0  0  0
 23 24  1  0  0  0  0
 23 31  1  1  0  0  0
 24 25  1  0  0  0  0
 24 26  1  6  0  0  0
 26 39  1  0  0  0  0
 27 28  1  0  0  0  0
 27 32  1  0  0  0  0
 27 38  1  6  0  0  0
 28 29  1  0  0  0  0
 28 37  1  1  0  0  0
 29 30  1  0  0  0  0
 29 42  1  1  0  0  0
 30 31  1  6  0  0  0
 30 33  1  0  0  0  0
 32 33  1  0  0  0  0
 32 34  1  6  0  0  0
 34 41  1  0  0  0  0
M  CHG  6   4   1  13   1  19   1  35   1  41   1  42   1
M  END
>  <CHROM.1>
131.59522769,139.00852294,-145.74398221,49.10259461,-175.54047246,-64.59453267
155.87379090,-129.43314797,-66.77106293,-80.55882309,147.09616399,131.04116874
64.38562460,66.99681010,66.63613409,57.34949551,66.12376374,175.64786373
54.32879887,155.66477076,62.70389652,23.13145257,-5.03223640,2.20660286,-2.38162092
2.21852084,0.92360693,-2.02976186

>  <Name>


>  <RI>
0

>  <Rbt.Current_Directory>
/home/itssahil/PROJECTS/Mol_Feturizer/New_Systems/rnas/1ei2

>  <Rbt.Executable>
rbdock ($Id: //depot/dev/client3/rdock/2013.1/src/exe/rbdock.cxx#4 $)

>  <Rbt.Library>
libRbt.so (2013.1, Build901 2013/11/27)

>  <Rbt.Parameter_File>
/export/apps/rDock/src/rDock_2013.1_src/data/scripts/dock_solv.prm

>  <Rbt.Receptor>
prm/pocket_docking_5.prm

>  <SCORE>
-49.7677

>  <SCORE.INTER>
-36.5672

>  <SCORE.INTER.CONST>
1

>  <SCORE.INTER.POLAR>
-6.871

>  <SCORE.INTER.ROT>
9

>  <SCORE.INTER.SOLV>
28.1655

>  <SCORE.INTER.VDW>
-20.4633

>  <SCORE.INTER.norm>
-0.870647

>  <SCORE.INTRA>
-13.2005

>  <SCORE.INTRA.DIHEDRAL>
-5.24221

>  <SCORE.INTRA.DIHEDRAL.0>
40.8761

>  <SCORE.INTRA.POLAR>
-1.50048

>  <SCORE.INTRA.POLAR.0>
-0.0268208

>  <SCORE.INTRA.REPUL>
-0.641615

>  <SCORE.INTRA.REPUL.0>
0.641615

>  <SCORE.INTRA.SOLV>
-7.03105

>  <SCORE.INTRA.SOLV.lig_0>
-162.567

>  <SCORE.INTRA.VDW>
1.24583

>  <SCORE.INTRA.VDW.0>
-4.80338

>  <SCORE.INTRA.norm>
-0.314298

>  <SCORE.RESTR>
0

>  <SCORE.RESTR.CAVITY>
0

>  <SCORE.RESTR.norm>
0

>  <SCORE.SYSTEM>
0

>  <SCORE.SYSTEM.CONST>
0

>  <SCORE.SYSTEM.DIHEDRAL>
0

>  <SCORE.SYSTEM.SOLV>
0

>  <SCORE.SYSTEM.norm>
0

>  <SCORE.heavy>
42

>  <SCORE.norm>
-1.18494

>  <RMSD>
7.221

$$$$

 OpenBabel11021811393D
libRbt.so/2013.1/901 2013/11/27
 42 45  0  0  0  0  0  0  0  0999 V2000
   -2.6843    2.4094   -1.3142 C   0  0  2  0  0  0  0  0  0  0  0  0
   -2.9130    1.2513   -2.1745 O   0  0  0  0  0  0  0  0  0  0  0  0
   -1.3303    2.2941   -0.5413 C   0  0  2  0  0  0  0  0  0  0  0  0
   -0.4589    1.2450   -1.1184 N   0  3  0  0  0  0  0  0  0  0  0  0
   -1.5823    2.0237    0.9727 C   0  0  1  0  0  0  0  0  0  0  0  0
   -0.3411    1.9307    1.6685 O   0  0  0  0  0  0  0  0  0  0  0  0
   -2.4296    3.1484    1.6259 C   0  0  2  0  0  0  0  0  0  0  0  0
   -2.8646    2.7072    2.9072 O   0  0  0  0  0  0  0  0  0  0  0  0
   -3.6629    3.5172    0.7391 C   0  0  2  0  0  0  0  0  0  0  0  0
   -3.7937    2.5625   -0.3640 O   0  0  0  0  0  0  0  0  0  0  0  0
   -3.5941    4.9218    0.0968 C   0  0  0  0  0  0  0  0  0  0  0  0
   -3.3286    3.0730   -6.0640 C   0  0  1  0  0  0  0  0  0  0  0  0
   -3.7531    3.3701   -7.4503 N   0  3  0  0  0  0  0  0  0  0  0  0
   -4.4740    3.3314   -5.0503 C   0  0  1  0  0  0  0  0  0  0  0  0
   -4.1317    2.8918   -3.5841 C   0  0  1  0  0  0  0  0  0  0  0  0
   -5.3645    2.8774   -2.8153 O   0  0  0  0  0  0  0  0  0  0  0  0
   -3.5008    1.4536   -3.4962 C   0  0  1  0  0  0  0  0  0  0  0  0
   -2.3742    1.2421   -4.5588 C   0  0  1  0  0  0  0  0  0  0  0  0
   -1.8842   -0.1513   -4.5776 N   0  3  0  0  0  0  0  0  0  0  0  0
   -2.8510    1.6082   -5.9823 C   0  0  0  0  0  0  0  0  0  0  0  0
   -6.6237    2.5736   -3.4822 C   0  0  1  0  0  0  0  0  0  0  0  0
   -7.7304    2.5341   -2.4351 C   0  0  1  0  0  0  0  0  0  0  0  0
   -7.9972    4.0244   -2.2734 C   0  0  1  0  0  0  0  0  0  0  0  0
   -7.9230    4.5123   -3.7272 C   0  0  2  0  0  0  0  0  0  0  0  0
   -6.9726    3.6385   -4.3819 O   0  0  0  0  0  0  0  0  0  0  0  0
   -7.4665    5.9773   -3.8481 C   0  0  0  0  0  0  0  0  0  0  0  0
   -7.9769    5.7031    1.6210 C   0  0  1  0  0  0  0  0  0  0  0  0
   -9.2731    6.1672    0.9000 C   0  0  1  0  0  0  0  0  0  0  0  0
  -10.2330    5.0065    0.5093 C   0  0  2  0  0  0  0  0  0  0  0  0
   -9.4790    3.8950   -0.2894 C   0  0  1  0  0  0  0  0  0  0  0  0
   -9.3061    4.2731   -1.6846 O   0  0  0  0  0  0  0  0  0  0  0  0
   -7.8841    4.1472    1.6478 C   0  0  1  0  0  0  0  0  0  0  0  0
   -8.1530    3.6165    0.3089 O   0  0  0  0  0  0  0  0  0  0  0  0
   -6.4981    3.6445    2.1277 C   0  0  0  0  0  0  0  0  0  0  0  0
   -4.6902    5.2166   -0.8428 N   0  3  0  0  0  0  0  0  0  0  0  0
   -8.8692    1.8525   -2.9614 O   0  0  0  0  0  0  0  0  0  0  0  0
   -9.9713    7.0636    1.7634 O   0  0  0  0  0  0  0  0  0  0  0  0
   -6.8535    6.2516    0.9281 O   0  0  0  0  0  0  0  0  0  0  0  0
   -7.2088    6.3165   -5.1999 O   0  0  0  0  0  0  0  0  0  0  0  0
   -4.7785    4.7259   -5.0478 O   0  0  0  0  0  0  0  0  0  0  0  0
   -6.1946    2.2759    1.6706 N   0  3  0  0  0  0  0  0  0  0  0  0
  -11.4306    5.5116   -0.2069 N   0  3  0  0  0  0  0  0  0  0  0  0
  1  2  1  1  0  0  0
  1  3  1  0  0  0  0
  1 10  1  0  0  0  0
  3  4  1  6  0  0  0
  3  5  1  0  0  0  0
  5  6  1  1  0  0  0
  5  7  1  0  0  0  0
  7  8  1  1  0  0  0
  7  9  1  0  0  0  0
  9 10  1  0  0  0  0
  9 11  1  6  0  0  0
 11 35  1  0  0  0  0
 12 13  1  6  0  0  0
 12 14  1  0  0  0  0
 12 20  1  0  0  0  0
 14 15  1  0  0  0  0
 14 40  1  1  0  0  0
 15 16  1  1  0  0  0
 15 17  1  0  0  0  0
 17  2  1  1  0  0  0
 17 18  1  0  0  0  0
 18 19  1  6  0  0  0
 18 20  1  0  0  0  0
 21 16  1  1  0  0  0
 21 22  1  0  0  0  0
 21 25  1  0  0  0  0
 22 23  1  0  0  0  0
 22 36  1  6  0  0  0
 23 24  1  0  0  0  0
 23 31  1  6  0  0  0
 24 25  1  0  0  0  0
 24 26  1  1  0  0  0
 26 39  1  0  0  0  0
 27 28  1  0  0  0  0
 27 32  1  0  0  0  0
 27 38  1  6  0  0  0
 28 29  1  0  0  0  0
 28 37  1  1  0  0  0
 29 30  1  0  0  0  0
 29 42  1  6  0  0  0
 30 31  1  6  0  0  0
 30 33  1  0  0  0  0
 32 33  1  0  0  0  0
 32 34  1  6  0  0  0
 34 41  1  0  0  0  0
M  CHG  6   4   1  13   1  19   1  35   1  41   1  42   1
M  END
>  <CHROM.1>
-140.51952148,-15.10980235,47.48578235,-161.61819557,67.45016119,174.26880100
73.14695054,56.35406445,-162.42720380,30.50039155,176.23090277,79.66387588
-50.49959399,69.06079420,170.68760057,-78.69337706,169.66262745,172.93020400
174.73954455,135.98122341,-157.17747123,-152.39621380,-5.49612379,3.49704433
-1.57169364,-0.41938266,-0.41757298,1.48982055

>  <Name>


>  <RI>
0

>  <Rbt.Current_Directory>
/home/itssahil/PROJECTS/Mol_Feturizer/New_Systems/rnas/1ei2

>  <Rbt.Executable>
rbdock ($Id: //depot/dev/client3/rdock/2013.1/src/exe/rbdock.cxx#4 $)

>  <Rbt.Library>
libRbt.so (2013.1, Build901 2013/11/27)

>  <Rbt.Parameter_File>
/export/apps/rDock/src/rDock_2013.1_src/data/scripts/dock_solv.prm

>  <Rbt.Receptor>
prm/pocket_docking_2.prm

>  <SCORE>
-31.2293

>  <SCORE.INTER>
-17.366

>  <SCORE.INTER.CONST>
1

>  <SCORE.INTER.POLAR>
-4.08679

>  <SCORE.INTER.ROT>
9

>  <SCORE.INTER.SOLV>
23.8283

>  <SCORE.INTER.VDW>
-15.4975

>  <SCORE.INTER.norm>
-0.413476

>  <SCORE.INTRA>
-16.4667

>  <SCORE.INTRA.DIHEDRAL>
-7.0996

>  <SCORE.INTRA.DIHEDRAL.0>
40.8761

>  <SCORE.INTRA.POLAR>
-4.02211

>  <SCORE.INTRA.POLAR.0>
-0.0268208

>  <SCORE.INTRA.REPUL>
-0.537685

>  <SCORE.INTRA.REPUL.0>
0.641615

>  <SCORE.INTRA.SOLV>
2.73809

>  <SCORE.INTRA.SOLV.lig_0>
-162.567

>  <SCORE.INTRA.VDW>
2.07762

>  <SCORE.INTRA.VDW.0>
-4.80338

>  <SCORE.INTRA.norm>
-0.392065

>  <SCORE.RESTR>
2.60345

>  <SCORE.RESTR.CAVITY>
2.60345

>  <SCORE.RESTR.norm>
0.0619869

>  <SCORE.SYSTEM>
0

>  <SCORE.SYSTEM.CONST>
0

>  <SCORE.SYSTEM.DIHEDRAL>
0

>  <SCORE.SYSTEM.SOLV>
0

>  <SCORE.SYSTEM.norm>
0

>  <SCORE.heavy>
42

>  <SCORE.norm>
-0.743555

>  <RMSD>
7.232

$$$$

 OpenBabel11021811393D
libRbt.so/2013.1/901 2013/11/27
 42 45  0  0  0  0  0  0  0  0999 V2000
   -3.1496    2.7895   -2.5089 C   0  0  2  0  0  0  0  0  0  0  0  0
   -3.4775    3.8461   -1.5551 O   0  0  0  0  0  0  0  0  0  0  0  0
   -3.0609    3.3396   -3.9695 C   0  0  2  0  0  0  0  0  0  0  0  0
   -2.9770    4.8179   -3.9929 N   0  3  0  0  0  0  0  0  0  0  0  0
   -4.2723    2.8472   -4.8173 C   0  0  1  0  0  0  0  0  0  0  0  0
   -4.1752    3.3466   -6.1495 O   0  0  0  0  0  0  0  0  0  0  0  0
   -4.3426    1.2977   -4.8765 C   0  0  2  0  0  0  0  0  0  0  0  0
   -5.6078    0.9175   -5.4061 O   0  0  0  0  0  0  0  0  0  0  0  0
   -4.1429    0.6662   -3.4606 C   0  0  2  0  0  0  0  0  0  0  0  0
   -4.1469    1.7137   -2.4368 O   0  0  0  0  0  0  0  0  0  0  0  0
   -2.8183   -0.1117   -3.2862 C   0  0  0  0  0  0  0  0  0  0  0  0
   -3.7993    1.2124    1.8479 C   0  0  1  0  0  0  0  0  0  0  0  0
   -3.8867    0.6876    3.2290 N   0  3  0  0  0  0  0  0  0  0  0  0
   -5.0768    2.0005    1.4565 C   0  0  1  0  0  0  0  0  0  0  0  0
   -4.9806    2.7071    0.0596 C   0  0  1  0  0  0  0  0  0  0  0  0
   -6.0751    3.6569   -0.0448 O   0  0  0  0  0  0  0  0  0  0  0  0
   -3.6398    3.5039   -0.1444 C   0  0  1  0  0  0  0  0  0  0  0  0
   -2.3913    2.6716    0.2932 C   0  0  1  0  0  0  0  0  0  0  0  0
   -1.1484    3.4684    0.2431 N   0  3  0  0  0  0  0  0  0  0  0  0
   -2.5490    2.1079    1.7233 C   0  0  0  0  0  0  0  0  0  0  0  0
   -5.8529    4.9403   -0.6977 C   0  0  1  0  0  0  0  0  0  0  0  0
   -7.2044    5.6015   -0.9411 C   0  0  1  0  0  0  0  0  0  0  0  0
   -7.4722    6.1769    0.4430 C   0  0  1  0  0  0  0  0  0  0  0  0
   -6.0839    6.7029    0.8342 C   0  0  2  0  0  0  0  0  0  0  0  0
   -5.1375    5.8222    0.1829 O   0  0  0  0  0  0  0  0  0  0  0  0
   -5.8470    6.7038    2.3552 C   0  0  0  0  0  0  0  0  0  0  0  0
  -10.5281    4.0481    0.9032 C   0  0  1  0  0  0  0  0  0  0  0  0
  -10.4228    5.2184    1.9204 C   0  0  1  0  0  0  0  0  0  0  0  0
  -10.6976    6.6211    1.3055 C   0  0  2  0  0  0  0  0  0  0  0  0
   -9.8201    6.8623    0.0352 C   0  0  1  0  0  0  0  0  0  0  0  0
   -8.4626    7.2442    0.3964 O   0  0  0  0  0  0  0  0  0  0  0  0
  -10.7442    4.5882   -0.5431 C   0  0  1  0  0  0  0  0  0  0  0  0
   -9.7764    5.6530   -0.8188 O   0  0  0  0  0  0  0  0  0  0  0  0
  -10.6031    3.4789   -1.6171 C   0  0  0  0  0  0  0  0  0  0  0  0
   -2.8583   -1.1585   -2.2499 N   0  3  0  0  0  0  0  0  0  0  0  0
   -7.0685    6.6326   -1.9193 O   0  0  0  0  0  0  0  0  0  0  0  0
  -11.3637    4.9890    2.9685 O   0  0  0  0  0  0  0  0  0  0  0  0
   -9.3225    3.2831    0.9683 O   0  0  0  0  0  0  0  0  0  0  0  0
   -5.9698    5.3956    2.8865 O   0  0  0  0  0  0  0  0  0  0  0  0
   -6.1833    1.0990    1.4351 O   0  0  0  0  0  0  0  0  0  0  0  0
  -10.2332    4.0078   -2.9427 N   0  3  0  0  0  0  0  0  0  0  0  0
  -10.5449    7.6957    2.3175 N   0  3  0  0  0  0  0  0  0  0  0  0
  1  2  1  1  0  0  0
  1  3  1  0  0  0  0
  1 10  1  0  0  0  0
  3  4  1  1  0  0  0
  3  5  1  0  0  0  0
  5  6  1  6  0  0  0
  5  7  1  0  0  0  0
  7  8  1  1  0  0  0
  7  9  1  0  0  0  0
  9 10  1  0  0  0  0
  9 11  1  6  0  0  0
 11 35  1  0  0  0  0
 12 13  1  1  0  0  0
 12 14  1  0  0  0  0
 12 20  1  0  0  0  0
 14 15  1  0  0  0  0
 14 40  1  6  0  0  0
 15 16  1  1  0  0  0
 15 17  1  0  0  0  0
 17  2  1  6  0  0  0
 17 18  1  0  0  0  0
 18 19  1  1  0  0  0
 18 20  1  0  0  0  0
 21 16  1  1  0  0  0
 21 22  1  0  0  0  0
 21 25  1  0  0  0  0
 22 23  1  0  0  0  0
 22 36  1  6  0  0  0
 23 24  1  0  0  0  0
 23 31  1  6  0  0  0
 24 25  1  0  0  0  0
 24 26  1  1  0  0  0
 26 39  1  0  0  0  0
 27 28  1  0  0  0  0
 27 32  1  0  0  0  0
 27 38  1  6  0  0  0
 28 29  1  0  0  0  0
 28 37  1  1  0  0  0
 29 30  1  0  0  0  0
 29 42  1  1  0  0  0
 30 31  1  1  0  0  0
 30 33  1  0  0  0  0
 32 33  1  0  0  0  0
 32 34  1  6  0  0  0
 34 41  1  0  0  0  0
M  CHG  6   4   1  13   1  19   1  35   1  41   1  42   1
M  END
>  <CHROM.1>
178.22422931,-71.93313859,-15.83023968,-172.48280893,-58.94178072,-154.69972355
-76.03777000,177.58887781,166.65647833,142.01088341,167.79578053,62.81734218
168.91319523,66.90030637,59.33537224,65.64163763,-174.95936791,174.00617351
171.73133531,95.49268568,-155.55125919,-94.06423729,-6.14872683,3.78503257
-0.63349908,0.51541078,0.50378851,-1.70623961

>  <Name>


>  <RI>
0

>  <Rbt.Current_Directory>
/home/itssahil/PROJECTS/Mol_Feturizer/New_Systems/rnas/1ei2

>  <Rbt.Executable>
rbdock ($Id: //depot/dev/client3/rdock/2013.1/src/exe/rbdock.cxx#4 $)

>  <Rbt.Library>
libRbt.so (2013.1, Build901 2013/11/27)

>  <Rbt.Parameter_File>
/export/apps/rDock/src/rDock_2013.1_src/data/scripts/dock_solv.prm

>  <Rbt.Receptor>
prm/pocket_docking_2.prm

>  <SCORE>
-24.6688

>  <SCORE.INTER>
-12.2136

>  <SCORE.INTER.CONST>
1

>  <SCORE.INTER.POLAR>
-2.13925

>  <SCORE.INTER.ROT>
9

>  <SCORE.INTER.SOLV>
27.6397

>  <SCORE.INTER.VDW>
-19.8248

>  <SCORE.INTER.norm>
-0.2908

>  <SCORE.INTRA>
-14.5948

>  <SCORE.INTRA.DIHEDRAL>
-16.9152

>  <SCORE.INTRA.DIHEDRAL.0>
40.8761

>  <SCORE.INTRA.POLAR>
-0.663224

>  <SCORE.INTRA.POLAR.0>
-0.0268208

>  <SCORE.INTRA.REPUL>
-0.278529

>  <SCORE.INTRA.REPUL.0>
0.641615

>  <SCORE.INTRA.SOLV>
-10.8033

>  <SCORE.INTRA.SOLV.lig_0>
-162.567

>  <SCORE.INTRA.VDW>
2.91212

>  <SCORE.INTRA.VDW.0>
-4.80338

>  <SCORE.INTRA.norm>
-0.347495

>  <SCORE.RESTR>
2.13957

>  <SCORE.RESTR.CAVITY>
2.13957

>  <SCORE.RESTR.norm>
0.050942

>  <SCORE.SYSTEM>
0

>  <SCORE.SYSTEM.CONST>
0

>  <SCORE.SYSTEM.DIHEDRAL>
0

>  <SCORE.SYSTEM.SOLV>
0

>  <SCORE.SYSTEM.norm>
0

>  <SCORE.heavy>
42

>  <SCORE.norm>
-0.587353

>  <RMSD>
7.236

$$$$

 OpenBabel11021811393D
libRbt.so/2013.1/901 2013/11/27
 42 45  0  0  0  0  0  0  0  0999 V2000
   -3.6216    2.0719   -0.3577 C   0  0  2  0  0  0  0  0  0  0  0  0
   -3.4094    1.4292   -1.6521 O   0  0  0  0  0  0  0  0  0  0  0  0
   -2.2769    2.5688    0.2658 C   0  0  2  0  0  0  0  0  0  0  0  0
   -1.1858    2.5923   -0.7353 N   0  3  0  0  0  0  0  0  0  0  0  0
   -1.8785    1.6880    1.4882 C   0  0  1  0  0  0  0  0  0  0  0  0
   -0.6566    2.1569    2.0543 O   0  0  0  0  0  0  0  0  0  0  0  0
   -2.9705    1.7052    2.5913 C   0  0  2  0  0  0  0  0  0  0  0  0
   -2.6880    0.6733    3.5300 O   0  0  0  0  0  0  0  0  0  0  0  0
   -4.3954    1.5001    1.9822 C   0  0  2  0  0  0  0  0  0  0  0  0
   -4.2911    1.1458    0.5649 O   0  0  0  0  0  0  0  0  0  0  0  0
   -5.3099    2.7444    2.0565 C   0  0  0  0  0  0  0  0  0  0  0  0
   -2.9972    3.0900   -5.6134 C   0  0  1  0  0  0  0  0  0  0  0  0
   -3.2873    3.6997   -6.9303 N   0  3  0  0  0  0  0  0  0  0  0  0
   -3.2209    4.0995   -4.4570 C   0  0  1  0  0  0  0  0  0  0  0  0
   -3.0743    3.4677   -3.0290 C   0  0  1  0  0  0  0  0  0  0  0  0
   -3.6167    4.4049   -2.0603 O   0  0  0  0  0  0  0  0  0  0  0  0
   -3.8537    2.1113   -2.8649 C   0  0  1  0  0  0  0  0  0  0  0  0
   -3.6131    1.1476   -4.0717 C   0  0  1  0  0  0  0  0  0  0  0  0
   -4.4580   -0.0614   -3.9928 N   0  3  0  0  0  0  0  0  0  0  0  0
   -3.8852    1.8424   -5.4249 C   0  0  0  0  0  0  0  0  0  0  0  0
   -4.7175    5.2787   -2.4445 C   0  0  1  0  0  0  0  0  0  0  0  0
   -6.0073    4.4668   -2.4361 C   0  0  1  0  0  0  0  0  0  0  0  0
   -6.3172    4.4749   -0.9454 C   0  0  1  0  0  0  0  0  0  0  0  0
   -5.9652    5.9196   -0.5632 C   0  0  2  0  0  0  0  0  0  0  0  0
   -4.8953    6.3080   -1.4576 O   0  0  0  0  0  0  0  0  0  0  0  0
   -5.5102    6.0614    0.9004 C   0  0  0  0  0  0  0  0  0  0  0  0
  -10.3770    6.2116    1.1865 C   0  0  1  0  0  0  0  0  0  0  0  0
  -10.6309    4.8629    0.4572 C   0  0  1  0  0  0  0  0  0  0  0  0
   -9.6334    3.7334    0.8450 C   0  0  2  0  0  0  0  0  0  0  0  0
   -8.1533    4.2131    0.7004 C   0  0  1  0  0  0  0  0  0  0  0  0
   -7.7188    4.1726   -0.6884 O   0  0  0  0  0  0  0  0  0  0  0  0
   -9.0714    6.1454    2.0358 C   0  0  1  0  0  0  0  0  0  0  0  0
   -7.9861    5.5883    1.2245 O   0  0  0  0  0  0  0  0  0  0  0  0
   -8.6445    7.5349    2.5753 C   0  0  0  0  0  0  0  0  0  0  0  0
   -5.7286    3.1124    3.4206 N   0  3  0  0  0  0  0  0  0  0  0  0
   -7.0134    5.1507   -3.1836 O   0  0  0  0  0  0  0  0  0  0  0  0
  -11.9542    4.4269    0.7661 O   0  0  0  0  0  0  0  0  0  0  0  0
  -10.2734    7.2442    0.2037 O   0  0  0  0  0  0  0  0  0  0  0  0
   -4.0966    6.0245    0.9961 O   0  0  0  0  0  0  0  0  0  0  0  0
   -2.2745    5.1603   -4.5847 O   0  0  0  0  0  0  0  0  0  0  0  0
   -8.1081    8.4184    1.5238 N   0  3  0  0  0  0  0  0  0  0  0  0
   -9.9060    2.4863    0.0882 N   0  3  0  0  0  0  0  0  0  0  0  0
  1  2  1  6  0  0  0
  1  3  1  0  0  0  0
  1 10  1  0  0  0  0
  3  4  1  6  0  0  0
  3  5  1  0  0  0  0
  5  6  1  1  0  0  0
  5  7  1  0  0  0  0
  7  8  1  1  0  0  0
  7  9  1  0  0  0  0
  9 10  1  0  0  0  0
  9 11  1  6  0  0  0
 11 35  1  0  0  0  0
 12 13  1  6  0  0  0
 12 14  1  0  0  0  0
 12 20  1  0  0  0  0
 14 15  1  0  0  0  0
 14 40  1  6  0  0  0
 15 16  1  1  0  0  0
 15 17  1  0  0  0  0
 17  2  1  1  0  0  0
 17 18  1  0  0  0  0
 18 19  1  1  0  0  0
 18 20  1  0  0  0  0
 21 16  1  1  0  0  0
 21 22  1  0  0  0  0
 21 25  1  0  0  0  0
 22 23  1  0  0  0  0
 22 36  1  6  0  0  0
 23 24  1  0  0  0  0
 23 31  1  6  0  0  0
 24 25  1  0  0  0  0
 24 26  1  1  0  0  0
 26 39  1  0  0  0  0
 27 28  1  0  0  0  0
 27 32  1  0  0  0  0
 27 38  1  6  0  0  0
 28 29  1  0  0  0  0
 28 37  1  1  0  0  0
 29 30  1  0  0  0  0
 29 42  1  6  0  0  0
 30 31  1  6  0  0  0
 30 33  1  0  0  0  0
 32 33  1  0  0  0  0
 32 34  1  6  0  0  0
 34 41  1  0  0  0  0
M  CHG  6   4   1  13   1  19   1  35   1  41   1  42   1
M  END
>  <CHROM.1>
-109.05722817,62.50512950,124.59909310,74.28647666,-78.95572075,-68.31863644
173.53951534,45.61655219,-44.85658478,31.28237160,77.31780906,48.41573210
-59.28608487,-177.17334453,95.43532989,69.97663562,-58.11094990,-56.13042060
-156.59043291,-174.36658816,-72.36372315,-22.90654448,-5.46822446,3.84841563
-0.61226208,-0.40874376,-0.53184672,1.73087656

>  <Name>


>  <RI>
0

>  <Rbt.Current_Directory>
/home/itssahil/PROJECTS/Mol_Feturizer/New_Systems/rnas/1ei2

>  <Rbt.Executable>
rbdock ($Id: //depot/dev/client3/rdock/2013.1/src/exe/rbdock.cxx#4 $)

>  <Rbt.Library>
libRbt.so (2013.1, Build901 2013/11/27)

>  <Rbt.Parameter_File>
/export/apps/rDock/src/rDock_2013.1_src/data/scripts/dock_solv.prm

>  <Rbt.Receptor>
prm/pocket_docking_2.prm

>  <SCORE>
-27.3022

>  <SCORE.INTER>
-20.2389

>  <SCORE.INTER.CONST>
1

>  <SCORE.INTER.POLAR>
-3.50941

>  <SCORE.INTER.ROT>
9

>  <SCORE.INTER.SOLV>
27.5248

>  <SCORE.INTER.VDW>
-20.5695

>  <SCORE.INTER.norm>
-0.481878

>  <SCORE.INTRA>
-9.58759

>  <SCORE.INTRA.DIHEDRAL>
-12.0469

>  <SCORE.INTRA.DIHEDRAL.0>
40.8761

>  <SCORE.INTRA.POLAR>
-0.238988

>  <SCORE.INTRA.POLAR.0>
-0.0268208

>  <SCORE.INTRA.REPUL>
-0.641615

>  <SCORE.INTRA.REPUL.0>
0.641615

>  <SCORE.INTRA.SOLV>
-6.04362

>  <SCORE.INTRA.SOLV.lig_0>
-162.567

>  <SCORE.INTRA.VDW>
3.47831

>  <SCORE.INTRA.VDW.0>
-4.80338

>  <SCORE.INTRA.norm>
-0.228276

>  <SCORE.RESTR>
2.52426

>  <SCORE.RESTR.CAVITY>
2.52426

>  <SCORE.RESTR.norm>
0.0601014

>  <SCORE.SYSTEM>
0

>  <SCORE.SYSTEM.CONST>
0

>  <SCORE.SYSTEM.DIHEDRAL>
0

>  <SCORE.SYSTEM.SOLV>
0

>  <SCORE.SYSTEM.norm>
0

>  <SCORE.heavy>
42

>  <SCORE.norm>
-0.650053

>  <RMSD>
7.238

$$$$

 OpenBabel11021811393D
libRbt.so/2013.1/901 2013/11/27
 42 45  0  0  0  0  0  0  0  0999 V2000
   -7.1813    3.5011   -4.5316 C   0  0  2  0  0  0  0  0  0  0  0  0
   -6.2154    2.5594   -5.0920 O   0  0  0  0  0  0  0  0  0  0  0  0
   -8.4734    3.5898   -5.4070 C   0  0  2  0  0  0  0  0  0  0  0  0
   -8.5604    2.4672   -6.3689 N   0  3  0  0  0  0  0  0  0  0  0  0
   -8.5393    4.9561   -6.1539 C   0  0  1  0  0  0  0  0  0  0  0  0
   -9.7264    5.0294   -6.9405 O   0  0  0  0  0  0  0  0  0  0  0  0
   -8.5284    6.1538   -5.1665 C   0  0  2  0  0  0  0  0  0  0  0  0
   -8.2979    7.3503   -5.9021 O   0  0  0  0  0  0  0  0  0  0  0  0
   -7.4263    5.9769   -4.0722 C   0  0  2  0  0  0  0  0  0  0  0  0
   -6.5734    4.8313   -4.3969 O   0  0  0  0  0  0  0  0  0  0  0  0
   -7.9714    5.7273   -2.6472 C   0  0  0  0  0  0  0  0  0  0  0  0
   -2.2275    1.0087   -4.5338 C   0  0  1  0  0  0  0  0  0  0  0  0
   -0.8060    0.8629   -4.1481 N   0  3  0  0  0  0  0  0  0  0  0  0
   -3.1583    0.9938   -3.2930 C   0  0  1  0  0  0  0  0  0  0  0  0
   -4.6610    1.2948   -3.6263 C   0  0  1  0  0  0  0  0  0  0  0  0
   -5.3551    1.5731   -2.3806 O   0  0  0  0  0  0  0  0  0  0  0  0
   -4.8531    2.5419   -4.5654 C   0  0  1  0  0  0  0  0  0  0  0  0
   -3.8703    2.5171   -5.7805 C   0  0  1  0  0  0  0  0  0  0  0  0
   -3.9455    3.7570   -6.5799 N   0  3  0  0  0  0  0  0  0  0  0  0
   -2.4055    2.3178   -5.3308 C   0  0  0  0  0  0  0  0  0  0  0  0
   -5.4392    0.5384   -1.3583 C   0  0  1  0  0  0  0  0  0  0  0  0
   -5.0201    1.1407   -0.0225 C   0  0  1  0  0  0  0  0  0  0  0  0
   -6.3110    1.8478    0.3674 C   0  0  1  0  0  0  0  0  0  0  0  0
   -7.3684    0.8164   -0.0514 C   0  0  2  0  0  0  0  0  0  0  0  0
   -6.8047    0.1233   -1.1904 O   0  0  0  0  0  0  0  0  0  0  0  0
   -8.7153    1.4560   -0.4335 C   0  0  0  0  0  0  0  0  0  0  0  0
   -5.7955    4.9872    4.2909 C   0  0  1  0  0  0  0  0  0  0  0  0
   -6.0551    3.5034    4.6732 C   0  0  1  0  0  0  0  0  0  0  0  0
   -5.1351    2.4874    3.9366 C   0  0  2  0  0  0  0  0  0  0  0  0
   -5.1684    2.7133    2.3907 C   0  0  1  0  0  0  0  0  0  0  0  0
   -6.3596    2.1237    1.7969 O   0  0  0  0  0  0  0  0  0  0  0  0
   -4.7564    5.0880    3.1332 C   0  0  1  0  0  0  0  0  0  0  0  0
   -5.1227    4.1570    2.0628 O   0  0  0  0  0  0  0  0  0  0  0  0
   -4.6552    6.5214    2.5510 C   0  0  0  0  0  0  0  0  0  0  0  0
   -8.5430    6.9191   -1.9959 N   0  3  0  0  0  0  0  0  0  0  0  0
   -4.6963    0.0978    0.8973 O   0  0  0  0  0  0  0  0  0  0  0  0
   -5.8570    3.3600    6.0791 O   0  0  0  0  0  0  0  0  0  0  0  0
   -7.0359    5.5747    3.8920 O   0  0  0  0  0  0  0  0  0  0  0  0
   -9.7981    0.6495   -0.0027 O   0  0  0  0  0  0  0  0  0  0  0  0
   -3.0777   -0.2901   -2.6745 O   0  0  0  0  0  0  0  0  0  0  0  0
   -3.4621    6.7145    1.7064 N   0  3  0  0  0  0  0  0  0  0  0  0
   -5.4580    1.0897    4.3165 N   0  3  0  0  0  0  0  0  0  0  0  0
  1  2  1  6  0  0  0
  1  3  1  0  0  0  0
  1 10  1  0  0  0  0
  3  4  1  6  0  0  0
  3  5  1  0  0  0  0
  5  6  1  1  0  0  0
  5  7  1  0  0  0  0
  7  8  1  6  0  0  0
  7  9  1  0  0  0  0
  9 10  1  0  0  0  0
  9 11  1  1  0  0  0
 11 35  1  0  0  0  0
 12 13  1  1  0  0  0
 12 14  1  0  0  0  0
 12 20  1  0  0  0  0
 14 15  1  0  0  0  0
 14 40  1  6  0  0  0
 15 16  1  1  0  0  0
 15 17  1  0  0  0  0
 17  2  1  6  0  0  0
 17 18  1  0  0  0  0
 18 19  1  1  0  0  0
 18 20  1  0  0  0  0
 21 16  1  6  0  0  0
 21 22  1  0  0  0  0
 21 25  1  0  0  0  0
 22 23  1  0  0  0  0
 22 36  1  1  0  0  0
 23 24  1  0  0  0  0
 23 31  1  1  0  0  0
 24 25  1  0  0  0  0
 24 26  1  6  0  0  0
 26 39  1  0  0  0  0
 27 28  1  0  0  0  0
 27 32  1  0  0  0  0
 27 38  1  6  0  0  0
 28 29  1  0  0  0  0
 28 37  1  1  0  0  0
 29 30  1  0  0  0  0
 29 42  1  6  0  0  0
 30 31  1  1  0  0  0
 30 33  1  0  0  0  0
 32 33  1  0  0  0  0
 32 34  1  6  0  0  0
 34 41  1  0  0  0  0
M  CHG  6   4   1  13   1  19   1  35   1  41   1  42   1
M  END
>  <CHROM.1>
167.90568873,103.94737184,62.01934602,43.36750349,70.32497711,-74.08406362
52.82328283,22.91293384,71.86491312,-62.30639608,130.78883232,55.36609613
166.40563618,47.00510841,-142.93517549,63.27514645,-25.80981243,-174.18536064
166.02775982,-159.49889179,165.58994372,-73.29996521,-5.95478804,3.11832876
-1.47835494,1.71522505,0.81717784,-1.62198258

>  <Name>


>  <RI>
0

>  <Rbt.Current_Directory>
/home/itssahil/PROJECTS/Mol_Feturizer/New_Systems/rnas/1ei2

>  <Rbt.Executable>
rbdock ($Id: //depot/dev/client3/rdock/2013.1/src/exe/rbdock.cxx#4 $)

>  <Rbt.Library>
libRbt.so (2013.1, Build901 2013/11/27)

>  <Rbt.Parameter_File>
/export/apps/rDock/src/rDock_2013.1_src/data/scripts/dock_solv.prm

>  <Rbt.Receptor>
prm/pocket_docking_5.prm

>  <SCORE>
-56.3712

>  <SCORE.INTER>
-44.7414

>  <SCORE.INTER.CONST>
1

>  <SCORE.INTER.POLAR>
-7.84669

>  <SCORE.INTER.ROT>
9

>  <SCORE.INTER.SOLV>
30.5654

>  <SCORE.INTER.VDW>
-23.4604

>  <SCORE.INTER.norm>
-1.06527

>  <SCORE.INTRA>
-11.6298

>  <SCORE.INTRA.DIHEDRAL>
-8.07742

>  <SCORE.INTRA.DIHEDRAL.0>
40.8761

>  <SCORE.INTRA.POLAR>
0.0268208

>  <SCORE.INTRA.POLAR.0>
-0.0268208

>  <SCORE.INTRA.REPUL>
-0.614789

>  <SCORE.INTRA.REPUL.0>
0.641615

>  <SCORE.INTRA.SOLV>
-13.262

>  <SCORE.INTRA.SOLV.lig_0>
-162.567

>  <SCORE.INTRA.VDW>
2.02266

>  <SCORE.INTRA.VDW.0>
-4.80338

>  <SCORE.INTRA.norm>
-0.2769

>  <SCORE.RESTR>
0

>  <SCORE.RESTR.CAVITY>
0

>  <SCORE.RESTR.norm>
0

>  <SCORE.SYSTEM>
0

>  <SCORE.SYSTEM.CONST>
0

>  <SCORE.SYSTEM.DIHEDRAL>
0

>  <SCORE.SYSTEM.SOLV>
0

>  <SCORE.SYSTEM.norm>
0

>  <SCORE.heavy>
42

>  <SCORE.norm>
-1.34217

>  <RMSD>
7.268

$$$$

 OpenBabel11021811393D
libRbt.so/2013.1/901 2013/11/27
 42 45  0  0  0  0  0  0  0  0999 V2000
   -3.5323    1.8690   -0.5321 C   0  0  2  0  0  0  0  0  0  0  0  0
   -3.0545    1.2199   -1.7504 O   0  0  0  0  0  0  0  0  0  0  0  0
   -2.5018    1.7318    0.6354 C   0  0  2  0  0  0  0  0  0  0  0  0
   -1.1722    1.3036    0.1438 N   0  3  0  0  0  0  0  0  0  0  0  0
   -3.0277    0.7441    1.7203 C   0  0  1  0  0  0  0  0  0  0  0  0
   -2.0845    0.6351    2.7842 O   0  0  0  0  0  0  0  0  0  0  0  0
   -4.3858    1.2076    2.3120 C   0  0  2  0  0  0  0  0  0  0  0  0
   -4.9444    0.1380    3.0667 O   0  0  0  0  0  0  0  0  0  0  0  0
   -5.3771    1.6426    1.1844 C   0  0  2  0  0  0  0  0  0  0  0  0
   -4.8261    1.3024   -0.1294 O   0  0  0  0  0  0  0  0  0  0  0  0
   -5.6861    3.1571    1.1510 C   0  0  0  0  0  0  0  0  0  0  0  0
   -2.5931    3.2668   -5.5209 C   0  0  1  0  0  0  0  0  0  0  0  0
   -2.8322    3.8033   -6.8794 N   0  3  0  0  0  0  0  0  0  0  0  0
   -3.5136    3.9434   -4.4716 C   0  0  1  0  0  0  0  0  0  0  0  0
   -3.4119    3.3110   -3.0399 C   0  0  1  0  0  0  0  0  0  0  0  0
   -4.5296    3.7967   -2.2488 O   0  0  0  0  0  0  0  0  0  0  0  0
   -3.4825    1.7397   -3.0465 C   0  0  1  0  0  0  0  0  0  0  0  0
   -2.5577    1.1163   -4.1415 C   0  0  1  0  0  0  0  0  0  0  0  0
   -2.7342   -0.3463   -4.2493 N   0  3  0  0  0  0  0  0  0  0  0  0
   -2.8130    1.7397   -5.5322 C   0  0  0  0  0  0  0  0  0  0  0  0
   -5.8854    3.3919   -2.5963 C   0  0  1  0  0  0  0  0  0  0  0  0
   -6.8298    3.8653   -1.4977 C   0  0  1  0  0  0  0  0  0  0  0  0
   -6.9966    5.3242   -1.9006 C   0  0  1  0  0  0  0  0  0  0  0  0
   -7.1092    5.2134   -3.4278 C   0  0  2  0  0  0  0  0  0  0  0  0
   -6.3075    4.0649   -3.7937 O   0  0  0  0  0  0  0  0  0  0  0  0
   -6.6031    6.4683   -4.1614 C   0  0  0  0  0  0  0  0  0  0  0  0
  -10.0731    7.9597    1.3353 C   0  0  1  0  0  0  0  0  0  0  0  0
  -10.6773    6.7870    0.5136 C   0  0  1  0  0  0  0  0  0  0  0  0
   -9.8181    5.4898    0.5318 C   0  0  2  0  0  0  0  0  0  0  0  0
   -8.3369    5.7881    0.1334 C   0  0  1  0  0  0  0  0  0  0  0  0
   -8.1929    5.9091   -1.3102 O   0  0  0  0  0  0  0  0  0  0  0  0
   -8.6552    7.5908    1.8680 C   0  0  1  0  0  0  0  0  0  0  0  0
   -7.8522    7.0303    0.7782 O   0  0  0  0  0  0  0  0  0  0  0  0
   -7.9140    8.8106    2.4737 C   0  0  0  0  0  0  0  0  0  0  0  0
   -6.1765    3.7072    2.4270 N   0  3  0  0  0  0  0  0  0  0  0  0
   -8.0650    3.1542   -1.5831 O   0  0  0  0  0  0  0  0  0  0  0  0
  -11.9677    6.4853    1.0429 O   0  0  0  0  0  0  0  0  0  0  0  0
   -9.9980    9.1110    0.4915 O   0  0  0  0  0  0  0  0  0  0  0  0
   -6.8676    6.3824   -5.5512 O   0  0  0  0  0  0  0  0  0  0  0  0
   -3.1702    5.3261   -4.3838 O   0  0  0  0  0  0  0  0  0  0  0  0
   -6.5800    8.4676    2.9999 N   0  3  0  0  0  0  0  0  0  0  0  0
  -10.4294    4.4233   -0.2996 N   0  3  0  0  0  0  0  0  0  0  0  0
  1  2  1  6  0  0  0
  1  3  1  0  0  0  0
  1 10  1  0  0  0  0
  3  4  1  6  0  0  0
  3  5  1  0  0  0  0
  5  6  1  1  0  0  0
  5  7  1  0  0  0  0
  7  8  1  6  0  0  0
  7  9  1  0  0  0  0
  9 10  1  0  0  0  0
  9 11  1  6  0  0  0
 11 35  1  0  0  0  0
 12 13  1  6  0  0  0
 12 14  1  0  0  0  0
 12 20  1  0  0  0  0
 14 15  1  0  0  0  0
 14 40  1  1  0  0  0
 15 16  1  1  0  0  0
 15 17  1  0  0  0  0
 17  2  1  1  0  0  0
 17 18  1  0  0  0  0
 18 19  1  6  0  0  0
 18 20  1  0  0  0  0
 21 16  1  1  0  0  0
 21 22  1  0  0  0  0
 21 25  1  0  0  0  0
 22 23  1  0  0  0  0
 22 36  1  6  0  0  0
 23 24  1  0  0  0  0
 23 31  1  1  0  0  0
 24 25  1  0  0  0  0
 24 26  1  6  0  0  0
 26 39  1  0  0  0  0
 27 28  1  0  0  0  0
 27 32  1  0  0  0  0
 27 38  1  6  0  0  0
 28 29  1  0  0  0  0
 28 37  1  1  0  0  0
 29 30  1  0  0  0  0
 29 42  1  6  0  0  0
 30 31  1  6  0  0  0
 30 33  1  0  0  0  0
 32 33  1  0  0  0  0
 32 34  1  6  0  0  0
 34 41  1  0  0  0  0
M  CHG  6   4   1  13   1  19   1  35   1  41   1  42   1
M  END
>  <CHROM.1>
-150.63954515,43.40787948,64.30702686,63.69492305,168.54622186,-54.47484311
-67.08760535,67.08765157,-179.19803461,67.21764497,171.66319944,-177.46111006
69.63482177,53.30067321,-173.29360788,-155.12048465,-58.09631906,179.39965922
-79.51229370,-140.48426566,179.09012023,-176.40344958,-5.80814674,4.00653219
-1.04835421,-0.21727409,-0.75508392,1.84382509

>  <Name>


>  <RI>
0

>  <Rbt.Current_Directory>
/home/itssahil/PROJECTS/Mol_Feturizer/New_Systems/rnas/1ei2

>  <Rbt.Executable>
rbdock ($Id: //depot/dev/client3/rdock/2013.1/src/exe/rbdock.cxx#4 $)

>  <Rbt.Library>
libRbt.so (2013.1, Build901 2013/11/27)

>  <Rbt.Parameter_File>
/export/apps/rDock/src/rDock_2013.1_src/data/scripts/dock_solv.prm

>  <Rbt.Receptor>
prm/pocket_docking_3.prm

>  <SCORE>
-51.9806

>  <SCORE.INTER>
-27.1999

>  <SCORE.INTER.CONST>
1

>  <SCORE.INTER.POLAR>
-5.24536

>  <SCORE.INTER.ROT>
9

>  <SCORE.INTER.SOLV>
26.6526

>  <SCORE.INTER.VDW>
-19.1329

>  <SCORE.INTER.norm>
-0.647618

>  <SCORE.INTRA>
-24.7807

>  <SCORE.INTRA.DIHEDRAL>
-23.8842

>  <SCORE.INTRA.DIHEDRAL.0>
40.8761

>  <SCORE.INTRA.POLAR>
-1.14194

>  <SCORE.INTRA.POLAR.0>
-0.0268208

>  <SCORE.INTRA.REPUL>
-0.641615

>  <SCORE.INTRA.REPUL.0>
0.641615

>  <SCORE.INTRA.SOLV>
-9.48591

>  <SCORE.INTRA.SOLV.lig_0>
-162.567

>  <SCORE.INTRA.VDW>
-1.00495

>  <SCORE.INTRA.VDW.0>
-4.80338

>  <SCORE.INTRA.norm>
-0.590016

>  <SCORE.RESTR>
0

>  <SCORE.RESTR.CAVITY>
0

>  <SCORE.RESTR.norm>
0

>  <SCORE.SYSTEM>
0

>  <SCORE.SYSTEM.CONST>
0

>  <SCORE.SYSTEM.DIHEDRAL>
0

>  <SCORE.SYSTEM.SOLV>
0

>  <SCORE.SYSTEM.norm>
0

>  <SCORE.heavy>
42

>  <SCORE.norm>
-1.23763

>  <RMSD>
7.275

$$$$

 OpenBabel11021811393D
libRbt.so/2013.1/901 2013/11/27
 42 45  0  0  0  0  0  0  0  0999 V2000
   -9.0509    3.4339   -5.2822 C   0  0  2  0  0  0  0  0  0  0  0  0
   -8.6605    3.4837   -3.8755 O   0  0  0  0  0  0  0  0  0  0  0  0
   -8.8985    1.9939   -5.8713 C   0  0  2  0  0  0  0  0  0  0  0  0
   -8.7437    0.9797   -4.8033 N   0  3  0  0  0  0  0  0  0  0  0  0
   -7.6990    1.9297   -6.8643 C   0  0  1  0  0  0  0  0  0  0  0  0
   -7.5764    0.6149   -7.4025 O   0  0  0  0  0  0  0  0  0  0  0  0
   -7.8698    2.9288   -8.0399 C   0  0  2  0  0  0  0  0  0  0  0  0
   -6.6329    3.0307   -8.7365 O   0  0  0  0  0  0  0  0  0  0  0  0
   -8.3136    4.3373   -7.5274 C   0  0  2  0  0  0  0  0  0  0  0  0
   -8.2500    4.3843   -6.0649 O   0  0  0  0  0  0  0  0  0  0  0  0
   -9.7558    4.7362   -7.9162 C   0  0  0  0  0  0  0  0  0  0  0  0
   -8.2189    7.7738   -3.7323 C   0  0  1  0  0  0  0  0  0  0  0  0
   -8.0943    9.1693   -3.2553 N   0  3  0  0  0  0  0  0  0  0  0  0
   -6.9659    6.9343   -3.3695 C   0  0  1  0  0  0  0  0  0  0  0  0
   -7.1034    5.4109   -3.7165 C   0  0  1  0  0  0  0  0  0  0  0  0
   -6.0314    4.6945   -3.0469 O   0  0  0  0  0  0  0  0  0  0  0  0
   -8.4644    4.7835   -3.2386 C   0  0  1  0  0  0  0  0  0  0  0  0
   -9.6865    5.6860   -3.6059 C   0  0  1  0  0  0  0  0  0  0  0  0
  -10.9466    5.1744   -3.0295 N   0  3  0  0  0  0  0  0  0  0  0  0
   -9.4899    7.1421   -3.1274 C   0  0  0  0  0  0  0  0  0  0  0  0
   -4.6507    5.1123   -3.2515 C   0  0  1  0  0  0  0  0  0  0  0  0
   -4.0901    5.6033   -1.9220 C   0  0  1  0  0  0  0  0  0  0  0  0
   -3.7525    4.2708   -1.2671 C   0  0  1  0  0  0  0  0  0  0  0  0
   -3.1625    3.4858   -2.4473 C   0  0  2  0  0  0  0  0  0  0  0  0
   -3.8452    3.9818   -3.6235 O   0  0  0  0  0  0  0  0  0  0  0  0
   -3.3637    1.9651   -2.3196 C   0  0  0  0  0  0  0  0  0  0  0  0
   -2.3190    2.5773    3.1392 C   0  0  1  0  0  0  0  0  0  0  0  0
   -1.4164    3.7319    2.6218 C   0  0  1  0  0  0  0  0  0  0  0  0
   -2.2008    4.9965    2.1674 C   0  0  2  0  0  0  0  0  0  0  0  0
   -3.3275    4.6267    1.1498 C   0  0  1  0  0  0  0  0  0  0  0  0
   -2.7874    4.4339   -0.1883 O   0  0  0  0  0  0  0  0  0  0  0  0
   -3.8266    2.9189    2.9371 C   0  0  1  0  0  0  0  0  0  0  0  0
   -4.0417    3.3990    1.5697 O   0  0  0  0  0  0  0  0  0  0  0  0
   -4.7505    1.7025    3.2028 C   0  0  0  0  0  0  0  0  0  0  0  0
  -10.1666    6.0709   -7.4460 N   0  3  0  0  0  0  0  0  0  0  0  0
   -2.9180    6.3856   -2.1514 O   0  0  0  0  0  0  0  0  0  0  0  0
   -0.5194    4.1043    3.6673 O   0  0  0  0  0  0  0  0  0  0  0  0
   -1.9836    1.3863    2.4238 O   0  0  0  0  0  0  0  0  0  0  0  0
   -4.7418    1.6418   -2.2484 O   0  0  0  0  0  0  0  0  0  0  0  0
   -5.8412    7.4615   -4.0727 O   0  0  0  0  0  0  0  0  0  0  0  0
   -5.6731    1.9190    4.3323 N   0  3  0  0  0  0  0  0  0  0  0  0
   -1.2862    6.0448    1.6508 N   0  3  0  0  0  0  0  0  0  0  0  0
  1  2  1  1  0  0  0
  1  3  1  0  0  0  0
  1 10  1  0  0  0  0
  3  4  1  1  0  0  0
  3  5  1  0  0  0  0
  5  6  1  6  0  0  0
  5  7  1  0  0  0  0
  7  8  1  1  0  0  0
  7  9  1  0  0  0  0
  9 10  1  0  0  0  0
  9 11  1  1  0  0  0
 11 35  1  0  0  0  0
 12 13  1  1  0  0  0
 12 14  1  0  0  0  0
 12 20  1  0  0  0  0
 14 15  1  0  0  0  0
 14 40  1  6  0  0  0
 15 16  1  1  0  0  0
 15 17  1  0  0  0  0
 17  2  1  6  0  0  0
 17 18  1  0  0  0  0
 18 19  1  1  0  0  0
 18 20  1  0  0  0  0
 21 16  1  1  0  0  0
 21 22  1  0  0  0  0
 21 25  1  0  0  0  0
 22 23  1  0  0  0  0
 22 36  1  6  0  0  0
 23 24  1  0  0  0  0
 23 31  1  1  0  0  0
 24 25  1  0  0  0  0
 24 26  1  1  0  0  0
 26 39  1  0  0  0  0
 27 28  1  0  0  0  0
 27 32  1  0  0  0  0
 27 38  1  6  0  0  0
 28 29  1  0  0  0  0
 28 37  1  1  0  0  0
 29 30  1  0  0  0  0
 29 42  1  6  0  0  0
 30 31  1  6  0  0  0
 30 33  1  0  0  0  0
 32 33  1  0  0  0  0
 32 34  1  6  0  0  0
 34 41  1  0  0  0  0
M  CHG  6   4   1  13   1  19   1  35   1  41   1  42   1
M  END
>  <CHROM.1>
167.07445975,-75.03486495,-128.80744721,-69.49733239,64.38821638,-179.30286178
-59.89275107,-38.10749066,134.86827758,-54.10673362,115.68989744,-72.02858978
84.24869985,92.20199777,59.59754112,63.89076393,54.67091099,171.60542440
66.79981145,-171.60857416,117.21393687,-85.62285488,-5.87210578,4.19453227
-2.48024311,-2.91095189,-0.92439216,0.37344696

>  <Name>


>  <RI>
0

>  <Rbt.Current_Directory>
/home/itssahil/PROJECTS/Mol_Feturizer/New_Systems/rnas/1ei2

>  <Rbt.Executable>
rbdock ($Id: //depot/dev/client3/rdock/2013.1/src/exe/rbdock.cxx#4 $)

>  <Rbt.Library>
libRbt.so (2013.1, Build901 2013/11/27)

>  <Rbt.Parameter_File>
/export/apps/rDock/src/rDock_2013.1_src/data/scripts/dock_solv.prm

>  <Rbt.Receptor>
prm/pocket_docking_6.prm

>  <SCORE>
-44.3955

>  <SCORE.INTER>
-32.4058

>  <SCORE.INTER.CONST>
1

>  <SCORE.INTER.POLAR>
-6.20459

>  <SCORE.INTER.ROT>
9

>  <SCORE.INTER.SOLV>
31.8463

>  <SCORE.INTER.VDW>
-21.1373

>  <SCORE.INTER.norm>
-0.771566

>  <SCORE.INTRA>
-12.0434

>  <SCORE.INTRA.DIHEDRAL>
-5.77165

>  <SCORE.INTRA.DIHEDRAL.0>
40.8761

>  <SCORE.INTRA.POLAR>
-0.369297

>  <SCORE.INTRA.POLAR.0>
-0.0268208

>  <SCORE.INTRA.REPUL>
-0.641615

>  <SCORE.INTRA.REPUL.0>
0.641615

>  <SCORE.INTRA.SOLV>
-12.737

>  <SCORE.INTRA.SOLV.lig_0>
-162.567

>  <SCORE.INTRA.VDW>
1.67464

>  <SCORE.INTRA.VDW.0>
-4.80338

>  <SCORE.INTRA.norm>
-0.286746

>  <SCORE.RESTR>
0.0536229

>  <SCORE.RESTR.CAVITY>
0.0536229

>  <SCORE.RESTR.norm>
0.00127674

>  <SCORE.SYSTEM>
0

>  <SCORE.SYSTEM.CONST>
0

>  <SCORE.SYSTEM.DIHEDRAL>
0

>  <SCORE.SYSTEM.SOLV>
0

>  <SCORE.SYSTEM.norm>
0

>  <SCORE.heavy>
42

>  <SCORE.norm>
-1.05704

>  <RMSD>
7.278

$$$$

 OpenBabel11021811393D
libRbt.so/2013.1/901 2013/11/27
 42 45  0  0  0  0  0  0  0  0999 V2000
   -3.2060    4.4213    2.6335 C   0  0  2  0  0  0  0  0  0  0  0  0
   -3.6038    5.6563    1.9624 O   0  0  0  0  0  0  0  0  0  0  0  0
   -2.0642    3.6869    1.8584 C   0  0  2  0  0  0  0  0  0  0  0  0
   -1.4282    4.5709    0.8548 N   0  3  0  0  0  0  0  0  0  0  0  0
   -2.6038    2.3909    1.1817 C   0  0  1  0  0  0  0  0  0  0  0  0
   -1.5518    1.7248    0.4868 O   0  0  0  0  0  0  0  0  0  0  0  0
   -3.2080    1.4075    2.2195 C   0  0  2  0  0  0  0  0  0  0  0  0
   -3.9325    0.3983    1.5250 O   0  0  0  0  0  0  0  0  0  0  0  0
   -4.1502    2.1492    3.2224 C   0  0  2  0  0  0  0  0  0  0  0  0
   -4.3639    3.5306    2.7849 O   0  0  0  0  0  0  0  0  0  0  0  0
   -3.6129    2.2263    4.6700 C   0  0  0  0  0  0  0  0  0  0  0  0
   -5.9788    7.1489    5.2412 C   0  0  1  0  0  0  0  0  0  0  0  0
   -6.8588    7.9876    6.0855 N   0  3  0  0  0  0  0  0  0  0  0  0
   -6.7535    6.5352    4.0456 C   0  0  1  0  0  0  0  0  0  0  0  0
   -5.8415    5.7593    3.0327 C   0  0  1  0  0  0  0  0  0  0  0  0
   -6.6082    5.5220    1.8216 O   0  0  0  0  0  0  0  0  0  0  0  0
   -4.5460    6.5534    2.6263 C   0  0  1  0  0  0  0  0  0  0  0  0
   -3.8247    7.1723    3.8672 C   0  0  1  0  0  0  0  0  0  0  0  0
   -2.6953    8.0403    3.4762 N   0  3  0  0  0  0  0  0  0  0  0  0
   -4.7935    8.0005    4.7409 C   0  0  0  0  0  0  0  0  0  0  0  0
   -6.4719    4.2510    1.1224 C   0  0  1  0  0  0  0  0  0  0  0  0
   -7.7445    3.9981    0.3227 C   0  0  1  0  0  0  0  0  0  0  0  0
   -7.4727    4.8730   -0.8936 C   0  0  1  0  0  0  0  0  0  0  0  0
   -5.9833    4.5988   -1.1463 C   0  0  2  0  0  0  0  0  0  0  0  0
   -5.4111    4.3327    0.1565 O   0  0  0  0  0  0  0  0  0  0  0  0
   -5.2579    5.7818   -1.8122 C   0  0  0  0  0  0  0  0  0  0  0  0
  -10.5503    7.4379   -2.9858 C   0  0  1  0  0  0  0  0  0  0  0  0
  -10.1559    6.2687   -3.9307 C   0  0  1  0  0  0  0  0  0  0  0  0
  -10.3919    4.8551   -3.3248 C   0  0  2  0  0  0  0  0  0  0  0  0
   -9.7266    4.7262   -1.9167 C   0  0  1  0  0  0  0  0  0  0  0  0
   -8.2960    4.4811   -2.0296 O   0  0  0  0  0  0  0  0  0  0  0  0
  -10.9574    6.9014   -1.5799 C   0  0  1  0  0  0  0  0  0  0  0  0
   -9.9506    5.9470   -1.1086 O   0  0  0  0  0  0  0  0  0  0  0  0
  -11.1140    8.0364   -0.5352 C   0  0  0  0  0  0  0  0  0  0  0  0
   -4.4297    3.0484    5.5801 N   0  3  0  0  0  0  0  0  0  0  0  0
   -7.8251    2.6177   -0.0330 O   0  0  0  0  0  0  0  0  0  0  0  0
  -10.9204    6.3827   -5.1303 O   0  0  0  0  0  0  0  0  0  0  0  0
   -9.4333    8.3224   -2.8710 O   0  0  0  0  0  0  0  0  0  0  0  0
   -5.7165    5.9735   -3.1395 O   0  0  0  0  0  0  0  0  0  0  0  0
   -7.7398    5.6357    4.5513 O   0  0  0  0  0  0  0  0  0  0  0  0
  -12.3705    8.7916   -0.6929 N   0  3  0  0  0  0  0  0  0  0  0  0
   -9.9615    3.7860   -4.2597 N   0  3  0  0  0  0  0  0  0  0  0  0
  1  2  1  6  0  0  0
  1  3  1  0  0  0  0
  1 10  1  0  0  0  0
  3  4  1  6  0  0  0
  3  5  1  0  0  0  0
  5  6  1  1  0  0  0
  5  7  1  0  0  0  0
  7  8  1  6  0  0  0
  7  9  1  0  0  0  0
  9 10  1  0  0  0  0
  9 11  1  1  0  0  0
 11 35  1  0  0  0  0
 12 13  1  6  0  0  0
 12 14  1  0  0  0  0
 12 20  1  0  0  0  0
 14 15  1  0  0  0  0
 14 40  1  1  0  0  0
 15 16  1  6  0  0  0
 15 17  1  0  0  0  0
 17  2  1  1  0  0  0
 17 18  1  0  0  0  0
 18 19  1  6  0  0  0
 18 20  1  0  0  0  0
 21 16  1  6  0  0  0
 21 22  1  0  0  0  0
 21 25  1  0  0  0  0
 22 23  1  0  0  0  0
 22 36  1  6  0  0  0
 23 24  1  0  0  0  0
 23 31  1  6  0  0  0
 24 25  1  0  0  0  0
 24 26  1  1  0  0  0
 26 39  1  0  0  0  0
 27 28  1  0  0  0  0
 27 32  1  0  0  0  0
 27 38  1  1  0  0  0
 28 29  1  0  0  0  0
 28 37  1  6  0  0  0
 29 30  1  0  0  0  0
 29 42  1  6  0  0  0
 30 31  1  6  0  0  0
 30 33  1  0  0  0  0
 32 33  1  0  0  0  0
 32 34  1  1  0  0  0
 34 41  1  0  0  0  0
M  CHG  6   4   1  13   1  19   1  35   1  41   1  42   1
M  END
>  <CHROM.1>
-172.79161750,-53.78033724,-87.65995675,64.18067772,-55.95126642,173.74828704
93.27196305,173.47206321,-173.67450998,-140.95443220,155.10953793,59.15873882
67.40951732,68.39545623,-67.90827930,-56.37397917,-64.86738620,66.69854471
-87.40447010,155.61087966,76.49609125,-64.93669050,-6.42305831,5.14470315
0.75478108,-0.43873462,0.65178730,-2.13633698

>  <Name>


>  <RI>
0

>  <Rbt.Current_Directory>
/home/itssahil/PROJECTS/Mol_Feturizer/New_Systems/rnas/1ei2

>  <Rbt.Executable>
rbdock ($Id: //depot/dev/client3/rdock/2013.1/src/exe/rbdock.cxx#4 $)

>  <Rbt.Library>
libRbt.so (2013.1, Build901 2013/11/27)

>  <Rbt.Parameter_File>
/export/apps/rDock/src/rDock_2013.1_src/data/scripts/dock_solv.prm

>  <Rbt.Receptor>
prm/pocket_docking_6.prm

>  <SCORE>
-46.78

>  <SCORE.INTER>
-25.8363

>  <SCORE.INTER.CONST>
1

>  <SCORE.INTER.POLAR>
-5.08849

>  <SCORE.INTER.ROT>
9

>  <SCORE.INTER.SOLV>
18.0532

>  <SCORE.INTER.VDW>
-15.8803

>  <SCORE.INTER.norm>
-0.615149

>  <SCORE.INTRA>
-20.9437

>  <SCORE.INTRA.DIHEDRAL>
-21.3592

>  <SCORE.INTRA.DIHEDRAL.0>
40.8761

>  <SCORE.INTRA.POLAR>
-0.00171117

>  <SCORE.INTRA.POLAR.0>
-0.0268208

>  <SCORE.INTRA.REPUL>
-0.615315

>  <SCORE.INTRA.REPUL.0>
0.641615

>  <SCORE.INTRA.SOLV>
-12.2489

>  <SCORE.INTRA.SOLV.lig_0>
-162.567

>  <SCORE.INTRA.VDW>
-1.05721

>  <SCORE.INTRA.VDW.0>
-4.80338

>  <SCORE.INTRA.norm>
-0.498659

>  <SCORE.RESTR>
0

>  <SCORE.RESTR.CAVITY>
0

>  <SCORE.RESTR.norm>
0

>  <SCORE.SYSTEM>
0

>  <SCORE.SYSTEM.CONST>
0

>  <SCORE.SYSTEM.DIHEDRAL>
0

>  <SCORE.SYSTEM.SOLV>
0

>  <SCORE.SYSTEM.norm>
0

>  <SCORE.heavy>
42

>  <SCORE.norm>
-1.11381

>  <RMSD>
7.280

$$$$

 OpenBabel11021811393D
libRbt.so/2013.1/901 2013/11/27
 42 45  0  0  0  0  0  0  0  0999 V2000
   -8.0809    3.5783   -1.5873 C   0  0  2  0  0  0  0  0  0  0  0  0
   -7.0885    4.2287   -0.7354 O   0  0  0  0  0  0  0  0  0  0  0  0
   -9.1281    2.7798   -0.7449 C   0  0  2  0  0  0  0  0  0  0  0  0
   -9.0797    3.1561    0.6866 N   0  3  0  0  0  0  0  0  0  0  0  0
   -8.9157    1.2452   -0.9144 C   0  0  1  0  0  0  0  0  0  0  0  0
   -9.8824    0.5279   -0.1500 O   0  0  0  0  0  0  0  0  0  0  0  0
   -9.0379    0.8068   -2.3984 C   0  0  2  0  0  0  0  0  0  0  0  0
   -8.5536   -0.5257   -2.5227 O   0  0  0  0  0  0  0  0  0  0  0  0
   -8.2320    1.7597   -3.3396 C   0  0  2  0  0  0  0  0  0  0  0  0
   -7.4187    2.6831   -2.5451 O   0  0  0  0  0  0  0  0  0  0  0  0
   -9.1058    2.6337   -4.2684 C   0  0  0  0  0  0  0  0  0  0  0  0
   -3.9652    4.3923   -3.7084 C   0  0  1  0  0  0  0  0  0  0  0  0
   -2.7652    4.7833   -4.4814 N   0  3  0  0  0  0  0  0  0  0  0  0
   -3.5834    3.7855   -2.3328 C   0  0  1  0  0  0  0  0  0  0  0  0
   -4.8153    3.4910   -1.4078 C   0  0  1  0  0  0  0  0  0  0  0  0
   -4.3241    3.2435   -0.0630 O   0  0  0  0  0  0  0  0  0  0  0  0
   -5.8345    4.6865   -1.3283 C   0  0  1  0  0  0  0  0  0  0  0  0
   -6.1587    5.2748   -2.7395 C   0  0  1  0  0  0  0  0  0  0  0  0
   -6.9964    6.4885   -2.6552 N   0  3  0  0  0  0  0  0  0  0  0  0
   -4.8747    5.6250   -3.5248 C   0  0  0  0  0  0  0  0  0  0  0  0
   -4.8699    2.1346    0.7085 C   0  0  1  0  0  0  0  0  0  0  0  0
   -3.8368    1.7096    1.7452 C   0  0  1  0  0  0  0  0  0  0  0  0
   -4.0764    2.7711    2.8103 C   0  0  1  0  0  0  0  0  0  0  0  0
   -5.6085    2.8693    2.8112 C   0  0  2  0  0  0  0  0  0  0  0  0
   -6.0173    2.5727    1.4545 O   0  0  0  0  0  0  0  0  0  0  0  0
   -6.1225    4.2591    3.2278 C   0  0  0  0  0  0  0  0  0  0  0  0
   -1.5610    4.2406    6.7879 C   0  0  1  0  0  0  0  0  0  0  0  0
   -2.0462    2.7685    6.9012 C   0  0  1  0  0  0  0  0  0  0  0  0
   -1.6809    1.8831    5.6749 C   0  0  2  0  0  0  0  0  0  0  0  0
   -2.1361    2.5535    4.3389 C   0  0  1  0  0  0  0  0  0  0  0  0
   -3.5594    2.3546    4.1069 O   0  0  0  0  0  0  0  0  0  0  0  0
   -0.9421    4.5139    5.3835 C   0  0  1  0  0  0  0  0  0  0  0  0
   -1.8403    4.0048    4.3440 O   0  0  0  0  0  0  0  0  0  0  0  0
   -0.6768    6.0214    5.1360 C   0  0  0  0  0  0  0  0  0  0  0  0
   -9.3651    2.0441   -5.5937 N   0  3  0  0  0  0  0  0  0  0  0  0
   -4.1475    0.4029    2.2294 O   0  0  0  0  0  0  0  0  0  0  0  0
   -1.4629    2.1915    8.0687 O   0  0  0  0  0  0  0  0  0  0  0  0
   -2.6789    5.1032    7.0098 O   0  0  0  0  0  0  0  0  0  0  0  0
   -5.5757    5.2697    2.3982 O   0  0  0  0  0  0  0  0  0  0  0  0
   -2.8756    2.5652   -2.5503 O   0  0  0  0  0  0  0  0  0  0  0  0
    0.4584    6.5404    5.9209 N   0  3  0  0  0  0  0  0  0  0  0  0
   -2.2036    0.5027    5.8283 N   0  3  0  0  0  0  0  0  0  0  0  0
  1  2  1  1  0  0  0
  1  3  1  0  0  0  0
  1 10  1  0  0  0  0
  3  4  1  1  0  0  0
  3  5  1  0  0  0  0
  5  6  1  1  0  0  0
  5  7  1  0  0  0  0
  7  8  1  1  0  0  0
  7  9  1  0  0  0  0
  9 10  1  0  0  0  0
  9 11  1  1  0  0  0
 11 35  1  0  0  0  0
 12 13  1  1  0  0  0
 12 14  1  0  0  0  0
 12 20  1  0  0  0  0
 14 15  1  0  0  0  0
 14 40  1  6  0  0  0
 15 16  1  1  0  0  0
 15 17  1  0  0  0  0
 17  2  1  6  0  0  0
 17 18  1  0  0  0  0
 18 19  1  1  0  0  0
 18 20  1  0  0  0  0
 21 16  1  1  0  0  0
 21 22  1  0  0  0  0
 21 25  1  0  0  0  0
 22 23  1  0  0  0  0
 22 36  1  1  0  0  0
 23 24  1  0  0  0  0
 23 31  1  1  0  0  0
 24 25  1  0  0  0  0
 24 26  1  6  0  0  0
 26 39  1  0  0  0  0
 27 28  1  0  0  0  0
 27 32  1  0  0  0  0
 27 38  1  6  0  0  0
 28 29  1  0  0  0  0
 28 37  1  1  0  0  0
 29 30  1  0  0  0  0
 29 42  1  1  0  0  0
 30 31  1  1  0  0  0
 30 33  1  0  0  0  0
 32 33  1  0  0  0  0
 32 34  1  6  0  0  0
 34 41  1  0  0  0  0
M  CHG  6   4   1  13   1  19   1  35   1  41   1  42   1
M  END
>  <CHROM.1>
162.49478993,-83.55449806,-57.08389070,-68.94545220,177.77325760,-92.44181992
173.00716862,68.69343481,-59.00122056,-136.09440730,155.30429370,65.22895022
-177.87065068,82.22360651,56.11976932,-176.41947435,175.45667150,173.03248514
-36.53231400,-171.89592368,72.16096033,-176.21816269,-5.01682609,3.18290070
0.92163719,2.32336850,-0.61781379,-1.17033401

>  <Name>


>  <RI>
0

>  <Rbt.Current_Directory>
/home/itssahil/PROJECTS/Mol_Feturizer/New_Systems/rnas/1ei2

>  <Rbt.Executable>
rbdock ($Id: //depot/dev/client3/rdock/2013.1/src/exe/rbdock.cxx#4 $)

>  <Rbt.Library>
libRbt.so (2013.1, Build901 2013/11/27)

>  <Rbt.Parameter_File>
/export/apps/rDock/src/rDock_2013.1_src/data/scripts/dock_solv.prm

>  <Rbt.Receptor>
prm/pocket_docking_8.prm

>  <SCORE>
-58.6599

>  <SCORE.INTER>
-37.3158

>  <SCORE.INTER.CONST>
1

>  <SCORE.INTER.POLAR>
-6.93806

>  <SCORE.INTER.ROT>
9

>  <SCORE.INTER.SOLV>
32.5543

>  <SCORE.INTER.VDW>
-22.2018

>  <SCORE.INTER.norm>
-0.888472

>  <SCORE.INTRA>
-21.3441

>  <SCORE.INTRA.DIHEDRAL>
-19.0243

>  <SCORE.INTRA.DIHEDRAL.0>
40.8761

>  <SCORE.INTRA.POLAR>
-0.998516

>  <SCORE.INTRA.POLAR.0>
-0.0268208

>  <SCORE.INTRA.REPUL>
-0.548694

>  <SCORE.INTRA.REPUL.0>
0.641615

>  <SCORE.INTRA.SOLV>
-10.749

>  <SCORE.INTRA.SOLV.lig_0>
-162.567

>  <SCORE.INTRA.VDW>
-0.318973

>  <SCORE.INTRA.VDW.0>
-4.80338

>  <SCORE.INTRA.norm>
-0.508192

>  <SCORE.RESTR>
0

>  <SCORE.RESTR.CAVITY>
0

>  <SCORE.RESTR.norm>
0

>  <SCORE.SYSTEM>
0

>  <SCORE.SYSTEM.CONST>
0

>  <SCORE.SYSTEM.DIHEDRAL>
0

>  <SCORE.SYSTEM.SOLV>
0

>  <SCORE.SYSTEM.norm>
0

>  <SCORE.heavy>
42

>  <SCORE.norm>
-1.39666

>  <RMSD>
7.286

$$$$

 OpenBabel11021811393D
libRbt.so/2013.1/901 2013/11/27
 42 45  0  0  0  0  0  0  0  0999 V2000
   -5.8388    3.1988   -1.3083 C   0  0  2  0  0  0  0  0  0  0  0  0
   -5.8794    2.4211   -0.0725 O   0  0  0  0  0  0  0  0  0  0  0  0
   -6.7870    2.5995   -2.3971 C   0  0  2  0  0  0  0  0  0  0  0  0
   -7.7423    1.6285   -1.8159 N   0  3  0  0  0  0  0  0  0  0  0  0
   -5.9617    1.9366   -3.5410 C   0  0  1  0  0  0  0  0  0  0  0  0
   -6.8366    1.4030   -4.5325 O   0  0  0  0  0  0  0  0  0  0  0  0
   -5.0047    2.9505   -4.2234 C   0  0  2  0  0  0  0  0  0  0  0  0
   -4.0879    2.2335   -5.0424 O   0  0  0  0  0  0  0  0  0  0  0  0
   -4.2276    3.7981   -3.1645 C   0  0  2  0  0  0  0  0  0  0  0  0
   -4.4640    3.2652   -1.8208 O   0  0  0  0  0  0  0  0  0  0  0  0
   -4.6262    5.2912   -3.1201 C   0  0  0  0  0  0  0  0  0  0  0  0
   -4.3762    2.3043    3.9706 C   0  0  1  0  0  0  0  0  0  0  0  0
   -3.6792    2.6398    5.2324 N   0  3  0  0  0  0  0  0  0  0  0  0
   -5.5543    3.2752    3.6956 C   0  0  1  0  0  0  0  0  0  0  0  0
   -6.2361    3.0625    2.2992 C   0  0  1  0  0  0  0  0  0  0  0  0
   -7.0824    4.2118    2.0276 O   0  0  0  0  0  0  0  0  0  0  0  0
   -5.2072    2.9405    1.1158 C   0  0  1  0  0  0  0  0  0  0  0  0
   -4.0293    1.9729    1.4609 C   0  0  1  0  0  0  0  0  0  0  0  0
   -2.9876    1.9717    0.4136 N   0  3  0  0  0  0  0  0  0  0  0  0
   -3.3633    2.3359    2.8072 C   0  0  0  0  0  0  0  0  0  0  0  0
   -6.6216    5.5453    2.3916 C   0  0  1  0  0  0  0  0  0  0  0  0
   -7.2049    6.5472    1.4022 C   0  0  1  0  0  0  0  0  0  0  0  0
   -8.6054    6.7055    1.9782 C   0  0  1  0  0  0  0  0  0  0  0  0
   -8.3186    6.7408    3.4861 C   0  0  2  0  0  0  0  0  0  0  0  0
   -7.1469    5.9126    3.6778 O   0  0  0  0  0  0  0  0  0  0  0  0
   -9.4880    6.2091    4.3341 C   0  0  0  0  0  0  0  0  0  0  0  0
  -10.9848    5.0349   -0.2924 C   0  0  1  0  0  0  0  0  0  0  0  0
  -11.6140    5.8946    0.8391 C   0  0  1  0  0  0  0  0  0  0  0  0
  -11.5018    7.4293    0.6078 C   0  0  2  0  0  0  0  0  0  0  0  0
  -10.0282    7.8474    0.2987 C   0  0  1  0  0  0  0  0  0  0  0  0
   -9.2377    7.9345    1.5181 O   0  0  0  0  0  0  0  0  0  0  0  0
  -10.2522    5.9366   -1.3318 C   0  0  1  0  0  0  0  0  0  0  0  0
   -9.3872    6.8893   -0.6313 O   0  0  0  0  0  0  0  0  0  0  0  0
   -9.4008    5.1145   -2.3335 C   0  0  0  0  0  0  0  0  0  0  0  0
   -3.6469    6.1636   -2.4485 N   0  3  0  0  0  0  0  0  0  0  0  0
   -6.4717    7.7707    1.4650 O   0  0  0  0  0  0  0  0  0  0  0  0
  -12.9947    5.5512    0.9498 O   0  0  0  0  0  0  0  0  0  0  0  0
  -10.0635    4.1153    0.2980 O   0  0  0  0  0  0  0  0  0  0  0  0
  -10.2563    5.2693    3.6025 O   0  0  0  0  0  0  0  0  0  0  0  0
   -6.5392    3.1015    4.7141 O   0  0  0  0  0  0  0  0  0  0  0  0
  -10.0812    4.9005   -3.6239 N   0  3  0  0  0  0  0  0  0  0  0  0
  -12.0865    8.1919    1.7387 N   0  3  0  0  0  0  0  0  0  0  0  0
  1  2  1  1  0  0  0
  1  3  1  0  0  0  0
  1 10  1  0  0  0  0
  3  4  1  1  0  0  0
  3  5  1  0  0  0  0
  5  6  1  6  0  0  0
  5  7  1  0  0  0  0
  7  8  1  1  0  0  0
  7  9  1  0  0  0  0
  9 10  1  0  0  0  0
  9 11  1  1  0  0  0
 11 35  1  0  0  0  0
 12 13  1  1  0  0  0
 12 14  1  0  0  0  0
 12 20  1  0  0  0  0
 14 15  1  0  0  0  0
 14 40  1  1  0  0  0
 15 16  1  6  0  0  0
 15 17  1  0  0  0  0
 17  2  1  6  0  0  0
 17 18  1  0  0  0  0
 18 19  1  6  0  0  0
 18 20  1  0  0  0  0
 21 16  1  6  0  0  0
 21 22  1  0  0  0  0
 21 25  1  0  0  0  0
 22 23  1  0  0  0  0
 22 36  1  1  0  0  0
 23 24  1  0  0  0  0
 23 31  1  6  0  0  0
 24 25  1  0  0  0  0
 24 26  1  1  0  0  0
 26 39  1  0  0  0  0
 27 28  1  0  0  0  0
 27 32  1  0  0  0  0
 27 38  1  1  0  0  0
 28 29  1  0  0  0  0
 28 37  1  6  0  0  0
 29 30  1  0  0  0  0
 29 42  1  1  0  0  0
 30 31  1  1  0  0  0
 30 33  1  0  0  0  0
 32 33  1  0  0  0  0
 32 34  1  6  0  0  0
 34 41  1  0  0  0  0
M  CHG  6   4   1  13   1  19   1  35   1  41   1  42   1
M  END
>  <CHROM.1>
-171.25846770,123.08474737,179.39117749,-66.34981479,63.12328409,-162.16684647
-73.51285510,70.31382645,178.83390675,39.46529372,149.04879584,-158.61978375
61.44958382,90.76926527,27.45822318,63.92097436,-57.15743670,63.26682856
-177.69516544,87.11349972,99.06085181,67.35688304,-7.29387312,4.52021076
0.33948715,0.55851747,0.53348774,-1.71838664

>  <Name>


>  <RI>
0

>  <Rbt.Current_Directory>
/home/itssahil/PROJECTS/Mol_Feturizer/New_Systems/rnas/1ei2

>  <Rbt.Executable>
rbdock ($Id: //depot/dev/client3/rdock/2013.1/src/exe/rbdock.cxx#4 $)

>  <Rbt.Library>
libRbt.so (2013.1, Build901 2013/11/27)

>  <Rbt.Parameter_File>
/export/apps/rDock/src/rDock_2013.1_src/data/scripts/dock_solv.prm

>  <Rbt.Receptor>
prm/pocket_docking_5.prm

>  <SCORE>
-42.7654

>  <SCORE.INTER>
-22.9206

>  <SCORE.INTER.CONST>
1

>  <SCORE.INTER.POLAR>
-4.417

>  <SCORE.INTER.ROT>
9

>  <SCORE.INTER.SOLV>
18.7093

>  <SCORE.INTER.VDW>
-16.3935

>  <SCORE.INTER.norm>
-0.545728

>  <SCORE.INTRA>
-19.8448

>  <SCORE.INTRA.DIHEDRAL>
-9.88662

>  <SCORE.INTRA.DIHEDRAL.0>
40.8761

>  <SCORE.INTRA.POLAR>
-1.39825

>  <SCORE.INTRA.POLAR.0>
-0.0268208

>  <SCORE.INTRA.REPUL>
-0.641615

>  <SCORE.INTRA.REPUL.0>
0.641615

>  <SCORE.INTRA.SOLV>
-9.13114

>  <SCORE.INTRA.SOLV.lig_0>
-162.567

>  <SCORE.INTRA.VDW>
-2.37378

>  <SCORE.INTRA.VDW.0>
-4.80338

>  <SCORE.INTRA.norm>
-0.472494

>  <SCORE.RESTR>
0

>  <SCORE.RESTR.CAVITY>
0

>  <SCORE.RESTR.norm>
0

>  <SCORE.SYSTEM>
0

>  <SCORE.SYSTEM.CONST>
0

>  <SCORE.SYSTEM.DIHEDRAL>
0

>  <SCORE.SYSTEM.SOLV>
0

>  <SCORE.SYSTEM.norm>
0

>  <SCORE.heavy>
42

>  <SCORE.norm>
-1.01822

>  <RMSD>
7.294

$$$$

 OpenBabel11021811393D
libRbt.so/2013.1/901 2013/11/27
 42 45  0  0  0  0  0  0  0  0999 V2000
   -3.8294    1.6335   -1.8598 C   0  0  2  0  0  0  0  0  0  0  0  0
   -3.1255    0.9382   -0.7852 O   0  0  0  0  0  0  0  0  0  0  0  0
   -4.1371    0.6786   -3.0587 C   0  0  2  0  0  0  0  0  0  0  0  0
   -3.9687   -0.7437   -2.6822 N   0  3  0  0  0  0  0  0  0  0  0  0
   -3.2419    1.0292   -4.2853 C   0  0  1  0  0  0  0  0  0  0  0  0
   -3.5386    0.1588   -5.3751 O   0  0  0  0  0  0  0  0  0  0  0  0
   -3.4536    2.4939   -4.7535 C   0  0  2  0  0  0  0  0  0  0  0  0
   -2.4182    2.8354   -5.6684 O   0  0  0  0  0  0  0  0  0  0  0  0
   -3.4467    3.4830   -3.5431 C   0  0  2  0  0  0  0  0  0  0  0  0
   -3.0404    2.7826   -2.3226 O   0  0  0  0  0  0  0  0  0  0  0  0
   -4.8153    4.1347   -3.2393 C   0  0  0  0  0  0  0  0  0  0  0  0
   -0.8842    1.5990    2.8424 C   0  0  1  0  0  0  0  0  0  0  0  0
   -0.2284    2.2383    4.0050 N   0  3  0  0  0  0  0  0  0  0  0  0
   -2.4299    1.6486    2.9624 C   0  0  1  0  0  0  0  0  0  0  0  0
   -3.1802    1.1211    1.6901 C   0  0  1  0  0  0  0  0  0  0  0  0
   -4.5750    1.5154    1.7897 O   0  0  0  0  0  0  0  0  0  0  0  0
   -2.6155    1.7098    0.3452 C   0  0  1  0  0  0  0  0  0  0  0  0
   -1.0541    1.6598    0.2936 C   0  0  1  0  0  0  0  0  0  0  0  0
   -0.5165    2.3455   -0.8992 N   0  3  0  0  0  0  0  0  0  0  0  0
   -0.4171    2.2978    1.5486 C   0  0  0  0  0  0  0  0  0  0  0  0
   -5.2466    2.0807    0.6269 C   0  0  1  0  0  0  0  0  0  0  0  0
   -6.6337    2.5509    1.0485 C   0  0  1  0  0  0  0  0  0  0  0  0
   -6.2792    3.8872    1.6865 C   0  0  1  0  0  0  0  0  0  0  0  0
   -5.2224    4.4257    0.7117 C   0  0  2  0  0  0  0  0  0  0  0  0
   -4.5519    3.2572    0.1819 O   0  0  0  0  0  0  0  0  0  0  0  0
   -4.2030    5.3616    1.3856 C   0  0  0  0  0  0  0  0  0  0  0  0
  -10.7689    5.8685    0.2095 C   0  0  1  0  0  0  0  0  0  0  0  0
   -9.9668    6.6708    1.2717 C   0  0  1  0  0  0  0  0  0  0  0  0
   -8.4651    6.8703    0.9164 C   0  0  2  0  0  0  0  0  0  0  0  0
   -7.7824    5.5094    0.5651 C   0  0  1  0  0  0  0  0  0  0  0  0
   -7.4384    4.7656    1.7683 O   0  0  0  0  0  0  0  0  0  0  0  0
   -9.8237    5.3237   -0.9041 C   0  0  1  0  0  0  0  0  0  0  0  0
   -8.6617    4.6776   -0.2885 O   0  0  0  0  0  0  0  0  0  0  0  0
  -10.5334    4.3129   -1.8414 C   0  0  0  0  0  0  0  0  0  0  0  0
   -5.4704    4.7491   -4.4075 N   0  3  0  0  0  0  0  0  0  0  0  0
   -7.4566    2.7237   -0.1054 O   0  0  0  0  0  0  0  0  0  0  0  0
  -10.5738    7.9539    1.4187 O   0  0  0  0  0  0  0  0  0  0  0  0
  -11.4313    4.7856    0.8665 O   0  0  0  0  0  0  0  0  0  0  0  0
   -3.3064    5.9036    0.4311 O   0  0  0  0  0  0  0  0  0  0  0  0
   -2.8283    0.8616    4.0846 O   0  0  0  0  0  0  0  0  0  0  0  0
  -10.8467    4.8809   -3.1655 N   0  3  0  0  0  0  0  0  0  0  0  0
   -7.7488    7.6093    1.9855 N   0  3  0  0  0  0  0  0  0  0  0  0
  1  2  1  1  0  0  0
  1  3  1  0  0  0  0
  1 10  1  0  0  0  0
  3  4  1  1  0  0  0
  3  5  1  0  0  0  0
  5  6  1  6  0  0  0
  5  7  1  0  0  0  0
  7  8  1  6  0  0  0
  7  9  1  0  0  0  0
  9 10  1  0  0  0  0
  9 11  1  1  0  0  0
 11 35  1  0  0  0  0
 12 13  1  1  0  0  0
 12 14  1  0  0  0  0
 12 20  1  0  0  0  0
 14 15  1  0  0  0  0
 14 40  1  1  0  0  0
 15 16  1  1  0  0  0
 15 17  1  0  0  0  0
 17  2  1  6  0  0  0
 17 18  1  0  0  0  0
 18 19  1  6  0  0  0
 18 20  1  0  0  0  0
 21 16  1  1  0  0  0
 21 22  1  0  0  0  0
 21 25  1  0  0  0  0
 22 23  1  0  0  0  0
 22 36  1  6  0  0  0
 23 24  1  0  0  0  0
 23 31  1  6  0  0  0
 24 25  1  0  0  0  0
 24 26  1  1  0  0  0
 26 39  1  0  0  0  0
 27 28  1  0  0  0  0
 27 32  1  0  0  0  0
 27 38  1  1  0  0  0
 28 29  1  0  0  0  0
 28 37  1  6  0  0  0
 29 30  1  0  0  0  0
 29 42  1  1  0  0  0
 30 31  1  1  0  0  0
 30 33  1  0  0  0  0
 32 33  1  0  0  0  0
 32 34  1  1  0  0  0
 34 41  1  0  0  0  0
M  CHG  6   4   1  13   1  19   1  35   1  41   1  42   1
M  END
>  <CHROM.1>
172.73040792,124.82594756,172.24453721,-64.34584593,-56.34467477,-50.80100153
-174.62553947,-147.24631825,-56.53869483,134.90705364,-173.50723344,-163.94597983
179.67446970,-81.82145636,-175.99023130,-178.21007107,171.74943480,166.99446110
-173.67736728,-150.21807037,105.63231592,-176.29298889,-5.25107505,3.35970830
-0.36680098,0.19244546,0.48969264,-1.77340620

>  <Name>


>  <RI>
0

>  <Rbt.Current_Directory>
/home/itssahil/PROJECTS/Mol_Feturizer/New_Systems/rnas/1ei2

>  <Rbt.Executable>
rbdock ($Id: //depot/dev/client3/rdock/2013.1/src/exe/rbdock.cxx#4 $)

>  <Rbt.Library>
libRbt.so (2013.1, Build901 2013/11/27)

>  <Rbt.Parameter_File>
/export/apps/rDock/src/rDock_2013.1_src/data/scripts/dock_solv.prm

>  <Rbt.Receptor>
prm/pocket_docking_2.prm

>  <SCORE>
-24.7714

>  <SCORE.INTER>
-19.0227

>  <SCORE.INTER.CONST>
1

>  <SCORE.INTER.POLAR>
-3.34216

>  <SCORE.INTER.ROT>
9

>  <SCORE.INTER.SOLV>
25.2238

>  <SCORE.INTER.VDW>
-19.5492

>  <SCORE.INTER.norm>
-0.452922

>  <SCORE.INTRA>
-10.2992

>  <SCORE.INTRA.DIHEDRAL>
-11.2156

>  <SCORE.INTRA.DIHEDRAL.0>
40.8761

>  <SCORE.INTRA.POLAR>
-0.970662

>  <SCORE.INTRA.POLAR.0>
-0.0268208

>  <SCORE.INTRA.REPUL>
-0.6389

>  <SCORE.INTRA.REPUL.0>
0.641615

>  <SCORE.INTRA.SOLV>
-10.4417

>  <SCORE.INTRA.SOLV.lig_0>
-162.567

>  <SCORE.INTRA.VDW>
7.02417

>  <SCORE.INTRA.VDW.0>
-4.80338

>  <SCORE.INTRA.norm>
-0.24522

>  <SCORE.RESTR>
4.55055

>  <SCORE.RESTR.CAVITY>
4.55055

>  <SCORE.RESTR.norm>
0.108346

>  <SCORE.SYSTEM>
0

>  <SCORE.SYSTEM.CONST>
0

>  <SCORE.SYSTEM.DIHEDRAL>
0

>  <SCORE.SYSTEM.SOLV>
0

>  <SCORE.SYSTEM.norm>
0

>  <SCORE.heavy>
42

>  <SCORE.norm>
-0.589796

>  <RMSD>
7.296

$$$$

 OpenBabel11021811393D
libRbt.so/2013.1/901 2013/11/27
 42 45  0  0  0  0  0  0  0  0999 V2000
   -6.1356    2.7864   -5.4929 C   0  0  2  0  0  0  0  0  0  0  0  0
   -4.9028    3.2227   -4.8421 O   0  0  0  0  0  0  0  0  0  0  0  0
   -7.3838    3.5352   -4.9227 C   0  0  2  0  0  0  0  0  0  0  0  0
   -6.9940    4.7290   -4.1380 N   0  3  0  0  0  0  0  0  0  0  0  0
   -8.2552    2.5739   -4.0593 C   0  0  1  0  0  0  0  0  0  0  0  0
   -9.3953    3.2651   -3.5534 O   0  0  0  0  0  0  0  0  0  0  0  0
   -8.7451    1.3489   -4.8771 C   0  0  2  0  0  0  0  0  0  0  0  0
   -9.2766    0.3822   -3.9779 O   0  0  0  0  0  0  0  0  0  0  0  0
   -7.5815    0.7218   -5.7115 C   0  0  2  0  0  0  0  0  0  0  0  0
   -6.3055    1.3358   -5.3372 O   0  0  0  0  0  0  0  0  0  0  0  0
   -7.7210    0.8991   -7.2410 C   0  0  0  0  0  0  0  0  0  0  0  0
   -2.5728   -0.2615   -5.8676 C   0  0  1  0  0  0  0  0  0  0  0  0
   -1.4476   -1.1705   -6.1807 N   0  3  0  0  0  0  0  0  0  0  0  0
   -2.5590    0.1692   -4.3774 C   0  0  1  0  0  0  0  0  0  0  0  0
   -3.6384    1.2499   -4.0216 C   0  0  1  0  0  0  0  0  0  0  0  0
   -3.3176    1.7988   -2.7152 O   0  0  0  0  0  0  0  0  0  0  0  0
   -3.6815    2.4466   -5.0415 C   0  0  1  0  0  0  0  0  0  0  0  0
   -3.6644    1.9534   -6.5245 C   0  0  1  0  0  0  0  0  0  0  0  0
   -3.5545    3.0742   -7.4804 N   0  3  0  0  0  0  0  0  0  0  0  0
   -2.5001    0.9728   -6.7905 C   0  0  0  0  0  0  0  0  0  0  0  0
   -3.3111    0.9238   -1.5502 C   0  0  1  0  0  0  0  0  0  0  0  0
   -2.4111    1.5398   -0.4856 C   0  0  1  0  0  0  0  0  0  0  0  0
   -3.3630    2.5725    0.1026 C   0  0  1  0  0  0  0  0  0  0  0  0
   -4.6825    1.7888    0.1463 C   0  0  2  0  0  0  0  0  0  0  0  0
   -4.6245    0.8687   -0.9698 O   0  0  0  0  0  0  0  0  0  0  0  0
   -5.9233    2.6916    0.0250 C   0  0  0  0  0  0  0  0  0  0  0  0
   -3.0372    5.3569    4.4560 C   0  0  1  0  0  0  0  0  0  0  0  0
   -1.8223    4.4810    4.0410 C   0  0  1  0  0  0  0  0  0  0  0  0
   -1.4178    4.6237    2.5453 C   0  0  2  0  0  0  0  0  0  0  0  0
   -2.6476    4.4109    1.6051 C   0  0  1  0  0  0  0  0  0  0  0  0
   -2.9398    2.9954    1.4307 O   0  0  0  0  0  0  0  0  0  0  0  0
   -3.6575    6.0684    3.2153 C   0  0  1  0  0  0  0  0  0  0  0  0
   -3.8487    5.0955    2.1366 O   0  0  0  0  0  0  0  0  0  0  0  0
   -5.0139    6.7466    3.5379 C   0  0  0  0  0  0  0  0  0  0  0  0
   -8.7610    0.0582   -7.8595 N   0  3  0  0  0  0  0  0  0  0  0  0
   -2.0542    0.5483    0.4779 O   0  0  0  0  0  0  0  0  0  0  0  0
   -0.7062    4.8477    4.8510 O   0  0  0  0  0  0  0  0  0  0  0  0
   -4.0100    4.5145    5.0781 O   0  0  0  0  0  0  0  0  0  0  0  0
   -7.1110    1.9185    0.0077 O   0  0  0  0  0  0  0  0  0  0  0  0
   -2.7833   -0.9828   -3.5650 O   0  0  0  0  0  0  0  0  0  0  0  0
   -5.6363    7.3741    2.3577 N   0  3  0  0  0  0  0  0  0  0  0  0
   -0.2784    3.7359    2.2050 N   0  3  0  0  0  0  0  0  0  0  0  0
  1  2  1  1  0  0  0
  1  3  1  0  0  0  0
  1 10  1  0  0  0  0
  3  4  1  1  0  0  0
  3  5  1  0  0  0  0
  5  6  1  6  0  0  0
  5  7  1  0  0  0  0
  7  8  1  1  0  0  0
  7  9  1  0  0  0  0
  9 10  1  0  0  0  0
  9 11  1  6  0  0  0
 11 35  1  0  0  0  0
 12 13  1  1  0  0  0
 12 14  1  0  0  0  0
 12 20  1  0  0  0  0
 14 15  1  0  0  0  0
 14 40  1  1  0  0  0
 15 16  1  1  0  0  0
 15 17  1  0  0  0  0
 17  2  1  1  0  0  0
 17 18  1  0  0  0  0
 18 19  1  6  0  0  0
 18 20  1  0  0  0  0
 21 16  1  6  0  0  0
 21 22  1  0  0  0  0
 21 25  1  0  0  0  0
 22 23  1  0  0  0  0
 22 36  1  1  0  0  0
 23 24  1  0  0  0  0
 23 31  1  1  0  0  0
 24 25  1  0  0  0  0
 24 26  1  6  0  0  0
 26 39  1  0  0  0  0
 27 28  1  0  0  0  0
 27 32  1  0  0  0  0
 27 38  1  6  0  0  0
 28 29  1  0  0  0  0
 28 37  1  1  0  0  0
 29 30  1  0  0  0  0
 29 42  1  6  0  0  0
 30 31  1  1  0  0  0
 30 33  1  0  0  0  0
 32 33  1  0  0  0  0
 32 34  1  1  0  0  0
 34 41  1  0  0  0  0
M  CHG  6   4   1  13   1  19   1  35   1  41   1  42   1
M  END
>  <CHROM.1>
167.38374535,-84.42815965,-145.25821143,63.46900110,-60.11776987,-72.87355112
-45.98920374,-167.09486698,156.31224859,-61.88441560,156.13364972,17.77476294
-58.21536964,119.97291787,177.27332830,78.11558269,65.46709149,-59.89205851
66.91904776,-141.75936570,-177.58998743,77.63612724,-4.53509566,2.54978089
-1.87068803,1.89572936,0.32473730,-2.04434349

>  <Name>


>  <RI>
0

>  <Rbt.Current_Directory>
/home/itssahil/PROJECTS/Mol_Feturizer/New_Systems/rnas/1ei2

>  <Rbt.Executable>
rbdock ($Id: //depot/dev/client3/rdock/2013.1/src/exe/rbdock.cxx#4 $)

>  <Rbt.Library>
libRbt.so (2013.1, Build901 2013/11/27)

>  <Rbt.Parameter_File>
/export/apps/rDock/src/rDock_2013.1_src/data/scripts/dock_solv.prm

>  <Rbt.Receptor>
prm/pocket_docking_8.prm

>  <SCORE>
-34.253

>  <SCORE.INTER>
-20.8108

>  <SCORE.INTER.CONST>
1

>  <SCORE.INTER.POLAR>
-4.69577

>  <SCORE.INTER.ROT>
9

>  <SCORE.INTER.SOLV>
24.4732

>  <SCORE.INTER.VDW>
-15.979

>  <SCORE.INTER.norm>
-0.495494

>  <SCORE.INTRA>
-13.4422

>  <SCORE.INTRA.DIHEDRAL>
-10.4284

>  <SCORE.INTRA.DIHEDRAL.0>
40.8761

>  <SCORE.INTRA.POLAR>
-0.331609

>  <SCORE.INTRA.POLAR.0>
-0.0268208

>  <SCORE.INTRA.REPUL>
-0.641615

>  <SCORE.INTRA.REPUL.0>
0.641615

>  <SCORE.INTRA.SOLV>
-14.5796

>  <SCORE.INTRA.SOLV.lig_0>
-162.567

>  <SCORE.INTRA.VDW>
3.39732

>  <SCORE.INTRA.VDW.0>
-4.80338

>  <SCORE.INTRA.norm>
-0.320054

>  <SCORE.RESTR>
0

>  <SCORE.RESTR.CAVITY>
0

>  <SCORE.RESTR.norm>
0

>  <SCORE.SYSTEM>
0

>  <SCORE.SYSTEM.CONST>
0

>  <SCORE.SYSTEM.DIHEDRAL>
0

>  <SCORE.SYSTEM.SOLV>
0

>  <SCORE.SYSTEM.norm>
0

>  <SCORE.heavy>
42

>  <SCORE.norm>
-0.815548

>  <RMSD>
7.299

$$$$

 OpenBabel11021811393D
libRbt.so/2013.1/901 2013/11/27
 42 45  0  0  0  0  0  0  0  0999 V2000
   -4.6973    1.7184   -5.9693 C   0  0  2  0  0  0  0  0  0  0  0  0
   -3.2523    1.5797   -5.8072 O   0  0  0  0  0  0  0  0  0  0  0  0
   -5.0547    2.6742   -7.1536 C   0  0  2  0  0  0  0  0  0  0  0  0
   -3.8863    2.9198   -8.0298 N   0  3  0  0  0  0  0  0  0  0  0  0
   -5.6302    4.0205   -6.6197 C   0  0  1  0  0  0  0  0  0  0  0  0
   -5.9617    4.8795   -7.7085 O   0  0  0  0  0  0  0  0  0  0  0  0
   -6.9038    3.8022   -5.7596 C   0  0  2  0  0  0  0  0  0  0  0  0
   -7.2051    5.0124   -5.0738 O   0  0  0  0  0  0  0  0  0  0  0  0
   -6.7029    2.6405   -4.7332 C   0  0  2  0  0  0  0  0  0  0  0  0
   -5.3024    2.2118   -4.7253 O   0  0  0  0  0  0  0  0  0  0  0  0
   -7.5461    1.3771   -5.0212 C   0  0  0  0  0  0  0  0  0  0  0  0
   -3.1667   -2.6213   -4.8254 C   0  0  1  0  0  0  0  0  0  0  0  0
   -2.7432   -3.9534   -4.3389 N   0  3  0  0  0  0  0  0  0  0  0  0
   -3.4143   -1.6387   -3.6509 C   0  0  1  0  0  0  0  0  0  0  0  0
   -3.7196   -0.1700   -4.1090 C   0  0  1  0  0  0  0  0  0  0  0  0
   -3.6081    0.6992   -2.9502 O   0  0  0  0  0  0  0  0  0  0  0  0
   -2.7194    0.3629   -5.1999 C   0  0  1  0  0  0  0  0  0  0  0  0
   -2.4871   -0.6797   -6.3410 C   0  0  1  0  0  0  0  0  0  0  0  0
   -1.4382   -0.2437   -7.2852 N   0  3  0  0  0  0  0  0  0  0  0  0
   -2.0915   -2.0649   -5.7818 C   0  0  0  0  0  0  0  0  0  0  0  0
   -2.3116    0.8819   -2.3111 C   0  0  1  0  0  0  0  0  0  0  0  0
   -2.1036    2.3693   -2.0518 C   0  0  1  0  0  0  0  0  0  0  0  0
   -2.9264    2.5355   -0.7814 C   0  0  1  0  0  0  0  0  0  0  0  0
   -2.5656    1.2587   -0.0088 C   0  0  2  0  0  0  0  0  0  0  0  0
   -2.3080    0.2539   -1.0186 O   0  0  0  0  0  0  0  0  0  0  0  0
   -3.6880    0.7876    0.9333 C   0  0  0  0  0  0  0  0  0  0  0  0
   -5.2348    6.0863    1.3593 C   0  0  1  0  0  0  0  0  0  0  0  0
   -3.7217    6.1428    1.7094 C   0  0  1  0  0  0  0  0  0  0  0  0
   -2.7829    6.1625    0.4686 C   0  0  2  0  0  0  0  0  0  0  0  0
   -3.1186    4.9930   -0.5119 C   0  0  1  0  0  0  0  0  0  0  0  0
   -2.5458    3.7367   -0.0505 O   0  0  0  0  0  0  0  0  0  0  0  0
   -5.4426    5.9128   -0.1760 C   0  0  1  0  0  0  0  0  0  0  0  0
   -4.5828    4.8336   -0.6686 O   0  0  0  0  0  0  0  0  0  0  0  0
   -6.9162    5.5997   -0.5428 C   0  0  0  0  0  0  0  0  0  0  0  0
   -8.9766    1.6400   -5.2577 N   0  3  0  0  0  0  0  0  0  0  0  0
   -0.7196    2.6298   -1.8168 O   0  0  0  0  0  0  0  0  0  0  0  0
   -3.4821    7.3201    2.4796 O   0  0  0  0  0  0  0  0  0  0  0  0
   -5.8206    4.9885    2.0627 O   0  0  0  0  0  0  0  0  0  0  0  0
   -3.9204    1.7389    1.9578 O   0  0  0  0  0  0  0  0  0  0  0  0
   -4.5179   -2.1136   -2.8803 O   0  0  0  0  0  0  0  0  0  0  0  0
   -7.2669    6.0157   -1.9131 N   0  3  0  0  0  0  0  0  0  0  0  0
   -1.3544    6.1788    0.8702 N   0  3  0  0  0  0  0  0  0  0  0  0
  1  2  1  1  0  0  0
  1  3  1  0  0  0  0
  1 10  1  0  0  0  0
  3  4  1  1  0  0  0
  3  5  1  0  0  0  0
  5  6  1  6  0  0  0
  5  7  1  0  0  0  0
  7  8  1  1  0  0  0
  7  9  1  0  0  0  0
  9 10  1  0  0  0  0
  9 11  1  6  0  0  0
 11 35  1  0  0  0  0
 12 13  1  1  0  0  0
 12 14  1  0  0  0  0
 12 20  1  0  0  0  0
 14 15  1  0  0  0  0
 14 40  1  6  0  0  0
 15 16  1  1  0  0  0
 15 17  1  0  0  0  0
 17  2  1  6  0  0  0
 17 18  1  0  0  0  0
 18 19  1  6  0  0  0
 18 20  1  0  0  0  0
 21 16  1  1  0  0  0
 21 22  1  0  0  0  0
 21 25  1  0  0  0  0
 22 23  1  0  0  0  0
 22 36  1  1  0  0  0
 23 24  1  0  0  0  0
 23 31  1  1  0  0  0
 24 25  1  0  0  0  0
 24 26  1  1  0  0  0
 26 39  1  0  0  0  0
 27 28  1  0  0  0  0
 27 32  1  0  0  0  0
 27 38  1  1  0  0  0
 28 29  1  0  0  0  0
 28 37  1  6  0  0  0
 29 30  1  0  0  0  0
 29 42  1  1  0  0  0
 30 31  1  1  0  0  0
 30 33  1  0  0  0  0
 32 33  1  0  0  0  0
 32 34  1  1  0  0  0
 34 41  1  0  0  0  0
M  CHG  6   4   1  13   1  19   1  35   1  41   1  42   1
M  END
>  <CHROM.1>
-153.75511087,-33.65174488,-152.77077142,-171.70624117,-179.07166046,-49.83128138
-159.62630046,-173.66539856,70.38684988,65.86713848,134.01562594,57.02586992
-56.23654423,81.49139374,-64.32786291,62.54930366,172.59998301,-61.92321998
-28.48974400,172.39840220,154.27959248,-179.36895953,-4.15235004,2.46252018
-2.83072442,1.52453660,0.90479803,-2.21949387

>  <Name>


>  <RI>
0

>  <Rbt.Current_Directory>
/home/itssahil/PROJECTS/Mol_Feturizer/New_Systems/rnas/1ei2

>  <Rbt.Executable>
rbdock ($Id: //depot/dev/client3/rdock/2013.1/src/exe/rbdock.cxx#4 $)

>  <Rbt.Library>
libRbt.so (2013.1, Build901 2013/11/27)

>  <Rbt.Parameter_File>
/export/apps/rDock/src/rDock_2013.1_src/data/scripts/dock_solv.prm

>  <Rbt.Receptor>
prm/pocket_docking_6.prm

>  <SCORE>
-51.9822

>  <SCORE.INTER>
-34.2781

>  <SCORE.INTER.CONST>
1

>  <SCORE.INTER.POLAR>
-5.34915

>  <SCORE.INTER.ROT>
9

>  <SCORE.INTER.SOLV>
32.1723

>  <SCORE.INTER.VDW>
-25.3457

>  <SCORE.INTER.norm>
-0.816146

>  <SCORE.INTRA>
-17.704

>  <SCORE.INTRA.DIHEDRAL>
-16.9997

>  <SCORE.INTRA.DIHEDRAL.0>
40.8761

>  <SCORE.INTRA.POLAR>
-0.403525

>  <SCORE.INTRA.POLAR.0>
-0.0268208

>  <SCORE.INTRA.REPUL>
-0.636523

>  <SCORE.INTRA.REPUL.0>
0.641615

>  <SCORE.INTRA.SOLV>
-10.3074

>  <SCORE.INTRA.SOLV.lig_0>
-162.567

>  <SCORE.INTRA.VDW>
0.504104

>  <SCORE.INTRA.VDW.0>
-4.80338

>  <SCORE.INTRA.norm>
-0.421525

>  <SCORE.RESTR>
0

>  <SCORE.RESTR.CAVITY>
0

>  <SCORE.RESTR.norm>
0

>  <SCORE.SYSTEM>
0

>  <SCORE.SYSTEM.CONST>
0

>  <SCORE.SYSTEM.DIHEDRAL>
0

>  <SCORE.SYSTEM.SOLV>
0

>  <SCORE.SYSTEM.norm>
0

>  <SCORE.heavy>
42

>  <SCORE.norm>
-1.23767

>  <RMSD>
7.306

$$$$

 OpenBabel11021811393D
libRbt.so/2013.1/901 2013/11/27
 42 45  0  0  0  0  0  0  0  0999 V2000
   -1.3910    5.6724    4.1505 C   0  0  2  0  0  0  0  0  0  0  0  0
   -1.4364    5.3930    5.5835 O   0  0  0  0  0  0  0  0  0  0  0  0
   -0.1802    6.5895    3.7808 C   0  0  2  0  0  0  0  0  0  0  0  0
    0.8085    6.6598    4.8810 N   0  3  0  0  0  0  0  0  0  0  0  0
   -0.6697    8.0176    3.3935 C   0  0  1  0  0  0  0  0  0  0  0  0
    0.4420    8.8414    3.0487 O   0  0  0  0  0  0  0  0  0  0  0  0
   -1.6497    7.9844    2.1902 C   0  0  2  0  0  0  0  0  0  0  0  0
   -2.2755    9.2575    2.0753 O   0  0  0  0  0  0  0  0  0  0  0  0
   -2.7311    6.8700    2.3698 C   0  0  2  0  0  0  0  0  0  0  0  0
   -2.6465    6.2983    3.7156 O   0  0  0  0  0  0  0  0  0  0  0  0
   -2.6033    5.6871    1.3826 C   0  0  0  0  0  0  0  0  0  0  0  0
   -1.6443    1.1541    6.3635 C   0  0  1  0  0  0  0  0  0  0  0  0
   -2.0807   -0.1790    6.8354 N   0  3  0  0  0  0  0  0  0  0  0  0
   -2.5869    1.7044    5.2613 C   0  0  1  0  0  0  0  0  0  0  0  0
   -2.2623    3.1767    4.8289 C   0  0  1  0  0  0  0  0  0  0  0  0
   -3.3841    3.6800    4.0548 O   0  0  0  0  0  0  0  0  0  0  0  0
   -2.0502    4.1507    6.0456 C   0  0  1  0  0  0  0  0  0  0  0  0
   -1.1165    3.5319    7.1357 C   0  0  1  0  0  0  0  0  0  0  0  0
   -1.0355    4.3796    8.3426 N   0  3  0  0  0  0  0  0  0  0  0  0
   -1.5868    2.1233    7.5627 C   0  0  0  0  0  0  0  0  0  0  0  0
   -4.7443    3.4022    4.4968 C   0  0  1  0  0  0  0  0  0  0  0  0
   -5.6412    4.5548    4.0610 C   0  0  1  0  0  0  0  0  0  0  0  0
   -5.8721    4.1763    2.6043 C   0  0  1  0  0  0  0  0  0  0  0  0
   -6.0641    2.6563    2.7055 C   0  0  2  0  0  0  0  0  0  0  0  0
   -5.2503    2.2361    3.8265 O   0  0  0  0  0  0  0  0  0  0  0  0
   -5.6354    1.9091    1.4299 C   0  0  0  0  0  0  0  0  0  0  0  0
   -8.1948    5.9950   -1.4166 C   0  0  1  0  0  0  0  0  0  0  0  0
   -8.9899    6.1992   -0.0969 C   0  0  1  0  0  0  0  0  0  0  0  0
   -8.1566    6.8309    1.0554 C   0  0  2  0  0  0  0  0  0  0  0  0
   -6.8244    6.0468    1.2842 C   0  0  1  0  0  0  0  0  0  0  0  0
   -7.0512    4.8362    2.0602 O   0  0  0  0  0  0  0  0  0  0  0  0
   -6.6888    6.3446   -1.2164 C   0  0  1  0  0  0  0  0  0  0  0  0
   -6.1897    5.6885   -0.0052 O   0  0  0  0  0  0  0  0  0  0  0  0
   -5.8159    5.9185   -2.4249 C   0  0  0  0  0  0  0  0  0  0  0  0
   -3.3140    5.8792    0.1061 N   0  3  0  0  0  0  0  0  0  0  0  0
   -6.8579    4.5290    4.8076 O   0  0  0  0  0  0  0  0  0  0  0  0
  -10.1043    7.0476   -0.3702 O   0  0  0  0  0  0  0  0  0  0  0  0
   -8.3342    4.6314   -1.8216 O   0  0  0  0  0  0  0  0  0  0  0  0
   -6.0971    0.5693    1.4497 O   0  0  0  0  0  0  0  0  0  0  0  0
   -2.4914    0.8615    4.1133 O   0  0  0  0  0  0  0  0  0  0  0  0
   -6.0523    6.7450   -3.6228 N   0  3  0  0  0  0  0  0  0  0  0  0
   -8.9608    6.9644    2.2955 N   0  3  0  0  0  0  0  0  0  0  0  0
  1  2  1  1  0  0  0
  1  3  1  0  0  0  0
  1 10  1  0  0  0  0
  3  4  1  1  0  0  0
  3  5  1  0  0  0  0
  5  6  1  6  0  0  0
  5  7  1  0  0  0  0
  7  8  1  1  0  0  0
  7  9  1  0  0  0  0
  9 10  1  0  0  0  0
  9 11  1  6  0  0  0
 11 35  1  0  0  0  0
 12 13  1  1  0  0  0
 12 14  1  0  0  0  0
 12 20  1  0  0  0  0
 14 15  1  0  0  0  0
 14 40  1  6  0  0  0
 15 16  1  6  0  0  0
 15 17  1  0  0  0  0
 17  2  1  6  0  0  0
 17 18  1  0  0  0  0
 18 19  1  1  0  0  0
 18 20  1  0  0  0  0
 21 16  1  6  0  0  0
 21 22  1  0  0  0  0
 21 25  1  0  0  0  0
 22 23  1  0  0  0  0
 22 36  1  1  0  0  0
 23 24  1  0  0  0  0
 23 31  1  1  0  0  0
 24 25  1  0  0  0  0
 24 26  1  6  0  0  0
 26 39  1  0  0  0  0
 27 28  1  0  0  0  0
 27 32  1  0  0  0  0
 27 38  1  1  0  0  0
 28 29  1  0  0  0  0
 28 37  1  6  0  0  0
 29 30  1  0  0  0  0
 29 42  1  1  0  0  0
 30 31  1  6  0  0  0
 30 33  1  0  0  0  0
 32 33  1  0  0  0  0
 32 34  1  6  0  0  0
 34 41  1  0  0  0  0
M  CHG  6   4   1  13   1  19   1  35   1  41   1  42   1
M  END
>  <CHROM.1>
-152.42769600,13.11261223,62.56996235,-173.20958938,-179.09089876,-87.89642870
-84.91276107,-46.26883131,59.70351026,42.44735371,149.65350713,-49.06218913
68.31764449,97.91028805,-167.07303100,59.49832979,67.41820354,-51.31377180
56.99584010,-166.39810529,70.64857795,45.77249094,-4.19735333,4.88928071
2.79557049,-0.65413983,-0.55902534,-0.63265108

>  <Name>


>  <RI>
0

>  <Rbt.Current_Directory>
/home/itssahil/PROJECTS/Mol_Feturizer/New_Systems/rnas/1ei2

>  <Rbt.Executable>
rbdock ($Id: //depot/dev/client3/rdock/2013.1/src/exe/rbdock.cxx#4 $)

>  <Rbt.Library>
libRbt.so (2013.1, Build901 2013/11/27)

>  <Rbt.Parameter_File>
/export/apps/rDock/src/rDock_2013.1_src/data/scripts/dock_solv.prm

>  <Rbt.Receptor>
prm/pocket_docking_8.prm

>  <SCORE>
-61.0972

>  <SCORE.INTER>
-42.2173

>  <SCORE.INTER.CONST>
1

>  <SCORE.INTER.POLAR>
-7.26498

>  <SCORE.INTER.ROT>
9

>  <SCORE.INTER.SOLV>
27.6333

>  <SCORE.INTER.VDW>
-22.7393

>  <SCORE.INTER.norm>
-1.00517

>  <SCORE.INTRA>
-18.8806

>  <SCORE.INTRA.DIHEDRAL>
-12.7246

>  <SCORE.INTRA.DIHEDRAL.0>
40.8761

>  <SCORE.INTRA.POLAR>
-1.14879

>  <SCORE.INTRA.POLAR.0>
-0.0268208

>  <SCORE.INTRA.REPUL>
-0.641615

>  <SCORE.INTRA.REPUL.0>
0.641615

>  <SCORE.INTRA.SOLV>
-9.66142

>  <SCORE.INTRA.SOLV.lig_0>
-162.567

>  <SCORE.INTRA.VDW>
-0.57367

>  <SCORE.INTRA.VDW.0>
-4.80338

>  <SCORE.INTRA.norm>
-0.449539

>  <SCORE.RESTR>
0.000716547

>  <SCORE.RESTR.CAVITY>
0.000716547

>  <SCORE.RESTR.norm>
1.70606e-05

>  <SCORE.SYSTEM>
0

>  <SCORE.SYSTEM.CONST>
0

>  <SCORE.SYSTEM.DIHEDRAL>
0

>  <SCORE.SYSTEM.SOLV>
0

>  <SCORE.SYSTEM.norm>
0

>  <SCORE.heavy>
42

>  <SCORE.norm>
-1.45469

>  <RMSD>
7.306

$$$$

 OpenBabel11021811393D
libRbt.so/2013.1/901 2013/11/27
 42 45  0  0  0  0  0  0  0  0999 V2000
   -3.2022    2.8314   -1.2435 C   0  0  2  0  0  0  0  0  0  0  0  0
   -2.3987    2.5546   -2.4315 O   0  0  0  0  0  0  0  0  0  0  0  0
   -3.3669    4.3675   -1.0049 C   0  0  2  0  0  0  0  0  0  0  0  0
   -2.9857    5.1509   -2.2024 N   0  3  0  0  0  0  0  0  0  0  0  0
   -2.5381    4.8239    0.2336 C   0  0  1  0  0  0  0  0  0  0  0  0
   -2.7043    6.2240    0.4472 O   0  0  0  0  0  0  0  0  0  0  0  0
   -2.9687    4.0749    1.5231 C   0  0  2  0  0  0  0  0  0  0  0  0
   -1.9991    4.3157    2.5368 O   0  0  0  0  0  0  0  0  0  0  0  0
   -3.1066    2.5389    1.2677 C   0  0  2  0  0  0  0  0  0  0  0  0
   -2.5961    2.2017   -0.0631 O   0  0  0  0  0  0  0  0  0  0  0  0
   -4.5566    2.0061    1.3286 C   0  0  0  0  0  0  0  0  0  0  0  0
   -3.3619    2.2903   -6.6294 C   0  0  1  0  0  0  0  0  0  0  0  0
   -3.8822    1.8309   -7.9365 N   0  3  0  0  0  0  0  0  0  0  0  0
   -4.5100    2.7209   -5.6793 C   0  0  1  0  0  0  0  0  0  0  0  0
   -4.0308    3.0749   -4.2284 C   0  0  1  0  0  0  0  0  0  0  0  0
   -5.1996    3.1400   -3.3678 O   0  0  0  0  0  0  0  0  0  0  0  0
   -3.0509    2.0066   -3.6180 C   0  0  1  0  0  0  0  0  0  0  0  0
   -1.9341    1.5905   -4.6292 C   0  0  1  0  0  0  0  0  0  0  0  0
   -1.1045    0.4823   -4.1141 N   0  3  0  0  0  0  0  0  0  0  0  0
   -2.5235    1.1627   -5.9921 C   0  0  0  0  0  0  0  0  0  0  0  0
   -6.4976    2.7291   -3.8865 C   0  0  1  0  0  0  0  0  0  0  0  0
   -7.4996    2.7236   -2.7381 C   0  0  1  0  0  0  0  0  0  0  0  0
   -7.8267    4.2088   -2.6633 C   0  0  1  0  0  0  0  0  0  0  0  0
   -7.9120    4.5830   -4.1498 C   0  0  2  0  0  0  0  0  0  0  0  0
   -6.9822    3.7029   -4.8255 O   0  0  0  0  0  0  0  0  0  0  0  0
   -7.5446    6.0526   -4.4229 C   0  0  0  0  0  0  0  0  0  0  0  0
   -9.9526    6.0951    1.3847 C   0  0  1  0  0  0  0  0  0  0  0  0
  -10.9836    5.4983    0.3866 C   0  0  1  0  0  0  0  0  0  0  0  0
  -10.6548    4.0495   -0.0759 C   0  0  2  0  0  0  0  0  0  0  0  0
   -9.1894    3.9457   -0.6084 C   0  0  1  0  0  0  0  0  0  0  0  0
   -9.0869    4.4452   -1.9719 O   0  0  0  0  0  0  0  0  0  0  0  0
   -8.7399    5.1333    1.5705 C   0  0  1  0  0  0  0  0  0  0  0  0
   -8.2535    4.6980    0.2588 O   0  0  0  0  0  0  0  0  0  0  0  0
   -7.5756    5.7923    2.3542 C   0  0  0  0  0  0  0  0  0  0  0  0
   -5.1543    2.0185    2.6754 N   0  3  0  0  0  0  0  0  0  0  0  0
   -8.6455    1.9529   -3.1006 O   0  0  0  0  0  0  0  0  0  0  0  0
  -12.2660    5.4959    1.0127 O   0  0  0  0  0  0  0  0  0  0  0  0
   -9.5086    7.3550    0.8762 O   0  0  0  0  0  0  0  0  0  0  0  0
   -8.3602    6.9272   -3.6622 O   0  0  0  0  0  0  0  0  0  0  0  0
   -5.1611    3.8632   -6.2349 O   0  0  0  0  0  0  0  0  0  0  0  0
   -6.9305    6.8885    1.6084 N   0  3  0  0  0  0  0  0  0  0  0  0
  -11.6543    3.5528   -1.0539 N   0  3  0  0  0  0  0  0  0  0  0  0
  1  2  1  6  0  0  0
  1  3  1  0  0  0  0
  1 10  1  0  0  0  0
  3  4  1  6  0  0  0
  3  5  1  0  0  0  0
  5  6  1  1  0  0  0
  5  7  1  0  0  0  0
  7  8  1  1  0  0  0
  7  9  1  0  0  0  0
  9 10  1  0  0  0  0
  9 11  1  6  0  0  0
 11 35  1  0  0  0  0
 12 13  1  6  0  0  0
 12 14  1  0  0  0  0
 12 20  1  0  0  0  0
 14 15  1  0  0  0  0
 14 40  1  6  0  0  0
 15 16  1  1  0  0  0
 15 17  1  0  0  0  0
 17  2  1  1  0  0  0
 17 18  1  0  0  0  0
 18 19  1  1  0  0  0
 18 20  1  0  0  0  0
 21 16  1  1  0  0  0
 21 22  1  0  0  0  0
 21 25  1  0  0  0  0
 22 23  1  0  0  0  0
 22 36  1  6  0  0  0
 23 24  1  0  0  0  0
 23 31  1  1  0  0  0
 24 25  1  0  0  0  0
 24 26  1  1  0  0  0
 26 39  1  0  0  0  0
 27 28  1  0  0  0  0
 27 32  1  0  0  0  0
 27 38  1  6  0  0  0
 28 29  1  0  0  0  0
 28 37  1  1  0  0  0
 29 30  1  0  0  0  0
 29 42  1  6  0  0  0
 30 31  1  6  0  0  0
 30 33  1  0  0  0  0
 32 33  1  0  0  0  0
 32 34  1  6  0  0  0
 34 41  1  0  0  0  0
M  CHG  6   4   1  13   1  19   1  35   1  41   1  42   1
M  END
>  <CHROM.1>
-109.15391108,67.06769752,86.88120724,55.63828139,-57.51782303,-69.25464980
-51.56570137,157.59012929,-66.10210554,7.59524015,172.71186098,26.19879669
-176.73874349,58.11390572,-56.32098402,-175.75505957,66.50316807,68.84115194
-40.11856433,-170.41563170,-67.39358998,172.14436281,-5.93114093,3.86864991
-1.72884033,-0.65498719,-0.26758584,1.33198924

>  <Name>


>  <RI>
0

>  <Rbt.Current_Directory>
/home/itssahil/PROJECTS/Mol_Feturizer/New_Systems/rnas/1ei2

>  <Rbt.Executable>
rbdock ($Id: //depot/dev/client3/rdock/2013.1/src/exe/rbdock.cxx#4 $)

>  <Rbt.Library>
libRbt.so (2013.1, Build901 2013/11/27)

>  <Rbt.Parameter_File>
/export/apps/rDock/src/rDock_2013.1_src/data/scripts/dock_solv.prm

>  <Rbt.Receptor>
prm/pocket_docking_2.prm

>  <SCORE>
-25.361

>  <SCORE.INTER>
-15.3035

>  <SCORE.INTER.CONST>
1

>  <SCORE.INTER.POLAR>
-2.59133

>  <SCORE.INTER.ROT>
9

>  <SCORE.INTER.SOLV>
21.8875

>  <SCORE.INTER.VDW>
-18.4604

>  <SCORE.INTER.norm>
-0.364369

>  <SCORE.INTRA>
-15.158

>  <SCORE.INTRA.DIHEDRAL>
-18.0181

>  <SCORE.INTRA.DIHEDRAL.0>
40.8761

>  <SCORE.INTRA.POLAR>
-0.918215

>  <SCORE.INTRA.POLAR.0>
-0.0268208

>  <SCORE.INTRA.REPUL>
-0.641615

>  <SCORE.INTRA.REPUL.0>
0.641615

>  <SCORE.INTRA.SOLV>
-7.64531

>  <SCORE.INTRA.SOLV.lig_0>
-162.567

>  <SCORE.INTRA.VDW>
4.00367

>  <SCORE.INTRA.VDW.0>
-4.80338

>  <SCORE.INTRA.norm>
-0.360906

>  <SCORE.RESTR>
5.10047

>  <SCORE.RESTR.CAVITY>
5.10047

>  <SCORE.RESTR.norm>
0.12144

>  <SCORE.SYSTEM>
0

>  <SCORE.SYSTEM.CONST>
0

>  <SCORE.SYSTEM.DIHEDRAL>
0

>  <SCORE.SYSTEM.SOLV>
0

>  <SCORE.SYSTEM.norm>
0

>  <SCORE.heavy>
42

>  <SCORE.norm>
-0.603834

>  <RMSD>
7.310

$$$$

 OpenBabel11021811393D
libRbt.so/2013.1/901 2013/11/27
 42 45  0  0  0  0  0  0  0  0999 V2000
   -2.7171    2.0683   -1.4495 C   0  0  2  0  0  0  0  0  0  0  0  0
   -2.2276    1.6482   -0.1389 O   0  0  0  0  0  0  0  0  0  0  0  0
   -2.8197    0.8626   -2.4392 C   0  0  2  0  0  0  0  0  0  0  0  0
   -2.7430   -0.4352   -1.7300 N   0  3  0  0  0  0  0  0  0  0  0  0
   -1.7141    0.9537   -3.5339 C   0  0  1  0  0  0  0  0  0  0  0  0
   -1.8242   -0.1451   -4.4361 O   0  0  0  0  0  0  0  0  0  0  0  0
   -1.8162    2.2712   -4.3481 C   0  0  2  0  0  0  0  0  0  0  0  0
   -0.6287    2.4264   -5.1172 O   0  0  0  0  0  0  0  0  0  0  0  0
   -2.0110    3.5051   -3.4085 C   0  0  2  0  0  0  0  0  0  0  0  0
   -1.8406    3.1051   -2.0099 O   0  0  0  0  0  0  0  0  0  0  0  0
   -3.4019    4.1730   -3.5067 C   0  0  0  0  0  0  0  0  0  0  0  0
   -2.3979    2.6566    4.0533 C   0  0  1  0  0  0  0  0  0  0  0  0
   -2.7694    3.2693    5.3483 N   0  3  0  0  0  0  0  0  0  0  0  0
   -3.5256    1.7384    3.5136 C   0  0  1  0  0  0  0  0  0  0  0  0
   -3.2517    1.1801    2.0738 C   0  0  1  0  0  0  0  0  0  0  0  0
   -4.4906    0.6209    1.5606 O   0  0  0  0  0  0  0  0  0  0  0  0
   -2.7722    2.2822    1.0591 C   0  0  1  0  0  0  0  0  0  0  0  0
   -1.6575    3.1935    1.6674 C   0  0  1  0  0  0  0  0  0  0  0  0
   -1.3121    4.3182    0.7743 N   0  3  0  0  0  0  0  0  0  0  0  0
   -2.0735    3.7725    3.0383 C   0  0  0  0  0  0  0  0  0  0  0  0
   -5.7630    1.2098    1.9568 C   0  0  1  0  0  0  0  0  0  0  0  0
   -5.6911    2.7158    1.7343 C   0  0  1  0  0  0  0  0  0  0  0  0
   -5.9533    2.7763    0.2356 C   0  0  1  0  0  0  0  0  0  0  0  0
   -7.0621    1.7269    0.0721 C   0  0  2  0  0  0  0  0  0  0  0  0
   -6.8126    0.7358    1.0974 O   0  0  0  0  0  0  0  0  0  0  0  0
   -7.0634    1.0637   -1.3169 C   0  0  0  0  0  0  0  0  0  0  0  0
   -9.3193    6.2532    1.0727 C   0  0  1  0  0  0  0  0  0  0  0  0
   -8.2808    6.6868    0.0008 C   0  0  1  0  0  0  0  0  0  0  0  0
   -8.0850    5.6555   -1.1477 C   0  0  2  0  0  0  0  0  0  0  0  0
   -7.7888    4.2295   -0.5816 C   0  0  1  0  0  0  0  0  0  0  0  0
   -6.3962    4.1011   -0.1773 O   0  0  0  0  0  0  0  0  0  0  0  0
   -9.8144    4.7988    0.8086 C   0  0  1  0  0  0  0  0  0  0  0  0
   -8.6630    3.9236    0.5742 O   0  0  0  0  0  0  0  0  0  0  0  0
  -10.6530    4.2357    1.9849 C   0  0  0  0  0  0  0  0  0  0  0  0
   -3.3645    5.6346   -3.6903 N   0  3  0  0  0  0  0  0  0  0  0  0
   -6.7270    3.3633    2.4734 O   0  0  0  0  0  0  0  0  0  0  0  0
   -8.7102    7.9237   -0.5668 O   0  0  0  0  0  0  0  0  0  0  0  0
   -8.7027    6.3377    2.3594 O   0  0  0  0  0  0  0  0  0  0  0  0
   -5.7625    0.6248   -1.6686 O   0  0  0  0  0  0  0  0  0  0  0  0
   -3.6862    0.6362    4.4062 O   0  0  0  0  0  0  0  0  0  0  0  0
  -11.8335    5.0628    2.2952 N   0  3  0  0  0  0  0  0  0  0  0  0
   -7.0562    6.1108   -2.1154 N   0  3  0  0  0  0  0  0  0  0  0  0
  1  2  1  1  0  0  0
  1  3  1  0  0  0  0
  1 10  1  0  0  0  0
  3  4  1  1  0  0  0
  3  5  1  0  0  0  0
  5  6  1  6  0  0  0
  5  7  1  0  0  0  0
  7  8  1  1  0  0  0
  7  9  1  0  0  0  0
  9 10  1  0  0  0  0
  9 11  1  1  0  0  0
 11 35  1  0  0  0  0
 12 13  1  1  0  0  0
 12 14  1  0  0  0  0
 12 20  1  0  0  0  0
 14 15  1  0  0  0  0
 14 40  1  1  0  0  0
 15 16  1  6  0  0  0
 15 17  1  0  0  0  0
 17  2  1  6  0  0  0
 17 18  1  0  0  0  0
 18 19  1  6  0  0  0
 18 20  1  0  0  0  0
 21 16  1  6  0  0  0
 21 22  1  0  0  0  0
 21 25  1  0  0  0  0
 22 23  1  0  0  0  0
 22 36  1  1  0  0  0
 23 24  1  0  0  0  0
 23 31  1  1  0  0  0
 24 25  1  0  0  0  0
 24 26  1  6  0  0  0
 26 39  1  0  0  0  0
 27 28  1  0  0  0  0
 27 32  1  0  0  0  0
 27 38  1  1  0  0  0
 28 29  1  0  0  0  0
 28 37  1  6  0  0  0
 29 30  1  0  0  0  0
 29 42  1  6  0  0  0
 30 31  1  1  0  0  0
 30 33  1  0  0  0  0
 32 33  1  0  0  0  0
 32 34  1  1  0  0  0
 34 41  1  0  0  0  0
M  CHG  6   4   1  13   1  19   1  35   1  41   1  42   1
M  END
>  <CHROM.1>
-143.19055495,128.64971795,175.38972144,-168.27941025,-56.56786032,-130.07541832
-0.95336527,-56.01287947,76.70137958,32.10021680,50.37221064,97.57234514
-174.34163883,-109.43209641,48.98401849,-62.18865203,70.26425382,69.36017502
94.61712033,-173.65911696,57.82184923,-41.99902679,-5.03001131,3.10122247
0.01309189,0.31341582,0.51261294,-1.35383073

>  <Name>


>  <RI>
0

>  <Rbt.Current_Directory>
/home/itssahil/PROJECTS/Mol_Feturizer/New_Systems/rnas/1ei2

>  <Rbt.Executable>
rbdock ($Id: //depot/dev/client3/rdock/2013.1/src/exe/rbdock.cxx#4 $)

>  <Rbt.Library>
libRbt.so (2013.1, Build901 2013/11/27)

>  <Rbt.Parameter_File>
/export/apps/rDock/src/rDock_2013.1_src/data/scripts/dock_solv.prm

>  <Rbt.Receptor>
prm/pocket_docking_3.prm

>  <SCORE>
-41.4247

>  <SCORE.INTER>
-34.619

>  <SCORE.INTER.CONST>
1

>  <SCORE.INTER.POLAR>
-5.98822

>  <SCORE.INTER.ROT>
9

>  <SCORE.INTER.SOLV>
25.5636

>  <SCORE.INTER.VDW>
-21.2398

>  <SCORE.INTER.norm>
-0.824262

>  <SCORE.INTRA>
-8.82437

>  <SCORE.INTRA.DIHEDRAL>
-0.282862

>  <SCORE.INTRA.DIHEDRAL.0>
40.8761

>  <SCORE.INTRA.POLAR>
-1.2659

>  <SCORE.INTRA.POLAR.0>
-0.0268208

>  <SCORE.INTRA.REPUL>
-0.613235

>  <SCORE.INTRA.REPUL.0>
0.641615

>  <SCORE.INTRA.SOLV>
-6.55507

>  <SCORE.INTRA.SOLV.lig_0>
-162.567

>  <SCORE.INTRA.VDW>
1.96481

>  <SCORE.INTRA.VDW.0>
-4.80338

>  <SCORE.INTRA.norm>
-0.210104

>  <SCORE.RESTR>
2.01862

>  <SCORE.RESTR.CAVITY>
2.01862

>  <SCORE.RESTR.norm>
0.0480625

>  <SCORE.SYSTEM>
0

>  <SCORE.SYSTEM.CONST>
0

>  <SCORE.SYSTEM.DIHEDRAL>
0

>  <SCORE.SYSTEM.SOLV>
0

>  <SCORE.SYSTEM.norm>
0

>  <SCORE.heavy>
42

>  <SCORE.norm>
-0.986303

>  <RMSD>
7.312

$$$$

 OpenBabel11021811393D
libRbt.so/2013.1/901 2013/11/27
 42 45  0  0  0  0  0  0  0  0999 V2000
   -5.0409    4.0981   -3.4977 C   0  0  2  0  0  0  0  0  0  0  0  0
   -5.7058    5.3828   -3.2948 O   0  0  0  0  0  0  0  0  0  0  0  0
   -3.5463    4.2832   -3.9168 C   0  0  2  0  0  0  0  0  0  0  0  0
   -3.0751    5.6646   -3.6658 N   0  3  0  0  0  0  0  0  0  0  0  0
   -3.3430    3.8997   -5.4136 C   0  0  1  0  0  0  0  0  0  0  0  0
   -1.9749    4.0627   -5.7812 O   0  0  0  0  0  0  0  0  0  0  0  0
   -3.7559    2.4297   -5.6931 C   0  0  2  0  0  0  0  0  0  0  0  0
   -3.8239    2.2340   -7.1012 O   0  0  0  0  0  0  0  0  0  0  0  0
   -5.1349    2.0935   -5.0383 C   0  0  2  0  0  0  0  0  0  0  0  0
   -5.7540    3.3128   -4.5136 O   0  0  0  0  0  0  0  0  0  0  0  0
   -5.0587    1.0979   -3.8579 C   0  0  0  0  0  0  0  0  0  0  0  0
   -9.5656    7.2100   -2.6758 C   0  0  1  0  0  0  0  0  0  0  0  0
  -11.0204    7.4237   -2.5074 N   0  3  0  0  0  0  0  0  0  0  0  0
   -8.9601    6.4415   -1.4721 C   0  0  1  0  0  0  0  0  0  0  0  0
   -7.4523    6.0543   -1.6630 C   0  0  1  0  0  0  0  0  0  0  0  0
   -7.1017    5.0793   -0.6445 O   0  0  0  0  0  0  0  0  0  0  0  0
   -7.1479    5.4074   -3.0641 C   0  0  1  0  0  0  0  0  0  0  0  0
   -7.8065    6.2073   -4.2343 C   0  0  1  0  0  0  0  0  0  0  0  0
   -7.6480    5.5215   -5.5329 N   0  3  0  0  0  0  0  0  0  0  0  0
   -9.3141    6.4441   -3.9913 C   0  0  0  0  0  0  0  0  0  0  0  0
   -6.8075    5.5290    0.7097 C   0  0  1  0  0  0  0  0  0  0  0  0
   -6.6170    4.3047    1.5971 C   0  0  1  0  0  0  0  0  0  0  0  0
   -5.1825    3.9387    1.2412 C   0  0  1  0  0  0  0  0  0  0  0  0
   -4.5169    5.3207    1.1753 C   0  0  2  0  0  0  0  0  0  0  0  0
   -5.5531    6.2297    0.7331 O   0  0  0  0  0  0  0  0  0  0  0  0
   -3.3218    5.3678    0.2064 C   0  0  0  0  0  0  0  0  0  0  0  0
   -1.0784    1.6533    1.6095 C   0  0  1  0  0  0  0  0  0  0  0  0
   -1.8004    1.6665    2.9856 C   0  0  1  0  0  0  0  0  0  0  0  0
   -3.2491    1.0998    2.9483 C   0  0  2  0  0  0  0  0  0  0  0  0
   -4.0962    1.7889    1.8306 C   0  0  1  0  0  0  0  0  0  0  0  0
   -4.5767    3.0938    2.2616 O   0  0  0  0  0  0  0  0  0  0  0  0
   -2.0506    1.2021    0.4775 C   0  0  1  0  0  0  0  0  0  0  0  0
   -3.3086    1.9453    0.5861 O   0  0  0  0  0  0  0  0  0  0  0  0
   -1.4522    1.4145   -0.9370 C   0  0  0  0  0  0  0  0  0  0  0  0
   -4.3534   -0.1588   -4.1651 N   0  3  0  0  0  0  0  0  0  0  0  0
   -6.7363    4.6796    2.9696 O   0  0  0  0  0  0  0  0  0  0  0  0
   -1.0319    0.8903    3.9040 O   0  0  0  0  0  0  0  0  0  0  0  0
   -0.5895    2.9698    1.3431 O   0  0  0  0  0  0  0  0  0  0  0  0
   -2.5355    6.5256    0.4297 O   0  0  0  0  0  0  0  0  0  0  0  0
   -9.0770    7.2534   -0.3039 O   0  0  0  0  0  0  0  0  0  0  0  0
   -1.2804    2.8383   -1.2792 N   0  3  0  0  0  0  0  0  0  0  0  0
   -3.8948    1.1749    4.2824 N   0  3  0  0  0  0  0  0  0  0  0  0
  1  2  1  6  0  0  0
  1  3  1  0  0  0  0
  1 10  1  0  0  0  0
  3  4  1  6  0  0  0
  3  5  1  0  0  0  0
  5  6  1  1  0  0  0
  5  7  1  0  0  0  0
  7  8  1  6  0  0  0
  7  9  1  0  0  0  0
  9 10  1  0  0  0  0
  9 11  1  1  0  0  0
 11 35  1  0  0  0  0
 12 13  1  1  0  0  0
 12 14  1  0  0  0  0
 12 20  1  0  0  0  0
 14 15  1  0  0  0  0
 14 40  1  1  0  0  0
 15 16  1  1  0  0  0
 15 17  1  0  0  0  0
 17  2  1  6  0  0  0
 17 18  1  0  0  0  0
 18 19  1  6  0  0  0
 18 20  1  0  0  0  0
 21 16  1  6  0  0  0
 21 22  1  0  0  0  0
 21 25  1  0  0  0  0
 22 23  1  0  0  0  0
 22 36  1  1  0  0  0
 23 24  1  0  0  0  0
 23 31  1  1  0  0  0
 24 25  1  0  0  0  0
 24 26  1  6  0  0  0
 26 39  1  0  0  0  0
 27 28  1  0  0  0  0
 27 32  1  0  0  0  0
 27 38  1  6  0  0  0
 28 29  1  0  0  0  0
 28 37  1  1  0  0  0
 29 30  1  0  0  0  0
 29 42  1  1  0  0  0
 30 31  1  1  0  0  0
 30 33  1  0  0  0  0
 32 33  1  0  0  0  0
 32 34  1  6  0  0  0
 34 41  1  0  0  0  0
M  CHG  6   4   1  13   1  19   1  35   1  41   1  42   1
M  END
>  <CHROM.1>
172.36694310,119.82356670,169.83775757,-75.95209302,-54.80554307,-53.06556176
-166.29884134,138.55038314,64.53701655,-79.59466467,174.17462438,-20.95379077
80.45503652,121.20310578,-164.76327725,-59.23037563,66.49308035,82.23836014
59.03181963,169.78988289,-67.02066448,171.50071179,-4.86261366,3.94160411
-1.25919687,-2.39030015,-0.62752957,1.54784389

>  <Name>


>  <RI>
0

>  <Rbt.Current_Directory>
/home/itssahil/PROJECTS/Mol_Feturizer/New_Systems/rnas/1ei2

>  <Rbt.Executable>
rbdock ($Id: //depot/dev/client3/rdock/2013.1/src/exe/rbdock.cxx#4 $)

>  <Rbt.Library>
libRbt.so (2013.1, Build901 2013/11/27)

>  <Rbt.Parameter_File>
/export/apps/rDock/src/rDock_2013.1_src/data/scripts/dock_solv.prm

>  <Rbt.Receptor>
prm/pocket_docking_4.prm

>  <SCORE>
-50.5167

>  <SCORE.INTER>
-31.0333

>  <SCORE.INTER.CONST>
1

>  <SCORE.INTER.POLAR>
-4.17781

>  <SCORE.INTER.ROT>
9

>  <SCORE.INTER.SOLV>
25.0764

>  <SCORE.INTER.VDW>
-24.7216

>  <SCORE.INTER.norm>
-0.738888

>  <SCORE.INTRA>
-19.4834

>  <SCORE.INTRA.DIHEDRAL>
-10.3664

>  <SCORE.INTRA.DIHEDRAL.0>
40.8761

>  <SCORE.INTRA.POLAR>
-1.88579

>  <SCORE.INTRA.POLAR.0>
-0.0268208

>  <SCORE.INTRA.REPUL>
-0.634838

>  <SCORE.INTRA.REPUL.0>
0.641615

>  <SCORE.INTRA.SOLV>
-6.06421

>  <SCORE.INTRA.SOLV.lig_0>
-162.567

>  <SCORE.INTRA.VDW>
-1.68219

>  <SCORE.INTRA.VDW.0>
-4.80338

>  <SCORE.INTRA.norm>
-0.463889

>  <SCORE.RESTR>
0

>  <SCORE.RESTR.CAVITY>
0

>  <SCORE.RESTR.norm>
0

>  <SCORE.SYSTEM>
0

>  <SCORE.SYSTEM.CONST>
0

>  <SCORE.SYSTEM.DIHEDRAL>
0

>  <SCORE.SYSTEM.SOLV>
0

>  <SCORE.SYSTEM.norm>
0

>  <SCORE.heavy>
42

>  <SCORE.norm>
-1.20278

>  <RMSD>
7.317

$$$$

 OpenBabel11021811393D
libRbt.so/2013.1/901 2013/11/27
 42 45  0  0  0  0  0  0  0  0999 V2000
   -3.5114    3.4804   -0.4850 C   0  0  2  0  0  0  0  0  0  0  0  0
   -2.8796    3.6801   -1.7867 O   0  0  0  0  0  0  0  0  0  0  0  0
   -2.5087    3.7354    0.6869 C   0  0  2  0  0  0  0  0  0  0  0  0
   -1.2953    4.4468    0.2233 N   0  3  0  0  0  0  0  0  0  0  0  0
   -2.1242    2.3954    1.3837 C   0  0  1  0  0  0  0  0  0  0  0  0
   -1.2178    2.6418    2.4566 O   0  0  0  0  0  0  0  0  0  0  0  0
   -3.3696    1.6622    1.9500 C   0  0  2  0  0  0  0  0  0  0  0  0
   -2.9965    0.3355    2.3054 O   0  0  0  0  0  0  0  0  0  0  0  0
   -4.5326    1.6302    0.9060 C   0  0  2  0  0  0  0  0  0  0  0  0
   -4.0594    2.1210   -0.3903 O   0  0  0  0  0  0  0  0  0  0  0  0
   -5.7565    2.4967    1.2823 C   0  0  0  0  0  0  0  0  0  0  0  0
   -2.7793    2.1031   -5.8021 C   0  0  1  0  0  0  0  0  0  0  0  0
   -2.8454    1.1947   -6.9686 N   0  3  0  0  0  0  0  0  0  0  0  0
   -4.1821    2.3377   -5.1830 C   0  0  1  0  0  0  0  0  0  0  0  0
   -4.1557    3.1710   -3.8546 C   0  0  1  0  0  0  0  0  0  0  0  0
   -5.4534    3.0444   -3.2136 O   0  0  0  0  0  0  0  0  0  0  0  0
   -3.0699    2.6757   -2.8300 C   0  0  1  0  0  0  0  0  0  0  0  0
   -1.6869    2.4291   -3.5153 C   0  0  1  0  0  0  0  0  0  0  0  0
   -0.7089    1.8238   -2.5885 N   0  3  0  0  0  0  0  0  0  0  0  0
   -1.8143    1.5127   -4.7529 C   0  0  0  0  0  0  0  0  0  0  0  0
   -6.6645    3.2583   -3.9947 C   0  0  1  0  0  0  0  0  0  0  0  0
   -7.8710    3.0075   -3.0979 C   0  0  1  0  0  0  0  0  0  0  0  0
   -7.9307    4.3349   -2.3545 C   0  0  1  0  0  0  0  0  0  0  0  0
   -7.6293    5.3347   -3.4801 C   0  0  2  0  0  0  0  0  0  0  0  0
   -6.7535    4.6352   -4.3962 O   0  0  0  0  0  0  0  0  0  0  0  0
   -6.9511    6.6215   -2.9768 C   0  0  0  0  0  0  0  0  0  0  0  0
  -10.2490    6.4732    1.4069 C   0  0  1  0  0  0  0  0  0  0  0  0
  -11.2382    5.8062    0.4109 C   0  0  1  0  0  0  0  0  0  0  0  0
  -10.9020    4.3237    0.0787 C   0  0  2  0  0  0  0  0  0  0  0  0
   -9.4145    4.1701   -0.3747 C   0  0  1  0  0  0  0  0  0  0  0  0
   -9.2442    4.5607   -1.7667 O   0  0  0  0  0  0  0  0  0  0  0  0
   -9.0554    5.5218    1.7238 C   0  0  1  0  0  0  0  0  0  0  0  0
   -8.5128    4.9824    0.4743 O   0  0  0  0  0  0  0  0  0  0  0  0
   -7.9225    6.2334    2.5075 C   0  0  0  0  0  0  0  0  0  0  0  0
   -5.9735    2.6479    2.7319 N   0  3  0  0  0  0  0  0  0  0  0  0
   -9.0348    2.8039   -3.8997 O   0  0  0  0  0  0  0  0  0  0  0  0
  -12.5482    5.8602    0.9744 O   0  0  0  0  0  0  0  0  0  0  0  0
   -9.7699    7.6868    0.8233 O   0  0  0  0  0  0  0  0  0  0  0  0
   -5.5899    6.3850   -2.6608 O   0  0  0  0  0  0  0  0  0  0  0  0
   -4.9945    3.0243   -6.1348 O   0  0  0  0  0  0  0  0  0  0  0  0
   -8.1199    6.1888    3.9680 N   0  3  0  0  0  0  0  0  0  0  0  0
  -11.8598    3.7579   -0.9036 N   0  3  0  0  0  0  0  0  0  0  0  0
  1  2  1  6  0  0  0
  1  3  1  0  0  0  0
  1 10  1  0  0  0  0
  3  4  1  6  0  0  0
  3  5  1  0  0  0  0
  5  6  1  1  0  0  0
  5  7  1  0  0  0  0
  7  8  1  6  0  0  0
  7  9  1  0  0  0  0
  9 10  1  0  0  0  0
  9 11  1  1  0  0  0
 11 35  1  0  0  0  0
 12 13  1  6  0  0  0
 12 14  1  0  0  0  0
 12 20  1  0  0  0  0
 14 15  1  0  0  0  0
 14 40  1  6  0  0  0
 15 16  1  1  0  0  0
 15 17  1  0  0  0  0
 17  2  1  1  0  0  0
 17 18  1  0  0  0  0
 18 19  1  1  0  0  0
 18 20  1  0  0  0  0
 21 16  1  1  0  0  0
 21 22  1  0  0  0  0
 21 25  1  0  0  0  0
 22 23  1  0  0  0  0
 22 36  1  6  0  0  0
 23 24  1  0  0  0  0
 23 31  1  6  0  0  0
 24 25  1  0  0  0  0
 24 26  1  1  0  0  0
 26 39  1  0  0  0  0
 27 28  1  0  0  0  0
 27 32  1  0  0  0  0
 27 38  1  6  0  0  0
 28 29  1  0  0  0  0
 28 37  1  1  0  0  0
 29 30  1  0  0  0  0
 29 42  1  6  0  0  0
 30 31  1  6  0  0  0
 30 33  1  0  0  0  0
 32 33  1  0  0  0  0
 32 34  1  6  0  0  0
 34 41  1  0  0  0  0
M  CHG  6   4   1  13   1  19   1  35   1  41   1  42   1
M  END
>  <CHROM.1>
132.81223353,101.24794879,-138.23433170,-171.49595665,-60.56203278,-29.48115973
64.35584400,32.40376621,-54.74264542,-48.82579981,177.66132244,-165.25493210
-174.21564132,94.98677920,74.96295431,-60.38603232,68.03040371,-57.76251994
-174.74122018,-173.89228302,87.88919792,50.71780381,-5.93555710,3.73243084
-1.19038299,-0.43071458,-0.36700138,1.48188878

>  <Name>


>  <RI>
0

>  <Rbt.Current_Directory>
/home/itssahil/PROJECTS/Mol_Feturizer/New_Systems/rnas/1ei2

>  <Rbt.Executable>
rbdock ($Id: //depot/dev/client3/rdock/2013.1/src/exe/rbdock.cxx#4 $)

>  <Rbt.Library>
libRbt.so (2013.1, Build901 2013/11/27)

>  <Rbt.Parameter_File>
/export/apps/rDock/src/rDock_2013.1_src/data/scripts/dock_solv.prm

>  <Rbt.Receptor>
prm/pocket_docking_2.prm

>  <SCORE>
-30.832

>  <SCORE.INTER>
-19.9597

>  <SCORE.INTER.CONST>
1

>  <SCORE.INTER.POLAR>
-4.09249

>  <SCORE.INTER.ROT>
9

>  <SCORE.INTER.SOLV>
29.7663

>  <SCORE.INTER.VDW>
-19.1869

>  <SCORE.INTER.norm>
-0.47523

>  <SCORE.INTRA>
-13.9162

>  <SCORE.INTRA.DIHEDRAL>
-10.7714

>  <SCORE.INTRA.DIHEDRAL.0>
40.8761

>  <SCORE.INTRA.POLAR>
-0.389905

>  <SCORE.INTRA.POLAR.0>
-0.0268208

>  <SCORE.INTRA.REPUL>
-0.521991

>  <SCORE.INTRA.REPUL.0>
0.641615

>  <SCORE.INTRA.SOLV>
-8.41026

>  <SCORE.INTRA.SOLV.lig_0>
-162.567

>  <SCORE.INTRA.VDW>
-0.389716

>  <SCORE.INTRA.VDW.0>
-4.80338

>  <SCORE.INTRA.norm>
-0.331338

>  <SCORE.RESTR>
3.04384

>  <SCORE.RESTR.CAVITY>
3.04384

>  <SCORE.RESTR.norm>
0.0724725

>  <SCORE.SYSTEM>
0

>  <SCORE.SYSTEM.CONST>
0

>  <SCORE.SYSTEM.DIHEDRAL>
0

>  <SCORE.SYSTEM.SOLV>
0

>  <SCORE.SYSTEM.norm>
0

>  <SCORE.heavy>
42

>  <SCORE.norm>
-0.734096

>  <RMSD>
7.318

$$$$

 OpenBabel11021811393D
libRbt.so/2013.1/901 2013/11/27
 42 45  0  0  0  0  0  0  0  0999 V2000
   -3.8184    3.9191   -1.0745 C   0  0  2  0  0  0  0  0  0  0  0  0
   -3.5333    4.0335   -2.5025 O   0  0  0  0  0  0  0  0  0  0  0  0
   -2.9887    4.9461   -0.2376 C   0  0  2  0  0  0  0  0  0  0  0  0
   -2.3995    6.0006   -1.0943 N   0  3  0  0  0  0  0  0  0  0  0  0
   -1.8770    4.2203    0.5787 C   0  0  1  0  0  0  0  0  0  0  0  0
   -1.1339    5.1656    1.3454 O   0  0  0  0  0  0  0  0  0  0  0  0
   -2.4705    3.1605    1.5451 C   0  0  2  0  0  0  0  0  0  0  0  0
   -1.4117    2.3457    2.0357 O   0  0  0  0  0  0  0  0  0  0  0  0
   -3.5401    2.2746    0.8279 C   0  0  2  0  0  0  0  0  0  0  0  0
   -3.5428    2.5532   -0.6101 O   0  0  0  0  0  0  0  0  0  0  0  0
   -4.9893    2.4946    1.3194 C   0  0  0  0  0  0  0  0  0  0  0  0
   -2.7297    1.6958   -6.0394 C   0  0  1  0  0  0  0  0  0  0  0  0
   -2.5420    0.5673   -6.9783 N   0  3  0  0  0  0  0  0  0  0  0  0
   -4.2196    1.8633   -5.6414 C   0  0  1  0  0  0  0  0  0  0  0  0
   -4.4601    2.9469   -4.5333 C   0  0  1  0  0  0  0  0  0  0  0  0
   -5.8106    2.7827   -4.0234 O   0  0  0  0  0  0  0  0  0  0  0  0
   -3.4740    2.8207   -3.3142 C   0  0  1  0  0  0  0  0  0  0  0  0
   -1.9936    2.6253   -3.7760 C   0  0  1  0  0  0  0  0  0  0  0  0
   -1.0890    2.3580   -2.6393 N   0  3  0  0  0  0  0  0  0  0  0  0
   -1.8559    1.4663   -4.7887 C   0  0  0  0  0  0  0  0  0  0  0  0
   -6.9138    3.4764   -4.6750 C   0  0  1  0  0  0  0  0  0  0  0  0
   -8.2074    3.1152   -3.9545 C   0  0  1  0  0  0  0  0  0  0  0  0
   -8.1182    4.0552   -2.7600 C   0  0  1  0  0  0  0  0  0  0  0  0
   -7.5854    5.3380   -3.4139 C   0  0  2  0  0  0  0  0  0  0  0  0
   -6.7615    4.8968   -4.5194 O   0  0  0  0  0  0  0  0  0  0  0  0
   -6.7575    6.2063   -2.4496 C   0  0  0  0  0  0  0  0  0  0  0  0
  -10.2074    6.0801    1.1455 C   0  0  1  0  0  0  0  0  0  0  0  0
  -11.2663    5.5215    0.1546 C   0  0  1  0  0  0  0  0  0  0  0  0
  -11.0327    4.0388   -0.2555 C   0  0  2  0  0  0  0  0  0  0  0  0
   -9.5723    3.8176   -0.7656 C   0  0  1  0  0  0  0  0  0  0  0  0
   -9.4216    4.2625   -2.1435 O   0  0  0  0  0  0  0  0  0  0  0  0
   -9.0654    5.0448    1.3784 C   0  0  1  0  0  0  0  0  0  0  0  0
   -8.5963    4.5332    0.0882 O   0  0  0  0  0  0  0  0  0  0  0  0
   -7.8670    5.6492    2.1546 C   0  0  0  0  0  0  0  0  0  0  0  0
   -5.8531    1.3048    1.2217 N   0  3  0  0  0  0  0  0  0  0  0  0
   -9.3262    3.4283   -4.7845 O   0  0  0  0  0  0  0  0  0  0  0  0
  -12.5523    5.6276    0.7640 O   0  0  0  0  0  0  0  0  0  0  0  0
   -9.6728    7.2889    0.6014 O   0  0  0  0  0  0  0  0  0  0  0  0
   -7.5977    6.8795   -1.5278 O   0  0  0  0  0  0  0  0  0  0  0  0
   -4.9665    2.2263   -6.8024 O   0  0  0  0  0  0  0  0  0  0  0  0
   -8.1870    5.9465    3.5629 N   0  3  0  0  0  0  0  0  0  0  0  0
  -12.0536    3.5786   -1.2293 N   0  3  0  0  0  0  0  0  0  0  0  0
  1  2  1  6  0  0  0
  1  3  1  0  0  0  0
  1 10  1  0  0  0  0
  3  4  1  6  0  0  0
  3  5  1  0  0  0  0
  5  6  1  1  0  0  0
  5  7  1  0  0  0  0
  7  8  1  6  0  0  0
  7  9  1  0  0  0  0
  9 10  1  0  0  0  0
  9 11  1  1  0  0  0
 11 35  1  0  0  0  0
 12 13  1  6  0  0  0
 12 14  1  0  0  0  0
 12 20  1  0  0  0  0
 14 15  1  0  0  0  0
 14 40  1  6  0  0  0
 15 16  1  1  0  0  0
 15 17  1  0  0  0  0
 17  2  1  6  0  0  0
 17 18  1  0  0  0  0
 18 19  1  1  0  0  0
 18 20  1  0  0  0  0
 21 16  1  1  0  0  0
 21 22  1  0  0  0  0
 21 25  1  0  0  0  0
 22 23  1  0  0  0  0
 22 36  1  6  0  0  0
 23 24  1  0  0  0  0
 23 31  1  6  0  0  0
 24 25  1  0  0  0  0
 24 26  1  1  0  0  0
 26 39  1  0  0  0  0
 27 28  1  0  0  0  0
 27 32  1  0  0  0  0
 27 38  1  6  0  0  0
 28 29  1  0  0  0  0
 28 37  1  1  0  0  0
 29 30  1  0  0  0  0
 29 42  1  6  0  0  0
 30 31  1  6  0  0  0
 30 33  1  0  0  0  0
 32 33  1  0  0  0  0
 32 34  1  6  0  0  0
 34 41  1  0  0  0  0
M  CHG  6   4   1  13   1  19   1  35   1  41   1  42   1
M  END
>  <CHROM.1>
142.26271985,125.45288238,-31.18973636,-114.04715290,-59.29497573,-150.02162413
51.25324875,19.20052772,72.29403884,-88.27110951,179.25715392,-64.83807757
-168.11344483,117.41770129,-74.80739528,64.17530098,54.48469323,66.09535756
72.82202716,-177.31566894,69.45030891,-179.38240847,-5.99954194,3.88269367
-1.59565107,-0.48483269,-0.21750820,1.28904954

>  <Name>


>  <RI>
0

>  <Rbt.Current_Directory>
/home/itssahil/PROJECTS/Mol_Feturizer/New_Systems/rnas/1ei2

>  <Rbt.Executable>
rbdock ($Id: //depot/dev/client3/rdock/2013.1/src/exe/rbdock.cxx#4 $)

>  <Rbt.Library>
libRbt.so (2013.1, Build901 2013/11/27)

>  <Rbt.Parameter_File>
/export/apps/rDock/src/rDock_2013.1_src/data/scripts/dock_solv.prm

>  <Rbt.Receptor>
prm/pocket_docking_2.prm

>  <SCORE>
-42.8028

>  <SCORE.INTER>
-32.9425

>  <SCORE.INTER.CONST>
1

>  <SCORE.INTER.POLAR>
-5.95884

>  <SCORE.INTER.ROT>
9

>  <SCORE.INTER.SOLV>
31.3999

>  <SCORE.INTER.VDW>
-22.1655

>  <SCORE.INTER.norm>
-0.784344

>  <SCORE.INTRA>
-14.9838

>  <SCORE.INTRA.DIHEDRAL>
-0.250698

>  <SCORE.INTRA.DIHEDRAL.0>
40.8761

>  <SCORE.INTRA.POLAR>
-1.29027

>  <SCORE.INTRA.POLAR.0>
-0.0268208

>  <SCORE.INTRA.REPUL>
-0.627185

>  <SCORE.INTRA.REPUL.0>
0.641615

>  <SCORE.INTRA.SOLV>
-9.86574

>  <SCORE.INTRA.SOLV.lig_0>
-162.567

>  <SCORE.INTRA.VDW>
-2.40273

>  <SCORE.INTRA.VDW.0>
-4.80338

>  <SCORE.INTRA.norm>
-0.356757

>  <SCORE.RESTR>
5.12346

>  <SCORE.RESTR.CAVITY>
5.12346

>  <SCORE.RESTR.norm>
0.121987

>  <SCORE.SYSTEM>
0

>  <SCORE.SYSTEM.CONST>
0

>  <SCORE.SYSTEM.DIHEDRAL>
0

>  <SCORE.SYSTEM.SOLV>
0

>  <SCORE.SYSTEM.norm>
0

>  <SCORE.heavy>
42

>  <SCORE.norm>
-1.01911

>  <RMSD>
7.320

$$$$

 OpenBabel11021811393D
libRbt.so/2013.1/901 2013/11/27
 42 45  0  0  0  0  0  0  0  0999 V2000
   -7.3909    3.0215   -4.8332 C   0  0  2  0  0  0  0  0  0  0  0  0
   -6.3873    2.0064   -4.5232 O   0  0  0  0  0  0  0  0  0  0  0  0
   -8.5866    2.4210   -5.6417 C   0  0  2  0  0  0  0  0  0  0  0  0
   -8.5925    0.9409   -5.5910 N   0  3  0  0  0  0  0  0  0  0  0  0
   -8.5565    2.9173   -7.1187 C   0  0  1  0  0  0  0  0  0  0  0  0
   -9.6569    2.3715   -7.8430 O   0  0  0  0  0  0  0  0  0  0  0  0
   -8.6278    4.4653   -7.2082 C   0  0  2  0  0  0  0  0  0  0  0  0
   -8.3066    4.8616   -8.5369 O   0  0  0  0  0  0  0  0  0  0  0  0
   -7.6446    5.1379   -6.1961 C   0  0  2  0  0  0  0  0  0  0  0  0
   -6.7802    4.1256   -5.5851 O   0  0  0  0  0  0  0  0  0  0  0  0
   -8.3345    5.8853   -5.0317 C   0  0  0  0  0  0  0  0  0  0  0  0
   -2.1602    1.2771   -4.9910 C   0  0  1  0  0  0  0  0  0  0  0  0
   -0.7008    1.4624   -5.1533 N   0  3  0  0  0  0  0  0  0  0  0  0
   -2.6368    1.7190   -3.5826 C   0  0  1  0  0  0  0  0  0  0  0  0
   -4.1947    1.6869   -3.4035 C   0  0  1  0  0  0  0  0  0  0  0  0
   -4.5272    2.4162   -2.1916 O   0  0  0  0  0  0  0  0  0  0  0  0
   -4.9724    2.3623   -4.5922 C   0  0  1  0  0  0  0  0  0  0  0  0
   -4.4301    1.9018   -5.9839 C   0  0  1  0  0  0  0  0  0  0  0  0
   -5.0565    2.6446   -7.0965 N   0  3  0  0  0  0  0  0  0  0  0  0
   -2.8979    2.0721   -6.0885 C   0  0  0  0  0  0  0  0  0  0  0  0
   -5.0527    1.6945   -1.0402 C   0  0  1  0  0  0  0  0  0  0  0  0
   -3.8848    1.0781   -0.2793 C   0  0  1  0  0  0  0  0  0  0  0  0
   -3.4072    2.2927    0.5049 C   0  0  1  0  0  0  0  0  0  0  0  0
   -4.7377    2.9304    0.9297 C   0  0  2  0  0  0  0  0  0  0  0  0
   -5.6751    2.6129   -0.1268 O   0  0  0  0  0  0  0  0  0  0  0  0
   -4.6428    4.4557    1.1133 C   0  0  0  0  0  0  0  0  0  0  0  0
   -0.1032    2.5152    4.5051 C   0  0  1  0  0  0  0  0  0  0  0  0
   -0.0403    3.1775    3.1006 C   0  0  1  0  0  0  0  0  0  0  0  0
   -1.3762    3.8342    2.6476 C   0  0  2  0  0  0  0  0  0  0  0  0
   -2.5692    2.8331    2.7752 C   0  0  1  0  0  0  0  0  0  0  0  0
   -2.6011    1.9046    1.6544 O   0  0  0  0  0  0  0  0  0  0  0  0
   -1.5571    2.5434    5.0669 C   0  0  1  0  0  0  0  0  0  0  0  0
   -2.4888    2.0681    4.0409 O   0  0  0  0  0  0  0  0  0  0  0  0
   -1.7164    1.6767    6.3426 C   0  0  0  0  0  0  0  0  0  0  0  0
   -9.1172    7.0640   -5.4430 N   0  3  0  0  0  0  0  0  0  0  0  0
   -4.3625    0.0496    0.5882 O   0  0  0  0  0  0  0  0  0  0  0  0
    0.9752    4.1799    3.1213 O   0  0  0  0  0  0  0  0  0  0  0  0
    0.3539    1.1659    4.3893 O   0  0  0  0  0  0  0  0  0  0  0  0
   -4.7281    5.1213   -0.1351 O   0  0  0  0  0  0  0  0  0  0  0  0
   -2.0489    0.8575   -2.6082 O   0  0  0  0  0  0  0  0  0  0  0  0
   -2.2715    0.3399    6.0621 N   0  3  0  0  0  0  0  0  0  0  0  0
   -1.2607    4.4143    1.2865 N   0  3  0  0  0  0  0  0  0  0  0  0
  1  2  1  6  0  0  0
  1  3  1  0  0  0  0
  1 10  1  0  0  0  0
  3  4  1  6  0  0  0
  3  5  1  0  0  0  0
  5  6  1  6  0  0  0
  5  7  1  0  0  0  0
  7  8  1  6  0  0  0
  7  9  1  0  0  0  0
  9 10  1  0  0  0  0
  9 11  1  1  0  0  0
 11 35  1  0  0  0  0
 12 13  1  1  0  0  0
 12 14  1  0  0  0  0
 12 20  1  0  0  0  0
 14 15  1  0  0  0  0
 14 40  1  1  0  0  0
 15 16  1  1  0  0  0
 15 17  1  0  0  0  0
 17  2  1  6  0  0  0
 17 18  1  0  0  0  0
 18 19  1  6  0  0  0
 18 20  1  0  0  0  0
 21 16  1  6  0  0  0
 21 22  1  0  0  0  0
 21 25  1  0  0  0  0
 22 23  1  0  0  0  0
 22 36  1  1  0  0  0
 23 24  1  0  0  0  0
 23 31  1  1  0  0  0
 24 25  1  0  0  0  0
 24 26  1  6  0  0  0
 26 39  1  0  0  0  0
 27 28  1  0  0  0  0
 27 32  1  0  0  0  0
 27 38  1  6  0  0  0
 28 29  1  0  0  0  0
 28 37  1  1  0  0  0
 29 30  1  0  0  0  0
 29 42  1  6  0  0  0
 30 31  1  6  0  0  0
 30 33  1  0  0  0  0
 32 33  1  0  0  0  0
 32 34  1  1  0  0  0
 34 41  1  0  0  0  0
M  CHG  6   4   1  13   1  19   1  35   1  41   1  42   1
M  END
>  <CHROM.1>
140.95841099,140.43773489,8.68300699,67.83027544,67.06586621,-65.59819712
-169.11930494,38.99662750,156.38832774,-111.63064134,81.70186996,115.87218690
60.29073313,-154.04897168,80.90073765,-60.36513232,-78.19343302,-57.65258315
104.41702382,-91.67733382,-97.93537747,-52.14894559,-4.35537678,2.72529464
-1.74091869,2.17970224,0.45827984,-1.75358778

>  <Name>


>  <RI>
0

>  <Rbt.Current_Directory>
/home/itssahil/PROJECTS/Mol_Feturizer/New_Systems/rnas/1ei2

>  <Rbt.Executable>
rbdock ($Id: //depot/dev/client3/rdock/2013.1/src/exe/rbdock.cxx#4 $)

>  <Rbt.Library>
libRbt.so (2013.1, Build901 2013/11/27)

>  <Rbt.Parameter_File>
/export/apps/rDock/src/rDock_2013.1_src/data/scripts/dock_solv.prm

>  <Rbt.Receptor>
prm/pocket_docking_7.prm

>  <SCORE>
-39.2199

>  <SCORE.INTER>
-35.4803

>  <SCORE.INTER.CONST>
1

>  <SCORE.INTER.POLAR>
-6.83216

>  <SCORE.INTER.ROT>
9

>  <SCORE.INTER.SOLV>
28.6328

>  <SCORE.INTER.VDW>
-20.024

>  <SCORE.INTER.norm>
-0.844769

>  <SCORE.INTRA>
-3.83139

>  <SCORE.INTRA.DIHEDRAL>
7.02564

>  <SCORE.INTRA.DIHEDRAL.0>
40.8761

>  <SCORE.INTRA.POLAR>
-1.48662

>  <SCORE.INTRA.POLAR.0>
-0.0268208

>  <SCORE.INTRA.REPUL>
-0.641615

>  <SCORE.INTRA.REPUL.0>
0.641615

>  <SCORE.INTRA.SOLV>
-4.16275

>  <SCORE.INTRA.SOLV.lig_0>
-162.567

>  <SCORE.INTRA.VDW>
2.99974

>  <SCORE.INTRA.VDW.0>
-4.80338

>  <SCORE.INTRA.norm>
-0.0912235

>  <SCORE.RESTR>
0.0918306

>  <SCORE.RESTR.CAVITY>
0.0918306

>  <SCORE.RESTR.norm>
0.00218644

>  <SCORE.SYSTEM>
0

>  <SCORE.SYSTEM.CONST>
0

>  <SCORE.SYSTEM.DIHEDRAL>
0

>  <SCORE.SYSTEM.SOLV>
0

>  <SCORE.SYSTEM.norm>
0

>  <SCORE.heavy>
42

>  <SCORE.norm>
-0.933807

>  <RMSD>
7.328

$$$$

 OpenBabel11021811393D
libRbt.so/2013.1/901 2013/11/27
 42 45  0  0  0  0  0  0  0  0999 V2000
   -3.8751   -0.7192   -3.6671 C   0  0  2  0  0  0  0  0  0  0  0  0
   -2.8092   -1.6283   -4.0808 O   0  0  0  0  0  0  0  0  0  0  0  0
   -3.4628    0.1189   -2.4135 C   0  0  2  0  0  0  0  0  0  0  0  0
   -2.0036    0.0549   -2.1687 N   0  3  0  0  0  0  0  0  0  0  0  0
   -4.2497   -0.3522   -1.1535 C   0  0  1  0  0  0  0  0  0  0  0  0
   -3.8729    0.4258   -0.0194 O   0  0  0  0  0  0  0  0  0  0  0  0
   -5.7840   -0.2236   -1.3508 C   0  0  2  0  0  0  0  0  0  0  0  0
   -6.4401   -0.9287   -0.3028 O   0  0  0  0  0  0  0  0  0  0  0  0
   -6.2272   -0.7916   -2.7380 C   0  0  2  0  0  0  0  0  0  0  0  0
   -5.1038   -1.4729   -3.3855 O   0  0  0  0  0  0  0  0  0  0  0  0
   -6.7274    0.2760   -3.7381 C   0  0  0  0  0  0  0  0  0  0  0  0
   -1.9463   -4.6922   -6.9940 C   0  0  1  0  0  0  0  0  0  0  0  0
   -2.0687   -5.8395   -7.9209 N   0  3  0  0  0  0  0  0  0  0  0  0
   -2.7574   -3.4680   -7.4934 C   0  0  1  0  0  0  0  0  0  0  0  0
   -2.7877   -2.2728   -6.4782 C   0  0  1  0  0  0  0  0  0  0  0  0
   -3.8209   -1.3435   -6.9021 O   0  0  0  0  0  0  0  0  0  0  0  0
   -3.1216   -2.7145   -5.0059 C   0  0  1  0  0  0  0  0  0  0  0  0
   -2.2965   -3.9680   -4.5688 C   0  0  1  0  0  0  0  0  0  0  0  0
   -2.7148   -4.4732   -3.2453 N   0  3  0  0  0  0  0  0  0  0  0  0
   -2.4198   -5.1214   -5.5897 C   0  0  0  0  0  0  0  0  0  0  0  0
   -3.4506   -0.1511   -7.6530 C   0  0  1  0  0  0  0  0  0  0  0  0
   -4.3437    1.0004   -7.2066 C   0  0  1  0  0  0  0  0  0  0  0  0
   -3.6361    1.4027   -5.9198 C   0  0  1  0  0  0  0  0  0  0  0  0
   -2.1607    1.2963   -6.3308 C   0  0  2  0  0  0  0  0  0  0  0  0
   -2.1087    0.2416   -7.3211 O   0  0  0  0  0  0  0  0  0  0  0  0
   -1.2297    0.9622   -5.1514 C   0  0  0  0  0  0  0  0  0  0  0  0
   -3.3599    5.3485   -2.7541 C   0  0  1  0  0  0  0  0  0  0  0  0
   -4.4215    5.4794   -3.8815 C   0  0  1  0  0  0  0  0  0  0  0  0
   -5.3428    4.2348   -4.0341 C   0  0  2  0  0  0  0  0  0  0  0  0
   -4.5031    2.9233   -4.1634 C   0  0  1  0  0  0  0  0  0  0  0  0
   -3.9896    2.7568   -5.5154 O   0  0  0  0  0  0  0  0  0  0  0  0
   -3.3817    3.9178   -2.1353 C   0  0  1  0  0  0  0  0  0  0  0  0
   -3.3718    2.9193   -3.2075 O   0  0  0  0  0  0  0  0  0  0  0  0
   -2.1802    3.6632   -1.1889 C   0  0  0  0  0  0  0  0  0  0  0  0
   -8.1895    0.4583   -3.7541 N   0  3  0  0  0  0  0  0  0  0  0  0
   -4.3022    2.0477   -8.1762 O   0  0  0  0  0  0  0  0  0  0  0  0
   -5.2365    6.6169   -3.6016 O   0  0  0  0  0  0  0  0  0  0  0  0
   -2.0728    5.6246   -3.3112 O   0  0  0  0  0  0  0  0  0  0  0  0
   -0.9702    2.1157   -4.3699 O   0  0  0  0  0  0  0  0  0  0  0  0
   -2.1877   -3.0094   -8.7192 O   0  0  0  0  0  0  0  0  0  0  0  0
   -2.2234    4.4932    0.0289 N   0  3  0  0  0  0  0  0  0  0  0  0
   -6.3070    4.4077   -5.1488 N   0  3  0  0  0  0  0  0  0  0  0  0
  1  2  1  1  0  0  0
  1  3  1  0  0  0  0
  1 10  1  0  0  0  0
  3  4  1  1  0  0  0
  3  5  1  0  0  0  0
  5  6  1  1  0  0  0
  5  7  1  0  0  0  0
  7  8  1  1  0  0  0
  7  9  1  0  0  0  0
  9 10  1  0  0  0  0
  9 11  1  6  0  0  0
 11 35  1  0  0  0  0
 12 13  1  6  0  0  0
 12 14  1  0  0  0  0
 12 20  1  0  0  0  0
 14 15  1  0  0  0  0
 14 40  1  6  0  0  0
 15 16  1  6  0  0  0
 15 17  1  0  0  0  0
 17  2  1  1  0  0  0
 17 18  1  0  0  0  0
 18 19  1  1  0  0  0
 18 20  1  0  0  0  0
 21 16  1  1  0  0  0
 21 22  1  0  0  0  0
 21 25  1  0  0  0  0
 22 23  1  0  0  0  0
 22 36  1  6  0  0  0
 23 24  1  0  0  0  0
 23 31  1  6  0  0  0
 24 25  1  0  0  0  0
 24 26  1  1  0  0  0
 26 39  1  0  0  0  0
 27 28  1  0  0  0  0
 27 32  1  0  0  0  0
 27 38  1  6  0  0  0
 28 29  1  0  0  0  0
 28 37  1  1  0  0  0
 29 30  1  0  0  0  0
 29 42  1  6  0  0  0
 30 31  1  6  0  0  0
 30 33  1  0  0  0  0
 32 33  1  0  0  0  0
 32 34  1  1  0  0  0
 34 41  1  0  0  0  0
M  CHG  6   4   1  13   1  19   1  35   1  41   1  42   1
M  END
>  <CHROM.1>
164.78457580,95.62708244,17.97596948,-74.87885618,69.62714312,-95.15447971
-178.92340095,-59.44078308,77.10883627,-99.12664658,-142.87724566,-53.11369907
-55.76741770,125.79862610,-78.76370403,69.48751549,-55.03691845,-62.04967412
-91.52465452,-157.75924203,66.68062648,49.86494011,-3.65476070,0.49313702
-4.32858112,0.90172252,-1.31635449,2.92661344

>  <Name>


>  <RI>
0

>  <Rbt.Current_Directory>
/home/itssahil/PROJECTS/Mol_Feturizer/New_Systems/rnas/1ei2

>  <Rbt.Executable>
rbdock ($Id: //depot/dev/client3/rdock/2013.1/src/exe/rbdock.cxx#4 $)

>  <Rbt.Library>
libRbt.so (2013.1, Build901 2013/11/27)

>  <Rbt.Parameter_File>
/export/apps/rDock/src/rDock_2013.1_src/data/scripts/dock_solv.prm

>  <Rbt.Receptor>
prm/blind_docking_60.prm

>  <SCORE>
-22.6996

>  <SCORE.INTER>
-26.1606

>  <SCORE.INTER.CONST>
1

>  <SCORE.INTER.POLAR>
-5.23751

>  <SCORE.INTER.ROT>
9

>  <SCORE.INTER.SOLV>
35.6317

>  <SCORE.INTER.VDW>
-21.4593

>  <SCORE.INTER.norm>
-0.622872

>  <SCORE.INTRA>
-17.0988

>  <SCORE.INTRA.DIHEDRAL>
-2.28725

>  <SCORE.INTRA.DIHEDRAL.0>
40.8761

>  <SCORE.INTRA.POLAR>
-1.19874

>  <SCORE.INTRA.POLAR.0>
-0.0268208

>  <SCORE.INTRA.REPUL>
-0.641615

>  <SCORE.INTRA.REPUL.0>
0.641615

>  <SCORE.INTRA.SOLV>
-7.01884

>  <SCORE.INTRA.SOLV.lig_0>
-162.567

>  <SCORE.INTRA.VDW>
-5.16196

>  <SCORE.INTRA.VDW.0>
-4.80338

>  <SCORE.INTRA.norm>
-0.407114

>  <SCORE.RESTR>
20.5598

>  <SCORE.RESTR.CAVITY>
20.5598

>  <SCORE.RESTR.norm>
0.489518

>  <SCORE.SYSTEM>
0

>  <SCORE.SYSTEM.CONST>
0

>  <SCORE.SYSTEM.DIHEDRAL>
0

>  <SCORE.SYSTEM.SOLV>
0

>  <SCORE.SYSTEM.norm>
0

>  <SCORE.heavy>
42

>  <SCORE.norm>
-0.540467

>  <RMSD>
7.331

$$$$

 OpenBabel11021811393D
libRbt.so/2013.1/901 2013/11/27
 42 45  0  0  0  0  0  0  0  0999 V2000
   -6.6995    2.0772   -6.2158 C   0  0  2  0  0  0  0  0  0  0  0  0
   -5.5393    2.2179   -7.0921 O   0  0  0  0  0  0  0  0  0  0  0  0
   -7.9955    2.6442   -6.8811 C   0  0  2  0  0  0  0  0  0  0  0  0
   -7.8165    2.8540   -8.3361 N   0  3  0  0  0  0  0  0  0  0  0  0
   -8.4356    3.9688   -6.1878 C   0  0  1  0  0  0  0  0  0  0  0  0
   -9.6236    4.4707   -6.7961 O   0  0  0  0  0  0  0  0  0  0  0  0
   -8.7068    3.7641   -4.6732 C   0  0  2  0  0  0  0  0  0  0  0  0
   -8.8164    5.0400   -4.0521 O   0  0  0  0  0  0  0  0  0  0  0  0
   -7.5649    2.9364   -3.9992 C   0  0  2  0  0  0  0  0  0  0  0  0
   -6.4538    2.7549   -4.9362 O   0  0  0  0  0  0  0  0  0  0  0  0
   -7.9844    1.5217   -3.5379 C   0  0  0  0  0  0  0  0  0  0  0  0
   -3.5017   -1.5856   -7.0572 C   0  0  1  0  0  0  0  0  0  0  0  0
   -2.4567   -2.6316   -6.9906 N   0  3  0  0  0  0  0  0  0  0  0  0
   -3.7010   -0.8921   -5.6841 C   0  0  1  0  0  0  0  0  0  0  0  0
   -4.6882    0.3259   -5.7284 C   0  0  1  0  0  0  0  0  0  0  0  0
   -4.5407    1.0747   -4.4920 O   0  0  0  0  0  0  0  0  0  0  0  0
   -4.4047    1.3145   -6.9186 C   0  0  1  0  0  0  0  0  0  0  0  0
   -4.1839    0.5582   -8.2685 C   0  0  1  0  0  0  0  0  0  0  0  0
   -3.7715    1.4708   -9.3543 N   0  3  0  0  0  0  0  0  0  0  0  0
   -3.1178   -0.5526   -8.1370 C   0  0  0  0  0  0  0  0  0  0  0  0
   -3.2304    1.1710   -3.8623 C   0  0  1  0  0  0  0  0  0  0  0  0
   -3.0798    2.5656   -3.2662 C   0  0  1  0  0  0  0  0  0  0  0  0
   -3.8604    2.3872   -1.9711 C   0  0  1  0  0  0  0  0  0  0  0  0
   -3.4137    0.9861   -1.5301 C   0  0  2  0  0  0  0  0  0  0  0  0
   -3.1496    0.2597   -2.7541 O   0  0  0  0  0  0  0  0  0  0  0  0
   -4.4773    0.2498   -0.6958 C   0  0  0  0  0  0  0  0  0  0  0  0
   -5.6922    5.9138    0.9238 C   0  0  1  0  0  0  0  0  0  0  0  0
   -4.1582    5.7408    1.1039 C   0  0  1  0  0  0  0  0  0  0  0  0
   -3.3548    5.7712   -0.2284 C   0  0  2  0  0  0  0  0  0  0  0  0
   -3.9447    4.7631   -1.2665 C   0  0  1  0  0  0  0  0  0  0  0  0
   -3.5067    3.4029   -0.9887 O   0  0  0  0  0  0  0  0  0  0  0  0
   -6.0747    5.9301   -0.5874 C   0  0  1  0  0  0  0  0  0  0  0  0
   -5.4252    4.8083   -1.2700 O   0  0  0  0  0  0  0  0  0  0  0  0
   -7.6066    5.8468   -0.8117 C   0  0  0  0  0  0  0  0  0  0  0  0
   -8.9703    1.5052   -2.4429 N   0  3  0  0  0  0  0  0  0  0  0  0
   -1.7009    2.8363   -3.0131 O   0  0  0  0  0  0  0  0  0  0  0  0
   -3.6831    6.7908    1.9455 O   0  0  0  0  0  0  0  0  0  0  0  0
   -6.3498    4.8316    1.5867 O   0  0  0  0  0  0  0  0  0  0  0  0
   -4.2909   -1.1535   -0.7642 O   0  0  0  0  0  0  0  0  0  0  0  0
   -4.2035   -1.8514   -4.7543 O   0  0  0  0  0  0  0  0  0  0  0  0
   -8.3140    7.0733   -0.4004 N   0  3  0  0  0  0  0  0  0  0  0  0
   -1.9046    5.5638    0.0085 N   0  3  0  0  0  0  0  0  0  0  0  0
  1  2  1  6  0  0  0
  1  3  1  0  0  0  0
  1 10  1  0  0  0  0
  3  4  1  6  0  0  0
  3  5  1  0  0  0  0
  5  6  1  6  0  0  0
  5  7  1  0  0  0  0
  7  8  1  1  0  0  0
  7  9  1  0  0  0  0
  9 10  1  0  0  0  0
  9 11  1  6  0  0  0
 11 35  1  0  0  0  0
 12 13  1  1  0  0  0
 12 14  1  0  0  0  0
 12 20  1  0  0  0  0
 14 15  1  0  0  0  0
 14 40  1  1  0  0  0
 15 16  1  1  0  0  0
 15 17  1  0  0  0  0
 17  2  1  6  0  0  0
 17 18  1  0  0  0  0
 18 19  1  6  0  0  0
 18 20  1  0  0  0  0
 21 16  1  1  0  0  0
 21 22  1  0  0  0  0
 21 25  1  0  0  0  0
 22 23  1  0  0  0  0
 22 36  1  1  0  0  0
 23 24  1  0  0  0  0
 23 31  1  1  0  0  0
 24 25  1  0  0  0  0
 24 26  1  6  0  0  0
 26 39  1  0  0  0  0
 27 28  1  0  0  0  0
 27 32  1  0  0  0  0
 27 38  1  1  0  0  0
 28 29  1  0  0  0  0
 28 37  1  1  0  0  0
 29 30  1  0  0  0  0
 29 42  1  1  0  0  0
 30 31  1  1  0  0  0
 30 33  1  0  0  0  0
 32 33  1  0  0  0  0
 32 34  1  1  0  0  0
 34 41  1  0  0  0  0
M  CHG  6   4   1  13   1  19   1  35   1  41   1  42   1
M  END
>  <CHROM.1>
-155.59104282,-0.78934127,-175.76080158,67.90250595,65.25278856,-66.22446905
168.96959902,-14.27002850,61.89836425,34.52330950,142.85551730,-59.53287444
161.51629699,70.10147920,156.50108695,-165.18014459,-64.28164140,61.46976883
-122.15830318,-173.16823468,69.89683211,174.31497801,-5.26203187,2.59781834
-3.55844812,1.48680514,0.61031307,-2.15316005

>  <Name>


>  <RI>
0

>  <Rbt.Current_Directory>
/home/itssahil/PROJECTS/Mol_Feturizer/New_Systems/rnas/1ei2

>  <Rbt.Executable>
rbdock ($Id: //depot/dev/client3/rdock/2013.1/src/exe/rbdock.cxx#4 $)

>  <Rbt.Library>
libRbt.so (2013.1, Build901 2013/11/27)

>  <Rbt.Parameter_File>
/export/apps/rDock/src/rDock_2013.1_src/data/scripts/dock_solv.prm

>  <Rbt.Receptor>
prm/pocket_docking_8.prm

>  <SCORE>
-40.7717

>  <SCORE.INTER>
-28.4178

>  <SCORE.INTER.CONST>
1

>  <SCORE.INTER.POLAR>
-5.16485

>  <SCORE.INTER.ROT>
9

>  <SCORE.INTER.SOLV>
20.2858

>  <SCORE.INTER.VDW>
-18.091

>  <SCORE.INTER.norm>
-0.676615

>  <SCORE.INTRA>
-12.3538

>  <SCORE.INTRA.DIHEDRAL>
-9.67528

>  <SCORE.INTRA.DIHEDRAL.0>
40.8761

>  <SCORE.INTRA.POLAR>
-0.0398827

>  <SCORE.INTRA.POLAR.0>
-0.0268208

>  <SCORE.INTRA.REPUL>
-0.626369

>  <SCORE.INTRA.REPUL.0>
0.641615

>  <SCORE.INTRA.SOLV>
-12.3025

>  <SCORE.INTRA.SOLV.lig_0>
-162.567

>  <SCORE.INTRA.VDW>
1.90251

>  <SCORE.INTRA.VDW.0>
-4.80338

>  <SCORE.INTRA.norm>
-0.294139

>  <SCORE.RESTR>
0

>  <SCORE.RESTR.CAVITY>
0

>  <SCORE.RESTR.norm>
0

>  <SCORE.SYSTEM>
0

>  <SCORE.SYSTEM.CONST>
0

>  <SCORE.SYSTEM.DIHEDRAL>
0

>  <SCORE.SYSTEM.SOLV>
0

>  <SCORE.SYSTEM.norm>
0

>  <SCORE.heavy>
42

>  <SCORE.norm>
-0.970754

>  <RMSD>
7.331

$$$$

 OpenBabel11021811393D
libRbt.so/2013.1/901 2013/11/27
 42 45  0  0  0  0  0  0  0  0999 V2000
   -4.6474    1.4896   -5.5825 C   0  0  2  0  0  0  0  0  0  0  0  0
   -3.2057    1.3326   -5.4078 O   0  0  0  0  0  0  0  0  0  0  0  0
   -4.9825    2.4255   -6.7890 C   0  0  2  0  0  0  0  0  0  0  0  0
   -3.8049    2.6347   -7.6624 N   0  3  0  0  0  0  0  0  0  0  0  0
   -5.5408    3.7914   -6.2874 C   0  0  1  0  0  0  0  0  0  0  0  0
   -5.8522    4.6320   -7.3964 O   0  0  0  0  0  0  0  0  0  0  0  0
   -6.8230    3.6106   -5.4315 C   0  0  2  0  0  0  0  0  0  0  0  0
   -7.1101    4.8395   -4.7734 O   0  0  0  0  0  0  0  0  0  0  0  0
   -6.6465    2.4680   -4.3795 C   0  0  2  0  0  0  0  0  0  0  0  0
   -5.2527    2.0184   -4.3533 O   0  0  0  0  0  0  0  0  0  0  0  0
   -7.5070    1.2117   -4.6465 C   0  0  0  0  0  0  0  0  0  0  0  0
   -2.9921   -2.9767   -5.4759 C   0  0  1  0  0  0  0  0  0  0  0  0
   -2.5483   -4.3756   -5.2848 N   0  3  0  0  0  0  0  0  0  0  0  0
   -3.4094   -2.3233   -4.1324 C   0  0  1  0  0  0  0  0  0  0  0  0
   -3.7461   -0.7959   -4.2497 C   0  0  1  0  0  0  0  0  0  0  0  0
   -3.7990   -0.2386   -2.9090 O   0  0  0  0  0  0  0  0  0  0  0  0
   -2.6716    0.0183   -5.0601 C   0  0  1  0  0  0  0  0  0  0  0  0
   -2.2696   -0.7018   -6.3878 C   0  0  1  0  0  0  0  0  0  0  0  0
   -1.1561   -0.0164   -7.0751 N   0  3  0  0  0  0  0  0  0  0  0  0
   -1.8578   -2.1709   -6.1427 C   0  0  0  0  0  0  0  0  0  0  0  0
   -2.5899   -0.2050   -2.0967 C   0  0  1  0  0  0  0  0  0  0  0  0
   -1.9873    1.1924   -2.1810 C   0  0  1  0  0  0  0  0  0  0  0  0
   -2.8682    1.9231   -1.1767 C   0  0  1  0  0  0  0  0  0  0  0  0
   -2.9902    0.8814   -0.0555 C   0  0  2  0  0  0  0  0  0  0  0  0
   -2.9218   -0.4064   -0.7131 O   0  0  0  0  0  0  0  0  0  0  0  0
   -4.3036    1.0020    0.7381 C   0  0  0  0  0  0  0  0  0  0  0  0
   -0.6734    4.4172    2.5593 C   0  0  1  0  0  0  0  0  0  0  0  0
   -0.8560    5.2608    1.2669 C   0  0  1  0  0  0  0  0  0  0  0  0
   -2.2965    5.2201    0.6800 C   0  0  2  0  0  0  0  0  0  0  0  0
   -2.7912    3.7488    0.4995 C   0  0  1  0  0  0  0  0  0  0  0  0
   -2.2408    3.1517   -0.7087 O   0  0  0  0  0  0  0  0  0  0  0  0
   -1.9646    3.6038    2.8777 C   0  0  1  0  0  0  0  0  0  0  0  0
   -2.4221    2.9162    1.6675 O   0  0  0  0  0  0  0  0  0  0  0  0
   -1.7459    2.5624    4.0053 C   0  0  0  0  0  0  0  0  0  0  0  0
   -8.9227    1.4943   -4.9419 N   0  3  0  0  0  0  0  0  0  0  0  0
   -0.6252    1.1575   -1.7545 O   0  0  0  0  0  0  0  0  0  0  0  0
   -0.5242    6.6165    1.5643 O   0  0  0  0  0  0  0  0  0  0  0  0
    0.4321    3.5315    2.3683 O   0  0  0  0  0  0  0  0  0  0  0  0
   -5.4110    0.6098   -0.0547 O   0  0  0  0  0  0  0  0  0  0  0  0
   -4.5576   -3.0049   -3.6279 O   0  0  0  0  0  0  0  0  0  0  0  0
   -1.6841    3.1730    5.3459 N   0  3  0  0  0  0  0  0  0  0  0  0
   -2.3948    6.0131   -0.5705 N   0  3  0  0  0  0  0  0  0  0  0  0
  1  2  1  1  0  0  0
  1  3  1  0  0  0  0
  1 10  1  0  0  0  0
  3  4  1  1  0  0  0
  3  5  1  0  0  0  0
  5  6  1  6  0  0  0
  5  7  1  0  0  0  0
  7  8  1  1  0  0  0
  7  9  1  0  0  0  0
  9 10  1  0  0  0  0
  9 11  1  6  0  0  0
 11 35  1  0  0  0  0
 12 13  1  1  0  0  0
 12 14  1  0  0  0  0
 12 20  1  0  0  0  0
 14 15  1  0  0  0  0
 14 40  1  6  0  0  0
 15 16  1  1  0  0  0
 15 17  1  0  0  0  0
 17  2  1  6  0  0  0
 17 18  1  0  0  0  0
 18 19  1  1  0  0  0
 18 20  1  0  0  0  0
 21 16  1  6  0  0  0
 21 22  1  0  0  0  0
 21 25  1  0  0  0  0
 22 23  1  0  0  0  0
 22 36  1  1  0  0  0
 23 24  1  0  0  0  0
 23 31  1  1  0  0  0
 24 25  1  0  0  0  0
 24 26  1  6  0  0  0
 26 39  1  0  0  0  0
 27 28  1  0  0  0  0
 27 32  1  0  0  0  0
 27 38  1  6  0  0  0
 28 29  1  0  0  0  0
 28 37  1  1  0  0  0
 29 30  1  0  0  0  0
 29 42  1  6  0  0  0
 30 31  1  6  0  0  0
 30 33  1  0  0  0  0
 32 33  1  0  0  0  0
 32 34  1  1  0  0  0
 34 41  1  0  0  0  0
M  CHG  6   4   1  13   1  19   1  35   1  41   1  42   1
M  END
>  <CHROM.1>
-139.92890670,-28.65733638,-30.79554605,-158.31719343,-61.10697701,-47.91625021
-42.50945787,57.65793446,-53.05701433,64.83979258,99.01592730,-68.09755576
-40.18267927,-163.80749340,69.71499554,73.41104082,66.87597982,85.47248901
-131.75911858,-165.11821314,75.45702320,-71.54631871,-3.38197366,1.72804207
-2.46443563,2.18951167,0.97909417,-2.50714237

>  <Name>


>  <RI>
0

>  <Rbt.Current_Directory>
/home/itssahil/PROJECTS/Mol_Feturizer/New_Systems/rnas/1ei2

>  <Rbt.Executable>
rbdock ($Id: //depot/dev/client3/rdock/2013.1/src/exe/rbdock.cxx#4 $)

>  <Rbt.Library>
libRbt.so (2013.1, Build901 2013/11/27)

>  <Rbt.Parameter_File>
/export/apps/rDock/src/rDock_2013.1_src/data/scripts/dock_solv.prm

>  <Rbt.Receptor>
prm/pocket_docking_8.prm

>  <SCORE>
-56.6985

>  <SCORE.INTER>
-44.7619

>  <SCORE.INTER.CONST>
1

>  <SCORE.INTER.POLAR>
-7.2261

>  <SCORE.INTER.ROT>
9

>  <SCORE.INTER.SOLV>
35.7834

>  <SCORE.INTER.VDW>
-27.2821

>  <SCORE.INTER.norm>
-1.06576

>  <SCORE.INTRA>
-11.9366

>  <SCORE.INTRA.DIHEDRAL>
-7.66305

>  <SCORE.INTRA.DIHEDRAL.0>
40.8761

>  <SCORE.INTRA.POLAR>
-0.376654

>  <SCORE.INTRA.POLAR.0>
-0.0268208

>  <SCORE.INTRA.REPUL>
-0.63618

>  <SCORE.INTRA.REPUL.0>
0.641615

>  <SCORE.INTRA.SOLV>
-11.4054

>  <SCORE.INTRA.SOLV.lig_0>
-162.567

>  <SCORE.INTRA.VDW>
2.05918

>  <SCORE.INTRA.VDW.0>
-4.80338

>  <SCORE.INTRA.norm>
-0.284204

>  <SCORE.RESTR>
0

>  <SCORE.RESTR.CAVITY>
0

>  <SCORE.RESTR.norm>
0

>  <SCORE.SYSTEM>
0

>  <SCORE.SYSTEM.CONST>
0

>  <SCORE.SYSTEM.DIHEDRAL>
0

>  <SCORE.SYSTEM.SOLV>
0

>  <SCORE.SYSTEM.norm>
0

>  <SCORE.heavy>
42

>  <SCORE.norm>
-1.34996

>  <RMSD>
7.336

$$$$

 OpenBabel11021811393D
libRbt.so/2013.1/901 2013/11/27
 42 45  0  0  0  0  0  0  0  0999 V2000
   -5.4789    5.0349   -1.2886 C   0  0  2  0  0  0  0  0  0  0  0  0
   -4.1290    5.3749   -0.8462 O   0  0  0  0  0  0  0  0  0  0  0  0
   -6.5407    5.3365   -0.1815 C   0  0  2  0  0  0  0  0  0  0  0  0
   -5.9881    6.2036    0.8843 N   0  3  0  0  0  0  0  0  0  0  0  0
   -7.0957    4.0121    0.4240 C   0  0  1  0  0  0  0  0  0  0  0  0
   -8.0700    4.2997    1.4248 O   0  0  0  0  0  0  0  0  0  0  0  0
   -7.7523    3.1141   -0.6585 C   0  0  2  0  0  0  0  0  0  0  0  0
   -7.9713    1.8202   -0.1075 O   0  0  0  0  0  0  0  0  0  0  0  0
   -6.8511    3.0088   -1.9313 C   0  0  2  0  0  0  0  0  0  0  0  0
   -5.5446    3.6195   -1.6754 O   0  0  0  0  0  0  0  0  0  0  0  0
   -7.4250    3.7108   -3.1835 C   0  0  0  0  0  0  0  0  0  0  0  0
   -2.1215    2.8849   -3.7427 C   0  0  1  0  0  0  0  0  0  0  0  0
   -1.0961    2.2829   -4.6239 N   0  3  0  0  0  0  0  0  0  0  0  0
   -1.8392    2.5778   -2.2486 C   0  0  1  0  0  0  0  0  0  0  0  0
   -2.8068    3.3144   -1.2580 C   0  0  1  0  0  0  0  0  0  0  0  0
   -2.2498    3.2127    0.0800 O   0  0  0  0  0  0  0  0  0  0  0  0
   -2.9853    4.8431   -1.5829 C   0  0  1  0  0  0  0  0  0  0  0  0
   -3.2379    5.0930   -3.1049 C   0  0  1  0  0  0  0  0  0  0  0  0
   -3.2572    6.5327   -3.4347 N   0  3  0  0  0  0  0  0  0  0  0  0
   -2.1682    4.4079   -3.9849 C   0  0  0  0  0  0  0  0  0  0  0  0
   -1.9367    1.9004    0.6301 C   0  0  1  0  0  0  0  0  0  0  0  0
   -1.5068    2.0728    2.0821 C   0  0  1  0  0  0  0  0  0  0  0  0
   -2.8693    2.1988    2.7500 C   0  0  1  0  0  0  0  0  0  0  0  0
   -3.6826    1.1350    1.9987 C   0  0  2  0  0  0  0  0  0  0  0  0
   -3.1209    1.0871    0.6654 O   0  0  0  0  0  0  0  0  0  0  0  0
   -5.1848    1.4633    1.9295 C   0  0  0  0  0  0  0  0  0  0  0  0
   -2.7146    4.3009    7.1840 C   0  0  1  0  0  0  0  0  0  0  0  0
   -2.7371    2.7493    7.2706 C   0  0  1  0  0  0  0  0  0  0  0  0
   -1.6608    2.0484    6.3922 C   0  0  2  0  0  0  0  0  0  0  0  0
   -1.7173    2.5582    4.9161 C   0  0  1  0  0  0  0  0  0  0  0  0
   -2.7943    1.9156    4.1769 O   0  0  0  0  0  0  0  0  0  0  0  0
   -1.6957    4.7814    6.1064 C   0  0  1  0  0  0  0  0  0  0  0  0
   -1.9001    4.0272    4.8671 O   0  0  0  0  0  0  0  0  0  0  0  0
   -1.8199    6.2978    5.8080 C   0  0  0  0  0  0  0  0  0  0  0  0
   -8.7115    3.1659   -3.6517 N   0  3  0  0  0  0  0  0  0  0  0  0
   -0.8140    0.9047    2.5226 O   0  0  0  0  0  0  0  0  0  0  0  0
   -2.5301    2.3719    8.6311 O   0  0  0  0  0  0  0  0  0  0  0  0
   -4.0297    4.7542    6.8551 O   0  0  0  0  0  0  0  0  0  0  0  0
   -5.9193    0.3642    1.4185 O   0  0  0  0  0  0  0  0  0  0  0  0
   -1.9582    1.1709   -2.0391 O   0  0  0  0  0  0  0  0  0  0  0  0
   -1.6213    7.1360    7.0046 N   0  3  0  0  0  0  0  0  0  0  0  0
   -1.7595    0.5710    6.4903 N   0  3  0  0  0  0  0  0  0  0  0  0
  1  2  1  1  0  0  0
  1  3  1  0  0  0  0
  1 10  1  0  0  0  0
  3  4  1  1  0  0  0
  3  5  1  0  0  0  0
  5  6  1  1  0  0  0
  5  7  1  0  0  0  0
  7  8  1  1  0  0  0
  7  9  1  0  0  0  0
  9 10  1  0  0  0  0
  9 11  1  6  0  0  0
 11 35  1  0  0  0  0
 12 13  1  6  0  0  0
 12 14  1  0  0  0  0
 12 20  1  0  0  0  0
 14 15  1  0  0  0  0
 14 40  1  6  0  0  0
 15 16  1  1  0  0  0
 15 17  1  0  0  0  0
 17  2  1  1  0  0  0
 17 18  1  0  0  0  0
 18 19  1  1  0  0  0
 18 20  1  0  0  0  0
 21 16  1  1  0  0  0
 21 22  1  0  0  0  0
 21 25  1  0  0  0  0
 22 23  1  0  0  0  0
 22 36  1  1  0  0  0
 23 24  1  0  0  0  0
 23 31  1  1  0  0  0
 24 25  1  0  0  0  0
 24 26  1  6  0  0  0
 26 39  1  0  0  0  0
 27 28  1  0  0  0  0
 27 32  1  0  0  0  0
 27 38  1  6  0  0  0
 28 29  1  0  0  0  0
 28 37  1  1  0  0  0
 29 30  1  0  0  0  0
 29 42  1  6  0  0  0
 30 31  1  6  0  0  0
 30 33  1  0  0  0  0
 32 33  1  0  0  0  0
 32 34  1  6  0  0  0
 34 41  1  0  0  0  0
M  CHG  6   4   1  13   1  19   1  35   1  41   1  42   1
M  END
>  <CHROM.1>
163.78410832,-74.23531304,45.45546567,63.63800698,-75.83040486,-61.80890385
62.49777620,-30.35644438,-55.80394410,-55.24501806,-174.28908907,-157.10011085
175.79505565,46.85630300,-170.79470535,174.62504226,67.85126577,68.35741903
-63.26526729,-173.81223808,58.37554514,177.45085595,-3.77074106,3.31646593
1.28729969,1.86625517,0.25439768,-1.61579773

>  <Name>


>  <RI>
0

>  <Rbt.Current_Directory>
/home/itssahil/PROJECTS/Mol_Feturizer/New_Systems/rnas/1ei2

>  <Rbt.Executable>
rbdock ($Id: //depot/dev/client3/rdock/2013.1/src/exe/rbdock.cxx#4 $)

>  <Rbt.Library>
libRbt.so (2013.1, Build901 2013/11/27)

>  <Rbt.Parameter_File>
/export/apps/rDock/src/rDock_2013.1_src/data/scripts/dock_solv.prm

>  <Rbt.Receptor>
prm/pocket_docking_7.prm

>  <SCORE>
-59.3275

>  <SCORE.INTER>
-37.2479

>  <SCORE.INTER.CONST>
1

>  <SCORE.INTER.POLAR>
-6.2508

>  <SCORE.INTER.ROT>
9

>  <SCORE.INTER.SOLV>
33.4111

>  <SCORE.INTER.VDW>
-24.7329

>  <SCORE.INTER.norm>
-0.886855

>  <SCORE.INTRA>
-22.8972

>  <SCORE.INTRA.DIHEDRAL>
-30.435

>  <SCORE.INTRA.DIHEDRAL.0>
40.8761

>  <SCORE.INTRA.POLAR>
-0.124318

>  <SCORE.INTRA.POLAR.0>
-0.0268208

>  <SCORE.INTRA.REPUL>
-0.641163

>  <SCORE.INTRA.REPUL.0>
0.641615

>  <SCORE.INTRA.SOLV>
-12.271

>  <SCORE.INTRA.SOLV.lig_0>
-162.567

>  <SCORE.INTRA.VDW>
2.08428

>  <SCORE.INTRA.VDW.0>
-4.80338

>  <SCORE.INTRA.norm>
-0.545172

>  <SCORE.RESTR>
0.817636

>  <SCORE.RESTR.CAVITY>
0.817636

>  <SCORE.RESTR.norm>
0.0194675

>  <SCORE.SYSTEM>
0

>  <SCORE.SYSTEM.CONST>
0

>  <SCORE.SYSTEM.DIHEDRAL>
0

>  <SCORE.SYSTEM.SOLV>
0

>  <SCORE.SYSTEM.norm>
0

>  <SCORE.heavy>
42

>  <SCORE.norm>
-1.41256

>  <RMSD>
7.341

$$$$

 OpenBabel11021811393D
libRbt.so/2013.1/901 2013/11/27
 42 45  0  0  0  0  0  0  0  0999 V2000
   -7.8859    2.9171   -2.5186 C   0  0  2  0  0  0  0  0  0  0  0  0
   -7.8817    4.3629   -2.3105 O   0  0  0  0  0  0  0  0  0  0  0  0
   -6.5354    2.4192   -3.1286 C   0  0  2  0  0  0  0  0  0  0  0  0
   -5.4741    3.4462   -3.0184 N   0  3  0  0  0  0  0  0  0  0  0  0
   -6.7280    1.9892   -4.6141 C   0  0  1  0  0  0  0  0  0  0  0  0
   -5.4924    1.5277   -5.1562 O   0  0  0  0  0  0  0  0  0  0  0  0
   -7.7805    0.8570   -4.7546 C   0  0  2  0  0  0  0  0  0  0  0  0
   -8.1189    0.7157   -6.1299 O   0  0  0  0  0  0  0  0  0  0  0  0
   -9.0629    1.1675   -3.9166 C   0  0  2  0  0  0  0  0  0  0  0  0
   -9.0031    2.5335   -3.3915 O   0  0  0  0  0  0  0  0  0  0  0  0
   -9.2737    0.2389   -2.6986 C   0  0  0  0  0  0  0  0  0  0  0  0
  -10.3029    7.3178   -0.3041 C   0  0  1  0  0  0  0  0  0  0  0  0
  -11.1724    8.0089    0.6741 N   0  3  0  0  0  0  0  0  0  0  0  0
   -8.8793    7.0834    0.2657 C   0  0  1  0  0  0  0  0  0  0  0  0
   -7.9585    6.2227   -0.6677 C   0  0  1  0  0  0  0  0  0  0  0  0
   -6.7980    5.8048    0.1001 O   0  0  0  0  0  0  0  0  0  0  0  0
   -8.6613    4.9242   -1.2102 C   0  0  1  0  0  0  0  0  0  0  0  0
  -10.1010    5.2165   -1.7437 C   0  0  1  0  0  0  0  0  0  0  0  0
  -10.8168    3.9789   -2.1148 N   0  3  0  0  0  0  0  0  0  0  0  0
  -10.9549    5.9782   -0.7052 C   0  0  0  0  0  0  0  0  0  0  0  0
   -6.9632    4.8553    1.1927 C   0  0  1  0  0  0  0  0  0  0  0  0
   -5.9524    3.7287    1.0136 C   0  0  1  0  0  0  0  0  0  0  0  0
   -4.7061    4.3973    1.5776 C   0  0  1  0  0  0  0  0  0  0  0  0
   -5.2748    5.1343    2.7985 C   0  0  2  0  0  0  0  0  0  0  0  0
   -6.6342    5.4827    2.4429 O   0  0  0  0  0  0  0  0  0  0  0  0
   -4.4803    6.4019    3.1606 C   0  0  0  0  0  0  0  0  0  0  0  0
   -2.1180    2.0250    5.1679 C   0  0  1  0  0  0  0  0  0  0  0  0
   -1.6775    1.6635    3.7220 C   0  0  1  0  0  0  0  0  0  0  0  0
   -1.4151    2.8972    2.8108 C   0  0  2  0  0  0  0  0  0  0  0  0
   -2.6288    3.8812    2.8295 C   0  0  1  0  0  0  0  0  0  0  0  0
   -3.6982    3.4167    1.9578 O   0  0  0  0  0  0  0  0  0  0  0  0
   -2.3345    3.5620    5.3137 C   0  0  1  0  0  0  0  0  0  0  0  0
   -3.1566    4.0491    4.2031 O   0  0  0  0  0  0  0  0  0  0  0  0
   -3.0128    3.9401    6.6557 C   0  0  0  0  0  0  0  0  0  0  0  0
   -9.8780   -1.0651   -3.0238 N   0  3  0  0  0  0  0  0  0  0  0  0
   -6.3419    2.6011    1.7981 O   0  0  0  0  0  0  0  0  0  0  0  0
   -0.4803    0.8904    3.7968 O   0  0  0  0  0  0  0  0  0  0  0  0
   -3.3310    1.3270    5.4585 O   0  0  0  0  0  0  0  0  0  0  0  0
   -4.7133    7.4317    2.2153 O   0  0  0  0  0  0  0  0  0  0  0  0
   -8.2558    8.3498    0.4777 O   0  0  0  0  0  0  0  0  0  0  0  0
   -2.9759    2.8474    7.6449 N   0  3  0  0  0  0  0  0  0  0  0  0
   -1.0353    2.4849    1.4367 N   0  3  0  0  0  0  0  0  0  0  0  0
  1  2  1  6  0  0  0
  1  3  1  0  0  0  0
  1 10  1  0  0  0  0
  3  4  1  6  0  0  0
  3  5  1  0  0  0  0
  5  6  1  1  0  0  0
  5  7  1  0  0  0  0
  7  8  1  6  0  0  0
  7  9  1  0  0  0  0
  9 10  1  0  0  0  0
  9 11  1  1  0  0  0
 11 35  1  0  0  0  0
 12 13  1  1  0  0  0
 12 14  1  0  0  0  0
 12 20  1  0  0  0  0
 14 15  1  0  0  0  0
 14 40  1  6  0  0  0
 15 16  1  1  0  0  0
 15 17  1  0  0  0  0
 17  2  1  6  0  0  0
 17 18  1  0  0  0  0
 18 19  1  1  0  0  0
 18 20  1  0  0  0  0
 21 16  1  6  0  0  0
 21 22  1  0  0  0  0
 21 25  1  0  0  0  0
 22 23  1  0  0  0  0
 22 36  1  1  0  0  0
 23 24  1  0  0  0  0
 23 31  1  1  0  0  0
 24 25  1  0  0  0  0
 24 26  1  6  0  0  0
 26 39  1  0  0  0  0
 27 28  1  0  0  0  0
 27 32  1  0  0  0  0
 27 38  1  6  0  0  0
 28 29  1  0  0  0  0
 28 37  1  1  0  0  0
 29 30  1  0  0  0  0
 29 42  1  6  0  0  0
 30 31  1  6  0  0  0
 30 33  1  0  0  0  0
 32 33  1  0  0  0  0
 32 34  1  1  0  0  0
 34 41  1  0  0  0  0
M  CHG  6   4   1  13   1  19   1  35   1  41   1  42   1
M  END
>  <CHROM.1>
-149.26799041,148.74301411,-30.77092820,-172.38881231,-174.84794642,-81.02769416
79.36937777,-66.67289417,-84.54614668,68.02825924,129.38006169,69.56088534
59.52761433,-163.86198721,72.38749707,67.92196582,61.83141418,-50.13084053
65.56064464,-162.80016570,15.58409623,53.04428461,-6.18228705,3.71321778
0.41131399,-2.52966367,-0.68012001,0.82288977

>  <Name>


>  <RI>
0

>  <Rbt.Current_Directory>
/home/itssahil/PROJECTS/Mol_Feturizer/New_Systems/rnas/1ei2

>  <Rbt.Executable>
rbdock ($Id: //depot/dev/client3/rdock/2013.1/src/exe/rbdock.cxx#4 $)

>  <Rbt.Library>
libRbt.so (2013.1, Build901 2013/11/27)

>  <Rbt.Parameter_File>
/export/apps/rDock/src/rDock_2013.1_src/data/scripts/dock_solv.prm

>  <Rbt.Receptor>
prm/pocket_docking_8.prm

>  <SCORE>
-48.5733

>  <SCORE.INTER>
-31.9286

>  <SCORE.INTER.CONST>
1

>  <SCORE.INTER.POLAR>
-6.48422

>  <SCORE.INTER.ROT>
9

>  <SCORE.INTER.SOLV>
29.6441

>  <SCORE.INTER.VDW>
-19.153

>  <SCORE.INTER.norm>
-0.760204

>  <SCORE.INTRA>
-16.6579

>  <SCORE.INTRA.DIHEDRAL>
-9.44279

>  <SCORE.INTRA.DIHEDRAL.0>
40.8761

>  <SCORE.INTRA.POLAR>
-1.81469

>  <SCORE.INTRA.POLAR.0>
-0.0268208

>  <SCORE.INTRA.REPUL>
-0.641615

>  <SCORE.INTRA.REPUL.0>
0.641615

>  <SCORE.INTRA.SOLV>
-8.29975

>  <SCORE.INTRA.SOLV.lig_0>
-162.567

>  <SCORE.INTRA.VDW>
1.59138

>  <SCORE.INTRA.VDW.0>
-4.80338

>  <SCORE.INTRA.norm>
-0.396617

>  <SCORE.RESTR>
0.0132428

>  <SCORE.RESTR.CAVITY>
0.0132428

>  <SCORE.RESTR.norm>
0.000315304

>  <SCORE.SYSTEM>
0

>  <SCORE.SYSTEM.CONST>
0

>  <SCORE.SYSTEM.DIHEDRAL>
0

>  <SCORE.SYSTEM.SOLV>
0

>  <SCORE.SYSTEM.norm>
0

>  <SCORE.heavy>
42

>  <SCORE.norm>
-1.15651

>  <RMSD>
7.350

$$$$

 OpenBabel11021811393D
libRbt.so/2013.1/901 2013/11/27
 42 45  0  0  0  0  0  0  0  0999 V2000
   -3.1399    2.1255   -2.4094 C   0  0  2  0  0  0  0  0  0  0  0  0
   -3.4125    0.8975   -3.1519 O   0  0  0  0  0  0  0  0  0  0  0  0
   -1.6101    2.3126   -2.1478 C   0  0  2  0  0  0  0  0  0  0  0  0
   -0.7959    1.4156   -2.9996 N   0  3  0  0  0  0  0  0  0  0  0  0
   -1.2777    2.0871   -0.6419 C   0  0  1  0  0  0  0  0  0  0  0  0
    0.1179    2.2703   -0.4139 O   0  0  0  0  0  0  0  0  0  0  0  0
   -2.0589    3.0671    0.2738 C   0  0  2  0  0  0  0  0  0  0  0  0
   -1.9399    2.6262    1.6218 O   0  0  0  0  0  0  0  0  0  0  0  0
   -3.5661    3.1448   -0.1334 C   0  0  2  0  0  0  0  0  0  0  0  0
   -3.8706    2.1207   -1.1353 O   0  0  0  0  0  0  0  0  0  0  0  0
   -3.9965    4.4978   -0.7451 C   0  0  0  0  0  0  0  0  0  0  0  0
   -3.9078    1.3719   -7.4121 C   0  0  1  0  0  0  0  0  0  0  0  0
   -4.4850    1.4166   -8.7742 N   0  3  0  0  0  0  0  0  0  0  0  0
   -4.4732    2.5054   -6.5169 C   0  0  1  0  0  0  0  0  0  0  0  0
   -4.0124    2.4184   -5.0202 C   0  0  1  0  0  0  0  0  0  0  0  0
   -4.8468    3.3125   -4.2358 O   0  0  0  0  0  0  0  0  0  0  0  0
   -4.1547    0.9767   -4.4074 C   0  0  1  0  0  0  0  0  0  0  0  0
   -3.5952   -0.1247   -5.3648 C   0  0  1  0  0  0  0  0  0  0  0  0
   -3.8619   -1.4867   -4.8591 N   0  3  0  0  0  0  0  0  0  0  0  0
   -4.1927   -0.0088   -6.7852 C   0  0  0  0  0  0  0  0  0  0  0  0
   -6.2376    3.5178   -4.6184 C   0  0  1  0  0  0  0  0  0  0  0  0
   -7.1241    3.1807   -3.4253 C   0  0  1  0  0  0  0  0  0  0  0  0
   -6.9929    4.4689   -2.6241 C   0  0  1  0  0  0  0  0  0  0  0  0
   -7.0551    5.5306   -3.7313 C   0  0  2  0  0  0  0  0  0  0  0  0
   -6.4698    4.9077   -4.8997 O   0  0  0  0  0  0  0  0  0  0  0  0
   -6.2877    6.8168   -3.3760 C   0  0  0  0  0  0  0  0  0  0  0  0
   -7.6227    5.0652    2.1166 C   0  0  1  0  0  0  0  0  0  0  0  0
   -8.9715    5.1955    1.3555 C   0  0  1  0  0  0  0  0  0  0  0  0
   -9.2912    3.9944    0.4194 C   0  0  2  0  0  0  0  0  0  0  0  0
   -8.0969    3.6951   -0.5429 C   0  0  1  0  0  0  0  0  0  0  0  0
   -8.0823    4.6181   -1.6686 O   0  0  0  0  0  0  0  0  0  0  0  0
   -6.8349    3.8081    1.6376 C   0  0  1  0  0  0  0  0  0  0  0  0
   -6.8030    3.7778    0.1731 O   0  0  0  0  0  0  0  0  0  0  0  0
   -5.3831    3.7761    2.1810 C   0  0  0  0  0  0  0  0  0  0  0  0
   -2.9446    5.1775   -1.5217 N   0  3  0  0  0  0  0  0  0  0  0  0
   -8.4664    2.9720   -3.8647 O   0  0  0  0  0  0  0  0  0  0  0  0
  -10.0200    5.3150    2.3161 O   0  0  0  0  0  0  0  0  0  0  0  0
   -6.8547    6.2473    1.8804 O   0  0  0  0  0  0  0  0  0  0  0  0
   -4.8882    6.5955   -3.4085 O   0  0  0  0  0  0  0  0  0  0  0  0
   -4.0554    3.7621   -7.0493 O   0  0  0  0  0  0  0  0  0  0  0  0
   -4.9079    2.4101    2.4673 N   0  3  0  0  0  0  0  0  0  0  0  0
  -10.5707    4.1971   -0.3044 N   0  3  0  0  0  0  0  0  0  0  0  0
  1  2  1  1  0  0  0
  1  3  1  0  0  0  0
  1 10  1  0  0  0  0
  3  4  1  6  0  0  0
  3  5  1  0  0  0  0
  5  6  1  6  0  0  0
  5  7  1  0  0  0  0
  7  8  1  1  0  0  0
  7  9  1  0  0  0  0
  9 10  1  0  0  0  0
  9 11  1  6  0  0  0
 11 35  1  0  0  0  0
 12 13  1  6  0  0  0
 12 14  1  0  0  0  0
 12 20  1  0  0  0  0
 14 15  1  0  0  0  0
 14 40  1  6  0  0  0
 15 16  1  1  0  0  0
 15 17  1  0  0  0  0
 17  2  1  1  0  0  0
 17 18  1  0  0  0  0
 18 19  1  1  0  0  0
 18 20  1  0  0  0  0
 21 16  1  1  0  0  0
 21 22  1  0  0  0  0
 21 25  1  0  0  0  0
 22 23  1  0  0  0  0
 22 36  1  6  0  0  0
 23 24  1  0  0  0  0
 23 31  1  1  0  0  0
 24 25  1  0  0  0  0
 24 26  1  1  0  0  0
 26 39  1  0  0  0  0
 27 28  1  0  0  0  0
 27 32  1  0  0  0  0
 27 38  1  6  0  0  0
 28 29  1  0  0  0  0
 28 37  1  1  0  0  0
 29 30  1  0  0  0  0
 29 42  1  6  0  0  0
 30 31  1  6  0  0  0
 30 33  1  0  0  0  0
 32 33  1  0  0  0  0
 32 34  1  1  0  0  0
 34 41  1  0  0  0  0
M  CHG  6   4   1  13   1  19   1  35   1  41   1  42   1
M  END
>  <CHROM.1>
-124.10999798,23.51278635,42.56717456,-78.79341136,63.20925563,32.37299663
43.05866400,177.05692079,177.05574101,33.02621501,124.20292418,-165.69821517
-59.10464940,69.15498324,71.63692302,-172.62895102,175.97419394,-53.59392349
-52.94830655,178.36950040,145.50705624,158.75360619,-5.15225127,3.24519238
-2.17158653,-1.00310948,-0.40985147,1.36809251

>  <Name>


>  <RI>
0

>  <Rbt.Current_Directory>
/home/itssahil/PROJECTS/Mol_Feturizer/New_Systems/rnas/1ei2

>  <Rbt.Executable>
rbdock ($Id: //depot/dev/client3/rdock/2013.1/src/exe/rbdock.cxx#4 $)

>  <Rbt.Library>
libRbt.so (2013.1, Build901 2013/11/27)

>  <Rbt.Parameter_File>
/export/apps/rDock/src/rDock_2013.1_src/data/scripts/dock_solv.prm

>  <Rbt.Receptor>
prm/pocket_docking_2.prm

>  <SCORE>
-36.1272

>  <SCORE.INTER>
-26.2918

>  <SCORE.INTER.CONST>
1

>  <SCORE.INTER.POLAR>
-4.42266

>  <SCORE.INTER.ROT>
9

>  <SCORE.INTER.SOLV>
20.0777

>  <SCORE.INTER.VDW>
-19.0783

>  <SCORE.INTER.norm>
-0.625995

>  <SCORE.INTRA>
-14.0572

>  <SCORE.INTRA.DIHEDRAL>
-6.60484

>  <SCORE.INTRA.DIHEDRAL.0>
40.8761

>  <SCORE.INTRA.POLAR>
-2.25976

>  <SCORE.INTRA.POLAR.0>
-0.0268208

>  <SCORE.INTRA.REPUL>
-0.437719

>  <SCORE.INTRA.REPUL.0>
0.641615

>  <SCORE.INTRA.SOLV>
-2.7947

>  <SCORE.INTRA.SOLV.lig_0>
-162.567

>  <SCORE.INTRA.VDW>
0.514344

>  <SCORE.INTRA.VDW.0>
-4.80338

>  <SCORE.INTRA.norm>
-0.334695

>  <SCORE.RESTR>
4.22181

>  <SCORE.RESTR.CAVITY>
4.22181

>  <SCORE.RESTR.norm>
0.100519

>  <SCORE.SYSTEM>
0

>  <SCORE.SYSTEM.CONST>
0

>  <SCORE.SYSTEM.DIHEDRAL>
0

>  <SCORE.SYSTEM.SOLV>
0

>  <SCORE.SYSTEM.norm>
0

>  <SCORE.heavy>
42

>  <SCORE.norm>
-0.860171

>  <RMSD>
7.355

$$$$

 OpenBabel11021811393D
libRbt.so/2013.1/901 2013/11/27
 42 45  0  0  0  0  0  0  0  0999 V2000
   -6.6850    0.9892   -4.8115 C   0  0  2  0  0  0  0  0  0  0  0  0
   -6.0747    0.5148   -3.5721 O   0  0  0  0  0  0  0  0  0  0  0  0
   -5.7638    0.7222   -6.0459 C   0  0  2  0  0  0  0  0  0  0  0  0
   -4.6857   -0.2412   -5.7255 N   0  3  0  0  0  0  0  0  0  0  0  0
   -5.1630    2.0562   -6.5829 C   0  0  1  0  0  0  0  0  0  0  0  0
   -4.3333    1.8013   -7.7142 O   0  0  0  0  0  0  0  0  0  0  0  0
   -6.2707    3.0600   -7.0011 C   0  0  2  0  0  0  0  0  0  0  0  0
   -5.6773    4.3382   -7.2010 O   0  0  0  0  0  0  0  0  0  0  0  0
   -7.3911    3.1535   -5.9151 C   0  0  2  0  0  0  0  0  0  0  0  0
   -6.9880    2.4228   -4.7114 O   0  0  0  0  0  0  0  0  0  0  0  0
   -8.7544    2.5667   -6.3478 C   0  0  0  0  0  0  0  0  0  0  0  0
   -8.7244    2.7143   -0.9718 C   0  0  1  0  0  0  0  0  0  0  0  0
   -9.4607    3.2003    0.2165 N   0  3  0  0  0  0  0  0  0  0  0  0
   -7.2180    3.0765   -0.8955 C   0  0  1  0  0  0  0  0  0  0  0  0
   -6.3595    2.4578   -2.0532 C   0  0  1  0  0  0  0  0  0  0  0  0
   -4.9568    2.5889   -1.6978 O   0  0  0  0  0  0  0  0  0  0  0  0
   -6.6473    0.9303   -2.2942 C   0  0  1  0  0  0  0  0  0  0  0  0
   -8.1790    0.6216   -2.3328 C   0  0  1  0  0  0  0  0  0  0  0  0
   -8.4507   -0.8283   -2.4095 N   0  3  0  0  0  0  0  0  0  0  0  0
   -8.9105    1.1876   -1.0949 C   0  0  0  0  0  0  0  0  0  0  0  0
   -4.3156    1.5467   -0.9069 C   0  0  1  0  0  0  0  0  0  0  0  0
   -2.8735    1.9599   -0.6377 C   0  0  1  0  0  0  0  0  0  0  0  0
   -3.0850    2.9246    0.5212 C   0  0  1  0  0  0  0  0  0  0  0  0
   -4.1546    2.1919    1.3436 C   0  0  2  0  0  0  0  0  0  0  0  0
   -4.9437    1.4514    0.3820 O   0  0  0  0  0  0  0  0  0  0  0  0
   -5.0564    3.1471    2.1458 C   0  0  0  0  0  0  0  0  0  0  0  0
   -0.1078    2.6928    4.6712 C   0  0  1  0  0  0  0  0  0  0  0  0
    0.3979    3.5917    3.5086 C   0  0  1  0  0  0  0  0  0  0  0  0
   -0.6786    4.5612    2.9409 C   0  0  2  0  0  0  0  0  0  0  0  0
   -1.9882    3.7948    2.5678 C   0  0  1  0  0  0  0  0  0  0  0  0
   -1.8590    3.1242    1.2822 O   0  0  0  0  0  0  0  0  0  0  0  0
   -1.6393    2.8821    4.8927 C   0  0  1  0  0  0  0  0  0  0  0  0
   -2.3352    2.7973    3.6062 O   0  0  0  0  0  0  0  0  0  0  0  0
   -2.2320    1.8294    5.8646 C   0  0  0  0  0  0  0  0  0  0  0  0
   -8.6594    1.3579   -7.1851 N   0  3  0  0  0  0  0  0  0  0  0  0
   -2.1113    0.8207   -0.2378 O   0  0  0  0  0  0  0  0  0  0  0  0
    1.5000    4.3637    3.9839 O   0  0  0  0  0  0  0  0  0  0  0  0
    0.1782    1.3306    4.3464 O   0  0  0  0  0  0  0  0  0  0  0  0
   -5.9560    2.4225    2.9671 O   0  0  0  0  0  0  0  0  0  0  0  0
   -7.0849    4.4969   -0.9394 O   0  0  0  0  0  0  0  0  0  0  0  0
   -2.3517    0.4913    5.2571 N   0  3  0  0  0  0  0  0  0  0  0  0
   -0.1446    5.3626    1.8118 N   0  3  0  0  0  0  0  0  0  0  0  0
  1  2  1  1  0  0  0
  1  3  1  0  0  0  0
  1 10  1  0  0  0  0
  3  4  1  1  0  0  0
  3  5  1  0  0  0  0
  5  6  1  6  0  0  0
  5  7  1  0  0  0  0
  7  8  1  1  0  0  0
  7  9  1  0  0  0  0
  9 10  1  0  0  0  0
  9 11  1  6  0  0  0
 11 35  1  0  0  0  0
 12 13  1  1  0  0  0
 12 14  1  0  0  0  0
 12 20  1  0  0  0  0
 14 15  1  0  0  0  0
 14 40  1  6  0  0  0
 15 16  1  1  0  0  0
 15 17  1  0  0  0  0
 17  2  1  6  0  0  0
 17 18  1  0  0  0  0
 18 19  1  1  0  0  0
 18 20  1  0  0  0  0
 21 16  1  6  0  0  0
 21 22  1  0  0  0  0
 21 25  1  0  0  0  0
 22 23  1  0  0  0  0
 22 36  1  1  0  0  0
 23 24  1  0  0  0  0
 23 31  1  1  0  0  0
 24 25  1  0  0  0  0
 24 26  1  6  0  0  0
 26 39  1  0  0  0  0
 27 28  1  0  0  0  0
 27 32  1  0  0  0  0
 27 38  1  6  0  0  0
 28 29  1  0  0  0  0
 28 37  1  1  0  0  0
 29 30  1  0  0  0  0
 29 42  1  6  0  0  0
 30 31  1  6  0  0  0
 30 33  1  0  0  0  0
 32 33  1  0  0  0  0
 32 34  1  1  0  0  0
 34 41  1  0  0  0  0
M  CHG  6   4   1  13   1  19   1  35   1  41   1  42   1
M  END
>  <CHROM.1>
166.92528185,-70.56975496,85.86699296,58.91226028,-62.49827793,36.99474469
-170.85854000,47.72744323,-60.99649322,87.80538262,-177.91281651,-91.67835769
-65.43357792,-167.53164269,-175.40661886,60.21014846,-70.55148898,177.44967746
168.63817009,-151.89588147,-73.79459870,71.62195679,-4.65545304,2.28079349
-0.88216567,-2.14826949,0.19768956,1.58425427

>  <Name>


>  <RI>
0

>  <Rbt.Current_Directory>
/home/itssahil/PROJECTS/Mol_Feturizer/New_Systems/rnas/1ei2

>  <Rbt.Executable>
rbdock ($Id: //depot/dev/client3/rdock/2013.1/src/exe/rbdock.cxx#4 $)

>  <Rbt.Library>
libRbt.so (2013.1, Build901 2013/11/27)

>  <Rbt.Parameter_File>
/export/apps/rDock/src/rDock_2013.1_src/data/scripts/dock_solv.prm

>  <Rbt.Receptor>
prm/pocket_docking_6.prm

>  <SCORE>
-46.0014

>  <SCORE.INTER>
-28.8781

>  <SCORE.INTER.CONST>
1

>  <SCORE.INTER.POLAR>
-5.73413

>  <SCORE.INTER.ROT>
9

>  <SCORE.INTER.SOLV>
30.4625

>  <SCORE.INTER.VDW>
-19.8925

>  <SCORE.INTER.norm>
-0.687574

>  <SCORE.INTRA>
-17.1233

>  <SCORE.INTRA.DIHEDRAL>
-23.7814

>  <SCORE.INTRA.DIHEDRAL.0>
40.8761

>  <SCORE.INTRA.POLAR>
-0.364033

>  <SCORE.INTRA.POLAR.0>
-0.0268208

>  <SCORE.INTRA.REPUL>
-0.641615

>  <SCORE.INTRA.REPUL.0>
0.641615

>  <SCORE.INTRA.SOLV>
-6.61981

>  <SCORE.INTRA.SOLV.lig_0>
-162.567

>  <SCORE.INTRA.VDW>
2.52311

>  <SCORE.INTRA.VDW.0>
-4.80338

>  <SCORE.INTRA.norm>
-0.407697

>  <SCORE.RESTR>
0

>  <SCORE.RESTR.CAVITY>
0

>  <SCORE.RESTR.norm>
0

>  <SCORE.SYSTEM>
0

>  <SCORE.SYSTEM.CONST>
0

>  <SCORE.SYSTEM.DIHEDRAL>
0

>  <SCORE.SYSTEM.SOLV>
0

>  <SCORE.SYSTEM.norm>
0

>  <SCORE.heavy>
42

>  <SCORE.norm>
-1.09527

>  <RMSD>
7.363

$$$$

 OpenBabel11021811393D
libRbt.so/2013.1/901 2013/11/27
 42 45  0  0  0  0  0  0  0  0999 V2000
   -5.4280    5.2239   -1.1739 C   0  0  2  0  0  0  0  0  0  0  0  0
   -4.0058    5.3919   -0.8863 O   0  0  0  0  0  0  0  0  0  0  0  0
   -6.3022    5.4273    0.1060 C   0  0  2  0  0  0  0  0  0  0  0  0
   -5.5358    6.0766    1.1942 N   0  3  0  0  0  0  0  0  0  0  0  0
   -6.8946    4.0693    0.5894 C   0  0  1  0  0  0  0  0  0  0  0  0
   -7.6978    4.2690    1.7506 O   0  0  0  0  0  0  0  0  0  0  0  0
   -7.7689    3.3998   -0.5046 C   0  0  2  0  0  0  0  0  0  0  0  0
   -8.0339    2.0557   -0.1187 O   0  0  0  0  0  0  0  0  0  0  0  0
   -7.0564    3.4271   -1.8957 C   0  0  2  0  0  0  0  0  0  0  0  0
   -5.6762    3.8939   -1.7456 O   0  0  0  0  0  0  0  0  0  0  0  0
   -7.7214    4.3543   -2.9389 C   0  0  0  0  0  0  0  0  0  0  0  0
   -2.5641    3.0715   -4.2264 C   0  0  1  0  0  0  0  0  0  0  0  0
   -1.7259    2.5384   -5.3235 N   0  3  0  0  0  0  0  0  0  0  0  0
   -1.9638    2.7346   -2.8363 C   0  0  1  0  0  0  0  0  0  0  0  0
   -2.7274    3.4015   -1.6395 C   0  0  1  0  0  0  0  0  0  0  0  0
   -1.8987    3.2858   -0.4517 O   0  0  0  0  0  0  0  0  0  0  0  0
   -3.0241    4.9298   -1.8641 C   0  0  1  0  0  0  0  0  0  0  0  0
   -3.5992    5.2116   -3.2899 C   0  0  1  0  0  0  0  0  0  0  0  0
   -3.7383    6.6579   -3.5558 N   0  3  0  0  0  0  0  0  0  0  0  0
   -2.7145    4.5974   -4.3980 C   0  0  0  0  0  0  0  0  0  0  0  0
   -1.5630    1.9653    0.0643 C   0  0  1  0  0  0  0  0  0  0  0  0
   -0.2964    2.0800    0.9042 C   0  0  1  0  0  0  0  0  0  0  0  0
   -0.8864    2.6083    2.2047 C   0  0  1  0  0  0  0  0  0  0  0  0
   -2.1714    1.7764    2.3229 C   0  0  2  0  0  0  0  0  0  0  0  0
   -2.5898    1.5131    0.9623 O   0  0  0  0  0  0  0  0  0  0  0  0
   -3.2906    2.5031    3.0902 C   0  0  0  0  0  0  0  0  0  0  0  0
   -0.8996    1.8221    7.0173 C   0  0  1  0  0  0  0  0  0  0  0  0
    0.5349    1.7391    6.4253 C   0  0  1  0  0  0  0  0  0  0  0  0
    0.9397    2.9716    5.5660 C   0  0  2  0  0  0  0  0  0  0  0  0
   -0.1339    3.2740    4.4717 C   0  0  1  0  0  0  0  0  0  0  0  0
    0.0106    2.3824    3.3300 O   0  0  0  0  0  0  0  0  0  0  0  0
   -1.6510    3.0764    6.4765 C   0  0  1  0  0  0  0  0  0  0  0  0
   -1.5037    3.1466    5.0205 O   0  0  0  0  0  0  0  0  0  0  0  0
   -3.1588    3.0652    6.8375 C   0  0  0  0  0  0  0  0  0  0  0  0
   -9.1220    4.0172   -3.2487 N   0  3  0  0  0  0  0  0  0  0  0  0
    0.2851    0.7879    1.0801 O   0  0  0  0  0  0  0  0  0  0  0  0
    1.4601    1.6135    7.5045 O   0  0  0  0  0  0  0  0  0  0  0  0
   -1.6059    0.6323    6.6588 O   0  0  0  0  0  0  0  0  0  0  0  0
   -4.4516    1.6948    3.1761 O   0  0  0  0  0  0  0  0  0  0  0  0
   -1.9862    1.3186   -2.6579 O   0  0  0  0  0  0  0  0  0  0  0  0
   -3.4106    3.3665    8.2587 N   0  3  0  0  0  0  0  0  0  0  0  0
    2.3027    2.8138    5.0006 N   0  3  0  0  0  0  0  0  0  0  0  0
  1  2  1  1  0  0  0
  1  3  1  0  0  0  0
  1 10  1  0  0  0  0
  3  4  1  1  0  0  0
  3  5  1  0  0  0  0
  5  6  1  1  0  0  0
  5  7  1  0  0  0  0
  7  8  1  1  0  0  0
  7  9  1  0  0  0  0
  9 10  1  0  0  0  0
  9 11  1  6  0  0  0
 11 35  1  0  0  0  0
 12 13  1  6  0  0  0
 12 14  1  0  0  0  0
 12 20  1  0  0  0  0
 14 15  1  0  0  0  0
 14 40  1  1  0  0  0
 15 16  1  1  0  0  0
 15 17  1  0  0  0  0
 17  2  1  1  0  0  0
 17 18  1  0  0  0  0
 18 19  1  6  0  0  0
 18 20  1  0  0  0  0
 21 16  1  1  0  0  0
 21 22  1  0  0  0  0
 21 25  1  0  0  0  0
 22 23  1  0  0  0  0
 22 36  1  1  0  0  0
 23 24  1  0  0  0  0
 23 31  1  1  0  0  0
 24 25  1  0  0  0  0
 24 26  1  1  0  0  0
 26 39  1  0  0  0  0
 27 28  1  0  0  0  0
 27 32  1  0  0  0  0
 27 38  1  6  0  0  0
 28 29  1  0  0  0  0
 28 37  1  1  0  0  0
 29 30  1  0  0  0  0
 29 42  1  6  0  0  0
 30 31  1  6  0  0  0
 30 33  1  0  0  0  0
 32 33  1  0  0  0  0
 32 34  1  6  0  0  0
 34 41  1  0  0  0  0
M  CHG  6   4   1  13   1  19   1  35   1  41   1  42   1
M  END
>  <CHROM.1>
165.37007687,-85.49339747,59.65327882,68.26204546,-60.88228441,-59.39742867
68.27539749,-51.05011327,65.74558780,-62.52663458,157.42605591,-171.69501733
50.20361593,155.43974505,-179.81065013,-177.13496335,83.62954725,178.91805675
143.50346201,-176.76302508,73.88328062,-61.42818950,-3.08943099,3.17630854
1.15068972,2.09316155,0.23422489,-1.48316246

>  <Name>


>  <RI>
0

>  <Rbt.Current_Directory>
/home/itssahil/PROJECTS/Mol_Feturizer/New_Systems/rnas/1ei2

>  <Rbt.Executable>
rbdock ($Id: //depot/dev/client3/rdock/2013.1/src/exe/rbdock.cxx#4 $)

>  <Rbt.Library>
libRbt.so (2013.1, Build901 2013/11/27)

>  <Rbt.Parameter_File>
/export/apps/rDock/src/rDock_2013.1_src/data/scripts/dock_solv.prm

>  <Rbt.Receptor>
prm/pocket_docking_8.prm

>  <SCORE>
-48.4698

>  <SCORE.INTER>
-27.6669

>  <SCORE.INTER.CONST>
1

>  <SCORE.INTER.POLAR>
-3.66817

>  <SCORE.INTER.ROT>
9

>  <SCORE.INTER.SOLV>
34.3401

>  <SCORE.INTER.VDW>
-27.264

>  <SCORE.INTER.norm>
-0.658735

>  <SCORE.INTRA>
-20.8045

>  <SCORE.INTRA.DIHEDRAL>
-24.4509

>  <SCORE.INTRA.DIHEDRAL.0>
40.8761

>  <SCORE.INTRA.POLAR>
0.0260724

>  <SCORE.INTRA.POLAR.0>
-0.0268208

>  <SCORE.INTRA.REPUL>
-0.641615

>  <SCORE.INTRA.REPUL.0>
0.641615

>  <SCORE.INTRA.SOLV>
-13.3272

>  <SCORE.INTRA.SOLV.lig_0>
-162.567

>  <SCORE.INTRA.VDW>
1.20394

>  <SCORE.INTRA.VDW.0>
-4.80338

>  <SCORE.INTRA.norm>
-0.495346

>  <SCORE.RESTR>
0.00158433

>  <SCORE.RESTR.CAVITY>
0.00158433

>  <SCORE.RESTR.norm>
3.77222e-05

>  <SCORE.SYSTEM>
0

>  <SCORE.SYSTEM.CONST>
0

>  <SCORE.SYSTEM.DIHEDRAL>
0

>  <SCORE.SYSTEM.SOLV>
0

>  <SCORE.SYSTEM.norm>
0

>  <SCORE.heavy>
42

>  <SCORE.norm>
-1.15404

>  <RMSD>
7.366

$$$$

 OpenBabel11021811393D
libRbt.so/2013.1/901 2013/11/27
 42 45  0  0  0  0  0  0  0  0999 V2000
   -3.4744    3.6466   -0.6982 C   0  0  2  0  0  0  0  0  0  0  0  0
   -3.4849    3.8449   -2.1454 O   0  0  0  0  0  0  0  0  0  0  0  0
   -2.7454    4.8173    0.0380 C   0  0  2  0  0  0  0  0  0  0  0  0
   -2.5613    5.9898   -0.8476 N   0  3  0  0  0  0  0  0  0  0  0  0
   -1.3747    4.3409    0.6066 C   0  0  1  0  0  0  0  0  0  0  0  0
   -0.7243    5.4138    1.2842 O   0  0  0  0  0  0  0  0  0  0  0  0
   -1.5419    3.1604    1.6005 C   0  0  2  0  0  0  0  0  0  0  0  0
   -0.2622    2.5910    1.8530 O   0  0  0  0  0  0  0  0  0  0  0  0
   -2.5095    2.0725    1.0315 C   0  0  2  0  0  0  0  0  0  0  0  0
   -2.8332    2.3676   -0.3661 O   0  0  0  0  0  0  0  0  0  0  0  0
   -3.8580    1.9593    1.7791 C   0  0  0  0  0  0  0  0  0  0  0  0
   -2.5413    1.7640   -5.8059 C   0  0  1  0  0  0  0  0  0  0  0  0
   -2.2809    0.7039   -6.8053 N   0  3  0  0  0  0  0  0  0  0  0  0
   -4.0369    1.8052   -5.3964 C   0  0  1  0  0  0  0  0  0  0  0  0
   -4.3457    2.8078   -4.2304 C   0  0  1  0  0  0  0  0  0  0  0  0
   -5.6785    2.5222   -3.7275 O   0  0  0  0  0  0  0  0  0  0  0  0
   -3.3461    2.6848   -3.0221 C   0  0  1  0  0  0  0  0  0  0  0  0
   -1.8584    2.6186   -3.4968 C   0  0  1  0  0  0  0  0  0  0  0  0
   -0.9307    2.3541   -2.3782 N   0  3  0  0  0  0  0  0  0  0  0  0
   -1.6462    1.5287   -4.5714 C   0  0  0  0  0  0  0  0  0  0  0  0
   -6.8416    2.9060   -4.5165 C   0  0  1  0  0  0  0  0  0  0  0  0
   -8.0990    2.5521   -3.7313 C   0  0  1  0  0  0  0  0  0  0  0  0
   -8.1607    3.7384   -2.7788 C   0  0  1  0  0  0  0  0  0  0  0  0
   -7.7749    4.9004   -3.7051 C   0  0  2  0  0  0  0  0  0  0  0  0
   -6.8724    4.3328   -4.6844 O   0  0  0  0  0  0  0  0  0  0  0  0
   -7.0888    6.0606   -2.9618 C   0  0  0  0  0  0  0  0  0  0  0  0
  -10.1196    5.9387    0.9761 C   0  0  1  0  0  0  0  0  0  0  0  0
  -11.2243    5.4191    0.0143 C   0  0  1  0  0  0  0  0  0  0  0  0
  -11.1107    3.9046   -0.3244 C   0  0  2  0  0  0  0  0  0  0  0  0
   -9.6749    3.5442   -0.8248 C   0  0  1  0  0  0  0  0  0  0  0  0
   -9.4961    3.9094   -2.2226 O   0  0  0  0  0  0  0  0  0  0  0  0
   -9.0621    4.8284    1.2573 C   0  0  1  0  0  0  0  0  0  0  0  0
   -8.6412    4.2202   -0.0074 O   0  0  0  0  0  0  0  0  0  0  0  0
   -7.8158    5.3722    2.0024 C   0  0  0  0  0  0  0  0  0  0  0  0
   -4.4283    3.2492    2.2059 N   0  3  0  0  0  0  0  0  0  0  0  0
   -9.2251    2.5263   -4.6087 O   0  0  0  0  0  0  0  0  0  0  0  0
  -12.4949    5.6558    0.6192 O   0  0  0  0  0  0  0  0  0  0  0  0
   -9.4937    7.0739    0.3741 O   0  0  0  0  0  0  0  0  0  0  0  0
   -6.5392    6.9926   -3.8773 O   0  0  0  0  0  0  0  0  0  0  0  0
   -4.8140    2.1775   -6.5343 O   0  0  0  0  0  0  0  0  0  0  0  0
   -7.0525    6.3499    1.2053 N   0  3  0  0  0  0  0  0  0  0  0  0
  -12.1695    3.4808   -1.2739 N   0  3  0  0  0  0  0  0  0  0  0  0
  1  2  1  6  0  0  0
  1  3  1  0  0  0  0
  1 10  1  0  0  0  0
  3  4  1  6  0  0  0
  3  5  1  0  0  0  0
  5  6  1  1  0  0  0
  5  7  1  0  0  0  0
  7  8  1  6  0  0  0
  7  9  1  0  0  0  0
  9 10  1  0  0  0  0
  9 11  1  1  0  0  0
 11 35  1  0  0  0  0
 12 13  1  6  0  0  0
 12 14  1  0  0  0  0
 12 20  1  0  0  0  0
 14 15  1  0  0  0  0
 14 40  1  6  0  0  0
 15 16  1  1  0  0  0
 15 17  1  0  0  0  0
 17  2  1  1  0  0  0
 17 18  1  0  0  0  0
 18 19  1  1  0  0  0
 18 20  1  0  0  0  0
 21 16  1  1  0  0  0
 21 22  1  0  0  0  0
 21 25  1  0  0  0  0
 22 23  1  0  0  0  0
 22 36  1  6  0  0  0
 23 24  1  0  0  0  0
 23 31  1  6  0  0  0
 24 25  1  0  0  0  0
 24 26  1  1  0  0  0
 26 39  1  0  0  0  0
 27 28  1  0  0  0  0
 27 32  1  0  0  0  0
 27 38  1  6  0  0  0
 28 29  1  0  0  0  0
 28 37  1  1  0  0  0
 29 30  1  0  0  0  0
 29 42  1  6  0  0  0
 30 31  1  6  0  0  0
 30 33  1  0  0  0  0
 32 33  1  0  0  0  0
 32 34  1  6  0  0  0
 34 41  1  0  0  0  0
M  CHG  6   4   1  13   1  19   1  35   1  41   1  42   1
M  END
>  <CHROM.1>
143.61181311,138.05847996,94.93912227,-137.89756461,55.53180408,38.67941548
-175.43914578,-129.15302619,68.32983674,-73.76432965,-177.33139360,57.01095149
62.02335325,107.14715860,169.48124627,176.62536302,-46.65607509,170.39322930
-171.54557765,174.55992744,-64.44723239,174.34368356,-5.71650004,3.79553988
-1.63750179,-0.24360936,-0.19520907,1.25440423

>  <Name>


>  <RI>
0

>  <Rbt.Current_Directory>
/home/itssahil/PROJECTS/Mol_Feturizer/New_Systems/rnas/1ei2

>  <Rbt.Executable>
rbdock ($Id: //depot/dev/client3/rdock/2013.1/src/exe/rbdock.cxx#4 $)

>  <Rbt.Library>
libRbt.so (2013.1, Build901 2013/11/27)

>  <Rbt.Parameter_File>
/export/apps/rDock/src/rDock_2013.1_src/data/scripts/dock_solv.prm

>  <Rbt.Receptor>
prm/pocket_docking_2.prm

>  <SCORE>
-42.3437

>  <SCORE.INTER>
-37.5003

>  <SCORE.INTER.CONST>
1

>  <SCORE.INTER.POLAR>
-6.09834

>  <SCORE.INTER.ROT>
9

>  <SCORE.INTER.SOLV>
29.6005

>  <SCORE.INTER.VDW>
-24.1392

>  <SCORE.INTER.norm>
-0.892863

>  <SCORE.INTRA>
-9.85727

>  <SCORE.INTRA.DIHEDRAL>
-6.71768

>  <SCORE.INTRA.DIHEDRAL.0>
40.8761

>  <SCORE.INTRA.POLAR>
-0.841612

>  <SCORE.INTRA.POLAR.0>
-0.0268208

>  <SCORE.INTRA.REPUL>
-0.641615

>  <SCORE.INTRA.REPUL.0>
0.641615

>  <SCORE.INTRA.SOLV>
-0.379819

>  <SCORE.INTRA.SOLV.lig_0>
-162.567

>  <SCORE.INTRA.VDW>
-0.238967

>  <SCORE.INTRA.VDW.0>
-4.80338

>  <SCORE.INTRA.norm>
-0.234697

>  <SCORE.RESTR>
5.0138

>  <SCORE.RESTR.CAVITY>
5.0138

>  <SCORE.RESTR.norm>
0.119376

>  <SCORE.SYSTEM>
0

>  <SCORE.SYSTEM.CONST>
0

>  <SCORE.SYSTEM.DIHEDRAL>
0

>  <SCORE.SYSTEM.SOLV>
0

>  <SCORE.SYSTEM.norm>
0

>  <SCORE.heavy>
42

>  <SCORE.norm>
-1.00818

>  <RMSD>
7.369

$$$$

 OpenBabel11021811393D
libRbt.so/2013.1/901 2013/11/27
 42 45  0  0  0  0  0  0  0  0999 V2000
   -6.2858    1.3317   -2.5675 C   0  0  2  0  0  0  0  0  0  0  0  0
   -6.7189    1.2796   -1.1734 O   0  0  0  0  0  0  0  0  0  0  0  0
   -6.2583   -0.0907   -3.2155 C   0  0  2  0  0  0  0  0  0  0  0  0
   -6.9993   -1.0784   -2.3979 N   0  3  0  0  0  0  0  0  0  0  0  0
   -4.7908   -0.5622   -3.4455 C   0  0  1  0  0  0  0  0  0  0  0  0
   -4.7786   -1.8556   -4.0459 O   0  0  0  0  0  0  0  0  0  0  0  0
   -4.0089    0.4143   -4.3645 C   0  0  2  0  0  0  0  0  0  0  0  0
   -2.6238    0.0934   -4.2990 O   0  0  0  0  0  0  0  0  0  0  0  0
   -4.2353    1.9005   -3.9360 C   0  0  2  0  0  0  0  0  0  0  0  0
   -4.9585    1.9532   -2.6634 O   0  0  0  0  0  0  0  0  0  0  0  0
   -5.0563    2.7401   -4.9416 C   0  0  0  0  0  0  0  0  0  0  0  0
   -7.5878    5.4861   -0.7606 C   0  0  1  0  0  0  0  0  0  0  0  0
   -7.9055    6.8177   -0.1985 N   0  3  0  0  0  0  0  0  0  0  0  0
   -6.1563    5.0314   -0.3730 C   0  0  1  0  0  0  0  0  0  0  0  0
   -5.8177    3.5647   -0.8136 C   0  0  1  0  0  0  0  0  0  0  0  0
   -4.6075    3.1517   -0.1239 O   0  0  0  0  0  0  0  0  0  0  0  0
   -6.9461    2.5298   -0.4532 C   0  0  1  0  0  0  0  0  0  0  0  0
   -8.3669    3.0539   -0.8399 C   0  0  1  0  0  0  0  0  0  0  0  0
   -9.4377    2.1520   -0.3688 N   0  3  0  0  0  0  0  0  0  0  0  0
   -8.6341    4.4645   -0.2685 C   0  0  0  0  0  0  0  0  0  0  0  0
   -3.5050    4.0934    0.0192 C   0  0  1  0  0  0  0  0  0  0  0  0
   -3.3261    4.4099    1.4993 C   0  0  1  0  0  0  0  0  0  0  0  0
   -2.5392    3.1833    1.9405 C   0  0  1  0  0  0  0  0  0  0  0  0
   -1.5683    2.9985    0.7656 C   0  0  2  0  0  0  0  0  0  0  0  0
   -2.2762    3.4792   -0.4021 O   0  0  0  0  0  0  0  0  0  0  0  0
   -1.1423    1.5335    0.5612 C   0  0  0  0  0  0  0  0  0  0  0  0
   -5.6103    3.2107    3.8558 C   0  0  1  0  0  0  0  0  0  0  0  0
   -4.6160    2.0197    3.9475 C   0  0  1  0  0  0  0  0  0  0  0  0
   -3.3594    2.3069    4.8190 C   0  0  2  0  0  0  0  0  0  0  0  0
   -2.6560    3.6304    4.3767 C   0  0  1  0  0  0  0  0  0  0  0  0
   -1.8347    3.4213    3.1931 O   0  0  0  0  0  0  0  0  0  0  0  0
   -5.0253    4.4763    4.5532 C   0  0  1  0  0  0  0  0  0  0  0  0
   -3.6490    4.6940    4.1003 O   0  0  0  0  0  0  0  0  0  0  0  0
   -5.8636    5.7495    4.2703 C   0  0  0  0  0  0  0  0  0  0  0  0
   -5.2470    4.1472   -4.5479 N   0  3  0  0  0  0  0  0  0  0  0  0
   -2.5594    5.6051    1.6485 O   0  0  0  0  0  0  0  0  0  0  0  0
   -5.3062    0.8994    4.4998 O   0  0  0  0  0  0  0  0  0  0  0  0
   -5.8644    3.4820    2.4757 O   0  0  0  0  0  0  0  0  0  0  0  0
   -0.4790    1.3685   -0.6804 O   0  0  0  0  0  0  0  0  0  0  0  0
   -5.2142    5.9171   -0.9776 O   0  0  0  0  0  0  0  0  0  0  0  0
   -7.2087    5.6959    4.8719 N   0  3  0  0  0  0  0  0  0  0  0  0
   -2.4344    1.1465    4.8352 N   0  3  0  0  0  0  0  0  0  0  0  0
  1  2  1  1  0  0  0
  1  3  1  0  0  0  0
  1 10  1  0  0  0  0
  3  4  1  1  0  0  0
  3  5  1  0  0  0  0
  5  6  1  6  0  0  0
  5  7  1  0  0  0  0
  7  8  1  1  0  0  0
  7  9  1  0  0  0  0
  9 10  1  0  0  0  0
  9 11  1  6  0  0  0
 11 35  1  0  0  0  0
 12 13  1  1  0  0  0
 12 14  1  0  0  0  0
 12 20  1  0  0  0  0
 14 15  1  0  0  0  0
 14 40  1  6  0  0  0
 15 16  1  1  0  0  0
 15 17  1  0  0  0  0
 17  2  1  6  0  0  0
 17 18  1  0  0  0  0
 18 19  1  1  0  0  0
 18 20  1  0  0  0  0
 21 16  1  1  0  0  0
 21 22  1  0  0  0  0
 21 25  1  0  0  0  0
 22 23  1  0  0  0  0
 22 36  1  6  0  0  0
 23 24  1  0  0  0  0
 23 31  1  1  0  0  0
 24 25  1  0  0  0  0
 24 26  1  6  0  0  0
 26 39  1  0  0  0  0
 27 28  1  0  0  0  0
 27 32  1  0  0  0  0
 27 38  1  6  0  0  0
 28 29  1  0  0  0  0
 28 37  1  1  0  0  0
 29 30  1  0  0  0  0
 29 42  1  6  0  0  0
 30 31  1  6  0  0  0
 30 33  1  0  0  0  0
 32 33  1  0  0  0  0
 32 34  1  6  0  0  0
 34 41  1  0  0  0  0
M  CHG  6   4   1  13   1  19   1  35   1  41   1  42   1
M  END
>  <CHROM.1>
-173.29564336,-41.11440944,119.12649688,-73.99919671,67.22453199,-178.90793483
136.74723734,178.82224428,97.15929072,-41.10778295,114.56016430,167.19117269
-179.68909169,66.06538335,167.94594269,90.36420639,178.76898220,-61.05196577
-49.84181648,70.66226816,66.60739265,61.51151843,-4.84501199,2.84561792,0.20269467
1.70009018,0.48367524,-2.01573053

>  <Name>


>  <RI>
0

>  <Rbt.Current_Directory>
/home/itssahil/PROJECTS/Mol_Feturizer/New_Systems/rnas/1ei2

>  <Rbt.Executable>
rbdock ($Id: //depot/dev/client3/rdock/2013.1/src/exe/rbdock.cxx#4 $)

>  <Rbt.Library>
libRbt.so (2013.1, Build901 2013/11/27)

>  <Rbt.Parameter_File>
/export/apps/rDock/src/rDock_2013.1_src/data/scripts/dock_solv.prm

>  <Rbt.Receptor>
prm/pocket_docking_4.prm

>  <SCORE>
-49.2782

>  <SCORE.INTER>
-34.9258

>  <SCORE.INTER.CONST>
1

>  <SCORE.INTER.POLAR>
-6.58465

>  <SCORE.INTER.ROT>
9

>  <SCORE.INTER.SOLV>
22.8027

>  <SCORE.INTER.VDW>
-18.536

>  <SCORE.INTER.norm>
-0.831568

>  <SCORE.INTRA>
-14.6959

>  <SCORE.INTRA.DIHEDRAL>
-11.4197

>  <SCORE.INTRA.DIHEDRAL.0>
40.8761

>  <SCORE.INTRA.POLAR>
-0.795642

>  <SCORE.INTRA.POLAR.0>
-0.0268208

>  <SCORE.INTRA.REPUL>
-0.637618

>  <SCORE.INTRA.REPUL.0>
0.641615

>  <SCORE.INTRA.SOLV>
-7.42085

>  <SCORE.INTRA.SOLV.lig_0>
-162.567

>  <SCORE.INTRA.VDW>
0.617661

>  <SCORE.INTRA.VDW.0>
-4.80338

>  <SCORE.INTRA.norm>
-0.349903

>  <SCORE.RESTR>
0.34356

>  <SCORE.RESTR.CAVITY>
0.34356

>  <SCORE.RESTR.norm>
0.00818

>  <SCORE.SYSTEM>
0

>  <SCORE.SYSTEM.CONST>
0

>  <SCORE.SYSTEM.DIHEDRAL>
0

>  <SCORE.SYSTEM.SOLV>
0

>  <SCORE.SYSTEM.norm>
0

>  <SCORE.heavy>
42

>  <SCORE.norm>
-1.17329

>  <RMSD>
7.375

$$$$

 OpenBabel11021811393D
libRbt.so/2013.1/901 2013/11/27
 42 45  0  0  0  0  0  0  0  0999 V2000
   -3.3714    3.4260   -1.0171 C   0  0  2  0  0  0  0  0  0  0  0  0
   -3.2975    3.6775   -2.4541 O   0  0  0  0  0  0  0  0  0  0  0  0
   -3.2415    4.7486   -0.1938 C   0  0  2  0  0  0  0  0  0  0  0  0
   -3.4306    5.9444   -1.0466 N   0  3  0  0  0  0  0  0  0  0  0  0
   -1.8657    4.8095    0.5360 C   0  0  1  0  0  0  0  0  0  0  0  0
   -1.7631    6.0146    1.2913 O   0  0  0  0  0  0  0  0  0  0  0  0
   -1.6700    3.6073    1.4983 C   0  0  2  0  0  0  0  0  0  0  0  0
   -0.3062    3.5633    1.9030 O   0  0  0  0  0  0  0  0  0  0  0  0
   -2.0689    2.2607    0.8122 C   0  0  2  0  0  0  0  0  0  0  0  0
   -2.3246    2.4781   -0.6135 O   0  0  0  0  0  0  0  0  0  0  0  0
   -3.3413    1.5989    1.3895 C   0  0  0  0  0  0  0  0  0  0  0  0
   -3.1102    1.7147   -6.2924 C   0  0  1  0  0  0  0  0  0  0  0  0
   -3.0541    0.6871   -7.3560 N   0  3  0  0  0  0  0  0  0  0  0  0
   -4.4910    1.7278   -5.5858 C   0  0  1  0  0  0  0  0  0  0  0  0
   -4.5604    2.6925   -4.3511 C   0  0  1  0  0  0  0  0  0  0  0  0
   -5.7614    2.3779   -3.5964 O   0  0  0  0  0  0  0  0  0  0  0  0
   -3.3350    2.5451   -3.3760 C   0  0  1  0  0  0  0  0  0  0  0  0
   -1.9750    2.5089   -4.1454 C   0  0  1  0  0  0  0  0  0  0  0  0
   -0.8375    2.2218   -3.2478 N   0  3  0  0  0  0  0  0  0  0  0  0
   -1.9812    1.4531   -5.2738 C   0  0  0  0  0  0  0  0  0  0  0  0
   -7.0686    2.6230   -4.1914 C   0  0  1  0  0  0  0  0  0  0  0  0
   -8.1101    2.6533   -3.0791 C   0  0  1  0  0  0  0  0  0  0  0  0
   -7.9073    4.0715   -2.5632 C   0  0  1  0  0  0  0  0  0  0  0  0
   -7.7223    4.8539   -3.8712 C   0  0  2  0  0  0  0  0  0  0  0  0
   -7.0981    3.9280   -4.7924 O   0  0  0  0  0  0  0  0  0  0  0  0
   -6.8449    6.1075   -3.7039 C   0  0  0  0  0  0  0  0  0  0  0  0
   -9.1129    6.3939    1.5487 C   0  0  1  0  0  0  0  0  0  0  0  0
  -10.3603    6.0967    0.6705 C   0  0  1  0  0  0  0  0  0  0  0  0
  -10.4886    4.6093    0.2321 C   0  0  2  0  0  0  0  0  0  0  0  0
   -9.1670    4.0991   -0.4276 C   0  0  1  0  0  0  0  0  0  0  0  0
   -9.0646    4.5383   -1.8118 O   0  0  0  0  0  0  0  0  0  0  0  0
   -8.1989    5.1358    1.6576 C   0  0  1  0  0  0  0  0  0  0  0  0
   -7.9808    4.5709    0.3234 O   0  0  0  0  0  0  0  0  0  0  0  0
   -6.8278    5.4540    2.3080 C   0  0  0  0  0  0  0  0  0  0  0  0
   -4.3304    2.5482    1.9297 N   0  3  0  0  0  0  0  0  0  0  0  0
   -9.4142    2.4796   -3.6338 O   0  0  0  0  0  0  0  0  0  0  0  0
  -11.5267    6.4550    1.4104 O   0  0  0  0  0  0  0  0  0  0  0  0
   -8.3917    7.4770    0.9573 O   0  0  0  0  0  0  0  0  0  0  0  0
   -5.5475    5.7597   -3.2518 O   0  0  0  0  0  0  0  0  0  0  0  0
   -5.4855    2.1247   -6.5297 O   0  0  0  0  0  0  0  0  0  0  0  0
   -6.8973    5.5433    3.7780 N   0  3  0  0  0  0  0  0  0  0  0  0
  -11.6763    4.3997   -0.6326 N   0  3  0  0  0  0  0  0  0  0  0  0
  1  2  1  6  0  0  0
  1  3  1  0  0  0  0
  1 10  1  0  0  0  0
  3  4  1  6  0  0  0
  3  5  1  0  0  0  0
  5  6  1  1  0  0  0
  5  7  1  0  0  0  0
  7  8  1  6  0  0  0
  7  9  1  0  0  0  0
  9 10  1  0  0  0  0
  9 11  1  1  0  0  0
 11 35  1  0  0  0  0
 12 13  1  6  0  0  0
 12 14  1  0  0  0  0
 12 20  1  0  0  0  0
 14 15  1  0  0  0  0
 14 40  1  6  0  0  0
 15 16  1  1  0  0  0
 15 17  1  0  0  0  0
 17  2  1  1  0  0  0
 17 18  1  0  0  0  0
 18 19  1  1  0  0  0
 18 20  1  0  0  0  0
 21 16  1  1  0  0  0
 21 22  1  0  0  0  0
 21 25  1  0  0  0  0
 22 23  1  0  0  0  0
 22 36  1  6  0  0  0
 23 24  1  0  0  0  0
 23 31  1  6  0  0  0
 24 25  1  0  0  0  0
 24 26  1  1  0  0  0
 26 39  1  0  0  0  0
 27 28  1  0  0  0  0
 27 32  1  0  0  0  0
 27 38  1  6  0  0  0
 28 29  1  0  0  0  0
 28 37  1  1  0  0  0
 29 30  1  0  0  0  0
 29 42  1  6  0  0  0
 30 31  1  6  0  0  0
 30 33  1  0  0  0  0
 32 33  1  0  0  0  0
 32 34  1  6  0  0  0
 34 41  1  0  0  0  0
M  CHG  6   4   1  13   1  19   1  35   1  41   1  42   1
M  END
>  <CHROM.1>
177.00776055,120.87677944,172.46127676,-177.13548109,-45.25661444,30.16576626
172.98137894,45.18366267,155.76419871,-66.28299705,-161.62934281,-117.19442439
67.71500308,80.75628801,60.30170356,57.93821000,73.12599581,63.21438412,61.26487563
-176.97890467,79.47535515,151.58893330,-5.59952682,3.88099689,-1.52375645
-0.64991642,-0.21513076,1.22103264

>  <Name>


>  <RI>
0

>  <Rbt.Current_Directory>
/home/itssahil/PROJECTS/Mol_Feturizer/New_Systems/rnas/1ei2

>  <Rbt.Executable>
rbdock ($Id: //depot/dev/client3/rdock/2013.1/src/exe/rbdock.cxx#4 $)

>  <Rbt.Library>
libRbt.so (2013.1, Build901 2013/11/27)

>  <Rbt.Parameter_File>
/export/apps/rDock/src/rDock_2013.1_src/data/scripts/dock_solv.prm

>  <Rbt.Receptor>
prm/pocket_docking_2.prm

>  <SCORE>
-37.3997

>  <SCORE.INTER>
-21.1236

>  <SCORE.INTER.CONST>
1

>  <SCORE.INTER.POLAR>
-3.53617

>  <SCORE.INTER.ROT>
9

>  <SCORE.INTER.SOLV>
20.7991

>  <SCORE.INTER.VDW>
-18.8282

>  <SCORE.INTER.norm>
-0.502943

>  <SCORE.INTRA>
-21.8049

>  <SCORE.INTRA.DIHEDRAL>
-14.9082

>  <SCORE.INTRA.DIHEDRAL.0>
40.8761

>  <SCORE.INTRA.POLAR>
-2.3144

>  <SCORE.INTRA.POLAR.0>
-0.0268208

>  <SCORE.INTRA.REPUL>
-0.621109

>  <SCORE.INTRA.REPUL.0>
0.641615

>  <SCORE.INTRA.SOLV>
-5.89498

>  <SCORE.INTRA.SOLV.lig_0>
-162.567

>  <SCORE.INTRA.VDW>
-0.42884

>  <SCORE.INTRA.VDW.0>
-4.80338

>  <SCORE.INTRA.norm>
-0.519165

>  <SCORE.RESTR>
5.52886

>  <SCORE.RESTR.CAVITY>
5.52886

>  <SCORE.RESTR.norm>
0.131639

>  <SCORE.SYSTEM>
0

>  <SCORE.SYSTEM.CONST>
0

>  <SCORE.SYSTEM.DIHEDRAL>
0

>  <SCORE.SYSTEM.SOLV>
0

>  <SCORE.SYSTEM.norm>
0

>  <SCORE.heavy>
42

>  <SCORE.norm>
-0.890469

>  <RMSD>
7.389

$$$$

 OpenBabel11021811393D
libRbt.so/2013.1/901 2013/11/27
 42 45  0  0  0  0  0  0  0  0999 V2000
   -2.7360    1.5680   -3.0187 C   0  0  2  0  0  0  0  0  0  0  0  0
   -2.3710    1.1523   -1.6668 O   0  0  0  0  0  0  0  0  0  0  0  0
   -3.2215    0.3583   -3.8817 C   0  0  2  0  0  0  0  0  0  0  0  0
   -3.5294   -0.8229   -3.0432 N   0  3  0  0  0  0  0  0  0  0  0  0
   -2.1635   -0.0027   -4.9675 C   0  0  1  0  0  0  0  0  0  0  0  0
   -2.6217   -1.1001   -5.7544 O   0  0  0  0  0  0  0  0  0  0  0  0
   -1.8760    1.1945   -5.9128 C   0  0  2  0  0  0  0  0  0  0  0  0
   -0.7138    0.9018   -6.6804 O   0  0  0  0  0  0  0  0  0  0  0  0
   -1.6661    2.5167   -5.1058 C   0  0  2  0  0  0  0  0  0  0  0  0
   -1.5970    2.2261   -3.6719 O   0  0  0  0  0  0  0  0  0  0  0  0
   -2.7890    3.5638   -5.2869 C   0  0  0  0  0  0  0  0  0  0  0  0
   -3.0639    2.2326    2.4530 C   0  0  1  0  0  0  0  0  0  0  0  0
   -3.2592    3.0039    3.7010 N   0  3  0  0  0  0  0  0  0  0  0  0
   -4.2548    2.4189    1.4766 C   0  0  1  0  0  0  0  0  0  0  0  0
   -4.0356    1.7465    0.0767 C   0  0  1  0  0  0  0  0  0  0  0  0
   -5.0454    2.2568   -0.8349 O   0  0  0  0  0  0  0  0  0  0  0  0
   -2.6278    2.0595   -0.5512 C   0  0  1  0  0  0  0  0  0  0  0  0
   -1.4716    1.8830    0.4856 C   0  0  1  0  0  0  0  0  0  0  0  0
   -0.1687    2.3186   -0.0573 N   0  3  0  0  0  0  0  0  0  0  0  0
   -1.7423    2.6698    1.7876 C   0  0  0  0  0  0  0  0  0  0  0  0
   -6.1882    1.4221   -1.1814 C   0  0  1  0  0  0  0  0  0  0  0  0
   -7.4254    1.9815   -0.4892 C   0  0  1  0  0  0  0  0  0  0  0  0
   -7.7713    3.1190   -1.4405 C   0  0  1  0  0  0  0  0  0  0  0  0
   -7.5182    2.4677   -2.8077 C   0  0  2  0  0  0  0  0  0  0  0  0
   -6.4528    1.5118   -2.5910 O   0  0  0  0  0  0  0  0  0  0  0  0
   -7.1084    3.4815   -3.8909 C   0  0  0  0  0  0  0  0  0  0  0  0
   -7.5321    6.4114    0.6736 C   0  0  1  0  0  0  0  0  0  0  0  0
   -8.5574    6.5829   -0.4817 C   0  0  1  0  0  0  0  0  0  0  0  0
   -9.8477    5.7289   -0.3178 C   0  0  2  0  0  0  0  0  0  0  0  0
   -9.5017    4.2281   -0.0535 C   0  0  1  0  0  0  0  0  0  0  0  0
   -9.1574    3.5404   -1.2895 O   0  0  0  0  0  0  0  0  0  0  0  0
   -7.9902    5.2949    1.6604 C   0  0  1  0  0  0  0  0  0  0  0  0
   -8.3793    4.1016    0.9046 O   0  0  0  0  0  0  0  0  0  0  0  0
   -6.8857    4.9160    2.6805 C   0  0  0  0  0  0  0  0  0  0  0  0
   -3.3377    3.6390   -6.6524 N   0  3  0  0  0  0  0  0  0  0  0  0
   -8.4533    0.9909   -0.4622 O   0  0  0  0  0  0  0  0  0  0  0  0
   -8.9287    7.9589   -0.5528 O   0  0  0  0  0  0  0  0  0  0  0  0
   -6.2636    6.0771    0.1061 O   0  0  0  0  0  0  0  0  0  0  0  0
   -6.7680    2.8214   -5.0980 O   0  0  0  0  0  0  0  0  0  0  0  0
   -5.4267    1.8613    2.0708 O   0  0  0  0  0  0  0  0  0  0  0  0
   -6.5765    6.0071    3.6227 N   0  3  0  0  0  0  0  0  0  0  0  0
  -10.7665    5.9088   -1.4692 N   0  3  0  0  0  0  0  0  0  0  0  0
  1  2  1  1  0  0  0
  1  3  1  0  0  0  0
  1 10  1  0  0  0  0
  3  4  1  1  0  0  0
  3  5  1  0  0  0  0
  5  6  1  6  0  0  0
  5  7  1  0  0  0  0
  7  8  1  1  0  0  0
  7  9  1  0  0  0  0
  9 10  1  0  0  0  0
  9 11  1  1  0  0  0
 11 35  1  0  0  0  0
 12 13  1  1  0  0  0
 12 14  1  0  0  0  0
 12 20  1  0  0  0  0
 14 15  1  0  0  0  0
 14 40  1  1  0  0  0
 15 16  1  6  0  0  0
 15 17  1  0  0  0  0
 17  2  1  6  0  0  0
 17 18  1  0  0  0  0
 18 19  1  6  0  0  0
 18 20  1  0  0  0  0
 21 16  1  6  0  0  0
 21 22  1  0  0  0  0
 21 25  1  0  0  0  0
 22 23  1  0  0  0  0
 22 36  1  6  0  0  0
 23 24  1  0  0  0  0
 23 31  1  6  0  0  0
 24 25  1  0  0  0  0
 24 26  1  6  0  0  0
 26 39  1  0  0  0  0
 27 28  1  0  0  0  0
 27 32  1  0  0  0  0
 27 38  1  6  0  0  0
 28 29  1  0  0  0  0
 28 37  1  1  0  0  0
 29 30  1  0  0  0  0
 29 42  1  6  0  0  0
 30 31  1  6  0  0  0
 30 33  1  0  0  0  0
 32 33  1  0  0  0  0
 32 34  1  1  0  0  0
 34 41  1  0  0  0  0
M  CHG  6   4   1  13   1  19   1  35   1  41   1  42   1
M  END
>  <CHROM.1>
-145.37942675,92.63617018,80.60809813,-177.14140595,-61.23715125,-37.54290049
76.26151584,-56.39908231,176.24144121,-103.59569867,107.72929620,-121.61842443
-55.02772263,69.62728706,174.64142434,58.75462784,171.79639724,70.30793168
-48.63951848,111.71860770,66.77206625,-63.63525796,-5.18525012,2.91363826
-1.39032997,-0.70957312,-0.45582357,1.37505264

>  <Name>


>  <RI>
0

>  <Rbt.Current_Directory>
/home/itssahil/PROJECTS/Mol_Feturizer/New_Systems/rnas/1ei2

>  <Rbt.Executable>
rbdock ($Id: //depot/dev/client3/rdock/2013.1/src/exe/rbdock.cxx#4 $)

>  <Rbt.Library>
libRbt.so (2013.1, Build901 2013/11/27)

>  <Rbt.Parameter_File>
/export/apps/rDock/src/rDock_2013.1_src/data/scripts/dock_solv.prm

>  <Rbt.Receptor>
prm/pocket_docking_3.prm

>  <SCORE>
-31.5332

>  <SCORE.INTER>
-22.2187

>  <SCORE.INTER.CONST>
1

>  <SCORE.INTER.POLAR>
-3.16567

>  <SCORE.INTER.ROT>
9

>  <SCORE.INTER.SOLV>
22.6341

>  <SCORE.INTER.VDW>
-21.4049

>  <SCORE.INTER.norm>
-0.529016

>  <SCORE.INTRA>
-9.69557

>  <SCORE.INTRA.DIHEDRAL>
-3.18069

>  <SCORE.INTRA.DIHEDRAL.0>
40.8761

>  <SCORE.INTRA.POLAR>
-0.145351

>  <SCORE.INTRA.POLAR.0>
-0.0268208

>  <SCORE.INTRA.REPUL>
-0.618357

>  <SCORE.INTRA.REPUL.0>
0.641615

>  <SCORE.INTRA.SOLV>
-10.0062

>  <SCORE.INTRA.SOLV.lig_0>
-162.567

>  <SCORE.INTRA.VDW>
0.483844

>  <SCORE.INTRA.VDW.0>
-4.80338

>  <SCORE.INTRA.norm>
-0.230847

>  <SCORE.RESTR>
0.381029

>  <SCORE.RESTR.CAVITY>
0.381029

>  <SCORE.RESTR.norm>
0.00907211

>  <SCORE.SYSTEM>
0

>  <SCORE.SYSTEM.CONST>
0

>  <SCORE.SYSTEM.DIHEDRAL>
0

>  <SCORE.SYSTEM.SOLV>
0

>  <SCORE.SYSTEM.norm>
0

>  <SCORE.heavy>
42

>  <SCORE.norm>
-0.75079

>  <RMSD>
7.413

$$$$

 OpenBabel11021811393D
libRbt.so/2013.1/901 2013/11/27
 42 45  0  0  0  0  0  0  0  0999 V2000
   -3.2192    3.0535   -3.3963 C   0  0  2  0  0  0  0  0  0  0  0  0
   -3.7021    4.1109   -2.5118 O   0  0  0  0  0  0  0  0  0  0  0  0
   -2.7777    3.6210   -4.7845 C   0  0  2  0  0  0  0  0  0  0  0  0
   -2.6195    5.0930   -4.7482 N   0  3  0  0  0  0  0  0  0  0  0  0
   -3.7894    3.2070   -5.8952 C   0  0  1  0  0  0  0  0  0  0  0  0
   -3.3710    3.7214   -7.1576 O   0  0  0  0  0  0  0  0  0  0  0  0
   -3.9192    1.6645   -6.0108 C   0  0  2  0  0  0  0  0  0  0  0  0
   -5.0495    1.3604   -6.8205 O   0  0  0  0  0  0  0  0  0  0  0  0
   -4.0739    1.0012   -4.6039 C   0  0  2  0  0  0  0  0  0  0  0  0
   -4.2578    2.0312   -3.5789 O   0  0  0  0  0  0  0  0  0  0  0  0
   -2.8616    0.1514   -4.1585 C   0  0  0  0  0  0  0  0  0  0  0  0
   -1.5643    3.1014    1.0980 C   0  0  1  0  0  0  0  0  0  0  0  0
   -1.1730    2.9544    2.5177 N   0  3  0  0  0  0  0  0  0  0  0  0
   -2.7985    2.2268    0.7542 C   0  0  1  0  0  0  0  0  0  0  0  0
   -3.3508    2.4548   -0.6959 C   0  0  1  0  0  0  0  0  0  0  0  0
   -4.6658    1.8431   -0.7820 O   0  0  0  0  0  0  0  0  0  0  0  0
   -3.5089    3.9743   -1.0705 C   0  0  1  0  0  0  0  0  0  0  0  0
   -2.2483    4.8094   -0.6750 C   0  0  1  0  0  0  0  0  0  0  0  0
   -2.4525    6.2567   -0.8886 N   0  3  0  0  0  0  0  0  0  0  0  0
   -1.8526    4.5880    0.8022 C   0  0  0  0  0  0  0  0  0  0  0  0
   -5.3594    1.4556    0.4394 C   0  0  1  0  0  0  0  0  0  0  0  0
   -5.9517    2.7059    1.0786 C   0  0  1  0  0  0  0  0  0  0  0  0
   -7.2076    2.8677    0.2330 C   0  0  1  0  0  0  0  0  0  0  0  0
   -7.6809    1.4133    0.0990 C   0  0  2  0  0  0  0  0  0  0  0  0
   -6.4770    0.6097    0.1226 O   0  0  0  0  0  0  0  0  0  0  0  0
   -8.4666    1.1530   -1.1987 C   0  0  0  0  0  0  0  0  0  0  0  0
  -11.4751    4.6783   -0.8454 C   0  0  1  0  0  0  0  0  0  0  0  0
  -11.1659    4.8876    0.6632 C   0  0  1  0  0  0  0  0  0  0  0  0
   -9.8110    5.6004    0.9411 C   0  0  2  0  0  0  0  0  0  0  0  0
   -8.6368    4.8936    0.1904 C   0  0  1  0  0  0  0  0  0  0  0  0
   -8.1988    3.7007    0.9006 O   0  0  0  0  0  0  0  0  0  0  0  0
  -10.2629    5.1108   -1.7250 C   0  0  1  0  0  0  0  0  0  0  0  0
   -9.0327    4.5234   -1.1880 O   0  0  0  0  0  0  0  0  0  0  0  0
  -10.4259    4.6879   -3.2078 C   0  0  0  0  0  0  0  0  0  0  0  0
   -1.5516    0.7656   -4.4372 N   0  3  0  0  0  0  0  0  0  0  0  0
   -6.2711    2.4445    2.4455 O   0  0  0  0  0  0  0  0  0  0  0  0
  -12.2158    5.6682    1.2332 O   0  0  0  0  0  0  0  0  0  0  0  0
  -11.7701    3.2961   -1.0587 O   0  0  0  0  0  0  0  0  0  0  0  0
   -9.4527    2.1505   -1.4012 O   0  0  0  0  0  0  0  0  0  0  0  0
   -2.4398    0.8523    0.8936 O   0  0  0  0  0  0  0  0  0  0  0  0
   -9.2352    4.9879   -4.0240 N   0  3  0  0  0  0  0  0  0  0  0  0
   -9.5585    5.7359    2.3972 N   0  3  0  0  0  0  0  0  0  0  0  0
  1  2  1  1  0  0  0
  1  3  1  0  0  0  0
  1 10  1  0  0  0  0
  3  4  1  1  0  0  0
  3  5  1  0  0  0  0
  5  6  1  6  0  0  0
  5  7  1  0  0  0  0
  7  8  1  6  0  0  0
  7  9  1  0  0  0  0
  9 10  1  0  0  0  0
  9 11  1  1  0  0  0
 11 35  1  0  0  0  0
 12 13  1  1  0  0  0
 12 14  1  0  0  0  0
 12 20  1  0  0  0  0
 14 15  1  0  0  0  0
 14 40  1  6  0  0  0
 15 16  1  1  0  0  0
 15 17  1  0  0  0  0
 17  2  1  6  0  0  0
 17 18  1  0  0  0  0
 18 19  1  1  0  0  0
 18 20  1  0  0  0  0
 21 16  1  6  0  0  0
 21 22  1  0  0  0  0
 21 25  1  0  0  0  0
 22 23  1  0  0  0  0
 22 36  1  1  0  0  0
 23 24  1  0  0  0  0
 23 31  1  1  0  0  0
 24 25  1  0  0  0  0
 24 26  1  6  0  0  0
 26 39  1  0  0  0  0
 27 28  1  0  0  0  0
 27 32  1  0  0  0  0
 27 38  1  1  0  0  0
 28 29  1  0  0  0  0
 28 37  1  6  0  0  0
 29 30  1  0  0  0  0
 29 42  1  1  0  0  0
 30 31  1  1  0  0  0
 30 33  1  0  0  0  0
 32 33  1  0  0  0  0
 32 34  1  6  0  0  0
 34 41  1  0  0  0  0
M  CHG  6   4   1  13   1  19   1  35   1  41   1  42   1
M  END
>  <CHROM.1>
-148.63989947,-23.69725685,42.28462322,65.77388940,64.59710138,42.91000051
-162.41025764,-169.54467869,-177.68096510,14.50837764,77.70920056,-173.44598091
174.98107784,122.06126088,-47.64445375,-54.75543679,69.94926952,176.88797313
51.51335805,173.51283467,-175.01789713,-65.10551765,-5.86611097,3.23476999
-1.43795713,0.42274208,0.19731210,-1.64437161

>  <Name>


>  <RI>
0

>  <Rbt.Current_Directory>
/home/itssahil/PROJECTS/Mol_Feturizer/New_Systems/rnas/1ei2

>  <Rbt.Executable>
rbdock ($Id: //depot/dev/client3/rdock/2013.1/src/exe/rbdock.cxx#4 $)

>  <Rbt.Library>
libRbt.so (2013.1, Build901 2013/11/27)

>  <Rbt.Parameter_File>
/export/apps/rDock/src/rDock_2013.1_src/data/scripts/dock_solv.prm

>  <Rbt.Receptor>
prm/pocket_docking_2.prm

>  <SCORE>
-33.0477

>  <SCORE.INTER>
-31.7336

>  <SCORE.INTER.CONST>
1

>  <SCORE.INTER.POLAR>
-5.00858

>  <SCORE.INTER.ROT>
9

>  <SCORE.INTER.SOLV>
29.6276

>  <SCORE.INTER.VDW>
-23.9363

>  <SCORE.INTER.norm>
-0.755563

>  <SCORE.INTRA>
-7.71741

>  <SCORE.INTRA.DIHEDRAL>
-11.9507

>  <SCORE.INTRA.DIHEDRAL.0>
40.8761

>  <SCORE.INTRA.POLAR>
-0.104642

>  <SCORE.INTRA.POLAR.0>
-0.0268208

>  <SCORE.INTRA.REPUL>
-0.225808

>  <SCORE.INTRA.REPUL.0>
0.641615

>  <SCORE.INTRA.SOLV>
-5.74834

>  <SCORE.INTRA.SOLV.lig_0>
-162.567

>  <SCORE.INTRA.VDW>
2.61695

>  <SCORE.INTRA.VDW.0>
-4.80338

>  <SCORE.INTRA.norm>
-0.183748

>  <SCORE.RESTR>
6.40334

>  <SCORE.RESTR.CAVITY>
6.40334

>  <SCORE.RESTR.norm>
0.152461

>  <SCORE.SYSTEM>
0

>  <SCORE.SYSTEM.CONST>
0

>  <SCORE.SYSTEM.DIHEDRAL>
0

>  <SCORE.SYSTEM.SOLV>
0

>  <SCORE.SYSTEM.norm>
0

>  <SCORE.heavy>
42

>  <SCORE.norm>
-0.78685

>  <RMSD>
7.437

$$$$

 OpenBabel11021811393D
libRbt.so/2013.1/901 2013/11/27
 42 45  0  0  0  0  0  0  0  0999 V2000
   -2.8619    2.9119   -1.8320 C   0  0  2  0  0  0  0  0  0  0  0  0
   -2.2582    2.2614   -0.6718 O   0  0  0  0  0  0  0  0  0  0  0  0
   -3.5396    1.8749   -2.7856 C   0  0  2  0  0  0  0  0  0  0  0  0
   -3.7172    0.5606   -2.1267 N   0  3  0  0  0  0  0  0  0  0  0  0
   -2.7197    1.7202   -4.1020 C   0  0  1  0  0  0  0  0  0  0  0  0
   -3.3527    0.7802   -4.9675 O   0  0  0  0  0  0  0  0  0  0  0  0
   -2.5820    3.0693   -4.8572 C   0  0  2  0  0  0  0  0  0  0  0  0
   -1.5971    2.9251   -5.8745 O   0  0  0  0  0  0  0  0  0  0  0  0
   -2.1821    4.2257   -3.8844 C   0  0  2  0  0  0  0  0  0  0  0  0
   -1.8492    3.6822   -2.5657 O   0  0  0  0  0  0  0  0  0  0  0  0
   -3.2867    5.2830   -3.6563 C   0  0  0  0  0  0  0  0  0  0  0  0
   -3.9526    1.0318    3.1014 C   0  0  1  0  0  0  0  0  0  0  0  0
   -4.5085    1.0378    4.4730 N   0  3  0  0  0  0  0  0  0  0  0  0
   -4.9197    1.7045    2.0923 C   0  0  1  0  0  0  0  0  0  0  0  0
   -4.3206    1.8621    0.6514 C   0  0  1  0  0  0  0  0  0  0  0  0
   -5.1678    2.7766   -0.0948 O   0  0  0  0  0  0  0  0  0  0  0  0
   -2.8628    2.4527    0.6440 C   0  0  1  0  0  0  0  0  0  0  0  0
   -1.9434    1.7569    1.6992 C   0  0  1  0  0  0  0  0  0  0  0  0
   -0.6211    2.4079    1.7978 N   0  3  0  0  0  0  0  0  0  0  0  0
   -2.5860    1.7481    3.1045 C   0  0  0  0  0  0  0  0  0  0  0  0
   -6.3940    2.2824   -0.7073 C   0  0  1  0  0  0  0  0  0  0  0  0
   -7.5676    2.6453    0.1948 C   0  0  1  0  0  0  0  0  0  0  0  0
   -7.7710    4.1002   -0.2055 C   0  0  1  0  0  0  0  0  0  0  0  0
   -7.5777    4.0333   -1.7271 C   0  0  2  0  0  0  0  0  0  0  0  0
   -6.6303    2.9619   -1.9512 O   0  0  0  0  0  0  0  0  0  0  0  0
   -7.0428    5.3472   -2.3245 C   0  0  0  0  0  0  0  0  0  0  0  0
   -8.2685    7.7084    2.2031 C   0  0  1  0  0  0  0  0  0  0  0  0
   -9.5659    7.4982    1.3737 C   0  0  1  0  0  0  0  0  0  0  0  0
  -10.2943    6.1541    1.6635 C   0  0  2  0  0  0  0  0  0  0  0  0
   -9.3139    4.9432    1.5430 C   0  0  1  0  0  0  0  0  0  0  0  0
   -9.1020    4.5725    0.1513 O   0  0  0  0  0  0  0  0  0  0  0  0
   -7.9279    6.4332    3.0327 C   0  0  1  0  0  0  0  0  0  0  0  0
   -8.0082    5.2512    2.1706 O   0  0  0  0  0  0  0  0  0  0  0  0
   -6.5182    6.5027    3.6744 C   0  0  0  0  0  0  0  0  0  0  0  0
   -2.9046    6.3770   -2.7462 N   0  3  0  0  0  0  0  0  0  0  0  0
   -8.7015    1.8461   -0.1430 O   0  0  0  0  0  0  0  0  0  0  0  0
  -10.4614    8.5718    1.6601 O   0  0  0  0  0  0  0  0  0  0  0  0
   -7.2003    8.0098    1.3025 O   0  0  0  0  0  0  0  0  0  0  0  0
   -7.8840    6.4361   -1.9847 O   0  0  0  0  0  0  0  0  0  0  0  0
   -6.1105    0.9222    2.0070 O   0  0  0  0  0  0  0  0  0  0  0  0
   -5.8197    7.7693    3.3884 N   0  3  0  0  0  0  0  0  0  0  0  0
  -11.5016    5.9981    0.8148 N   0  3  0  0  0  0  0  0  0  0  0  0
  1  2  1  1  0  0  0
  1  3  1  0  0  0  0
  1 10  1  0  0  0  0
  3  4  1  1  0  0  0
  3  5  1  0  0  0  0
  5  6  1  6  0  0  0
  5  7  1  0  0  0  0
  7  8  1  6  0  0  0
  7  9  1  0  0  0  0
  9 10  1  0  0  0  0
  9 11  1  1  0  0  0
 11 35  1  0  0  0  0
 12 13  1  1  0  0  0
 12 14  1  0  0  0  0
 12 20  1  0  0  0  0
 14 15  1  0  0  0  0
 14 40  1  6  0  0  0
 15 16  1  6  0  0  0
 15 17  1  0  0  0  0
 17  2  1  6  0  0  0
 17 18  1  0  0  0  0
 18 19  1  1  0  0  0
 18 20  1  0  0  0  0
 21 16  1  1  0  0  0
 21 22  1  0  0  0  0
 21 25  1  0  0  0  0
 22 23  1  0  0  0  0
 22 36  1  6  0  0  0
 23 24  1  0  0  0  0
 23 31  1  6  0  0  0
 24 25  1  0  0  0  0
 24 26  1  1  0  0  0
 26 39  1  0  0  0  0
 27 28  1  0  0  0  0
 27 32  1  0  0  0  0
 27 38  1  6  0  0  0
 28 29  1  0  0  0  0
 28 37  1  1  0  0  0
 29 30  1  0  0  0  0
 29 42  1  6  0  0  0
 30 31  1  6  0  0  0
 30 33  1  0  0  0  0
 32 33  1  0  0  0  0
 32 34  1  6  0  0  0
 34 41  1  0  0  0  0
M  CHG  6   4   1  13   1  19   1  35   1  41   1  42   1
M  END
>  <CHROM.1>
-110.00774436,62.73368169,-152.24234131,-179.19522048,-58.76554822,-179.60892936
41.59604032,60.95892078,-62.37714120,-81.42121556,99.62931464,-63.97714019
156.92683281,79.32995636,-55.63843571,165.75869693,61.72282402,-56.59228155
56.76683699,144.81867684,1.35280201,-169.68321872,-5.56225493,3.88924763
-0.16044186,0.34905121,0.66605256,-1.30890585

>  <Name>


>  <RI>
0

>  <Rbt.Current_Directory>
/home/itssahil/PROJECTS/Mol_Feturizer/New_Systems/rnas/1ei2

>  <Rbt.Executable>
rbdock ($Id: //depot/dev/client3/rdock/2013.1/src/exe/rbdock.cxx#4 $)

>  <Rbt.Library>
libRbt.so (2013.1, Build901 2013/11/27)

>  <Rbt.Parameter_File>
/export/apps/rDock/src/rDock_2013.1_src/data/scripts/dock_solv.prm

>  <Rbt.Receptor>
prm/pocket_docking_2.prm

>  <SCORE>
-27.8004

>  <SCORE.INTER>
-18.6978

>  <SCORE.INTER.CONST>
1

>  <SCORE.INTER.POLAR>
-1.9887

>  <SCORE.INTER.ROT>
9

>  <SCORE.INTER.SOLV>
25.1399

>  <SCORE.INTER.VDW>
-23.8162

>  <SCORE.INTER.norm>
-0.445186

>  <SCORE.INTRA>
-14.0778

>  <SCORE.INTRA.DIHEDRAL>
-8.54062

>  <SCORE.INTRA.DIHEDRAL.0>
40.8761

>  <SCORE.INTRA.POLAR>
-0.960489

>  <SCORE.INTRA.POLAR.0>
-0.0268208

>  <SCORE.INTRA.REPUL>
-0.641615

>  <SCORE.INTRA.REPUL.0>
0.641615

>  <SCORE.INTRA.SOLV>
-7.07173

>  <SCORE.INTRA.SOLV.lig_0>
-162.567

>  <SCORE.INTRA.VDW>
0.202081

>  <SCORE.INTRA.VDW.0>
-4.80338

>  <SCORE.INTRA.norm>
-0.335186

>  <SCORE.RESTR>
4.97525

>  <SCORE.RESTR.CAVITY>
4.97525

>  <SCORE.RESTR.norm>
0.118458

>  <SCORE.SYSTEM>
0

>  <SCORE.SYSTEM.CONST>
0

>  <SCORE.SYSTEM.DIHEDRAL>
0

>  <SCORE.SYSTEM.SOLV>
0

>  <SCORE.SYSTEM.norm>
0

>  <SCORE.heavy>
42

>  <SCORE.norm>
-0.661914

>  <RMSD>
7.440

$$$$

 OpenBabel11021811393D
libRbt.so/2013.1/901 2013/11/27
 42 45  0  0  0  0  0  0  0  0999 V2000
   -6.5090    3.0772   -6.0973 C   0  0  2  0  0  0  0  0  0  0  0  0
   -5.0733    3.2795   -5.9203 O   0  0  0  0  0  0  0  0  0  0  0  0
   -7.3415    4.1427   -5.3127 C   0  0  2  0  0  0  0  0  0  0  0  0
   -6.5021    5.2846   -4.8832 N   0  3  0  0  0  0  0  0  0  0  0  0
   -8.0502    3.4931   -4.0860 C   0  0  1  0  0  0  0  0  0  0  0  0
   -8.8141    4.4719   -3.3847 O   0  0  0  0  0  0  0  0  0  0  0  0
   -8.9989    2.3409   -4.5120 C   0  0  2  0  0  0  0  0  0  0  0  0
   -9.3818    1.6115   -3.3513 O   0  0  0  0  0  0  0  0  0  0  0  0
   -8.3077    1.3875   -5.5400 C   0  0  2  0  0  0  0  0  0  0  0  0
   -6.8881    1.7257   -5.6649 O   0  0  0  0  0  0  0  0  0  0  0  0
   -8.8992    1.4458   -6.9672 C   0  0  0  0  0  0  0  0  0  0  0  0
   -3.9444   -0.5120   -7.6436 C   0  0  1  0  0  0  0  0  0  0  0  0
   -3.1599   -1.6383   -8.1973 N   0  3  0  0  0  0  0  0  0  0  0  0
   -3.6968   -0.3397   -6.1221 C   0  0  1  0  0  0  0  0  0  0  0  0
   -4.3844    0.9299   -5.5095 C   0  0  1  0  0  0  0  0  0  0  0  0
   -3.8229    1.1574   -4.1889 O   0  0  0  0  0  0  0  0  0  0  0  0
   -4.1500    2.2348   -6.3560 C   0  0  1  0  0  0  0  0  0  0  0  0
   -4.3859    1.9934   -7.8821 C   0  0  1  0  0  0  0  0  0  0  0  0
   -4.0232    3.1737   -8.6928 N   0  3  0  0  0  0  0  0  0  0  0  0
   -3.5815    0.7811   -8.4030 C   0  0  0  0  0  0  0  0  0  0  0  0
   -2.5413    0.5584   -3.8402 C   0  0  1  0  0  0  0  0  0  0  0  0
   -2.0605    1.1698   -2.5295 C   0  0  1  0  0  0  0  0  0  0  0  0
   -2.8845    0.3582   -1.5392 C   0  0  1  0  0  0  0  0  0  0  0  0
   -2.8073   -1.0481   -2.1504 C   0  0  2  0  0  0  0  0  0  0  0  0
   -2.7093   -0.8449   -3.5804 O   0  0  0  0  0  0  0  0  0  0  0  0
   -4.0353   -1.9159   -1.8214 C   0  0  0  0  0  0  0  0  0  0  0  0
   -1.1475    1.8350    3.1644 C   0  0  1  0  0  0  0  0  0  0  0  0
   -0.7832    2.4147    1.7691 C   0  0  1  0  0  0  0  0  0  0  0  0
   -2.0079    2.6449    0.8374 C   0  0  2  0  0  0  0  0  0  0  0  0
   -2.8860    1.3568    0.7305 C   0  0  1  0  0  0  0  0  0  0  0  0
   -2.3079    0.4001   -0.2021 O   0  0  0  0  0  0  0  0  0  0  0  0
   -2.6642    1.4824    3.2395 C   0  0  1  0  0  0  0  0  0  0  0  0
   -3.0480    0.7118    2.0539 O   0  0  0  0  0  0  0  0  0  0  0  0
   -3.0220    0.6732    4.5127 C   0  0  0  0  0  0  0  0  0  0  0  0
   -8.2593    0.5318   -7.9298 N   0  3  0  0  0  0  0  0  0  0  0  0
   -0.6624    0.9288   -2.3684 O   0  0  0  0  0  0  0  0  0  0  0  0
   -0.1166    3.6618    1.9606 O   0  0  0  0  0  0  0  0  0  0  0  0
   -0.3581    0.6645    3.3875 O   0  0  0  0  0  0  0  0  0  0  0  0
   -3.8314   -2.6469   -0.6244 O   0  0  0  0  0  0  0  0  0  0  0  0
   -4.1883   -1.4953   -5.4436 O   0  0  0  0  0  0  0  0  0  0  0  0
   -2.9284    1.4746    5.7468 N   0  3  0  0  0  0  0  0  0  0  0  0
   -1.5900    3.1628   -0.4890 N   0  3  0  0  0  0  0  0  0  0  0  0
  1  2  1  1  0  0  0
  1  3  1  0  0  0  0
  1 10  1  0  0  0  0
  3  4  1  1  0  0  0
  3  5  1  0  0  0  0
  5  6  1  6  0  0  0
  5  7  1  0  0  0  0
  7  8  1  1  0  0  0
  7  9  1  0  0  0  0
  9 10  1  0  0  0  0
  9 11  1  6  0  0  0
 11 35  1  0  0  0  0
 12 13  1  6  0  0  0
 12 14  1  0  0  0  0
 12 20  1  0  0  0  0
 14 15  1  0  0  0  0
 14 40  1  1  0  0  0
 15 16  1  1  0  0  0
 15 17  1  0  0  0  0
 17  2  1  1  0  0  0
 17 18  1  0  0  0  0
 18 19  1  6  0  0  0
 18 20  1  0  0  0  0
 21 16  1  1  0  0  0
 21 22  1  0  0  0  0
 21 25  1  0  0  0  0
 22 23  1  0  0  0  0
 22 36  1  1  0  0  0
 23 24  1  0  0  0  0
 23 31  1  1  0  0  0
 24 25  1  0  0  0  0
 24 26  1  6  0  0  0
 26 39  1  0  0  0  0
 27 28  1  0  0  0  0
 27 32  1  0  0  0  0
 27 38  1  6  0  0  0
 28 29  1  0  0  0  0
 28 37  1  1  0  0  0
 29 30  1  0  0  0  0
 29 42  1  6  0  0  0
 30 31  1  6  0  0  0
 30 33  1  0  0  0  0
 32 33  1  0  0  0  0
 32 34  1  1  0  0  0
 34 41  1  0  0  0  0
M  CHG  6   4   1  13   1  19   1  35   1  41   1  42   1
M  END
>  <CHROM.1>
168.00578329,-63.98074240,-65.77131913,60.11987773,-63.50645611,-179.13571579
-178.39824888,167.89563628,63.68008079,19.52597925,168.93675487,-170.36536563
59.28416284,98.02864253,-90.26089756,-63.75570156,173.51318032,171.01757160
-65.45969440,-100.09769853,69.86877000,150.01114528,-4.19352234,1.33351566
-2.92759595,2.11166886,0.55659288,-1.83407911

>  <Name>


>  <RI>
0

>  <Rbt.Current_Directory>
/home/itssahil/PROJECTS/Mol_Feturizer/New_Systems/rnas/1ei2

>  <Rbt.Executable>
rbdock ($Id: //depot/dev/client3/rdock/2013.1/src/exe/rbdock.cxx#4 $)

>  <Rbt.Library>
libRbt.so (2013.1, Build901 2013/11/27)

>  <Rbt.Parameter_File>
/export/apps/rDock/src/rDock_2013.1_src/data/scripts/dock_solv.prm

>  <Rbt.Receptor>
prm/pocket_docking_6.prm

>  <SCORE>
-58.8305

>  <SCORE.INTER>
-46.0198

>  <SCORE.INTER.CONST>
1

>  <SCORE.INTER.POLAR>
-7.67296

>  <SCORE.INTER.ROT>
9

>  <SCORE.INTER.SOLV>
28.0423

>  <SCORE.INTER.VDW>
-24.0507

>  <SCORE.INTER.norm>
-1.09571

>  <SCORE.INTRA>
-12.8107

>  <SCORE.INTRA.DIHEDRAL>
-16.7343

>  <SCORE.INTRA.DIHEDRAL.0>
40.8761

>  <SCORE.INTRA.POLAR>
-0.263479

>  <SCORE.INTRA.POLAR.0>
-0.0268208

>  <SCORE.INTRA.REPUL>
-0.641615

>  <SCORE.INTRA.REPUL.0>
0.641615

>  <SCORE.INTRA.SOLV>
-8.00014

>  <SCORE.INTRA.SOLV.lig_0>
-162.567

>  <SCORE.INTRA.VDW>
3.66039

>  <SCORE.INTRA.VDW.0>
-4.80338

>  <SCORE.INTRA.norm>
-0.305017

>  <SCORE.RESTR>
0

>  <SCORE.RESTR.CAVITY>
0

>  <SCORE.RESTR.norm>
0

>  <SCORE.SYSTEM>
0

>  <SCORE.SYSTEM.CONST>
0

>  <SCORE.SYSTEM.DIHEDRAL>
0

>  <SCORE.SYSTEM.SOLV>
0

>  <SCORE.SYSTEM.norm>
0

>  <SCORE.heavy>
42

>  <SCORE.norm>
-1.40073

>  <RMSD>
7.446

$$$$

 OpenBabel11021811393D
libRbt.so/2013.1/901 2013/11/27
 42 45  0  0  0  0  0  0  0  0999 V2000
   -3.9903    2.8796   -2.2269 C   0  0  2  0  0  0  0  0  0  0  0  0
   -3.3861    1.9385   -1.2872 O   0  0  0  0  0  0  0  0  0  0  0  0
   -3.4085    2.7083   -3.6677 C   0  0  2  0  0  0  0  0  0  0  0  0
   -2.6695    1.4329   -3.8109 N   0  3  0  0  0  0  0  0  0  0  0  0
   -2.4942    3.9146   -4.0389 C   0  0  1  0  0  0  0  0  0  0  0  0
   -1.9779    3.7522   -5.3582 O   0  0  0  0  0  0  0  0  0  0  0  0
   -3.2626    5.2617   -3.9736 C   0  0  2  0  0  0  0  0  0  0  0  0
   -2.3217    6.3279   -4.0342 O   0  0  0  0  0  0  0  0  0  0  0  0
   -4.1097    5.3687   -2.6642 C   0  0  2  0  0  0  0  0  0  0  0  0
   -3.7881    4.2589   -1.7641 O   0  0  0  0  0  0  0  0  0  0  0  0
   -5.6394    5.3249   -2.8844 C   0  0  0  0  0  0  0  0  0  0  0  0
   -2.0833    1.6097    2.8133 C   0  0  1  0  0  0  0  0  0  0  0  0
   -1.5485    1.9190    4.1582 N   0  3  0  0  0  0  0  0  0  0  0  0
   -3.4520    2.2990    2.5727 C   0  0  1  0  0  0  0  0  0  0  0  0
   -3.9965    2.1306    1.1115 C   0  0  1  0  0  0  0  0  0  0  0  0
   -5.0885    3.0703    0.9231 O   0  0  0  0  0  0  0  0  0  0  0  0
   -2.9176    2.4289    0.0065 C   0  0  1  0  0  0  0  0  0  0  0  0
   -1.5531    1.7327    0.3168 C   0  0  1  0  0  0  0  0  0  0  0  0
   -0.4980    2.1306   -0.6373 N   0  3  0  0  0  0  0  0  0  0  0  0
   -1.0589    2.0488    1.7464 C   0  0  0  0  0  0  0  0  0  0  0  0
   -4.8103    4.5003    0.9028 C   0  0  1  0  0  0  0  0  0  0  0  0
   -6.0763    5.2351    0.4785 C   0  0  1  0  0  0  0  0  0  0  0  0
   -6.8340    5.2443    1.7992 C   0  0  1  0  0  0  0  0  0  0  0  0
   -5.7099    5.5489    2.7996 C   0  0  2  0  0  0  0  0  0  0  0  0
   -4.5148    4.9624    2.2310 O   0  0  0  0  0  0  0  0  0  0  0  0
   -5.9738    4.9633    4.1984 C   0  0  0  0  0  0  0  0  0  0  0  0
  -11.5996    5.7375    1.0916 C   0  0  1  0  0  0  0  0  0  0  0  0
  -10.9654    7.0617    1.6011 C   0  0  1  0  0  0  0  0  0  0  0  0
   -9.7396    7.5398    0.7703 C   0  0  2  0  0  0  0  0  0  0  0  0
   -8.6822    6.3996    0.6168 C   0  0  1  0  0  0  0  0  0  0  0  0
   -7.8674    6.2707    1.8163 O   0  0  0  0  0  0  0  0  0  0  0  0
  -10.7486    5.1225   -0.0607 C   0  0  1  0  0  0  0  0  0  0  0  0
   -9.3365    5.1023    0.3293 O   0  0  0  0  0  0  0  0  0  0  0  0
  -11.1981    3.6844   -0.4267 C   0  0  0  0  0  0  0  0  0  0  0  0
   -6.1768    6.4600   -3.6552 N   0  3  0  0  0  0  0  0  0  0  0  0
   -5.7477    6.5583    0.0544 O   0  0  0  0  0  0  0  0  0  0  0  0
  -11.9637    8.0808    1.5664 O   0  0  0  0  0  0  0  0  0  0  0  0
  -11.6785    4.8234    2.1876 O   0  0  0  0  0  0  0  0  0  0  0  0
   -6.2890    3.5839    4.1176 O   0  0  0  0  0  0  0  0  0  0  0  0
   -4.4075    1.7509    3.4805 O   0  0  0  0  0  0  0  0  0  0  0  0
  -12.5039    3.6483   -1.1106 N   0  3  0  0  0  0  0  0  0  0  0  0
   -9.1589    8.7858    1.3292 N   0  3  0  0  0  0  0  0  0  0  0  0
  1  2  1  1  0  0  0
  1  3  1  0  0  0  0
  1 10  1  0  0  0  0
  3  4  1  1  0  0  0
  3  5  1  0  0  0  0
  5  6  1  6  0  0  0
  5  7  1  0  0  0  0
  7  8  1  1  0  0  0
  7  9  1  0  0  0  0
  9 10  1  0  0  0  0
  9 11  1  6  0  0  0
 11 35  1  0  0  0  0
 12 13  1  1  0  0  0
 12 14  1  0  0  0  0
 12 20  1  0  0  0  0
 14 15  1  0  0  0  0
 14 40  1  1  0  0  0
 15 16  1  6  0  0  0
 15 17  1  0  0  0  0
 17  2  1  6  0  0  0
 17 18  1  0  0  0  0
 18 19  1  6  0  0  0
 18 20  1  0  0  0  0
 21 16  1  1  0  0  0
 21 22  1  0  0  0  0
 21 25  1  0  0  0  0
 22 23  1  0  0  0  0
 22 36  1  1  0  0  0
 23 24  1  0  0  0  0
 23 31  1  6  0  0  0
 24 25  1  0  0  0  0
 24 26  1  1  0  0  0
 26 39  1  0  0  0  0
 27 28  1  0  0  0  0
 27 32  1  0  0  0  0
 27 38  1  1  0  0  0
 28 29  1  0  0  0  0
 28 37  1  6  0  0  0
 29 30  1  0  0  0  0
 29 42  1  1  0  0  0
 30 31  1  1  0  0  0
 30 33  1  0  0  0  0
 32 33  1  0  0  0  0
 32 34  1  1  0  0  0
 34 41  1  0  0  0  0
M  CHG  6   4   1  13   1  19   1  35   1  41   1  42   1
M  END
>  <CHROM.1>
133.05674544,98.79924299,-108.54803495,-172.20169023,66.19025710,-64.28940692
-82.44413219,-45.86894825,57.96278977,67.76467645,171.31792672,58.77923096
62.99598670,43.66442005,51.72325358,-72.46612337,-63.88356296,-55.08052936
177.05593182,-179.64409205,70.82886073,-17.95983604,-5.75347512,4.38398591
0.07170857,0.16555083,0.42597501,-1.33972426

>  <Name>


>  <RI>
0

>  <Rbt.Current_Directory>
/home/itssahil/PROJECTS/Mol_Feturizer/New_Systems/rnas/1ei2

>  <Rbt.Executable>
rbdock ($Id: //depot/dev/client3/rdock/2013.1/src/exe/rbdock.cxx#4 $)

>  <Rbt.Library>
libRbt.so (2013.1, Build901 2013/11/27)

>  <Rbt.Parameter_File>
/export/apps/rDock/src/rDock_2013.1_src/data/scripts/dock_solv.prm

>  <Rbt.Receptor>
prm/pocket_docking_3.prm

>  <SCORE>
-53.2662

>  <SCORE.INTER>
-37.1951

>  <SCORE.INTER.CONST>
1

>  <SCORE.INTER.POLAR>
-6.19512

>  <SCORE.INTER.ROT>
9

>  <SCORE.INTER.SOLV>
33.0553

>  <SCORE.INTER.VDW>
-24.7648

>  <SCORE.INTER.norm>
-0.885597

>  <SCORE.INTRA>
-16.1736

>  <SCORE.INTRA.DIHEDRAL>
-16.6696

>  <SCORE.INTRA.DIHEDRAL.0>
40.8761

>  <SCORE.INTRA.POLAR>
-0.212542

>  <SCORE.INTRA.POLAR.0>
-0.0268208

>  <SCORE.INTRA.REPUL>
-0.641615

>  <SCORE.INTRA.REPUL.0>
0.641615

>  <SCORE.INTRA.SOLV>
-8.36578

>  <SCORE.INTRA.SOLV.lig_0>
-162.567

>  <SCORE.INTRA.VDW>
0.274863

>  <SCORE.INTRA.VDW.0>
-4.80338

>  <SCORE.INTRA.norm>
-0.385085

>  <SCORE.RESTR>
0.102451

>  <SCORE.RESTR.CAVITY>
0.102451

>  <SCORE.RESTR.norm>
0.0024393

>  <SCORE.SYSTEM>
0

>  <SCORE.SYSTEM.CONST>
0

>  <SCORE.SYSTEM.DIHEDRAL>
0

>  <SCORE.SYSTEM.SOLV>
0

>  <SCORE.SYSTEM.norm>
0

>  <SCORE.heavy>
42

>  <SCORE.norm>
-1.26824

>  <RMSD>
7.448

$$$$

 OpenBabel11021811393D
libRbt.so/2013.1/901 2013/11/27
 42 45  0  0  0  0  0  0  0  0999 V2000
   -3.7445    2.2522   -2.8368 C   0  0  2  0  0  0  0  0  0  0  0  0
   -3.9032    1.4152   -1.6503 O   0  0  0  0  0  0  0  0  0  0  0  0
   -4.2006    1.5064   -4.1328 C   0  0  2  0  0  0  0  0  0  0  0  0
   -4.9971    0.2986   -3.8170 N   0  3  0  0  0  0  0  0  0  0  0  0
   -2.9710    1.1352   -5.0155 C   0  0  1  0  0  0  0  0  0  0  0  0
   -3.4000    0.4649   -6.1988 O   0  0  0  0  0  0  0  0  0  0  0  0
   -2.1578    2.3911   -5.4287 C   0  0  2  0  0  0  0  0  0  0  0  0
   -0.9122    1.9701   -5.9737 O   0  0  0  0  0  0  0  0  0  0  0  0
   -1.9161    3.3373   -4.2081 C   0  0  2  0  0  0  0  0  0  0  0  0
   -2.3467    2.6829   -2.9705 O   0  0  0  0  0  0  0  0  0  0  0  0
   -2.6747    4.6825   -4.2792 C   0  0  0  0  0  0  0  0  0  0  0  0
   -3.7463    1.4702    2.6616 C   0  0  1  0  0  0  0  0  0  0  0  0
   -3.5469    1.8926    4.0659 N   0  3  0  0  0  0  0  0  0  0  0  0
   -4.9243    2.2322    1.9998 C   0  0  1  0  0  0  0  0  0  0  0  0
   -5.0880    1.9361    0.4683 C   0  0  1  0  0  0  0  0  0  0  0  0
   -5.9869    2.9303   -0.0925 O   0  0  0  0  0  0  0  0  0  0  0  0
   -3.7348    2.0160   -0.3297 C   0  0  1  0  0  0  0  0  0  0  0  0
   -2.5795    1.2559    0.3985 C   0  0  1  0  0  0  0  0  0  0  0  0
   -1.2774    1.4540   -0.2703 N   0  3  0  0  0  0  0  0  0  0  0  0
   -2.4402    1.6983    1.8726 C   0  0  0  0  0  0  0  0  0  0  0  0
   -5.4656    4.2360   -0.4748 C   0  0  1  0  0  0  0  0  0  0  0  0
   -6.6292    5.1091   -0.9292 C   0  0  1  0  0  0  0  0  0  0  0  0
   -7.1744    5.5505    0.4223 C   0  0  1  0  0  0  0  0  0  0  0  0
   -5.8816    5.8211    1.2049 C   0  0  2  0  0  0  0  0  0  0  0  0
   -4.9042    4.8959    0.6717 O   0  0  0  0  0  0  0  0  0  0  0  0
   -6.0401    5.6090    2.7212 C   0  0  0  0  0  0  0  0  0  0  0  0
  -11.0126    4.3805    0.4956 C   0  0  1  0  0  0  0  0  0  0  0  0
  -10.8642    5.7101    1.2865 C   0  0  1  0  0  0  0  0  0  0  0  0
  -10.4790    6.9336    0.4057 C   0  0  2  0  0  0  0  0  0  0  0  0
   -9.2229    6.6249   -0.4711 C   0  0  1  0  0  0  0  0  0  0  0  0
   -7.9961    6.7474    0.3030 O   0  0  0  0  0  0  0  0  0  0  0  0
  -10.5893    4.5704   -0.9927 C   0  0  1  0  0  0  0  0  0  0  0  0
   -9.3003    5.2643   -1.0514 O   0  0  0  0  0  0  0  0  0  0  0  0
  -10.4799    3.2241   -1.7539 C   0  0  0  0  0  0  0  0  0  0  0  0
   -4.0975    4.5613   -4.6427 N   0  3  0  0  0  0  0  0  0  0  0  0
   -6.1361    6.2176   -1.6820 O   0  0  0  0  0  0  0  0  0  0  0  0
  -12.1048    5.9887    1.9344 O   0  0  0  0  0  0  0  0  0  0  0  0
  -10.1917    3.3902    1.1187 O   0  0  0  0  0  0  0  0  0  0  0  0
   -6.9959    6.5062    3.2599 O   0  0  0  0  0  0  0  0  0  0  0  0
   -6.1349    1.8720    2.6648 O   0  0  0  0  0  0  0  0  0  0  0  0
   -9.4481    2.3315   -1.1950 N   0  3  0  0  0  0  0  0  0  0  0  0
  -10.3166    8.1608    1.2240 N   0  3  0  0  0  0  0  0  0  0  0  0
  1  2  1  1  0  0  0
  1  3  1  0  0  0  0
  1 10  1  0  0  0  0
  3  4  1  1  0  0  0
  3  5  1  0  0  0  0
  5  6  1  6  0  0  0
  5  7  1  0  0  0  0
  7  8  1  1  0  0  0
  7  9  1  0  0  0  0
  9 10  1  0  0  0  0
  9 11  1  6  0  0  0
 11 35  1  0  0  0  0
 12 13  1  1  0  0  0
 12 14  1  0  0  0  0
 12 20  1  0  0  0  0
 14 15  1  0  0  0  0
 14 40  1  1  0  0  0
 15 16  1  6  0  0  0
 15 17  1  0  0  0  0
 17  2  1  6  0  0  0
 17 18  1  0  0  0  0
 18 19  1  6  0  0  0
 18 20  1  0  0  0  0
 21 16  1  1  0  0  0
 21 22  1  0  0  0  0
 21 25  1  0  0  0  0
 22 23  1  0  0  0  0
 22 36  1  6  0  0  0
 23 24  1  0  0  0  0
 23 31  1  6  0  0  0
 24 25  1  0  0  0  0
 24 26  1  1  0  0  0
 26 39  1  0  0  0  0
 27 28  1  0  0  0  0
 27 32  1  0  0  0  0
 27 38  1  1  0  0  0
 28 29  1  0  0  0  0
 28 37  1  6  0  0  0
 29 30  1  0  0  0  0
 29 42  1  1  0  0  0
 30 31  1  1  0  0  0
 30 33  1  0  0  0  0
 32 33  1  0  0  0  0
 32 34  1  1  0  0  0
 34 41  1  0  0  0  0
M  CHG  6   4   1  13   1  19   1  35   1  41   1  42   1
M  END
>  <CHROM.1>
-170.11973252,116.74325886,45.24067781,-72.58938697,76.35563142,47.15439623
-161.33606331,177.60100744,-173.06509767,82.75066496,-175.76983367,-129.90330632
61.03152670,64.32447045,-62.11959206,-60.24117257,61.72840819,-56.60279535
-174.45063069,119.25684570,-62.41251270,-80.76408404,-5.91676159,3.63239340
-0.74187642,0.52336463,0.49111741,-1.57994252

>  <Name>


>  <RI>
0

>  <Rbt.Current_Directory>
/home/itssahil/PROJECTS/Mol_Feturizer/New_Systems/rnas/1ei2

>  <Rbt.Executable>
rbdock ($Id: //depot/dev/client3/rdock/2013.1/src/exe/rbdock.cxx#4 $)

>  <Rbt.Library>
libRbt.so (2013.1, Build901 2013/11/27)

>  <Rbt.Parameter_File>
/export/apps/rDock/src/rDock_2013.1_src/data/scripts/dock_solv.prm

>  <Rbt.Receptor>
prm/pocket_docking_2.prm

>  <SCORE>
-30.5687

>  <SCORE.INTER>
-16.6234

>  <SCORE.INTER.CONST>
1

>  <SCORE.INTER.POLAR>
-2.02421

>  <SCORE.INTER.ROT>
9

>  <SCORE.INTER.SOLV>
18.1835

>  <SCORE.INTER.VDW>
-19.996

>  <SCORE.INTER.norm>
-0.395794

>  <SCORE.INTRA>
-17.013

>  <SCORE.INTRA.DIHEDRAL>
-14.1953

>  <SCORE.INTRA.DIHEDRAL.0>
40.8761

>  <SCORE.INTRA.POLAR>
-1.93734

>  <SCORE.INTRA.POLAR.0>
-0.0268208

>  <SCORE.INTRA.REPUL>
-0.543586

>  <SCORE.INTRA.REPUL.0>
0.641615

>  <SCORE.INTRA.SOLV>
-2.10212

>  <SCORE.INTRA.SOLV.lig_0>
-162.567

>  <SCORE.INTRA.VDW>
0.440539

>  <SCORE.INTRA.VDW.0>
-4.80338

>  <SCORE.INTRA.norm>
-0.405072

>  <SCORE.RESTR>
3.06766

>  <SCORE.RESTR.CAVITY>
3.06766

>  <SCORE.RESTR.norm>
0.0730395

>  <SCORE.SYSTEM>
0

>  <SCORE.SYSTEM.CONST>
0

>  <SCORE.SYSTEM.DIHEDRAL>
0

>  <SCORE.SYSTEM.SOLV>
0

>  <SCORE.SYSTEM.norm>
0

>  <SCORE.heavy>
42

>  <SCORE.norm>
-0.727827

>  <RMSD>
7.453

$$$$

 OpenBabel11021811393D
libRbt.so/2013.1/901 2013/11/27
 42 45  0  0  0  0  0  0  0  0999 V2000
   -8.9022   -2.9947   -0.3253 C   0  0  2  0  0  0  0  0  0  0  0  0
   -8.0500   -1.8217   -0.1477 O   0  0  0  0  0  0  0  0  0  0  0  0
   -9.9059   -3.1622    0.8614 C   0  0  2  0  0  0  0  0  0  0  0  0
   -9.9974   -1.9303    1.6782 N   0  3  0  0  0  0  0  0  0  0  0  0
   -9.5091   -4.3794    1.7502 C   0  0  1  0  0  0  0  0  0  0  0  0
  -10.4371   -4.5281    2.8226 O   0  0  0  0  0  0  0  0  0  0  0  0
   -9.4802   -5.7015    0.9374 C   0  0  2  0  0  0  0  0  0  0  0  0
   -8.8399   -6.7042    1.7185 O   0  0  0  0  0  0  0  0  0  0  0  0
   -8.7264   -5.5168   -0.4196 C   0  0  2  0  0  0  0  0  0  0  0  0
   -8.0792   -4.2036   -0.4616 O   0  0  0  0  0  0  0  0  0  0  0  0
   -9.6296   -5.6004   -1.6716 C   0  0  0  0  0  0  0  0  0  0  0  0
   -8.5048    0.0168   -4.0249 C   0  0  1  0  0  0  0  0  0  0  0  0
   -8.6955    1.0056   -5.1095 N   0  3  0  0  0  0  0  0  0  0  0  0
   -7.1289    0.1921   -3.3304 C   0  0  1  0  0  0  0  0  0  0  0  0
   -6.9319   -0.7287   -2.0761 C   0  0  1  0  0  0  0  0  0  0  0  0
   -5.7752   -0.2499   -1.3388 O   0  0  0  0  0  0  0  0  0  0  0  0
   -8.1602   -0.7142   -1.0936 C   0  0  1  0  0  0  0  0  0  0  0  0
   -9.5186   -0.8653   -1.8517 C   0  0  1  0  0  0  0  0  0  0  0  0
  -10.6777   -0.7029   -0.9505 N   0  3  0  0  0  0  0  0  0  0  0  0
   -9.6514    0.1577   -3.0022 C   0  0  0  0  0  0  0  0  0  0  0  0
   -4.6701   -1.1594   -1.0660 C   0  0  1  0  0  0  0  0  0  0  0  0
   -4.3001   -1.8753   -2.3596 C   0  0  1  0  0  0  0  0  0  0  0  0
   -3.4533   -0.7996   -3.0262 C   0  0  1  0  0  0  0  0  0  0  0  0
   -2.6443   -0.2608   -1.8378 C   0  0  2  0  0  0  0  0  0  0  0  0
   -3.5031   -0.4137   -0.6825 O   0  0  0  0  0  0  0  0  0  0  0  0
   -2.2387    1.2146   -2.0050 C   0  0  0  0  0  0  0  0  0  0  0  0
   -3.0542    0.9704   -7.0742 C   0  0  1  0  0  0  0  0  0  0  0  0
   -1.7944    0.1041   -6.7953 C   0  0  1  0  0  0  0  0  0  0  0  0
   -2.1046   -1.3922   -6.5022 C   0  0  2  0  0  0  0  0  0  0  0  0
   -3.1806   -1.5361   -5.3782 C   0  0  1  0  0  0  0  0  0  0  0  0
   -2.5918   -1.3599   -4.0586 O   0  0  0  0  0  0  0  0  0  0  0  0
   -4.3566    0.1450   -6.8448 C   0  0  1  0  0  0  0  0  0  0  0  0
   -4.2745   -0.5541   -5.5599 O   0  0  0  0  0  0  0  0  0  0  0  0
   -5.6299    1.0296   -6.8646 C   0  0  0  0  0  0  0  0  0  0  0  0
  -10.3837   -6.8602   -1.7960 N   0  3  0  0  0  0  0  0  0  0  0  0
   -3.5288   -3.0398   -2.0636 O   0  0  0  0  0  0  0  0  0  0  0  0
   -0.9379    0.1763   -7.9345 O   0  0  0  0  0  0  0  0  0  0  0  0
   -3.0274    2.1012   -6.2004 O   0  0  0  0  0  0  0  0  0  0  0  0
   -2.3722    1.6255   -3.3548 O   0  0  0  0  0  0  0  0  0  0  0  0
   -6.0983   -0.0981   -4.2743 O   0  0  0  0  0  0  0  0  0  0  0  0
   -5.6119    2.0366   -7.9414 N   0  3  0  0  0  0  0  0  0  0  0  0
   -0.8661   -2.1549   -6.2081 N   0  3  0  0  0  0  0  0  0  0  0  0
  1  2  1  1  0  0  0
  1  3  1  0  0  0  0
  1 10  1  0  0  0  0
  3  4  1  1  0  0  0
  3  5  1  0  0  0  0
  5  6  1  1  0  0  0
  5  7  1  0  0  0  0
  7  8  1  1  0  0  0
  7  9  1  0  0  0  0
  9 10  1  0  0  0  0
  9 11  1  6  0  0  0
 11 35  1  0  0  0  0
 12 13  1  6  0  0  0
 12 14  1  0  0  0  0
 12 20  1  0  0  0  0
 14 15  1  0  0  0  0
 14 40  1  6  0  0  0
 15 16  1  1  0  0  0
 15 17  1  0  0  0  0
 17  2  1  1  0  0  0
 17 18  1  0  0  0  0
 18 19  1  1  0  0  0
 18 20  1  0  0  0  0
 21 16  1  6  0  0  0
 21 22  1  0  0  0  0
 21 25  1  0  0  0  0
 22 23  1  0  0  0  0
 22 36  1  1  0  0  0
 23 24  1  0  0  0  0
 23 31  1  6  0  0  0
 24 25  1  0  0  0  0
 24 26  1  6  0  0  0
 26 39  1  0  0  0  0
 27 28  1  0  0  0  0
 27 32  1  0  0  0  0
 27 38  1  1  0  0  0
 28 29  1  0  0  0  0
 28 37  1  6  0  0  0
 29 30  1  0  0  0  0
 29 42  1  1  0  0  0
 30 31  1  1  0  0  0
 30 33  1  0  0  0  0
 32 33  1  0  0  0  0
 32 34  1  1  0  0  0
 34 41  1  0  0  0  0
M  CHG  6   4   1  13   1  19   1  35   1  41   1  42   1
M  END
>  <CHROM.1>
-115.15609680,-104.62172843,-24.35875223,-170.66537295,-175.13423863,-57.41999067
-96.20730032,-165.92055924,-46.69387081,-123.61271867,48.23828130,-151.66727272
-36.16205154,84.55752047,-16.46059801,-174.39144536,-47.75318153,-164.66534145
-88.69954667,149.68686943,42.47665106,-67.12332022,-6.11765807,-1.44098557
-2.76436471,2.29966835,-0.19832113,2.35116358

>  <Name>


>  <RI>
0

>  <Rbt.Current_Directory>
/home/itssahil/PROJECTS/Mol_Feturizer/New_Systems/rnas/1ei2

>  <Rbt.Executable>
rbdock ($Id: //depot/dev/client3/rdock/2013.1/src/exe/rbdock.cxx#4 $)

>  <Rbt.Library>
libRbt.so (2013.1, Build901 2013/11/27)

>  <Rbt.Parameter_File>
/export/apps/rDock/src/rDock_2013.1_src/data/scripts/dock_solv.prm

>  <Rbt.Receptor>
prm/blind_docking_20.prm

>  <SCORE>
142.598

>  <SCORE.INTER>
116.357

>  <SCORE.INTER.CONST>
1

>  <SCORE.INTER.POLAR>
-5.6851

>  <SCORE.INTER.ROT>
9

>  <SCORE.INTER.SOLV>
65.079

>  <SCORE.INTER.VDW>
65.2284

>  <SCORE.INTER.norm>
2.7704

>  <SCORE.INTRA>
13.6412

>  <SCORE.INTRA.DIHEDRAL>
6.52345

>  <SCORE.INTRA.DIHEDRAL.0>
40.8761

>  <SCORE.INTRA.POLAR>
-1.24156

>  <SCORE.INTRA.POLAR.0>
-0.0268208

>  <SCORE.INTRA.REPUL>
0.249009

>  <SCORE.INTRA.REPUL.0>
0.641615

>  <SCORE.INTRA.SOLV>
-0.295662

>  <SCORE.INTRA.SOLV.lig_0>
-162.567

>  <SCORE.INTRA.VDW>
13.5035

>  <SCORE.INTRA.VDW.0>
-4.80338

>  <SCORE.INTRA.norm>
0.32479

>  <SCORE.RESTR>
12.6002

>  <SCORE.RESTR.CAVITY>
12.6002

>  <SCORE.RESTR.norm>
0.300005

>  <SCORE.SYSTEM>
0

>  <SCORE.SYSTEM.CONST>
0

>  <SCORE.SYSTEM.DIHEDRAL>
0

>  <SCORE.SYSTEM.SOLV>
0

>  <SCORE.SYSTEM.norm>
0

>  <SCORE.heavy>
42

>  <SCORE.norm>
3.39519

>  <RMSD>
7.465

$$$$

 OpenBabel11021811393D
libRbt.so/2013.1/901 2013/11/27
 42 45  0  0  0  0  0  0  0  0999 V2000
   -4.6640    1.5232   -4.3939 C   0  0  2  0  0  0  0  0  0  0  0  0
   -5.5180    1.7714   -3.2352 O   0  0  0  0  0  0  0  0  0  0  0  0
   -3.2981    2.2741   -4.2738 C   0  0  2  0  0  0  0  0  0  0  0  0
   -3.0566    2.7524   -2.8933 N   0  3  0  0  0  0  0  0  0  0  0  0
   -3.2316    3.4600   -5.2828 C   0  0  1  0  0  0  0  0  0  0  0  0
   -1.9780    4.1305   -5.1711 O   0  0  0  0  0  0  0  0  0  0  0  0
   -3.4040    2.9799   -6.7488 C   0  0  2  0  0  0  0  0  0  0  0  0
   -3.6240    4.1151   -7.5786 O   0  0  0  0  0  0  0  0  0  0  0  0
   -4.5980    1.9798   -6.8815 C   0  0  2  0  0  0  0  0  0  0  0  0
   -5.3523    1.9266   -5.6271 O   0  0  0  0  0  0  0  0  0  0  0  0
   -4.1840    0.5259   -7.2057 C   0  0  0  0  0  0  0  0  0  0  0  0
   -8.4399    4.1513   -5.3372 C   0  0  1  0  0  0  0  0  0  0  0  0
   -9.5941    5.0219   -5.6538 N   0  3  0  0  0  0  0  0  0  0  0  0
   -7.3373    4.9253   -4.5681 C   0  0  1  0  0  0  0  0  0  0  0  0
   -6.1563    4.0191   -4.0742 C   0  0  1  0  0  0  0  0  0  0  0  0
   -5.3759    4.7761   -3.1104 O   0  0  0  0  0  0  0  0  0  0  0  0
   -6.6376    2.7006   -3.3642 C   0  0  1  0  0  0  0  0  0  0  0  0
   -7.7672    1.9805   -4.1694 C   0  0  1  0  0  0  0  0  0  0  0  0
   -8.3231    0.8264   -3.4338 N   0  3  0  0  0  0  0  0  0  0  0  0
   -8.9278    2.9404   -4.5150 C   0  0  0  0  0  0  0  0  0  0  0  0
   -6.0221    5.2962   -1.9126 C   0  0  1  0  0  0  0  0  0  0  0  0
   -6.3525    4.1268   -0.9927 C   0  0  1  0  0  0  0  0  0  0  0  0
   -4.9913    3.9023   -0.3483 C   0  0  1  0  0  0  0  0  0  0  0  0
   -4.5187    5.3438   -0.1113 C   0  0  2  0  0  0  0  0  0  0  0  0
   -5.1049    6.1250   -1.1799 O   0  0  0  0  0  0  0  0  0  0  0  0
   -2.9862    5.4858   -0.1303 C   0  0  0  0  0  0  0  0  0  0  0  0
   -3.0621    2.6474    4.1083 C   0  0  1  0  0  0  0  0  0  0  0  0
   -4.3856    1.9103    3.7612 C   0  0  1  0  0  0  0  0  0  0  0  0
   -4.3979    1.2585    2.3483 C   0  0  2  0  0  0  0  0  0  0  0  0
   -3.9902    2.2897    1.2472 C   0  0  1  0  0  0  0  0  0  0  0  0
   -5.1056    3.1578    0.8985 O   0  0  0  0  0  0  0  0  0  0  0  0
   -2.1059    2.6793    2.8774 C   0  0  1  0  0  0  0  0  0  0  0  0
   -2.8465    3.1189    1.6921 O   0  0  0  0  0  0  0  0  0  0  0  0
   -0.8896    3.6157    3.0962 C   0  0  0  0  0  0  0  0  0  0  0  0
   -3.3967    0.3779   -8.4424 N   0  3  0  0  0  0  0  0  0  0  0  0
   -7.3271    4.5297   -0.0302 O   0  0  0  0  0  0  0  0  0  0  0  0
   -4.6003    0.8895    4.7349 O   0  0  0  0  0  0  0  0  0  0  0  0
   -3.3808    3.9789    4.5190 O   0  0  0  0  0  0  0  0  0  0  0  0
   -2.5822    6.6883    0.5017 O   0  0  0  0  0  0  0  0  0  0  0  0
   -6.8071    5.9383   -5.4225 O   0  0  0  0  0  0  0  0  0  0  0  0
   -0.6110    4.4756    1.9314 N   0  3  0  0  0  0  0  0  0  0  0  0
   -5.6996    0.6047    2.0645 N   0  3  0  0  0  0  0  0  0  0  0  0
  1  2  1  1  0  0  0
  1  3  1  0  0  0  0
  1 10  1  0  0  0  0
  3  4  1  1  0  0  0
  3  5  1  0  0  0  0
  5  6  1  6  0  0  0
  5  7  1  0  0  0  0
  7  8  1  6  0  0  0
  7  9  1  0  0  0  0
  9 10  1  0  0  0  0
  9 11  1  1  0  0  0
 11 35  1  0  0  0  0
 12 13  1  1  0  0  0
 12 14  1  0  0  0  0
 12 20  1  0  0  0  0
 14 15  1  0  0  0  0
 14 40  1  6  0  0  0
 15 16  1  1  0  0  0
 15 17  1  0  0  0  0
 17  2  1  6  0  0  0
 17 18  1  0  0  0  0
 18 19  1  1  0  0  0
 18 20  1  0  0  0  0
 21 16  1  6  0  0  0
 21 22  1  0  0  0  0
 21 25  1  0  0  0  0
 22 23  1  0  0  0  0
 22 36  1  1  0  0  0
 23 24  1  0  0  0  0
 23 31  1  1  0  0  0
 24 25  1  0  0  0  0
 24 26  1  6  0  0  0
 26 39  1  0  0  0  0
 27 28  1  0  0  0  0
 27 32  1  0  0  0  0
 27 38  1  6  0  0  0
 28 29  1  0  0  0  0
 28 37  1  1  0  0  0
 29 30  1  0  0  0  0
 29 42  1  6  0  0  0
 30 31  1  1  0  0  0
 30 33  1  0  0  0  0
 32 33  1  0  0  0  0
 32 34  1  1  0  0  0
 34 41  1  0  0  0  0
M  CHG  6   4   1  13   1  19   1  35   1  41   1  42   1
M  END
>  <CHROM.1>
103.65949807,-47.15573526,56.62432970,-169.17085274,59.96622120,-57.57284965
62.24872761,-55.20031134,-177.50569149,58.21173314,70.68019209,-49.90440369
-61.88940670,148.58845097,-161.14135553,-155.62801015,60.06998520,64.58983530
-179.76179530,-163.42423239,-135.08906069,6.30177467,-4.81036213,3.28958164
-1.94994830,-1.82178266,-0.04514913,1.54259624

>  <Name>


>  <RI>
0

>  <Rbt.Current_Directory>
/home/itssahil/PROJECTS/Mol_Feturizer/New_Systems/rnas/1ei2

>  <Rbt.Executable>
rbdock ($Id: //depot/dev/client3/rdock/2013.1/src/exe/rbdock.cxx#4 $)

>  <Rbt.Library>
libRbt.so (2013.1, Build901 2013/11/27)

>  <Rbt.Parameter_File>
/export/apps/rDock/src/rDock_2013.1_src/data/scripts/dock_solv.prm

>  <Rbt.Receptor>
prm/pocket_docking_4.prm

>  <SCORE>
-55.4347

>  <SCORE.INTER>
-37.1694

>  <SCORE.INTER.CONST>
1

>  <SCORE.INTER.POLAR>
-6.48237

>  <SCORE.INTER.ROT>
9

>  <SCORE.INTER.SOLV>
27.481

>  <SCORE.INTER.VDW>
-21.932

>  <SCORE.INTER.norm>
-0.884985

>  <SCORE.INTRA>
-18.3471

>  <SCORE.INTRA.DIHEDRAL>
-14.8436

>  <SCORE.INTRA.DIHEDRAL.0>
40.8761

>  <SCORE.INTRA.POLAR>
-1.55214

>  <SCORE.INTRA.POLAR.0>
-0.0268208

>  <SCORE.INTRA.REPUL>
-0.641615

>  <SCORE.INTRA.REPUL.0>
0.641615

>  <SCORE.INTRA.SOLV>
-6.20328

>  <SCORE.INTRA.SOLV.lig_0>
-162.567

>  <SCORE.INTRA.VDW>
0.661625

>  <SCORE.INTRA.VDW.0>
-4.80338

>  <SCORE.INTRA.norm>
-0.436837

>  <SCORE.RESTR>
0.0818114

>  <SCORE.RESTR.CAVITY>
0.0818114

>  <SCORE.RESTR.norm>
0.00194789

>  <SCORE.SYSTEM>
0

>  <SCORE.SYSTEM.CONST>
0

>  <SCORE.SYSTEM.DIHEDRAL>
0

>  <SCORE.SYSTEM.SOLV>
0

>  <SCORE.SYSTEM.norm>
0

>  <SCORE.heavy>
42

>  <SCORE.norm>
-1.31987

>  <RMSD>
7.465

$$$$

 OpenBabel11021811393D
libRbt.so/2013.1/901 2013/11/27
 42 45  0  0  0  0  0  0  0  0999 V2000
   -3.2174    1.7599   -2.6154 C   0  0  2  0  0  0  0  0  0  0  0  0
   -3.2216    1.3450   -1.2148 O   0  0  0  0  0  0  0  0  0  0  0  0
   -3.9555    0.7245   -3.5248 C   0  0  2  0  0  0  0  0  0  0  0  0
   -4.7706   -0.2204   -2.7274 N   0  3  0  0  0  0  0  0  0  0  0  0
   -2.9375   -0.0489   -4.4162 C   0  0  1  0  0  0  0  0  0  0  0  0
   -3.6230   -0.9826   -5.2480 O   0  0  0  0  0  0  0  0  0  0  0  0
   -2.1200    0.9101   -5.3225 C   0  0  2  0  0  0  0  0  0  0  0  0
   -1.0290    0.1889   -5.8841 O   0  0  0  0  0  0  0  0  0  0  0  0
   -1.5907    2.1397   -4.5155 C   0  0  2  0  0  0  0  0  0  0  0  0
   -1.8384    1.9477   -3.0847 O   0  0  0  0  0  0  0  0  0  0  0  0
   -2.2458    3.4872   -4.8965 C   0  0  0  0  0  0  0  0  0  0  0  0
   -1.3164    2.2908    2.5396 C   0  0  1  0  0  0  0  0  0  0  0  0
   -0.6102    2.9998    3.6300 N   0  3  0  0  0  0  0  0  0  0  0  0
   -2.7441    2.8575    2.3232 C   0  0  1  0  0  0  0  0  0  0  0  0
   -3.4853    2.2472    1.0830 C   0  0  1  0  0  0  0  0  0  0  0  0
   -4.6470    3.0718    0.7978 O   0  0  0  0  0  0  0  0  0  0  0  0
   -2.5991    2.2102   -0.2161 C   0  0  1  0  0  0  0  0  0  0  0  0
   -1.1649    1.6581    0.0686 C   0  0  1  0  0  0  0  0  0  0  0  0
   -0.2861    1.7614   -1.1141 N   0  3  0  0  0  0  0  0  0  0  0  0
   -0.4868    2.3988    1.2432 C   0  0  0  0  0  0  0  0  0  0  0  0
   -4.4649    4.4769    0.4583 C   0  0  1  0  0  0  0  0  0  0  0  0
   -5.6851    4.9495   -0.3232 C   0  0  1  0  0  0  0  0  0  0  0  0
   -6.6574    5.1927    0.8231 C   0  0  1  0  0  0  0  0  0  0  0  0
   -5.7447    5.8458    1.8708 C   0  0  2  0  0  0  0  0  0  0  0  0
   -4.4335    5.2716    1.6552 O   0  0  0  0  0  0  0  0  0  0  0  0
   -6.2057    5.5863    3.3163 C   0  0  0  0  0  0  0  0  0  0  0  0
  -11.3541    5.0006   -0.3156 C   0  0  1  0  0  0  0  0  0  0  0  0
  -10.8547    6.4702   -0.2381 C   0  0  1  0  0  0  0  0  0  0  0  0
   -9.5927    6.7586   -1.1013 C   0  0  2  0  0  0  0  0  0  0  0  0
   -8.4546    5.7317   -0.7982 C   0  0  1  0  0  0  0  0  0  0  0  0
   -7.7442    6.0771    0.4246 O   0  0  0  0  0  0  0  0  0  0  0  0
  -10.3653    4.1217   -1.1402 C   0  0  1  0  0  0  0  0  0  0  0  0
   -8.9955    4.3582   -0.6772 O   0  0  0  0  0  0  0  0  0  0  0  0
  -10.6867    2.6087   -1.0331 C   0  0  0  0  0  0  0  0  0  0  0  0
   -2.6309    3.5982   -6.3145 N   0  3  0  0  0  0  0  0  0  0  0  0
   -5.3770    6.1605   -1.0140 O   0  0  0  0  0  0  0  0  0  0  0  0
  -11.9094    7.3270   -0.6740 O   0  0  0  0  0  0  0  0  0  0  0  0
  -11.4721    4.4927    1.0153 O   0  0  0  0  0  0  0  0  0  0  0  0
   -6.1330    4.2061    3.6299 O   0  0  0  0  0  0  0  0  0  0  0  0
   -3.5223    2.5982    3.4914 O   0  0  0  0  0  0  0  0  0  0  0  0
   -9.6229    1.7553   -1.5936 N   0  3  0  0  0  0  0  0  0  0  0  0
   -9.1458    8.1661   -0.9546 N   0  3  0  0  0  0  0  0  0  0  0  0
  1  2  1  1  0  0  0
  1  3  1  0  0  0  0
  1 10  1  0  0  0  0
  3  4  1  1  0  0  0
  3  5  1  0  0  0  0
  5  6  1  6  0  0  0
  5  7  1  0  0  0  0
  7  8  1  1  0  0  0
  7  9  1  0  0  0  0
  9 10  1  0  0  0  0
  9 11  1  6  0  0  0
 11 35  1  0  0  0  0
 12 13  1  1  0  0  0
 12 14  1  0  0  0  0
 12 20  1  0  0  0  0
 14 15  1  0  0  0  0
 14 40  1  1  0  0  0
 15 16  1  6  0  0  0
 15 17  1  0  0  0  0
 17  2  1  6  0  0  0
 17 18  1  0  0  0  0
 18 19  1  6  0  0  0
 18 20  1  0  0  0  0
 21 16  1  1  0  0  0
 21 22  1  0  0  0  0
 21 25  1  0  0  0  0
 22 23  1  0  0  0  0
 22 36  1  1  0  0  0
 23 24  1  0  0  0  0
 23 31  1  6  0  0  0
 24 25  1  0  0  0  0
 24 26  1  1  0  0  0
 26 39  1  0  0  0  0
 27 28  1  0  0  0  0
 27 32  1  0  0  0  0
 27 38  1  1  0  0  0
 28 29  1  0  0  0  0
 28 37  1  6  0  0  0
 29 30  1  0  0  0  0
 29 42  1  1  0  0  0
 30 31  1  1  0  0  0
 30 33  1  0  0  0  0
 32 33  1  0  0  0  0
 32 34  1  1  0  0  0
 34 41  1  0  0  0  0
M  CHG  6   4   1  13   1  19   1  35   1  41   1  42   1
M  END
>  <CHROM.1>
-178.69555023,139.16888679,-34.32995545,57.72536281,-61.69696117,-32.63587542
78.98436155,-57.56035878,178.42521054,60.73266441,157.11723287,179.17686447
-58.03786162,50.90045104,64.34622610,-179.41893578,64.11198512,168.59734354
-67.50140748,179.80996091,-169.24082441,-175.97638884,-5.22387465,3.41438405
-0.78224306,0.45787129,0.37659213,-1.91502169

>  <Name>


>  <RI>
0

>  <Rbt.Current_Directory>
/home/itssahil/PROJECTS/Mol_Feturizer/New_Systems/rnas/1ei2

>  <Rbt.Executable>
rbdock ($Id: //depot/dev/client3/rdock/2013.1/src/exe/rbdock.cxx#4 $)

>  <Rbt.Library>
libRbt.so (2013.1, Build901 2013/11/27)

>  <Rbt.Parameter_File>
/export/apps/rDock/src/rDock_2013.1_src/data/scripts/dock_solv.prm

>  <Rbt.Receptor>
prm/pocket_docking_4.prm

>  <SCORE>
-56.1737

>  <SCORE.INTER>
-30.0977

>  <SCORE.INTER.CONST>
1

>  <SCORE.INTER.POLAR>
-4.25884

>  <SCORE.INTER.ROT>
9

>  <SCORE.INTER.SOLV>
24.4879

>  <SCORE.INTER.VDW>
-23.6316

>  <SCORE.INTER.norm>
-0.716612

>  <SCORE.INTRA>
-26.1899

>  <SCORE.INTRA.DIHEDRAL>
-25.6212

>  <SCORE.INTRA.DIHEDRAL.0>
40.8761

>  <SCORE.INTRA.POLAR>
-1.80101

>  <SCORE.INTRA.POLAR.0>
-0.0268208

>  <SCORE.INTRA.REPUL>
-0.641615

>  <SCORE.INTRA.REPUL.0>
0.641615

>  <SCORE.INTRA.SOLV>
-8.847

>  <SCORE.INTRA.SOLV.lig_0>
-162.567

>  <SCORE.INTRA.VDW>
0.375682

>  <SCORE.INTRA.VDW.0>
-4.80338

>  <SCORE.INTRA.norm>
-0.623569

>  <SCORE.RESTR>
0.11391

>  <SCORE.RESTR.CAVITY>
0.11391

>  <SCORE.RESTR.norm>
0.00271214

>  <SCORE.SYSTEM>
0

>  <SCORE.SYSTEM.CONST>
0

>  <SCORE.SYSTEM.DIHEDRAL>
0

>  <SCORE.SYSTEM.SOLV>
0

>  <SCORE.SYSTEM.norm>
0

>  <SCORE.heavy>
42

>  <SCORE.norm>
-1.33747

>  <RMSD>
7.484

$$$$

 OpenBabel11021811393D
libRbt.so/2013.1/901 2013/11/27
 42 45  0  0  0  0  0  0  0  0999 V2000
   -2.8614    1.5669   -1.9049 C   0  0  2  0  0  0  0  0  0  0  0  0
   -2.5801    0.6827   -3.0331 O   0  0  0  0  0  0  0  0  0  0  0  0
   -1.6207    1.7137   -0.9652 C   0  0  2  0  0  0  0  0  0  0  0  0
   -0.3824    1.2255   -1.6142 N   0  3  0  0  0  0  0  0  0  0  0  0
   -1.8609    0.9703    0.3834 C   0  0  1  0  0  0  0  0  0  0  0  0
   -0.7274    1.1199    1.2356 O   0  0  0  0  0  0  0  0  0  0  0  0
   -3.1105    1.5139    1.1266 C   0  0  2  0  0  0  0  0  0  0  0  0
   -3.4398    0.6182    2.1825 O   0  0  0  0  0  0  0  0  0  0  0  0
   -4.3259    1.6674    0.1557 C   0  0  2  0  0  0  0  0  0  0  0  0
   -4.0125    1.0660   -1.1426 O   0  0  0  0  0  0  0  0  0  0  0  0
   -4.7401    3.1297   -0.1275 C   0  0  0  0  0  0  0  0  0  0  0  0
   -3.3811    1.6734   -7.1558 C   0  0  1  0  0  0  0  0  0  0  0  0
   -4.0269    1.8033   -8.4811 N   0  3  0  0  0  0  0  0  0  0  0  0
   -4.1068    2.5269   -6.0829 C   0  0  1  0  0  0  0  0  0  0  0  0
   -3.5597    2.3131   -4.6286 C   0  0  1  0  0  0  0  0  0  0  0  0
   -4.5085    2.8975   -3.6963 O   0  0  0  0  0  0  0  0  0  0  0  0
   -3.3887    0.7975   -4.2440 C   0  0  1  0  0  0  0  0  0  0  0  0
   -2.6783   -0.0170   -5.3732 C   0  0  1  0  0  0  0  0  0  0  0  0
   -2.6502   -1.4642   -5.0791 N   0  3  0  0  0  0  0  0  0  0  0  0
   -3.3608    0.1865   -6.7446 C   0  0  0  0  0  0  0  0  0  0  0  0
   -5.8345    3.2782   -4.1649 C   0  0  1  0  0  0  0  0  0  0  0  0
   -6.8552    2.8885   -3.1023 C   0  0  1  0  0  0  0  0  0  0  0  0
   -6.6924    4.0543   -2.1365 C   0  0  1  0  0  0  0  0  0  0  0  0
   -6.5597    5.2407   -3.1020 C   0  0  2  0  0  0  0  0  0  0  0  0
   -5.9211    4.7075   -4.2866 O   0  0  0  0  0  0  0  0  0  0  0  0
   -5.7237    6.3967   -2.5240 C   0  0  0  0  0  0  0  0  0  0  0  0
   -9.1036    6.5387    1.5043 C   0  0  1  0  0  0  0  0  0  0  0  0
   -9.8102    5.2315    1.0489 C   0  0  1  0  0  0  0  0  0  0  0  0
   -8.8754    3.9887    0.9982 C   0  0  2  0  0  0  0  0  0  0  0  0
   -7.5873    4.2847    0.1645 C   0  0  1  0  0  0  0  0  0  0  0  0
   -7.8508    4.1926   -1.2642 O   0  0  0  0  0  0  0  0  0  0  0  0
   -7.5692    6.3135    1.6625 C   0  0  1  0  0  0  0  0  0  0  0  0
   -7.0490    5.6289    0.4761 O   0  0  0  0  0  0  0  0  0  0  0  0
   -6.7936    7.6402    1.8679 C   0  0  0  0  0  0  0  0  0  0  0  0
   -3.7223    3.9248   -0.8369 N   0  3  0  0  0  0  0  0  0  0  0  0
   -8.1628    2.8621   -3.6752 O   0  0  0  0  0  0  0  0  0  0  0  0
  -10.8795    4.9597    1.9540 O   0  0  0  0  0  0  0  0  0  0  0  0
   -9.3546    7.5518    0.5278 O   0  0  0  0  0  0  0  0  0  0  0  0
   -4.6163    6.6866   -3.3597 O   0  0  0  0  0  0  0  0  0  0  0  0
   -3.9679    3.9062   -6.4230 O   0  0  0  0  0  0  0  0  0  0  0  0
   -5.3656    7.4292    2.1682 N   0  3  0  0  0  0  0  0  0  0  0  0
   -9.6000    2.7846    0.5214 N   0  3  0  0  0  0  0  0  0  0  0  0
  1  2  1  6  0  0  0
  1  3  1  0  0  0  0
  1 10  1  0  0  0  0
  3  4  1  6  0  0  0
  3  5  1  0  0  0  0
  5  6  1  1  0  0  0
  5  7  1  0  0  0  0
  7  8  1  1  0  0  0
  7  9  1  0  0  0  0
  9 10  1  0  0  0  0
  9 11  1  6  0  0  0
 11 35  1  0  0  0  0
 12 13  1  6  0  0  0
 12 14  1  0  0  0  0
 12 20  1  0  0  0  0
 14 15  1  0  0  0  0
 14 40  1  6  0  0  0
 15 16  1  1  0  0  0
 15 17  1  0  0  0  0
 17  2  1  1  0  0  0
 17 18  1  0  0  0  0
 18 19  1  1  0  0  0
 18 20  1  0  0  0  0
 21 16  1  1  0  0  0
 21 22  1  0  0  0  0
 21 25  1  0  0  0  0
 22 23  1  0  0  0  0
 22 36  1  6  0  0  0
 23 24  1  0  0  0  0
 23 31  1  1  0  0  0
 24 25  1  0  0  0  0
 24 26  1  1  0  0  0
 26 39  1  0  0  0  0
 27 28  1  0  0  0  0
 27 32  1  0  0  0  0
 27 38  1  6  0  0  0
 28 29  1  0  0  0  0
 28 37  1  1  0  0  0
 29 30  1  0  0  0  0
 29 42  1  6  0  0  0
 30 31  1  6  0  0  0
 30 33  1  0  0  0  0
 32 33  1  0  0  0  0
 32 34  1  6  0  0  0
 34 41  1  0  0  0  0
M  CHG  6   4   1  13   1  19   1  35   1  41   1  42   1
M  END
>  <CHROM.1>
-157.62588522,45.14496123,-175.39824501,-65.95708803,-175.81149664,64.50049870
-161.31851448,-175.88543326,179.91555747,12.99733714,139.25676412,-172.95242790
-52.79799284,129.20186072,122.09905528,63.69637071,70.05811595,68.87816749
76.63543353,-162.52239099,173.58828375,105.61888547,-5.21741241,3.26353172
-1.83164034,-0.72398069,-0.65501738,1.48652482

>  <Name>


>  <RI>
0

>  <Rbt.Current_Directory>
/home/itssahil/PROJECTS/Mol_Feturizer/New_Systems/rnas/1ei2

>  <Rbt.Executable>
rbdock ($Id: //depot/dev/client3/rdock/2013.1/src/exe/rbdock.cxx#4 $)

>  <Rbt.Library>
libRbt.so (2013.1, Build901 2013/11/27)

>  <Rbt.Parameter_File>
/export/apps/rDock/src/rDock_2013.1_src/data/scripts/dock_solv.prm

>  <Rbt.Receptor>
prm/pocket_docking_2.prm

>  <SCORE>
-27.0341

>  <SCORE.INTER>
-19.7432

>  <SCORE.INTER.CONST>
1

>  <SCORE.INTER.POLAR>
-4.11127

>  <SCORE.INTER.ROT>
9

>  <SCORE.INTER.SOLV>
27.4976

>  <SCORE.INTER.VDW>
-18.2238

>  <SCORE.INTER.norm>
-0.470076

>  <SCORE.INTRA>
-11.5373

>  <SCORE.INTRA.DIHEDRAL>
-5.01735

>  <SCORE.INTRA.DIHEDRAL.0>
40.8761

>  <SCORE.INTRA.POLAR>
-2.10549

>  <SCORE.INTRA.POLAR.0>
-0.0268208

>  <SCORE.INTRA.REPUL>
-0.641615

>  <SCORE.INTRA.REPUL.0>
0.641615

>  <SCORE.INTRA.SOLV>
-4.84047

>  <SCORE.INTRA.SOLV.lig_0>
-162.567

>  <SCORE.INTRA.VDW>
3.75835

>  <SCORE.INTRA.VDW.0>
-4.80338

>  <SCORE.INTRA.norm>
-0.274698

>  <SCORE.RESTR>
4.24639

>  <SCORE.RESTR.CAVITY>
4.24639

>  <SCORE.RESTR.norm>
0.101104

>  <SCORE.SYSTEM>
0

>  <SCORE.SYSTEM.CONST>
0

>  <SCORE.SYSTEM.DIHEDRAL>
0

>  <SCORE.SYSTEM.SOLV>
0

>  <SCORE.SYSTEM.norm>
0

>  <SCORE.heavy>
42

>  <SCORE.norm>
-0.64367

>  <RMSD>
7.490

$$$$

 OpenBabel11021811393D
libRbt.so/2013.1/901 2013/11/27
 42 45  0  0  0  0  0  0  0  0999 V2000
   -6.3859    4.0126   -4.0894 C   0  0  2  0  0  0  0  0  0  0  0  0
   -5.4719    2.9076   -4.3671 O   0  0  0  0  0  0  0  0  0  0  0  0
   -7.8411    3.5044   -3.8284 C   0  0  2  0  0  0  0  0  0  0  0  0
   -7.8738    2.0455   -3.5762 N   0  3  0  0  0  0  0  0  0  0  0  0
   -8.7751    3.8745   -5.0198 C   0  0  1  0  0  0  0  0  0  0  0  0
  -10.1010    3.4151   -4.7658 O   0  0  0  0  0  0  0  0  0  0  0  0
   -8.8229    5.4072   -5.2603 C   0  0  2  0  0  0  0  0  0  0  0  0
   -9.4450    5.6535   -6.5164 O   0  0  0  0  0  0  0  0  0  0  0  0
   -7.3891    6.0294   -5.2414 C   0  0  2  0  0  0  0  0  0  0  0  0
   -6.3800    4.9684   -5.2046 O   0  0  0  0  0  0  0  0  0  0  0  0
   -7.1040    6.9472   -4.0304 C   0  0  0  0  0  0  0  0  0  0  0  0
   -3.6746    0.2941   -1.4415 C   0  0  1  0  0  0  0  0  0  0  0  0
   -2.7521   -0.2925   -0.4438 N   0  3  0  0  0  0  0  0  0  0  0  0
   -4.3576    1.5772   -0.8998 C   0  0  1  0  0  0  0  0  0  0  0  0
   -5.2312    2.3264   -1.9655 C   0  0  1  0  0  0  0  0  0  0  0  0
   -5.5404    3.6491   -1.4500 O   0  0  0  0  0  0  0  0  0  0  0  0
   -4.5033    2.5138   -3.3472 C   0  0  1  0  0  0  0  0  0  0  0  0
   -3.8104    1.1977   -3.8277 C   0  0  1  0  0  0  0  0  0  0  0  0
   -3.0035    1.4091   -5.0468 N   0  3  0  0  0  0  0  0  0  0  0  0
   -2.8938    0.5997   -2.7367 C   0  0  0  0  0  0  0  0  0  0  0  0
   -6.8656    3.9169   -0.9069 C   0  0  1  0  0  0  0  0  0  0  0  0
   -7.0329    3.1185    0.3805 C   0  0  1  0  0  0  0  0  0  0  0  0
   -6.2833    4.0200    1.3520 C   0  0  1  0  0  0  0  0  0  0  0  0
   -6.7380    5.4137    0.8959 C   0  0  2  0  0  0  0  0  0  0  0  0
   -6.9714    5.2990   -0.5282 O   0  0  0  0  0  0  0  0  0  0  0  0
   -5.6934    6.5092    1.1752 C   0  0  0  0  0  0  0  0  0  0  0  0
   -7.4485    5.2427    6.1817 C   0  0  1  0  0  0  0  0  0  0  0  0
   -7.1406    3.7454    5.9013 C   0  0  1  0  0  0  0  0  0  0  0  0
   -5.8444    3.5076    5.0739 C   0  0  2  0  0  0  0  0  0  0  0  0
   -5.8431    4.3653    3.7677 C   0  0  1  0  0  0  0  0  0  0  0  0
   -6.6622    3.7514    2.7326 O   0  0  0  0  0  0  0  0  0  0  0  0
   -6.4438    6.1660    5.4279 C   0  0  1  0  0  0  0  0  0  0  0  0
   -6.3361    5.7368    4.0312 O   0  0  0  0  0  0  0  0  0  0  0  0
   -6.8622    7.6583    5.4730 C   0  0  0  0  0  0  0  0  0  0  0  0
   -7.8032    8.2437   -4.0704 N   0  3  0  0  0  0  0  0  0  0  0  0
   -8.4179    3.0259    0.7148 O   0  0  0  0  0  0  0  0  0  0  0  0
   -7.0118    3.0709    7.1523 O   0  0  0  0  0  0  0  0  0  0  0  0
   -8.7848    5.5167    5.7550 O   0  0  0  0  0  0  0  0  0  0  0  0
   -4.4077    6.1052    0.7365 O   0  0  0  0  0  0  0  0  0  0  0  0
   -5.1908    1.2225    0.2035 O   0  0  0  0  0  0  0  0  0  0  0  0
   -5.8474    8.5562    4.8917 N   0  3  0  0  0  0  0  0  0  0  0  0
   -5.6278    2.0636    4.8091 N   0  3  0  0  0  0  0  0  0  0  0  0
  1  2  1  6  0  0  0
  1  3  1  0  0  0  0
  1 10  1  0  0  0  0
  3  4  1  6  0  0  0
  3  5  1  0  0  0  0
  5  6  1  1  0  0  0
  5  7  1  0  0  0  0
  7  8  1  6  0  0  0
  7  9  1  0  0  0  0
  9 10  1  0  0  0  0
  9 11  1  1  0  0  0
 11 35  1  0  0  0  0
 12 13  1  1  0  0  0
 12 14  1  0  0  0  0
 12 20  1  0  0  0  0
 14 15  1  0  0  0  0
 14 40  1  1  0  0  0
 15 16  1  1  0  0  0
 15 17  1  0  0  0  0
 17  2  1  6  0  0  0
 17 18  1  0  0  0  0
 18 19  1  6  0  0  0
 18 20  1  0  0  0  0
 21 16  1  1  0  0  0
 21 22  1  0  0  0  0
 21 25  1  0  0  0  0
 22 23  1  0  0  0  0
 22 36  1  1  0  0  0
 23 24  1  0  0  0  0
 23 31  1  1  0  0  0
 24 25  1  0  0  0  0
 24 26  1  6  0  0  0
 26 39  1  0  0  0  0
 27 28  1  0  0  0  0
 27 32  1  0  0  0  0
 27 38  1  6  0  0  0
 28 29  1  0  0  0  0
 28 37  1  1  0  0  0
 29 30  1  0  0  0  0
 29 42  1  6  0  0  0
 30 31  1  6  0  0  0
 30 33  1  0  0  0  0
 32 33  1  0  0  0  0
 32 34  1  6  0  0  0
 34 41  1  0  0  0  0
M  CHG  6   4   1  13   1  19   1  35   1  41   1  42   1
M  END
>  <CHROM.1>
-106.74116462,49.76811745,80.61857300,-171.80703481,-60.30246031,-71.92867510
62.96373671,94.03945070,60.65980275,-103.08805965,67.85815265,55.50308302
150.30591651,168.88544013,48.03575121,153.24515498,59.57582019,61.12287456
42.20820201,-151.37645724,173.75195799,70.11797387,-6.36155968,4.01082616
-0.27445960,1.57442589,0.95308410,-1.70429837

>  <Name>


>  <RI>
0

>  <Rbt.Current_Directory>
/home/itssahil/PROJECTS/Mol_Feturizer/New_Systems/rnas/1ei2

>  <Rbt.Executable>
rbdock ($Id: //depot/dev/client3/rdock/2013.1/src/exe/rbdock.cxx#4 $)

>  <Rbt.Library>
libRbt.so (2013.1, Build901 2013/11/27)

>  <Rbt.Parameter_File>
/export/apps/rDock/src/rDock_2013.1_src/data/scripts/dock_solv.prm

>  <Rbt.Receptor>
prm/pocket_docking_8.prm

>  <SCORE>
-42.3622

>  <SCORE.INTER>
-28.0382

>  <SCORE.INTER.CONST>
1

>  <SCORE.INTER.POLAR>
-5.85023

>  <SCORE.INTER.ROT>
9

>  <SCORE.INTER.SOLV>
24.67

>  <SCORE.INTER.VDW>
-17.0147

>  <SCORE.INTER.norm>
-0.667575

>  <SCORE.INTRA>
-14.324

>  <SCORE.INTRA.DIHEDRAL>
-11.0432

>  <SCORE.INTRA.DIHEDRAL.0>
40.8761

>  <SCORE.INTRA.POLAR>
-0.0859097

>  <SCORE.INTRA.POLAR.0>
-0.0268208

>  <SCORE.INTRA.REPUL>
-0.635791

>  <SCORE.INTRA.REPUL.0>
0.641615

>  <SCORE.INTRA.SOLV>
-10.1716

>  <SCORE.INTRA.SOLV.lig_0>
-162.567

>  <SCORE.INTRA.VDW>
-0.245519

>  <SCORE.INTRA.VDW.0>
-4.80338

>  <SCORE.INTRA.norm>
-0.341047

>  <SCORE.RESTR>
0

>  <SCORE.RESTR.CAVITY>
0

>  <SCORE.RESTR.norm>
0

>  <SCORE.SYSTEM>
0

>  <SCORE.SYSTEM.CONST>
0

>  <SCORE.SYSTEM.DIHEDRAL>
0

>  <SCORE.SYSTEM.SOLV>
0

>  <SCORE.SYSTEM.norm>
0

>  <SCORE.heavy>
42

>  <SCORE.norm>
-1.00862

>  <RMSD>
7.494

$$$$

 OpenBabel11021811393D
libRbt.so/2013.1/901 2013/11/27
 42 45  0  0  0  0  0  0  0  0999 V2000
   -2.9960    1.9584   -1.7602 C   0  0  2  0  0  0  0  0  0  0  0  0
   -3.0829    3.1571   -0.9301 O   0  0  0  0  0  0  0  0  0  0  0  0
   -2.8647    2.3162   -3.2763 C   0  0  2  0  0  0  0  0  0  0  0  0
   -2.5077    3.7399   -3.4732 N   0  3  0  0  0  0  0  0  0  0  0  0
   -4.1795    1.9717   -4.0389 C   0  0  1  0  0  0  0  0  0  0  0  0
   -4.0442    2.2928   -5.4216 O   0  0  0  0  0  0  0  0  0  0  0  0
   -4.5397    0.4668   -3.9160 C   0  0  2  0  0  0  0  0  0  0  0  0
   -5.8737    0.2773   -4.3745 O   0  0  0  0  0  0  0  0  0  0  0  0
   -4.4048   -0.0301   -2.4400 C   0  0  2  0  0  0  0  0  0  0  0  0
   -4.1726    1.1061   -1.5453 O   0  0  0  0  0  0  0  0  0  0  0  0
   -3.2425   -1.0210   -2.2005 C   0  0  0  0  0  0  0  0  0  0  0  0
   -2.5844    1.1649    2.8650 C   0  0  1  0  0  0  0  0  0  0  0  0
   -2.2477    0.8693    4.2755 N   0  3  0  0  0  0  0  0  0  0  0  0
   -3.7577    2.1740    2.7593 C   0  0  1  0  0  0  0  0  0  0  0  0
   -4.0604    2.6403    1.2927 C   0  0  1  0  0  0  0  0  0  0  0  0
   -4.9329    3.8004    1.3564 O   0  0  0  0  0  0  0  0  0  0  0  0
   -2.7718    3.0590    0.4937 C   0  0  1  0  0  0  0  0  0  0  0  0
   -1.6157    2.0205    0.6608 C   0  0  1  0  0  0  0  0  0  0  0  0
   -0.3600    2.4833    0.0356 N   0  3  0  0  0  0  0  0  0  0  0  0
   -1.3321    1.7108    2.1479 C   0  0  0  0  0  0  0  0  0  0  0  0
   -5.1357    4.6131    0.1643 C   0  0  1  0  0  0  0  0  0  0  0  0
   -6.4685    4.2264   -0.4658 C   0  0  1  0  0  0  0  0  0  0  0  0
   -7.4215    5.0148    0.4222 C   0  0  1  0  0  0  0  0  0  0  0  0
   -6.6660    6.3412    0.5872 C   0  0  2  0  0  0  0  0  0  0  0  0
   -5.2610    5.9975    0.5288 O   0  0  0  0  0  0  0  0  0  0  0  0
   -6.9827    7.0534    1.9145 C   0  0  0  0  0  0  0  0  0  0  0  0
  -12.0959    6.2595    1.2664 C   0  0  1  0  0  0  0  0  0  0  0  0
  -11.8211    5.9970   -0.2406 C   0  0  1  0  0  0  0  0  0  0  0  0
  -11.1223    4.6375   -0.5315 C   0  0  2  0  0  0  0  0  0  0  0  0
   -9.8380    4.4647    0.3416 C   0  0  1  0  0  0  0  0  0  0  0  0
   -8.7161    5.2047   -0.2179 O   0  0  0  0  0  0  0  0  0  0  0  0
  -11.4618    5.1415    2.1486 C   0  0  1  0  0  0  0  0  0  0  0  0
  -10.0753    4.9154    1.7324 O   0  0  0  0  0  0  0  0  0  0  0  0
  -11.4913    5.4904    3.6590 C   0  0  0  0  0  0  0  0  0  0  0  0
   -3.2849   -1.7061   -0.8966 N   0  3  0  0  0  0  0  0  0  0  0  0
   -6.5142    4.6831   -1.8178 O   0  0  0  0  0  0  0  0  0  0  0  0
  -13.0666    6.0263   -0.9365 O   0  0  0  0  0  0  0  0  0  0  0  0
  -11.5435    7.5318    1.6114 O   0  0  0  0  0  0  0  0  0  0  0  0
   -6.3285    8.3088    1.9831 O   0  0  0  0  0  0  0  0  0  0  0  0
   -4.9334    1.5682    3.2960 O   0  0  0  0  0  0  0  0  0  0  0  0
  -11.6615    4.3045    4.5184 N   0  3  0  0  0  0  0  0  0  0  0  0
  -10.8550    4.4649   -1.9810 N   0  3  0  0  0  0  0  0  0  0  0  0
  1  2  1  1  0  0  0
  1  3  1  0  0  0  0
  1 10  1  0  0  0  0
  3  4  1  1  0  0  0
  3  5  1  0  0  0  0
  5  6  1  6  0  0  0
  5  7  1  0  0  0  0
  7  8  1  1  0  0  0
  7  9  1  0  0  0  0
  9 10  1  0  0  0  0
  9 11  1  6  0  0  0
 11 35  1  0  0  0  0
 12 13  1  1  0  0  0
 12 14  1  0  0  0  0
 12 20  1  0  0  0  0
 14 15  1  0  0  0  0
 14 40  1  6  0  0  0
 15 16  1  1  0  0  0
 15 17  1  0  0  0  0
 17  2  1  6  0  0  0
 17 18  1  0  0  0  0
 18 19  1  1  0  0  0
 18 20  1  0  0  0  0
 21 16  1  1  0  0  0
 21 22  1  0  0  0  0
 21 25  1  0  0  0  0
 22 23  1  0  0  0  0
 22 36  1  6  0  0  0
 23 24  1  0  0  0  0
 23 31  1  6  0  0  0
 24 25  1  0  0  0  0
 24 26  1  1  0  0  0
 26 39  1  0  0  0  0
 27 28  1  0  0  0  0
 27 32  1  0  0  0  0
 27 38  1  1  0  0  0
 28 29  1  0  0  0  0
 28 37  1  6  0  0  0
 29 30  1  0  0  0  0
 29 42  1  6  0  0  0
 30 31  1  6  0  0  0
 30 33  1  0  0  0  0
 32 33  1  0  0  0  0
 32 34  1  1  0  0  0
 34 41  1  0  0  0  0
M  CHG  6   4   1  13   1  19   1  35   1  41   1  42   1
M  END
>  <CHROM.1>
-160.06831332,-86.82284251,-80.92476312,-68.38133223,-53.96957541,-167.64283665
-80.69415132,48.78387562,-57.42385209,166.55222062,100.29091290,62.67562155
72.28979490,109.55213070,-176.33928060,-37.03087356,-59.34583769,168.08326634
163.19858558,-173.73249433,146.64180876,164.17179030,-6.15978014,3.50266464
-0.01764857,0.34841650,0.44238729,-1.81287874

>  <Name>


>  <RI>
0

>  <Rbt.Current_Directory>
/home/itssahil/PROJECTS/Mol_Feturizer/New_Systems/rnas/1ei2

>  <Rbt.Executable>
rbdock ($Id: //depot/dev/client3/rdock/2013.1/src/exe/rbdock.cxx#4 $)

>  <Rbt.Library>
libRbt.so (2013.1, Build901 2013/11/27)

>  <Rbt.Parameter_File>
/export/apps/rDock/src/rDock_2013.1_src/data/scripts/dock_solv.prm

>  <Rbt.Receptor>
prm/pocket_docking_4.prm

>  <SCORE>
-50.2682

>  <SCORE.INTER>
-35.6587

>  <SCORE.INTER.CONST>
1

>  <SCORE.INTER.POLAR>
-6.57814

>  <SCORE.INTER.ROT>
9

>  <SCORE.INTER.SOLV>
38.3725

>  <SCORE.INTER.VDW>
-24.2362

>  <SCORE.INTER.norm>
-0.849017

>  <SCORE.INTRA>
-14.746

>  <SCORE.INTRA.DIHEDRAL>
-11.457

>  <SCORE.INTRA.DIHEDRAL.0>
40.8761

>  <SCORE.INTRA.POLAR>
-0.0223157

>  <SCORE.INTRA.POLAR.0>
-0.0268208

>  <SCORE.INTRA.REPUL>
-0.584928

>  <SCORE.INTRA.REPUL.0>
0.641615

>  <SCORE.INTRA.SOLV>
-13.5027

>  <SCORE.INTRA.SOLV.lig_0>
-162.567

>  <SCORE.INTRA.VDW>
0.734408

>  <SCORE.INTRA.VDW.0>
-4.80338

>  <SCORE.INTRA.norm>
-0.351095

>  <SCORE.RESTR>
0.136513

>  <SCORE.RESTR.CAVITY>
0.136513

>  <SCORE.RESTR.norm>
0.00325031

>  <SCORE.SYSTEM>
0

>  <SCORE.SYSTEM.CONST>
0

>  <SCORE.SYSTEM.DIHEDRAL>
0

>  <SCORE.SYSTEM.SOLV>
0

>  <SCORE.SYSTEM.norm>
0

>  <SCORE.heavy>
42

>  <SCORE.norm>
-1.19686

>  <RMSD>
7.500

$$$$

 OpenBabel11021811393D
libRbt.so/2013.1/901 2013/11/27
 42 45  0  0  0  0  0  0  0  0999 V2000
   -2.4840    2.5309   -1.8742 C   0  0  2  0  0  0  0  0  0  0  0  0
   -2.6965    1.2717   -2.5834 O   0  0  0  0  0  0  0  0  0  0  0  0
   -1.1611    2.5066   -1.0415 C   0  0  2  0  0  0  0  0  0  0  0  0
   -0.2834    1.3832   -1.4422 N   0  3  0  0  0  0  0  0  0  0  0  0
   -1.4725    2.4399    0.4841 C   0  0  1  0  0  0  0  0  0  0  0  0
   -0.2592    2.4285    1.2332 O   0  0  0  0  0  0  0  0  0  0  0  0
   -2.3280    3.6480    0.9511 C   0  0  2  0  0  0  0  0  0  0  0  0
   -2.8159    3.3830    2.2616 O   0  0  0  0  0  0  0  0  0  0  0  0
   -3.5226    3.9076   -0.0230 C   0  0  2  0  0  0  0  0  0  0  0  0
   -3.6255    2.8173   -0.9956 O   0  0  0  0  0  0  0  0  0  0  0  0
   -3.4110    5.2149   -0.8408 C   0  0  0  0  0  0  0  0  0  0  0  0
   -3.5310    2.4619   -6.6462 C   0  0  1  0  0  0  0  0  0  0  0  0
   -4.1100    2.5498   -8.0054 N   0  3  0  0  0  0  0  0  0  0  0  0
   -4.5430    2.9245   -5.5654 C   0  0  1  0  0  0  0  0  0  0  0  0
   -4.0391    2.7122   -4.0954 C   0  0  1  0  0  0  0  0  0  0  0  0
   -5.1724    2.8699   -3.2000 O   0  0  0  0  0  0  0  0  0  0  0  0
   -3.4320    1.2828   -3.8453 C   0  0  1  0  0  0  0  0  0  0  0  0
   -2.4434    0.8595   -4.9795 C   0  0  1  0  0  0  0  0  0  0  0  0
   -1.9880   -0.5372   -4.8253 N   0  3  0  0  0  0  0  0  0  0  0  0
   -3.0774    1.0114   -6.3805 C   0  0  0  0  0  0  0  0  0  0  0  0
   -6.4941    2.4330   -3.6301 C   0  0  1  0  0  0  0  0  0  0  0  0
   -7.4388    2.4969   -2.4359 C   0  0  1  0  0  0  0  0  0  0  0  0
   -7.7622    3.9848   -2.4316 C   0  0  1  0  0  0  0  0  0  0  0  0
   -7.9200    4.2723   -3.9315 C   0  0  2  0  0  0  0  0  0  0  0  0
   -7.0241    3.3520   -4.5994 O   0  0  0  0  0  0  0  0  0  0  0  0
   -7.5666    5.7226   -4.3071 C   0  0  0  0  0  0  0  0  0  0  0  0
   -8.8169    6.4908    1.4282 C   0  0  1  0  0  0  0  0  0  0  0  0
  -10.1217    6.0762    0.6926 C   0  0  1  0  0  0  0  0  0  0  0  0
  -10.2478    4.5466    0.4364 C   0  0  2  0  0  0  0  0  0  0  0  0
   -8.9700    3.9847   -0.2660 C   0  0  1  0  0  0  0  0  0  0  0  0
   -8.9872    4.2643   -1.6946 O   0  0  0  0  0  0  0  0  0  0  0  0
   -7.8668    5.2675    1.6041 C   0  0  1  0  0  0  0  0  0  0  0  0
   -7.7404    4.5572    0.3289 O   0  0  0  0  0  0  0  0  0  0  0  0
   -6.4572    5.6788    2.1017 C   0  0  0  0  0  0  0  0  0  0  0  0
   -2.7630    6.3280   -0.1250 N   0  3  0  0  0  0  0  0  0  0  0  0
   -8.6009    1.7095   -2.6967 O   0  0  0  0  0  0  0  0  0  0  0  0
  -11.2349    6.4989    1.4791 O   0  0  0  0  0  0  0  0  0  0  0  0
   -8.1709    7.5101    0.6623 O   0  0  0  0  0  0  0  0  0  0  0  0
   -6.2289    6.0254   -3.9500 O   0  0  0  0  0  0  0  0  0  0  0  0
   -4.8162    4.3123   -5.7568 O   0  0  0  0  0  0  0  0  0  0  0  0
   -6.4901    6.3946    3.3903 N   0  3  0  0  0  0  0  0  0  0  0  0
  -11.4942    4.2216   -0.3005 N   0  3  0  0  0  0  0  0  0  0  0  0
  1  2  1  1  0  0  0
  1  3  1  0  0  0  0
  1 10  1  0  0  0  0
  3  4  1  6  0  0  0
  3  5  1  0  0  0  0
  5  6  1  1  0  0  0
  5  7  1  0  0  0  0
  7  8  1  1  0  0  0
  7  9  1  0  0  0  0
  9 10  1  0  0  0  0
  9 11  1  6  0  0  0
 11 35  1  0  0  0  0
 12 13  1  6  0  0  0
 12 14  1  0  0  0  0
 12 20  1  0  0  0  0
 14 15  1  0  0  0  0
 14 40  1  6  0  0  0
 15 16  1  1  0  0  0
 15 17  1  0  0  0  0
 17  2  1  1  0  0  0
 17 18  1  0  0  0  0
 18 19  1  1  0  0  0
 18 20  1  0  0  0  0
 21 16  1  1  0  0  0
 21 22  1  0  0  0  0
 21 25  1  0  0  0  0
 22 23  1  0  0  0  0
 22 36  1  6  0  0  0
 23 24  1  0  0  0  0
 23 31  1  1  0  0  0
 24 25  1  0  0  0  0
 24 26  1  1  0  0  0
 26 39  1  0  0  0  0
 27 28  1  0  0  0  0
 27 32  1  0  0  0  0
 27 38  1  6  0  0  0
 28 29  1  0  0  0  0
 28 37  1  1  0  0  0
 29 30  1  0  0  0  0
 29 42  1  6  0  0  0
 30 31  1  6  0  0  0
 30 33  1  0  0  0  0
 32 33  1  0  0  0  0
 32 34  1  6  0  0  0
 34 41  1  0  0  0  0
M  CHG  6   4   1  13   1  19   1  35   1  41   1  42   1
M  END
>  <CHROM.1>
-150.53394346,-7.81058780,59.78584803,59.33012081,62.42755694,-34.22734854
12.87674143,48.84923988,-176.47063552,34.44486678,170.74090230,-117.75852784
65.67738340,64.87460374,59.01574321,-70.88148795,65.19206969,-173.61979922
-65.66307552,170.51879030,58.51369059,-57.79400117,-5.46510089,3.68201699
-1.77280367,-0.68341138,-0.31269937,1.24324638

>  <Name>


>  <RI>
0

>  <Rbt.Current_Directory>
/home/itssahil/PROJECTS/Mol_Feturizer/New_Systems/rnas/1ei2

>  <Rbt.Executable>
rbdock ($Id: //depot/dev/client3/rdock/2013.1/src/exe/rbdock.cxx#4 $)

>  <Rbt.Library>
libRbt.so (2013.1, Build901 2013/11/27)

>  <Rbt.Parameter_File>
/export/apps/rDock/src/rDock_2013.1_src/data/scripts/dock_solv.prm

>  <Rbt.Receptor>
prm/pocket_docking_2.prm

>  <SCORE>
-40.4273

>  <SCORE.INTER>
-27.6743

>  <SCORE.INTER.CONST>
1

>  <SCORE.INTER.POLAR>
-5.98604

>  <SCORE.INTER.ROT>
9

>  <SCORE.INTER.SOLV>
25.0148

>  <SCORE.INTER.VDW>
-16.4343

>  <SCORE.INTER.norm>
-0.658912

>  <SCORE.INTRA>
-15.8933

>  <SCORE.INTRA.DIHEDRAL>
-15.6868

>  <SCORE.INTRA.DIHEDRAL.0>
40.8761

>  <SCORE.INTRA.POLAR>
-1.19105

>  <SCORE.INTRA.POLAR.0>
-0.0268208

>  <SCORE.INTRA.REPUL>
-0.601908

>  <SCORE.INTRA.REPUL.0>
0.641615

>  <SCORE.INTRA.SOLV>
-10.2307

>  <SCORE.INTRA.SOLV.lig_0>
-162.567

>  <SCORE.INTRA.VDW>
4.12454

>  <SCORE.INTRA.VDW.0>
-4.80338

>  <SCORE.INTRA.norm>
-0.378412

>  <SCORE.RESTR>
3.14028

>  <SCORE.RESTR.CAVITY>
3.14028

>  <SCORE.RESTR.norm>
0.0747685

>  <SCORE.SYSTEM>
0

>  <SCORE.SYSTEM.CONST>
0

>  <SCORE.SYSTEM.DIHEDRAL>
0

>  <SCORE.SYSTEM.SOLV>
0

>  <SCORE.SYSTEM.norm>
0

>  <SCORE.heavy>
42

>  <SCORE.norm>
-0.962556

>  <RMSD>
7.525

$$$$

 OpenBabel11021811393D
libRbt.so/2013.1/901 2013/11/27
 42 45  0  0  0  0  0  0  0  0999 V2000
   -2.0090    3.9398    0.3486 C   0  0  2  0  0  0  0  0  0  0  0  0
   -2.0836    3.8714   -1.1086 O   0  0  0  0  0  0  0  0  0  0  0  0
   -1.9972    5.4185    0.8557 C   0  0  2  0  0  0  0  0  0  0  0  0
   -2.4151    6.3637   -0.2050 N   0  3  0  0  0  0  0  0  0  0  0  0
   -0.5897    5.8007    1.4050 C   0  0  1  0  0  0  0  0  0  0  0  0
   -0.5942    7.1474    1.8737 O   0  0  0  0  0  0  0  0  0  0  0  0
   -0.1558    4.8746    2.5727 C   0  0  2  0  0  0  0  0  0  0  0  0
    1.2287    5.0814    2.8297 O   0  0  0  0  0  0  0  0  0  0  0  0
   -0.4191    3.3718    2.2328 C   0  0  2  0  0  0  0  0  0  0  0  0
   -0.8136    3.2345    0.8290 O   0  0  0  0  0  0  0  0  0  0  0  0
   -1.5392    2.7116    3.0693 C   0  0  0  0  0  0  0  0  0  0  0  0
   -2.5282    0.9234   -4.2282 C   0  0  1  0  0  0  0  0  0  0  0  0
   -2.9076   -0.2897   -4.9863 N   0  3  0  0  0  0  0  0  0  0  0  0
   -3.7580    1.8254   -3.9448 C   0  0  1  0  0  0  0  0  0  0  0  0
   -3.4436    3.0496   -3.0162 C   0  0  1  0  0  0  0  0  0  0  0  0
   -4.7047    3.6144   -2.5674 O   0  0  0  0  0  0  0  0  0  0  0  0
   -2.6142    2.6640   -1.7365 C   0  0  1  0  0  0  0  0  0  0  0  0
   -1.4069    1.7325   -2.0795 C   0  0  1  0  0  0  0  0  0  0  0  0
   -0.7168    1.2496   -0.8660 N   0  3  0  0  0  0  0  0  0  0  0  0
   -1.8458    0.5050   -2.9091 C   0  0  0  0  0  0  0  0  0  0  0  0
   -5.5245    2.8761   -1.6158 C   0  0  1  0  0  0  0  0  0  0  0  0
   -6.4762    3.8525   -0.9349 C   0  0  1  0  0  0  0  0  0  0  0  0
   -7.5511    3.9680   -2.0072 C   0  0  1  0  0  0  0  0  0  0  0  0
   -7.6760    2.5124   -2.4792 C   0  0  2  0  0  0  0  0  0  0  0  0
   -6.3588    1.9357   -2.3119 O   0  0  0  0  0  0  0  0  0  0  0  0
   -8.1250    2.3916   -3.9465 C   0  0  0  0  0  0  0  0  0  0  0  0
  -10.6389    7.4837   -2.9680 C   0  0  1  0  0  0  0  0  0  0  0  0
  -11.2200    6.5294   -1.8877 C   0  0  1  0  0  0  0  0  0  0  0  0
  -10.2838    6.3099   -0.6643 C   0  0  2  0  0  0  0  0  0  0  0  0
   -8.8509    5.8839   -1.1192 C   0  0  1  0  0  0  0  0  0  0  0  0
   -8.8037    4.4688   -1.4577 O   0  0  0  0  0  0  0  0  0  0  0  0
   -9.1711    7.8813   -2.6251 C   0  0  1  0  0  0  0  0  0  0  0  0
   -8.4040    6.6801   -2.2854 O   0  0  0  0  0  0  0  0  0  0  0  0
   -8.4697    8.6221   -3.7927 C   0  0  0  0  0  0  0  0  0  0  0  0
   -1.2658    2.6535    4.5160 N   0  3  0  0  0  0  0  0  0  0  0  0
   -6.9916    3.2694    0.2621 O   0  0  0  0  0  0  0  0  0  0  0  0
  -12.4546    7.0743   -1.4236 O   0  0  0  0  0  0  0  0  0  0  0  0
  -10.6864    6.8176   -4.2318 O   0  0  0  0  0  0  0  0  0  0  0  0
   -9.3905    2.9998   -4.1396 O   0  0  0  0  0  0  0  0  0  0  0  0
   -4.2641    2.3143   -5.1866 O   0  0  0  0  0  0  0  0  0  0  0  0
   -8.0211    9.9775   -3.4248 N   0  3  0  0  0  0  0  0  0  0  0  0
  -10.8789    5.3622    0.3103 N   0  3  0  0  0  0  0  0  0  0  0  0
  1  2  1  6  0  0  0
  1  3  1  0  0  0  0
  1 10  1  0  0  0  0
  3  4  1  6  0  0  0
  3  5  1  0  0  0  0
  5  6  1  1  0  0  0
  5  7  1  0  0  0  0
  7  8  1  6  0  0  0
  7  9  1  0  0  0  0
  9 10  1  0  0  0  0
  9 11  1  1  0  0  0
 11 35  1  0  0  0  0
 12 13  1  1  0  0  0
 12 14  1  0  0  0  0
 12 20  1  0  0  0  0
 14 15  1  0  0  0  0
 14 40  1  6  0  0  0
 15 16  1  1  0  0  0
 15 17  1  0  0  0  0
 17  2  1  6  0  0  0
 17 18  1  0  0  0  0
 18 19  1  1  0  0  0
 18 20  1  0  0  0  0
 21 16  1  6  0  0  0
 21 22  1  0  0  0  0
 21 25  1  0  0  0  0
 22 23  1  0  0  0  0
 22 36  1  1  0  0  0
 23 24  1  0  0  0  0
 23 31  1  1  0  0  0
 24 25  1  0  0  0  0
 24 26  1  6  0  0  0
 26 39  1  0  0  0  0
 27 28  1  0  0  0  0
 27 32  1  0  0  0  0
 27 38  1  6  0  0  0
 28 29  1  0  0  0  0
 28 37  1  1  0  0  0
 29 30  1  0  0  0  0
 29 42  1  1  0  0  0
 30 31  1  6  0  0  0
 30 33  1  0  0  0  0
 32 33  1  0  0  0  0
 32 34  1  6  0  0  0
 34 41  1  0  0  0  0
M  CHG  6   4   1  13   1  19   1  35   1  41   1  42   1
M  END
>  <CHROM.1>
-156.48809470,143.67308696,134.49146327,-63.26019987,-179.81944890,-62.81792799
-71.02664221,-179.27780995,68.72405295,70.51579125,159.42359363,105.66284986
64.14961754,73.74913588,-59.85517655,-178.00285717,57.64832009,70.96712920
57.80825140,174.89687838,120.12247504,62.47043439,-5.17896266,4.27507297
-1.30434715,0.01874321,-0.44574733,0.77460416

>  <Name>


>  <RI>
0

>  <Rbt.Current_Directory>
/home/itssahil/PROJECTS/Mol_Feturizer/New_Systems/rnas/1ei2

>  <Rbt.Executable>
rbdock ($Id: //depot/dev/client3/rdock/2013.1/src/exe/rbdock.cxx#4 $)

>  <Rbt.Library>
libRbt.so (2013.1, Build901 2013/11/27)

>  <Rbt.Parameter_File>
/export/apps/rDock/src/rDock_2013.1_src/data/scripts/dock_solv.prm

>  <Rbt.Receptor>
prm/pocket_docking_7.prm

>  <SCORE>
-62.3279

>  <SCORE.INTER>
-41.2009

>  <SCORE.INTER.CONST>
1

>  <SCORE.INTER.POLAR>
-7.47311

>  <SCORE.INTER.ROT>
9

>  <SCORE.INTER.SOLV>
23.6393

>  <SCORE.INTER.VDW>
-20.0367

>  <SCORE.INTER.norm>
-0.980975

>  <SCORE.INTRA>
-21.1269

>  <SCORE.INTRA.DIHEDRAL>
-16.5965

>  <SCORE.INTRA.DIHEDRAL.0>
40.8761

>  <SCORE.INTRA.POLAR>
-1.30957

>  <SCORE.INTRA.POLAR.0>
-0.0268208

>  <SCORE.INTRA.REPUL>
-0.641615

>  <SCORE.INTRA.REPUL.0>
0.641615

>  <SCORE.INTRA.SOLV>
-11.487

>  <SCORE.INTRA.SOLV.lig_0>
-162.567

>  <SCORE.INTRA.VDW>
0.575402

>  <SCORE.INTRA.VDW.0>
-4.80338

>  <SCORE.INTRA.norm>
-0.503022

>  <SCORE.RESTR>
0

>  <SCORE.RESTR.CAVITY>
0

>  <SCORE.RESTR.norm>
0

>  <SCORE.SYSTEM>
0

>  <SCORE.SYSTEM.CONST>
0

>  <SCORE.SYSTEM.DIHEDRAL>
0

>  <SCORE.SYSTEM.SOLV>
0

>  <SCORE.SYSTEM.norm>
0

>  <SCORE.heavy>
42

>  <SCORE.norm>
-1.484

>  <RMSD>
7.536

$$$$

 OpenBabel11021811393D
libRbt.so/2013.1/901 2013/11/27
 42 45  0  0  0  0  0  0  0  0999 V2000
   -4.3055    1.5477   -6.4283 C   0  0  2  0  0  0  0  0  0  0  0  0
   -3.2729    1.5174   -5.3955 O   0  0  0  0  0  0  0  0  0  0  0  0
   -5.0843    2.9031   -6.4243 C   0  0  2  0  0  0  0  0  0  0  0  0
   -4.3749    3.9391   -5.6390 N   0  3  0  0  0  0  0  0  0  0  0  0
   -6.5326    2.7040   -5.8843 C   0  0  1  0  0  0  0  0  0  0  0  0
   -7.2359    3.9444   -5.8949 O   0  0  0  0  0  0  0  0  0  0  0  0
   -7.3292    1.6791   -6.7354 C   0  0  2  0  0  0  0  0  0  0  0  0
   -8.5171    1.3282   -6.0344 O   0  0  0  0  0  0  0  0  0  0  0  0
   -6.4796    0.3992   -7.0241 C   0  0  2  0  0  0  0  0  0  0  0  0
   -5.2407    0.4304   -6.2435 O   0  0  0  0  0  0  0  0  0  0  0  0
   -6.0615    0.2268   -8.5026 C   0  0  0  0  0  0  0  0  0  0  0  0
   -3.1646   -2.7843   -5.0746 C   0  0  1  0  0  0  0  0  0  0  0  0
   -2.7527   -4.1709   -4.7614 N   0  3  0  0  0  0  0  0  0  0  0  0
   -3.5511   -2.0019   -3.7922 C   0  0  1  0  0  0  0  0  0  0  0  0
   -3.8519   -0.4834   -4.0446 C   0  0  1  0  0  0  0  0  0  0  0  0
   -3.8765    0.1940   -2.7595 O   0  0  0  0  0  0  0  0  0  0  0  0
   -2.7670    0.2270   -4.9348 C   0  0  1  0  0  0  0  0  0  0  0  0
   -2.3972   -0.6200   -6.1953 C   0  0  1  0  0  0  0  0  0  0  0  0
   -1.2751   -0.0278   -6.9516 N   0  3  0  0  0  0  0  0  0  0  0  0
   -2.0186   -2.0709   -5.8217 C   0  0  0  0  0  0  0  0  0  0  0  0
   -2.8096   -0.0505   -1.7979 C   0  0  1  0  0  0  0  0  0  0  0  0
   -2.0812    1.2626   -1.5369 C   0  0  1  0  0  0  0  0  0  0  0  0
   -3.0394    1.9057   -0.5437 C   0  0  1  0  0  0  0  0  0  0  0  0
   -3.4244    0.7077    0.3361 C   0  0  2  0  0  0  0  0  0  0  0  0
   -3.3679   -0.4473   -0.5347 O   0  0  0  0  0  0  0  0  0  0  0  0
   -4.8291    0.8394    0.9515 C   0  0  0  0  0  0  0  0  0  0  0  0
   -4.7561    5.7139    1.4590 C   0  0  1  0  0  0  0  0  0  0  0  0
   -3.3302    5.4425    2.0143 C   0  0  1  0  0  0  0  0  0  0  0  0
   -2.2298    5.3447    0.9185 C   0  0  2  0  0  0  0  0  0  0  0  0
   -2.6325    4.3270   -0.1968 C   0  0  1  0  0  0  0  0  0  0  0  0
   -2.3869    2.9559    0.2265 O   0  0  0  0  0  0  0  0  0  0  0  0
   -4.7607    5.6765   -0.0995 C   0  0  1  0  0  0  0  0  0  0  0  0
   -4.0597    4.4766   -0.5635 O   0  0  0  0  0  0  0  0  0  0  0  0
   -6.1950    5.6901   -0.6883 C   0  0  0  0  0  0  0  0  0  0  0  0
   -5.8161    1.4915   -9.2179 N   0  3  0  0  0  0  0  0  0  0  0  0
   -0.8098    0.9998   -0.9426 O   0  0  0  0  0  0  0  0  0  0  0  0
   -2.9877    6.4996    2.9096 O   0  0  0  0  0  0  0  0  0  0  0  0
   -5.6402    4.7179    1.9781 O   0  0  0  0  0  0  0  0  0  0  0  0
   -5.3285   -0.4268    1.3465 O   0  0  0  0  0  0  0  0  0  0  0  0
   -4.7098   -2.6060   -3.2180 O   0  0  0  0  0  0  0  0  0  0  0  0
   -6.2160    5.9385   -2.1415 N   0  3  0  0  0  0  0  0  0  0  0  0
   -0.9013    5.0481    1.5096 N   0  3  0  0  0  0  0  0  0  0  0  0
  1  2  1  1  0  0  0
  1  3  1  0  0  0  0
  1 10  1  0  0  0  0
  3  4  1  1  0  0  0
  3  5  1  0  0  0  0
  5  6  1  6  0  0  0
  5  7  1  0  0  0  0
  7  8  1  1  0  0  0
  7  9  1  0  0  0  0
  9 10  1  0  0  0  0
  9 11  1  6  0  0  0
 11 35  1  0  0  0  0
 12 13  1  1  0  0  0
 12 14  1  0  0  0  0
 12 20  1  0  0  0  0
 14 15  1  0  0  0  0
 14 40  1  6  0  0  0
 15 16  1  1  0  0  0
 15 17  1  0  0  0  0
 17  2  1  6  0  0  0
 17 18  1  0  0  0  0
 18 19  1  1  0  0  0
 18 20  1  0  0  0  0
 21 16  1  6  0  0  0
 21 22  1  0  0  0  0
 21 25  1  0  0  0  0
 22 23  1  0  0  0  0
 22 36  1  1  0  0  0
 23 24  1  0  0  0  0
 23 31  1  1  0  0  0
 24 25  1  0  0  0  0
 24 26  1  6  0  0  0
 26 39  1  0  0  0  0
 27 28  1  0  0  0  0
 27 32  1  0  0  0  0
 27 38  1  1  0  0  0
 28 29  1  0  0  0  0
 28 37  1  1  0  0  0
 29 30  1  0  0  0  0
 29 42  1  1  0  0  0
 30 31  1  1  0  0  0
 30 33  1  0  0  0  0
 32 33  1  0  0  0  0
 32 34  1  1  0  0  0
 34 41  1  0  0  0  0
M  CHG  6   4   1  13   1  19   1  35   1  41   1  42   1
M  END
>  <CHROM.1>
159.04900773,-72.83597159,144.83833627,179.50160558,-61.18806227,33.08337503
178.17012798,171.78154948,177.83041703,47.04889731,118.06835266,54.14558335
64.10426714,100.33377634,159.55302527,-75.16716835,-62.91673381,167.45458690
43.39632871,163.79670728,167.98299441,148.68950148,-4.11257603,1.78189190
-2.90229912,1.78133454,0.96840646,-2.29827903

>  <Name>


>  <RI>
0

>  <Rbt.Current_Directory>
/home/itssahil/PROJECTS/Mol_Feturizer/New_Systems/rnas/1ei2

>  <Rbt.Executable>
rbdock ($Id: //depot/dev/client3/rdock/2013.1/src/exe/rbdock.cxx#4 $)

>  <Rbt.Library>
libRbt.so (2013.1, Build901 2013/11/27)

>  <Rbt.Parameter_File>
/export/apps/rDock/src/rDock_2013.1_src/data/scripts/dock_solv.prm

>  <Rbt.Receptor>
prm/pocket_docking_6.prm

>  <SCORE>
-48.3579

>  <SCORE.INTER>
-34.4495

>  <SCORE.INTER.CONST>
1

>  <SCORE.INTER.POLAR>
-5.37752

>  <SCORE.INTER.ROT>
9

>  <SCORE.INTER.SOLV>
28.935

>  <SCORE.INTER.VDW>
-24.2863

>  <SCORE.INTER.norm>
-0.820227

>  <SCORE.INTRA>
-13.9793

>  <SCORE.INTRA.DIHEDRAL>
-12.2213

>  <SCORE.INTRA.DIHEDRAL.0>
40.8761

>  <SCORE.INTRA.POLAR>
-0.057189

>  <SCORE.INTRA.POLAR.0>
-0.0268208

>  <SCORE.INTRA.REPUL>
-0.641615

>  <SCORE.INTRA.REPUL.0>
0.641615

>  <SCORE.INTRA.SOLV>
-10.9471

>  <SCORE.INTRA.SOLV.lig_0>
-162.567

>  <SCORE.INTRA.VDW>
1.0074

>  <SCORE.INTRA.VDW.0>
-4.80338

>  <SCORE.INTRA.norm>
-0.332841

>  <SCORE.RESTR>
0.0709119

>  <SCORE.RESTR.CAVITY>
0.0709119

>  <SCORE.RESTR.norm>
0.00168838

>  <SCORE.SYSTEM>
0

>  <SCORE.SYSTEM.CONST>
0

>  <SCORE.SYSTEM.DIHEDRAL>
0

>  <SCORE.SYSTEM.SOLV>
0

>  <SCORE.SYSTEM.norm>
0

>  <SCORE.heavy>
42

>  <SCORE.norm>
-1.15138

>  <RMSD>
7.561

$$$$

 OpenBabel11021811393D
libRbt.so/2013.1/901 2013/11/27
 42 45  0  0  0  0  0  0  0  0999 V2000
   -4.4708    1.5136   -6.3928 C   0  0  2  0  0  0  0  0  0  0  0  0
   -3.3746    1.4592   -5.4288 O   0  0  0  0  0  0  0  0  0  0  0  0
   -4.7687    2.9806   -6.8436 C   0  0  2  0  0  0  0  0  0  0  0  0
   -3.6685    3.9004   -6.4740 N   0  3  0  0  0  0  0  0  0  0  0  0
   -6.1199    3.4762   -6.2457 C   0  0  1  0  0  0  0  0  0  0  0  0
   -6.3857    4.8108   -6.6718 O   0  0  0  0  0  0  0  0  0  0  0  0
   -7.3072    2.5754   -6.6796 C   0  0  2  0  0  0  0  0  0  0  0  0
   -8.4411    2.8983   -5.8823 O   0  0  0  0  0  0  0  0  0  0  0  0
   -6.9564    1.0602   -6.5232 C   0  0  2  0  0  0  0  0  0  0  0  0
   -5.6804    0.9085   -5.8202 O   0  0  0  0  0  0  0  0  0  0  0  0
   -6.8148    0.2934   -7.8582 C   0  0  0  0  0  0  0  0  0  0  0  0
   -3.1721   -2.8500   -5.3329 C   0  0  1  0  0  0  0  0  0  0  0  0
   -2.7426   -4.2419   -5.0706 N   0  3  0  0  0  0  0  0  0  0  0  0
   -3.6520   -2.1484   -4.0354 C   0  0  1  0  0  0  0  0  0  0  0  0
   -3.9776   -0.6257   -4.2233 C   0  0  1  0  0  0  0  0  0  0  0  0
   -4.0937   -0.0207   -2.9075 O   0  0  0  0  0  0  0  0  0  0  0  0
   -2.8623    0.1574   -5.0089 C   0  0  1  0  0  0  0  0  0  0  0  0
   -2.3986   -0.6103   -6.2890 C   0  0  1  0  0  0  0  0  0  0  0  0
   -1.2509    0.0483   -6.9453 N   0  3  0  0  0  0  0  0  0  0  0  0
   -2.0041   -2.0703   -5.9720 C   0  0  0  0  0  0  0  0  0  0  0  0
   -2.9684   -0.0870   -1.9844 C   0  0  1  0  0  0  0  0  0  0  0  0
   -2.2931    1.2787   -1.9436 C   0  0  1  0  0  0  0  0  0  0  0  0
   -3.2300    2.0106   -0.9922 C   0  0  1  0  0  0  0  0  0  0  0  0
   -3.5103    0.9287    0.0606 C   0  0  2  0  0  0  0  0  0  0  0  0
   -3.4415   -0.3309   -0.6496 O   0  0  0  0  0  0  0  0  0  0  0  0
   -4.8866    1.0841    0.7320 C   0  0  0  0  0  0  0  0  0  0  0  0
   -1.6363    4.4594    3.0841 C   0  0  1  0  0  0  0  0  0  0  0  0
   -1.4694    5.2573    1.7609 C   0  0  1  0  0  0  0  0  0  0  0  0
   -2.7533    5.3075    0.8832 C   0  0  2  0  0  0  0  0  0  0  0  0
   -3.3273    3.8747    0.6401 C   0  0  1  0  0  0  0  0  0  0  0  0
   -2.5916    3.1823   -0.4081 O   0  0  0  0  0  0  0  0  0  0  0  0
   -3.0322    3.7680    3.1424 C   0  0  1  0  0  0  0  0  0  0  0  0
   -3.2856    3.0671    1.8810 O   0  0  0  0  0  0  0  0  0  0  0  0
   -3.1470    2.7628    4.3173 C   0  0  0  0  0  0  0  0  0  0  0  0
   -8.0609    0.1928   -8.6382 N   0  3  0  0  0  0  0  0  0  0  0  0
   -0.9818    1.1529   -1.3930 O   0  0  0  0  0  0  0  0  0  0  0  0
   -1.0886    6.5935    2.0866 O   0  0  0  0  0  0  0  0  0  0  0  0
   -0.5980    3.4796    3.1548 O   0  0  0  0  0  0  0  0  0  0  0  0
   -5.3049   -0.1377    1.3159 O   0  0  0  0  0  0  0  0  0  0  0  0
   -4.8255   -2.8098   -3.5634 O   0  0  0  0  0  0  0  0  0  0  0  0
   -4.5273    2.2941    4.5383 N   0  3  0  0  0  0  0  0  0  0  0  0
   -2.5175    6.0502   -0.3798 N   0  3  0  0  0  0  0  0  0  0  0  0
  1  2  1  1  0  0  0
  1  3  1  0  0  0  0
  1 10  1  0  0  0  0
  3  4  1  1  0  0  0
  3  5  1  0  0  0  0
  5  6  1  6  0  0  0
  5  7  1  0  0  0  0
  7  8  1  1  0  0  0
  7  9  1  0  0  0  0
  9 10  1  0  0  0  0
  9 11  1  6  0  0  0
 11 35  1  0  0  0  0
 12 13  1  1  0  0  0
 12 14  1  0  0  0  0
 12 20  1  0  0  0  0
 14 15  1  0  0  0  0
 14 40  1  6  0  0  0
 15 16  1  1  0  0  0
 15 17  1  0  0  0  0
 17  2  1  6  0  0  0
 17 18  1  0  0  0  0
 18 19  1  1  0  0  0
 18 20  1  0  0  0  0
 21 16  1  6  0  0  0
 21 22  1  0  0  0  0
 21 25  1  0  0  0  0
 22 23  1  0  0  0  0
 22 36  1  1  0  0  0
 23 24  1  0  0  0  0
 23 31  1  1  0  0  0
 24 25  1  0  0  0  0
 24 26  1  6  0  0  0
 26 39  1  0  0  0  0
 27 28  1  0  0  0  0
 27 32  1  0  0  0  0
 27 38  1  6  0  0  0
 28 29  1  0  0  0  0
 28 37  1  1  0  0  0
 29 30  1  0  0  0  0
 29 42  1  6  0  0  0
 30 31  1  6  0  0  0
 30 33  1  0  0  0  0
 32 33  1  0  0  0  0
 32 34  1  1  0  0  0
 34 41  1  0  0  0  0
M  CHG  6   4   1  13   1  19   1  35   1  41   1  42   1
M  END
>  <CHROM.1>
-173.37106375,-64.92313042,-17.15720424,-166.91597828,73.64117335,-65.14471235
55.45465539,64.47935642,70.29271883,58.28762166,104.39023692,-66.58025782
178.33456548,-172.81891146,159.30149629,-71.75073087,64.81605128,68.90594297
104.89904165,-163.47250608,169.22191194,-168.12278809,-3.80561650,1.60423917
-2.58433648,2.24092447,1.12753367,-2.54971266

>  <Name>


>  <RI>
0

>  <Rbt.Current_Directory>
/home/itssahil/PROJECTS/Mol_Feturizer/New_Systems/rnas/1ei2

>  <Rbt.Executable>
rbdock ($Id: //depot/dev/client3/rdock/2013.1/src/exe/rbdock.cxx#4 $)

>  <Rbt.Library>
libRbt.so (2013.1, Build901 2013/11/27)

>  <Rbt.Parameter_File>
/export/apps/rDock/src/rDock_2013.1_src/data/scripts/dock_solv.prm

>  <Rbt.Receptor>
prm/pocket_docking_6.prm

>  <SCORE>
-65.4957

>  <SCORE.INTER>
-45.0016

>  <SCORE.INTER.CONST>
1

>  <SCORE.INTER.POLAR>
-7.22157

>  <SCORE.INTER.ROT>
9

>  <SCORE.INTER.SOLV>
33.4443

>  <SCORE.INTER.VDW>
-26.6773

>  <SCORE.INTER.norm>
-1.07147

>  <SCORE.INTRA>
-20.6359

>  <SCORE.INTRA.DIHEDRAL>
-20.236

>  <SCORE.INTRA.DIHEDRAL.0>
40.8761

>  <SCORE.INTRA.POLAR>
-0.513013

>  <SCORE.INTRA.POLAR.0>
-0.0268208

>  <SCORE.INTRA.REPUL>
-0.641615

>  <SCORE.INTRA.REPUL.0>
0.641615

>  <SCORE.INTRA.SOLV>
-13.6902

>  <SCORE.INTRA.SOLV.lig_0>
-162.567

>  <SCORE.INTRA.VDW>
1.27947

>  <SCORE.INTRA.VDW.0>
-4.80338

>  <SCORE.INTRA.norm>
-0.491332

>  <SCORE.RESTR>
0.141878

>  <SCORE.RESTR.CAVITY>
0.141878

>  <SCORE.RESTR.norm>
0.00337804

>  <SCORE.SYSTEM>
0

>  <SCORE.SYSTEM.CONST>
0

>  <SCORE.SYSTEM.DIHEDRAL>
0

>  <SCORE.SYSTEM.SOLV>
0

>  <SCORE.SYSTEM.norm>
0

>  <SCORE.heavy>
42

>  <SCORE.norm>
-1.55942

>  <RMSD>
7.565

$$$$

 OpenBabel11021811393D
libRbt.so/2013.1/901 2013/11/27
 42 45  0  0  0  0  0  0  0  0999 V2000
   -3.5609   -0.6203   -1.6731 C   0  0  2  0  0  0  0  0  0  0  0  0
   -2.6129   -0.5887   -2.7839 O   0  0  0  0  0  0  0  0  0  0  0  0
   -4.5712   -1.8052   -1.8120 C   0  0  2  0  0  0  0  0  0  0  0  0
   -4.1167   -2.7967   -2.8137 N   0  3  0  0  0  0  0  0  0  0  0  0
   -5.9927   -1.2770   -2.1714 C   0  0  1  0  0  0  0  0  0  0  0  0
   -6.9071   -2.3653   -2.2853 O   0  0  0  0  0  0  0  0  0  0  0  0
   -6.5303   -0.2928   -1.0982 C   0  0  2  0  0  0  0  0  0  0  0  0
   -7.6798    0.3665   -1.6176 O   0  0  0  0  0  0  0  0  0  0  0  0
   -5.4449    0.7584   -0.6980 C   0  0  2  0  0  0  0  0  0  0  0  0
   -4.2883    0.6530   -1.5905 O   0  0  0  0  0  0  0  0  0  0  0  0
   -4.9027    0.6044    0.7416 C   0  0  0  0  0  0  0  0  0  0  0  0
   -3.0220    3.6411   -3.5332 C   0  0  1  0  0  0  0  0  0  0  0  0
   -2.8697    5.0000   -4.0994 N   0  3  0  0  0  0  0  0  0  0  0  0
   -3.7370    2.6877   -4.5262 C   0  0  1  0  0  0  0  0  0  0  0  0
   -3.7929    1.1969   -4.0421 C   0  0  1  0  0  0  0  0  0  0  0  0
   -4.1790    0.3675   -5.1708 O   0  0  0  0  0  0  0  0  0  0  0  0
   -2.4123    0.6623   -3.5107 C   0  0  1  0  0  0  0  0  0  0  0  0
   -1.7263    1.6761   -2.5389 C   0  0  1  0  0  0  0  0  0  0  0  0
   -0.3663    1.2444   -2.1567 N   0  3  0  0  0  0  0  0  0  0  0  0
   -1.6312    3.0895   -3.1563 C   0  0  0  0  0  0  0  0  0  0  0  0
   -3.5656    0.5950   -6.4727 C   0  0  1  0  0  0  0  0  0  0  0  0
   -2.7676   -0.6454   -6.8566 C   0  0  1  0  0  0  0  0  0  0  0  0
   -3.8909   -1.5365   -7.3691 C   0  0  1  0  0  0  0  0  0  0  0  0
   -4.7470   -0.5344   -8.1566 C   0  0  2  0  0  0  0  0  0  0  0  0
   -4.5832    0.7337   -7.4778 O   0  0  0  0  0  0  0  0  0  0  0  0
   -6.2360   -0.9216   -8.2043 C   0  0  0  0  0  0  0  0  0  0  0  0
   -2.4423   -6.2261   -7.3724 C   0  0  1  0  0  0  0  0  0  0  0  0
   -2.4090   -5.6011   -8.7949 C   0  0  1  0  0  0  0  0  0  0  0  0
   -1.6354   -4.2537   -8.8788 C   0  0  2  0  0  0  0  0  0  0  0  0
   -2.1442   -3.2425   -7.8015 C   0  0  1  0  0  0  0  0  0  0  0  0
   -3.3820   -2.6021   -8.2220 O   0  0  0  0  0  0  0  0  0  0  0  0
   -1.8052   -5.2605   -6.3274 C   0  0  1  0  0  0  0  0  0  0  0  0
   -2.3603   -3.9156   -6.5000 O   0  0  0  0  0  0  0  0  0  0  0  0
   -2.0417   -5.7273   -4.8679 C   0  0  0  0  0  0  0  0  0  0  0  0
   -5.7034    1.2904    1.7709 N   0  3  0  0  0  0  0  0  0  0  0  0
   -1.8415   -0.3219   -7.8940 O   0  0  0  0  0  0  0  0  0  0  0  0
   -1.7940   -6.5347   -9.6818 O   0  0  0  0  0  0  0  0  0  0  0  0
   -3.8034   -6.4951   -7.0288 O   0  0  0  0  0  0  0  0  0  0  0  0
   -6.8800   -0.3176   -9.3131 O   0  0  0  0  0  0  0  0  0  0  0  0
   -5.0720    3.1514   -4.7266 O   0  0  0  0  0  0  0  0  0  0  0  0
   -1.8098   -7.1716   -4.6831 N   0  3  0  0  0  0  0  0  0  0  0  0
   -1.6726   -3.6920  -10.2519 N   0  3  0  0  0  0  0  0  0  0  0  0
  1  2  1  6  0  0  0
  1  3  1  0  0  0  0
  1 10  1  0  0  0  0
  3  4  1  6  0  0  0
  3  5  1  0  0  0  0
  5  6  1  1  0  0  0
  5  7  1  0  0  0  0
  7  8  1  6  0  0  0
  7  9  1  0  0  0  0
  9 10  1  0  0  0  0
  9 11  1  1  0  0  0
 11 35  1  0  0  0  0
 12 13  1  6  0  0  0
 12 14  1  0  0  0  0
 12 20  1  0  0  0  0
 14 15  1  0  0  0  0
 14 40  1  1  0  0  0
 15 16  1  6  0  0  0
 15 17  1  0  0  0  0
 17  2  1  1  0  0  0
 17 18  1  0  0  0  0
 18 19  1  6  0  0  0
 18 20  1  0  0  0  0
 21 16  1  1  0  0  0
 21 22  1  0  0  0  0
 21 25  1  0  0  0  0
 22 23  1  0  0  0  0
 22 36  1  6  0  0  0
 23 24  1  0  0  0  0
 23 31  1  6  0  0  0
 24 25  1  0  0  0  0
 24 26  1  1  0  0  0
 26 39  1  0  0  0  0
 27 28  1  0  0  0  0
 27 32  1  0  0  0  0
 27 38  1  1  0  0  0
 28 29  1  0  0  0  0
 28 37  1  6  0  0  0
 29 30  1  0  0  0  0
 29 42  1  6  0  0  0
 30 31  1  6  0  0  0
 30 33  1  0  0  0  0
 32 33  1  0  0  0  0
 32 34  1  1  0  0  0
 34 41  1  0  0  0  0
M  CHG  6   4   1  13   1  19   1  35   1  41   1  42   1
M  END
>  <CHROM.1>
129.30410890,-55.13624225,60.90588037,-165.05668050,-166.06252945,-86.05453657
179.00959729,152.07014040,-178.86336311,44.12865838,116.20070074,-171.72526807
174.62375938,40.42848068,-157.30448224,66.04689913,63.60198167,65.54961136
-52.51615217,-173.92507441,44.51002438,-45.64178334,-3.66051343,-1.14055982
-4.91311590,2.71697990,1.34427817,-0.34290769

>  <Name>


>  <RI>
0

>  <Rbt.Current_Directory>
/home/itssahil/PROJECTS/Mol_Feturizer/New_Systems/rnas/1ei2

>  <Rbt.Executable>
rbdock ($Id: //depot/dev/client3/rdock/2013.1/src/exe/rbdock.cxx#4 $)

>  <Rbt.Library>
libRbt.so (2013.1, Build901 2013/11/27)

>  <Rbt.Parameter_File>
/export/apps/rDock/src/rDock_2013.1_src/data/scripts/dock_solv.prm

>  <Rbt.Receptor>
prm/blind_docking_40.prm

>  <SCORE>
-18.0327

>  <SCORE.INTER>
-27.6777

>  <SCORE.INTER.CONST>
1

>  <SCORE.INTER.POLAR>
-4.25656

>  <SCORE.INTER.ROT>
9

>  <SCORE.INTER.SOLV>
47.077

>  <SCORE.INTER.VDW>
-29.5556

>  <SCORE.INTER.norm>
-0.658994

>  <SCORE.INTRA>
-12.5805

>  <SCORE.INTRA.DIHEDRAL>
-13.5646

>  <SCORE.INTRA.DIHEDRAL.0>
40.8761

>  <SCORE.INTRA.POLAR>
0.0205682

>  <SCORE.INTRA.POLAR.0>
-0.0268208

>  <SCORE.INTRA.REPUL>
-0.641615

>  <SCORE.INTRA.REPUL.0>
0.641615

>  <SCORE.INTRA.SOLV>
-12.5568

>  <SCORE.INTRA.SOLV.lig_0>
-162.567

>  <SCORE.INTRA.VDW>
3.61837

>  <SCORE.INTRA.VDW.0>
-4.80338

>  <SCORE.INTRA.norm>
-0.299536

>  <SCORE.RESTR>
22.2255

>  <SCORE.RESTR.CAVITY>
22.2255

>  <SCORE.RESTR.norm>
0.529179

>  <SCORE.SYSTEM>
0

>  <SCORE.SYSTEM.CONST>
0

>  <SCORE.SYSTEM.DIHEDRAL>
0

>  <SCORE.SYSTEM.SOLV>
0

>  <SCORE.SYSTEM.norm>
0

>  <SCORE.heavy>
42

>  <SCORE.norm>
-0.429351

>  <RMSD>
7.566

$$$$

 OpenBabel11021811393D
libRbt.so/2013.1/901 2013/11/27
 42 45  0  0  0  0  0  0  0  0999 V2000
   -5.1141    1.6394   -5.1425 C   0  0  2  0  0  0  0  0  0  0  0  0
   -4.0616    0.9760   -5.9080 O   0  0  0  0  0  0  0  0  0  0  0  0
   -6.4319    1.7742   -5.9727 C   0  0  2  0  0  0  0  0  0  0  0  0
   -6.4150    0.9038   -7.1707 N   0  3  0  0  0  0  0  0  0  0  0  0
   -6.6769    3.2588   -6.3789 C   0  0  1  0  0  0  0  0  0  0  0  0
   -7.8861    3.3706   -7.1263 O   0  0  0  0  0  0  0  0  0  0  0  0
   -6.7774    4.1866   -5.1386 C   0  0  2  0  0  0  0  0  0  0  0  0
   -6.7081    5.5400   -5.5735 O   0  0  0  0  0  0  0  0  0  0  0  0
   -5.6319    3.8931   -4.1162 C   0  0  2  0  0  0  0  0  0  0  0  0
   -4.6612    2.9647   -4.7002 O   0  0  0  0  0  0  0  0  0  0  0  0
   -6.1042    3.2558   -2.7892 C   0  0  0  0  0  0  0  0  0  0  0  0
   -2.7528   -3.1076   -5.4276 C   0  0  1  0  0  0  0  0  0  0  0  0
   -2.0352   -4.3207   -4.9761 N   0  3  0  0  0  0  0  0  0  0  0  0
   -3.6595   -2.5328   -4.3079 C   0  0  1  0  0  0  0  0  0  0  0  0
   -4.3293   -1.1635   -4.6774 C   0  0  1  0  0  0  0  0  0  0  0  0
   -4.8717   -0.5811   -3.4618 O   0  0  0  0  0  0  0  0  0  0  0  0
   -3.3225   -0.1238   -5.2935 C   0  0  1  0  0  0  0  0  0  0  0  0
   -2.4173   -0.7662   -6.3939 C   0  0  1  0  0  0  0  0  0  0  0  0
   -1.3738    0.1661   -6.8673 N   0  3  0  0  0  0  0  0  0  0  0  0
   -1.7259   -2.0530   -5.8901 C   0  0  0  0  0  0  0  0  0  0  0  0
   -4.7559   -1.3068   -2.2037 C   0  0  1  0  0  0  0  0  0  0  0  0
   -3.3872   -1.0158   -1.5998 C   0  0  1  0  0  0  0  0  0  0  0  0
   -3.6580    0.3435   -0.9693 C   0  0  1  0  0  0  0  0  0  0  0  0
   -5.0608    0.1382   -0.3799 C   0  0  2  0  0  0  0  0  0  0  0  0
   -5.7162   -0.8076   -1.2584 O   0  0  0  0  0  0  0  0  0  0  0  0
   -5.8769    1.4408   -0.3001 C   0  0  0  0  0  0  0  0  0  0  0  0
   -1.8346    1.7407    3.6472 C   0  0  1  0  0  0  0  0  0  0  0  0
   -0.8862    1.8758    2.4233 C   0  0  1  0  0  0  0  0  0  0  0  0
   -1.5360    2.5660    1.1894 C   0  0  2  0  0  0  0  0  0  0  0  0
   -2.8928    1.8884    0.8129 C   0  0  1  0  0  0  0  0  0  0  0  0
   -2.6784    0.6603    0.0612 O   0  0  0  0  0  0  0  0  0  0  0  0
   -3.2773    2.2070    3.2848 C   0  0  1  0  0  0  0  0  0  0  0  0
   -3.6911    1.5870    2.0235 O   0  0  0  0  0  0  0  0  0  0  0  0
   -4.3081    1.8564    4.3887 C   0  0  0  0  0  0  0  0  0  0  0  0
   -7.4423    2.6419   -2.8504 N   0  3  0  0  0  0  0  0  0  0  0  0
   -3.0765   -1.9985   -0.6117 O   0  0  0  0  0  0  0  0  0  0  0  0
    0.2550    2.6350    2.8206 O   0  0  0  0  0  0  0  0  0  0  0  0
   -1.8482    0.3722    4.0593 O   0  0  0  0  0  0  0  0  0  0  0  0
   -7.2623    1.1632   -0.1900 O   0  0  0  0  0  0  0  0  0  0  0  0
   -4.6883   -3.4794   -4.0196 O   0  0  0  0  0  0  0  0  0  0  0  0
   -4.2668    2.7898    5.5293 N   0  3  0  0  0  0  0  0  0  0  0  0
   -0.5929    2.6303    0.0454 N   0  3  0  0  0  0  0  0  0  0  0  0
  1  2  1  6  0  0  0
  1  3  1  0  0  0  0
  1 10  1  0  0  0  0
  3  4  1  6  0  0  0
  3  5  1  0  0  0  0
  5  6  1  1  0  0  0
  5  7  1  0  0  0  0
  7  8  1  6  0  0  0
  7  9  1  0  0  0  0
  9 10  1  0  0  0  0
  9 11  1  1  0  0  0
 11 35  1  0  0  0  0
 12 13  1  1  0  0  0
 12 14  1  0  0  0  0
 12 20  1  0  0  0  0
 14 15  1  0  0  0  0
 14 40  1  6  0  0  0
 15 16  1  1  0  0  0
 15 17  1  0  0  0  0
 17  2  1  6  0  0  0
 17 18  1  0  0  0  0
 18 19  1  1  0  0  0
 18 20  1  0  0  0  0
 21 16  1  6  0  0  0
 21 22  1  0  0  0  0
 21 25  1  0  0  0  0
 22 23  1  0  0  0  0
 22 36  1  1  0  0  0
 23 24  1  0  0  0  0
 23 31  1  1  0  0  0
 24 25  1  0  0  0  0
 24 26  1  6  0  0  0
 26 39  1  0  0  0  0
 27 28  1  0  0  0  0
 27 32  1  0  0  0  0
 27 38  1  6  0  0  0
 28 29  1  0  0  0  0
 28 37  1  1  0  0  0
 29 30  1  0  0  0  0
 29 42  1  6  0  0  0
 30 31  1  1  0  0  0
 30 33  1  0  0  0  0
 32 33  1  0  0  0  0
 32 34  1  1  0  0  0
 34 41  1  0  0  0  0
M  CHG  6   4   1  13   1  19   1  35   1  41   1  42   1
M  END
>  <CHROM.1>
-131.26359133,49.78588576,-172.36663750,-174.08578483,-178.99379637,18.41727879
55.33063292,75.51264422,76.72594331,-1.56559411,84.13774542,-63.98435947
73.71257990,-175.26292425,160.33426772,84.37894313,75.75716681,-178.44866673
52.52543696,-145.45387506,78.82097559,-45.76817903,-4.08747428,0.88953613
-2.16135371,2.00908262,0.90112447,-2.02246258

>  <Name>


>  <RI>
0

>  <Rbt.Current_Directory>
/home/itssahil/PROJECTS/Mol_Feturizer/New_Systems/rnas/1ei2

>  <Rbt.Executable>
rbdock ($Id: //depot/dev/client3/rdock/2013.1/src/exe/rbdock.cxx#4 $)

>  <Rbt.Library>
libRbt.so (2013.1, Build901 2013/11/27)

>  <Rbt.Parameter_File>
/export/apps/rDock/src/rDock_2013.1_src/data/scripts/dock_solv.prm

>  <Rbt.Receptor>
prm/pocket_docking_5.prm

>  <SCORE>
-54.7299

>  <SCORE.INTER>
-44.9659

>  <SCORE.INTER.CONST>
1

>  <SCORE.INTER.POLAR>
-6.75693

>  <SCORE.INTER.ROT>
9

>  <SCORE.INTER.SOLV>
31.0965

>  <SCORE.INTER.VDW>
-27.4196

>  <SCORE.INTER.norm>
-1.07062

>  <SCORE.INTRA>
-11.1722

>  <SCORE.INTRA.DIHEDRAL>
-4.61919

>  <SCORE.INTRA.DIHEDRAL.0>
40.8761

>  <SCORE.INTRA.POLAR>
-1.1561

>  <SCORE.INTRA.POLAR.0>
-0.0268208

>  <SCORE.INTRA.REPUL>
-0.641615

>  <SCORE.INTRA.REPUL.0>
0.641615

>  <SCORE.INTRA.SOLV>
-7.41372

>  <SCORE.INTRA.SOLV.lig_0>
-162.567

>  <SCORE.INTRA.VDW>
1.98303

>  <SCORE.INTRA.VDW.0>
-4.80338

>  <SCORE.INTRA.norm>
-0.266006

>  <SCORE.RESTR>
1.40824

>  <SCORE.RESTR.CAVITY>
1.40824

>  <SCORE.RESTR.norm>
0.0335295

>  <SCORE.SYSTEM>
0

>  <SCORE.SYSTEM.CONST>
0

>  <SCORE.SYSTEM.DIHEDRAL>
0

>  <SCORE.SYSTEM.SOLV>
0

>  <SCORE.SYSTEM.norm>
0

>  <SCORE.heavy>
42

>  <SCORE.norm>
-1.30309

>  <RMSD>
7.570

$$$$

 OpenBabel11021811393D
libRbt.so/2013.1/901 2013/11/27
 42 45  0  0  0  0  0  0  0  0999 V2000
   -3.1032    3.5844   -0.6311 C   0  0  2  0  0  0  0  0  0  0  0  0
   -3.0405    3.8060   -2.0735 O   0  0  0  0  0  0  0  0  0  0  0  0
   -2.7193    4.8729    0.1666 C   0  0  2  0  0  0  0  0  0  0  0  0
   -2.7330    6.0754   -0.6977 N   0  3  0  0  0  0  0  0  0  0  0  0
   -1.3273    4.7045    0.8471 C   0  0  1  0  0  0  0  0  0  0  0  0
   -0.9928    5.8814    1.5795 O   0  0  0  0  0  0  0  0  0  0  0  0
   -1.3042    3.4957    1.8206 C   0  0  2  0  0  0  0  0  0  0  0  0
    0.0461    3.2229    2.1783 O   0  0  0  0  0  0  0  0  0  0  0  0
   -1.9520    2.2307    1.1698 C   0  0  2  0  0  0  0  0  0  0  0  0
   -2.2193    2.4752   -0.2494 O   0  0  0  0  0  0  0  0  0  0  0  0
   -3.2965    1.8018    1.8012 C   0  0  0  0  0  0  0  0  0  0  0  0
   -2.6774    1.6878   -5.8154 C   0  0  1  0  0  0  0  0  0  0  0  0
   -2.6567    0.6238   -6.8439 N   0  3  0  0  0  0  0  0  0  0  0  0
   -4.1179    1.9635   -5.3105 C   0  0  1  0  0  0  0  0  0  0  0  0
   -4.1857    2.9746   -4.1134 C   0  0  1  0  0  0  0  0  0  0  0  0
   -5.5143    2.8990   -3.5303 O   0  0  0  0  0  0  0  0  0  0  0  0
   -3.1486    2.6604   -2.9733 C   0  0  1  0  0  0  0  0  0  0  0  0
   -1.7238    2.3630   -3.5430 C   0  0  1  0  0  0  0  0  0  0  0  0
   -0.7862    1.9231   -2.4898 N   0  3  0  0  0  0  0  0  0  0  0  0
   -1.7600    1.2793   -4.6440 C   0  0  0  0  0  0  0  0  0  0  0  0
   -6.6833    3.0864   -4.3795 C   0  0  1  0  0  0  0  0  0  0  0  0
   -7.9253    2.6902   -3.5900 C   0  0  1  0  0  0  0  0  0  0  0  0
   -8.1302    3.9533   -2.7647 C   0  0  1  0  0  0  0  0  0  0  0  0
   -7.8282    5.0499   -3.7959 C   0  0  2  0  0  0  0  0  0  0  0  0
   -6.8451    4.4796   -4.6924 O   0  0  0  0  0  0  0  0  0  0  0  0
   -7.2801    6.3400   -3.1598 C   0  0  0  0  0  0  0  0  0  0  0  0
  -10.8340    6.4722    0.3981 C   0  0  1  0  0  0  0  0  0  0  0  0
  -11.6988    5.4805   -0.4289 C   0  0  1  0  0  0  0  0  0  0  0  0
  -11.1723    4.0163   -0.4174 C   0  0  2  0  0  0  0  0  0  0  0  0
   -9.6624    3.9562   -0.8150 C   0  0  1  0  0  0  0  0  0  0  0  0
   -9.4928    4.0464   -2.2581 O   0  0  0  0  0  0  0  0  0  0  0  0
   -9.5446    5.7746    0.9284 C   0  0  1  0  0  0  0  0  0  0  0  0
   -8.8970    5.0446   -0.1644 O   0  0  0  0  0  0  0  0  0  0  0  0
   -8.5354    6.7805    1.5395 C   0  0  0  0  0  0  0  0  0  0  0  0
   -4.2111    2.9169    2.1033 N   0  3  0  0  0  0  0  0  0  0  0  0
   -9.0154    2.4668   -4.4845 O   0  0  0  0  0  0  0  0  0  0  0  0
  -13.0244    5.4913    0.0995 O   0  0  0  0  0  0  0  0  0  0  0  0
  -10.4871    7.5767   -0.4402 O   0  0  0  0  0  0  0  0  0  0  0  0
   -6.1581    6.0619   -2.3397 O   0  0  0  0  0  0  0  0  0  0  0  0
   -4.8907    2.4854   -6.3912 O   0  0  0  0  0  0  0  0  0  0  0  0
   -9.0271    7.4027    2.7825 N   0  3  0  0  0  0  0  0  0  0  0  0
  -12.0188    3.1295   -1.2536 N   0  3  0  0  0  0  0  0  0  0  0  0
  1  2  1  6  0  0  0
  1  3  1  0  0  0  0
  1 10  1  0  0  0  0
  3  4  1  6  0  0  0
  3  5  1  0  0  0  0
  5  6  1  1  0  0  0
  5  7  1  0  0  0  0
  7  8  1  6  0  0  0
  7  9  1  0  0  0  0
  9 10  1  0  0  0  0
  9 11  1  1  0  0  0
 11 35  1  0  0  0  0
 12 13  1  6  0  0  0
 12 14  1  0  0  0  0
 12 20  1  0  0  0  0
 14 15  1  0  0  0  0
 14 40  1  6  0  0  0
 15 16  1  1  0  0  0
 15 17  1  0  0  0  0
 17  2  1  1  0  0  0
 17 18  1  0  0  0  0
 18 19  1  1  0  0  0
 18 20  1  0  0  0  0
 21 16  1  1  0  0  0
 21 22  1  0  0  0  0
 21 25  1  0  0  0  0
 22 23  1  0  0  0  0
 22 36  1  6  0  0  0
 23 24  1  0  0  0  0
 23 31  1  6  0  0  0
 24 25  1  0  0  0  0
 24 26  1  1  0  0  0
 26 39  1  0  0  0  0
 27 28  1  0  0  0  0
 27 32  1  0  0  0  0
 27 38  1  6  0  0  0
 28 29  1  0  0  0  0
 28 37  1  1  0  0  0
 29 30  1  0  0  0  0
 29 42  1  6  0  0  0
 30 31  1  6  0  0  0
 30 33  1  0  0  0  0
 32 33  1  0  0  0  0
 32 34  1  6  0  0  0
 34 41  1  0  0  0  0
M  CHG  6   4   1  13   1  19   1  35   1  41   1  42   1
M  END
>  <CHROM.1>
169.89059552,132.27833376,-10.96686289,55.34023820,-175.55263113,42.36123859
-51.95140267,9.95300007,-67.75594058,-54.38034917,169.01601075,79.11354101
-60.00816929,113.87735611,53.40738931,-174.57571152,171.12867620,-178.31887713
161.35042111,-177.84335974,67.44704409,-67.65318975,-5.78595540,3.96089199
-1.57490994,-0.24491122,-0.22268616,1.18313369

>  <Name>


>  <RI>
0

>  <Rbt.Current_Directory>
/home/itssahil/PROJECTS/Mol_Feturizer/New_Systems/rnas/1ei2

>  <Rbt.Executable>
rbdock ($Id: //depot/dev/client3/rdock/2013.1/src/exe/rbdock.cxx#4 $)

>  <Rbt.Library>
libRbt.so (2013.1, Build901 2013/11/27)

>  <Rbt.Parameter_File>
/export/apps/rDock/src/rDock_2013.1_src/data/scripts/dock_solv.prm

>  <Rbt.Receptor>
prm/pocket_docking_3.prm

>  <SCORE>
-50.6457

>  <SCORE.INTER>
-34.978

>  <SCORE.INTER.CONST>
1

>  <SCORE.INTER.POLAR>
-6.3735

>  <SCORE.INTER.ROT>
9

>  <SCORE.INTER.SOLV>
28.4409

>  <SCORE.INTER.VDW>
-21.1539

>  <SCORE.INTER.norm>
-0.832808

>  <SCORE.INTRA>
-15.6677

>  <SCORE.INTRA.DIHEDRAL>
-14.5906

>  <SCORE.INTRA.DIHEDRAL.0>
40.8761

>  <SCORE.INTRA.POLAR>
-1.19721

>  <SCORE.INTRA.POLAR.0>
-0.0268208

>  <SCORE.INTRA.REPUL>
-0.641615

>  <SCORE.INTRA.REPUL.0>
0.641615

>  <SCORE.INTRA.SOLV>
-5.69886

>  <SCORE.INTRA.SOLV.lig_0>
-162.567

>  <SCORE.INTRA.VDW>
1.75556

>  <SCORE.INTRA.VDW.0>
-4.80338

>  <SCORE.INTRA.norm>
-0.373042

>  <SCORE.RESTR>
0

>  <SCORE.RESTR.CAVITY>
0

>  <SCORE.RESTR.norm>
0

>  <SCORE.SYSTEM>
0

>  <SCORE.SYSTEM.CONST>
0

>  <SCORE.SYSTEM.DIHEDRAL>
0

>  <SCORE.SYSTEM.SOLV>
0

>  <SCORE.SYSTEM.norm>
0

>  <SCORE.heavy>
42

>  <SCORE.norm>
-1.20585

>  <RMSD>
7.572

$$$$

 OpenBabel11021811393D
libRbt.so/2013.1/901 2013/11/27
 42 45  0  0  0  0  0  0  0  0999 V2000
   -1.4868    6.4270    5.3667 C   0  0  2  0  0  0  0  0  0  0  0  0
   -2.5912    5.5267    5.6882 O   0  0  0  0  0  0  0  0  0  0  0  0
   -2.0019    7.7958    4.8147 C   0  0  2  0  0  0  0  0  0  0  0  0
   -3.4469    7.9833    5.0792 N   0  3  0  0  0  0  0  0  0  0  0  0
   -1.7044    7.9213    3.2900 C   0  0  1  0  0  0  0  0  0  0  0  0
   -2.1693    9.1773    2.8003 O   0  0  0  0  0  0  0  0  0  0  0  0
   -0.1862    7.8065    2.9876 C   0  0  2  0  0  0  0  0  0  0  0  0
   -0.0111    7.6373    1.5853 O   0  0  0  0  0  0  0  0  0  0  0  0
    0.4563    6.6067    3.7564 C   0  0  2  0  0  0  0  0  0  0  0  0
   -0.5873    5.7981    4.3907 O   0  0  0  0  0  0  0  0  0  0  0  0
    1.4368    7.0157    4.8796 C   0  0  0  0  0  0  0  0  0  0  0  0
   -0.0788    2.0954    6.4188 C   0  0  1  0  0  0  0  0  0  0  0  0
    0.4063    0.7539    6.8133 N   0  3  0  0  0  0  0  0  0  0  0  0
   -1.0115    2.0222    5.1815 C   0  0  1  0  0  0  0  0  0  0  0  0
   -1.6757    3.3932    4.8085 C   0  0  1  0  0  0  0  0  0  0  0  0
   -2.7513    3.1350    3.8666 O   0  0  0  0  0  0  0  0  0  0  0  0
   -2.2970    4.1411    6.0450 C   0  0  1  0  0  0  0  0  0  0  0  0
   -1.3249    4.1578    7.2687 C   0  0  1  0  0  0  0  0  0  0  0  0
   -1.9611    4.7265    8.4745 N   0  3  0  0  0  0  0  0  0  0  0  0
   -0.8107    2.7419    7.6133 C   0  0  0  0  0  0  0  0  0  0  0  0
   -3.5923    1.9582    4.0414 C   0  0  1  0  0  0  0  0  0  0  0  0
   -5.0209    2.3205    3.6530 C   0  0  1  0  0  0  0  0  0  0  0  0
   -4.9197    2.2138    2.1374 C   0  0  1  0  0  0  0  0  0  0  0  0
   -4.0575    0.9543    1.9719 C   0  0  2  0  0  0  0  0  0  0  0  0
   -3.1875    0.9248    3.1286 O   0  0  0  0  0  0  0  0  0  0  0  0
   -3.2212    0.9627    0.6797 C   0  0  0  0  0  0  0  0  0  0  0  0
   -8.8261    0.8710   -1.0456 C   0  0  1  0  0  0  0  0  0  0  0  0
   -8.8061    2.2716   -0.3724 C   0  0  1  0  0  0  0  0  0  0  0  0
   -7.4303    2.9942   -0.4502 C   0  0  2  0  0  0  0  0  0  0  0  0
   -6.2790    2.0736    0.0683 C   0  0  1  0  0  0  0  0  0  0  0  0
   -6.2312    2.0571    1.5232 O   0  0  0  0  0  0  0  0  0  0  0  0
   -7.3974    0.4615   -1.5161 C   0  0  1  0  0  0  0  0  0  0  0  0
   -6.4396    0.6884   -0.4308 O   0  0  0  0  0  0  0  0  0  0  0  0
   -7.3227   -1.0217   -1.9615 C   0  0  0  0  0  0  0  0  0  0  0  0
    2.3190    5.9304    5.3435 N   0  3  0  0  0  0  0  0  0  0  0  0
   -5.9264    1.3540    4.1864 O   0  0  0  0  0  0  0  0  0  0  0  0
   -9.7865    3.0903   -1.0089 O   0  0  0  0  0  0  0  0  0  0  0  0
   -9.3240   -0.0779   -0.0997 O   0  0  0  0  0  0  0  0  0  0  0  0
   -2.6404   -0.3087    0.4454 O   0  0  0  0  0  0  0  0  0  0  0  0
   -0.2533    1.5645    4.0621 O   0  0  0  0  0  0  0  0  0  0  0  0
   -5.9461   -1.5498   -1.9684 N   0  3  0  0  0  0  0  0  0  0  0  0
   -7.4676    4.3066    0.2417 N   0  3  0  0  0  0  0  0  0  0  0  0
  1  2  1  6  0  0  0
  1  3  1  0  0  0  0
  1 10  1  0  0  0  0
  3  4  1  6  0  0  0
  3  5  1  0  0  0  0
  5  6  1  1  0  0  0
  5  7  1  0  0  0  0
  7  8  1  6  0  0  0
  7  9  1  0  0  0  0
  9 10  1  0  0  0  0
  9 11  1  1  0  0  0
 11 35  1  0  0  0  0
 12 13  1  1  0  0  0
 12 14  1  0  0  0  0
 12 20  1  0  0  0  0
 14 15  1  0  0  0  0
 14 40  1  6  0  0  0
 15 16  1  6  0  0  0
 15 17  1  0  0  0  0
 17  2  1  6  0  0  0
 17 18  1  0  0  0  0
 18 19  1  1  0  0  0
 18 20  1  0  0  0  0
 21 16  1  6  0  0  0
 21 22  1  0  0  0  0
 21 25  1  0  0  0  0
 22 23  1  0  0  0  0
 22 36  1  1  0  0  0
 23 24  1  0  0  0  0
 23 31  1  6  0  0  0
 24 25  1  0  0  0  0
 24 26  1  6  0  0  0
 26 39  1  0  0  0  0
 27 28  1  0  0  0  0
 27 32  1  0  0  0  0
 27 38  1  1  0  0  0
 28 29  1  0  0  0  0
 28 37  1  6  0  0  0
 29 30  1  0  0  0  0
 29 42  1  1  0  0  0
 30 31  1  1  0  0  0
 30 33  1  0  0  0  0
 32 33  1  0  0  0  0
 32 34  1  1  0  0  0
 34 41  1  0  0  0  0
M  CHG  6   4   1  13   1  19   1  35   1  41   1  42   1
M  END
>  <CHROM.1>
171.80577295,-65.32731996,-150.55743805,-177.26789054,-168.99715153,-163.58485679
-65.91678883,29.09382258,167.70895824,38.79728374,143.14274137,-61.94243406
64.45281577,174.25212195,-169.13134336,177.68594433,-46.46241009,75.57823867
52.96748644,-133.86861194,-160.50127516,88.78633718,-3.46931835,3.34391635
2.93592042,0.41100629,-0.73954067,-0.11035168

>  <Name>


>  <RI>
0

>  <Rbt.Current_Directory>
/home/itssahil/PROJECTS/Mol_Feturizer/New_Systems/rnas/1ei2

>  <Rbt.Executable>
rbdock ($Id: //depot/dev/client3/rdock/2013.1/src/exe/rbdock.cxx#4 $)

>  <Rbt.Library>
libRbt.so (2013.1, Build901 2013/11/27)

>  <Rbt.Parameter_File>
/export/apps/rDock/src/rDock_2013.1_src/data/scripts/dock_solv.prm

>  <Rbt.Receptor>
prm/pocket_docking_8.prm

>  <SCORE>
-60.7565

>  <SCORE.INTER>
-41.8845

>  <SCORE.INTER.CONST>
1

>  <SCORE.INTER.POLAR>
-7.01601

>  <SCORE.INTER.ROT>
9

>  <SCORE.INTER.SOLV>
24.4043

>  <SCORE.INTER.VDW>
-22.2711

>  <SCORE.INTER.norm>
-0.99725

>  <SCORE.INTRA>
-18.872

>  <SCORE.INTRA.DIHEDRAL>
-14.7577

>  <SCORE.INTRA.DIHEDRAL.0>
40.8761

>  <SCORE.INTRA.POLAR>
-0.678612

>  <SCORE.INTRA.POLAR.0>
-0.0268208

>  <SCORE.INTRA.REPUL>
-0.641615

>  <SCORE.INTRA.REPUL.0>
0.641615

>  <SCORE.INTRA.SOLV>
-14.6137

>  <SCORE.INTRA.SOLV.lig_0>
-162.567

>  <SCORE.INTRA.VDW>
1.32907

>  <SCORE.INTRA.VDW.0>
-4.80338

>  <SCORE.INTRA.norm>
-0.449333

>  <SCORE.RESTR>
0

>  <SCORE.RESTR.CAVITY>
0

>  <SCORE.RESTR.norm>
0

>  <SCORE.SYSTEM>
0

>  <SCORE.SYSTEM.CONST>
0

>  <SCORE.SYSTEM.DIHEDRAL>
0

>  <SCORE.SYSTEM.SOLV>
0

>  <SCORE.SYSTEM.norm>
0

>  <SCORE.heavy>
42

>  <SCORE.norm>
-1.44658

>  <RMSD>
7.579

$$$$

 OpenBabel11021811393D
libRbt.so/2013.1/901 2013/11/27
 42 45  0  0  0  0  0  0  0  0999 V2000
   -3.9060    4.2050   -0.7190 C   0  0  2  0  0  0  0  0  0  0  0  0
   -3.7574    4.5240   -2.1367 O   0  0  0  0  0  0  0  0  0  0  0  0
   -2.9368    5.0535    0.1668 C   0  0  2  0  0  0  0  0  0  0  0  0
   -2.3727    6.1993   -0.5829 N   0  3  0  0  0  0  0  0  0  0  0  0
   -1.7957    4.1621    0.7431 C   0  0  1  0  0  0  0  0  0  0  0  0
   -0.9245    4.9444    1.5570 O   0  0  0  0  0  0  0  0  0  0  0  0
   -2.3536    2.9944    1.6003 C   0  0  2  0  0  0  0  0  0  0  0  0
   -1.3026    2.0674    1.8489 O   0  0  0  0  0  0  0  0  0  0  0  0
   -3.5406    2.2777    0.8787 C   0  0  2  0  0  0  0  0  0  0  0  0
   -3.6689    2.7732   -0.4936 O   0  0  0  0  0  0  0  0  0  0  0  0
   -4.9180    2.4845    1.5497 C   0  0  0  0  0  0  0  0  0  0  0  0
   -5.7929    4.0846   -5.9160 C   0  0  1  0  0  0  0  0  0  0  0  0
   -6.6023    3.5522   -7.0348 N   0  3  0  0  0  0  0  0  0  0  0  0
   -6.6758    4.4275   -4.6875 C   0  0  1  0  0  0  0  0  0  0  0  0
   -5.8569    4.8543   -3.4198 C   0  0  1  0  0  0  0  0  0  0  0  0
   -6.7494    4.8295   -2.2735 O   0  0  0  0  0  0  0  0  0  0  0  0
   -4.6521    3.8937   -3.1040 C   0  0  1  0  0  0  0  0  0  0  0  0
   -3.8171    3.5612   -4.3827 C   0  0  1  0  0  0  0  0  0  0  0  0
   -2.7783    2.5450   -4.1179 N   0  3  0  0  0  0  0  0  0  0  0  0
   -4.7107    3.0526   -5.5362 C   0  0  0  0  0  0  0  0  0  0  0  0
   -7.1387    3.5509   -1.6936 C   0  0  1  0  0  0  0  0  0  0  0  0
   -8.3850    3.7634   -0.8425 C   0  0  1  0  0  0  0  0  0  0  0  0
   -9.4514    3.7708   -1.9293 C   0  0  1  0  0  0  0  0  0  0  0  0
   -8.9678    2.6382   -2.8462 C   0  0  2  0  0  0  0  0  0  0  0  0
   -7.5246    2.6369   -2.7333 O   0  0  0  0  0  0  0  0  0  0  0  0
   -9.3843    2.8334   -4.3151 C   0  0  0  0  0  0  0  0  0  0  0  0
   -9.3776    6.1826    0.9795 C   0  0  1  0  0  0  0  0  0  0  0  0
   -9.5267    6.3330   -0.5601 C   0  0  1  0  0  0  0  0  0  0  0  0
  -10.9398    5.9685   -1.1000 C   0  0  2  0  0  0  0  0  0  0  0  0
  -11.3895    4.5586   -0.5983 C   0  0  1  0  0  0  0  0  0  0  0  0
  -10.7741    3.4983   -1.3832 O   0  0  0  0  0  0  0  0  0  0  0  0
  -10.6603    5.5523    1.6020 C   0  0  1  0  0  0  0  0  0  0  0  0
  -11.0492    4.3688    0.8307 O   0  0  0  0  0  0  0  0  0  0  0  0
  -10.4632    5.1522    3.0869 C   0  0  0  0  0  0  0  0  0  0  0  0
   -5.8829    1.3974    1.3081 N   0  3  0  0  0  0  0  0  0  0  0  0
   -8.5544    2.6614    0.0495 O   0  0  0  0  0  0  0  0  0  0  0  0
   -9.2418    7.6870   -0.9093 O   0  0  0  0  0  0  0  0  0  0  0  0
   -8.2433    5.3544    1.2448 O   0  0  0  0  0  0  0  0  0  0  0  0
  -10.0372    4.0785   -4.4941 O   0  0  0  0  0  0  0  0  0  0  0  0
   -7.5578    5.4931   -5.0396 O   0  0  0  0  0  0  0  0  0  0  0  0
   -9.9929    6.2707    3.9246 N   0  3  0  0  0  0  0  0  0  0  0  0
  -11.0053    6.0967   -2.5770 N   0  3  0  0  0  0  0  0  0  0  0  0
  1  2  1  6  0  0  0
  1  3  1  0  0  0  0
  1 10  1  0  0  0  0
  3  4  1  6  0  0  0
  3  5  1  0  0  0  0
  5  6  1  1  0  0  0
  5  7  1  0  0  0  0
  7  8  1  6  0  0  0
  7  9  1  0  0  0  0
  9 10  1  0  0  0  0
  9 11  1  1  0  0  0
 11 35  1  0  0  0  0
 12 13  1  6  0  0  0
 12 14  1  0  0  0  0
 12 20  1  0  0  0  0
 14 15  1  0  0  0  0
 14 40  1  6  0  0  0
 15 16  1  1  0  0  0
 15 17  1  0  0  0  0
 17  2  1  1  0  0  0
 17 18  1  0  0  0  0
 18 19  1  1  0  0  0
 18 20  1  0  0  0  0
 21 16  1  6  0  0  0
 21 22  1  0  0  0  0
 21 25  1  0  0  0  0
 22 23  1  0  0  0  0
 22 36  1  1  0  0  0
 23 24  1  0  0  0  0
 23 31  1  1  0  0  0
 24 25  1  0  0  0  0
 24 26  1  6  0  0  0
 26 39  1  0  0  0  0
 27 28  1  0  0  0  0
 27 32  1  0  0  0  0
 27 38  1  6  0  0  0
 28 29  1  0  0  0  0
 28 37  1  1  0  0  0
 29 30  1  0  0  0  0
 29 42  1  6  0  0  0
 30 31  1  6  0  0  0
 30 33  1  0  0  0  0
 32 33  1  0  0  0  0
 32 34  1  1  0  0  0
 34 41  1  0  0  0  0
M  CHG  6   4   1  13   1  19   1  35   1  41   1  42   1
M  END
>  <CHROM.1>
-175.70634646,95.97887521,83.16790134,-98.86408296,-178.15630875,-153.23275701
-172.96958580,58.71004496,77.51681571,75.23477413,-161.81379273,52.98019518
-177.38704563,72.45008300,4.47174220,-164.61513635,-88.40985866,-66.15113864
-174.13945500,31.01204583,54.77961951,-46.01874109,-6.77554343,4.20261306
-1.28082548,-0.01268659,-0.19474990,1.47287176

>  <Name>


>  <RI>
0

>  <Rbt.Current_Directory>
/home/itssahil/PROJECTS/Mol_Feturizer/New_Systems/rnas/1ei2

>  <Rbt.Executable>
rbdock ($Id: //depot/dev/client3/rdock/2013.1/src/exe/rbdock.cxx#4 $)

>  <Rbt.Library>
libRbt.so (2013.1, Build901 2013/11/27)

>  <Rbt.Parameter_File>
/export/apps/rDock/src/rDock_2013.1_src/data/scripts/dock_solv.prm

>  <Rbt.Receptor>
prm/pocket_docking_3.prm

>  <SCORE>
-35.9309

>  <SCORE.INTER>
-27.1938

>  <SCORE.INTER.CONST>
1

>  <SCORE.INTER.POLAR>
-4.86374

>  <SCORE.INTER.ROT>
9

>  <SCORE.INTER.SOLV>
19.8138

>  <SCORE.INTER.VDW>
-18.1213

>  <SCORE.INTER.norm>
-0.647471

>  <SCORE.INTRA>
-9.51086

>  <SCORE.INTRA.DIHEDRAL>
-7.59821

>  <SCORE.INTRA.DIHEDRAL.0>
40.8761

>  <SCORE.INTRA.POLAR>
-1.86957

>  <SCORE.INTRA.POLAR.0>
-0.0268208

>  <SCORE.INTRA.REPUL>
-0.641615

>  <SCORE.INTRA.REPUL.0>
0.641615

>  <SCORE.INTRA.SOLV>
-1.9283

>  <SCORE.INTRA.SOLV.lig_0>
-162.567

>  <SCORE.INTRA.VDW>
4.817

>  <SCORE.INTRA.VDW.0>
-4.80338

>  <SCORE.INTRA.norm>
-0.226449

>  <SCORE.RESTR>
0.77372

>  <SCORE.RESTR.CAVITY>
0.77372

>  <SCORE.RESTR.norm>
0.0184219

>  <SCORE.SYSTEM>
0

>  <SCORE.SYSTEM.CONST>
0

>  <SCORE.SYSTEM.DIHEDRAL>
0

>  <SCORE.SYSTEM.SOLV>
0

>  <SCORE.SYSTEM.norm>
0

>  <SCORE.heavy>
42

>  <SCORE.norm>
-0.855498

>  <RMSD>
7.583

$$$$

 OpenBabel11021811393D
libRbt.so/2013.1/901 2013/11/27
 42 45  0  0  0  0  0  0  0  0999 V2000
   -2.2586    3.0689   -0.1667 C   0  0  2  0  0  0  0  0  0  0  0  0
   -2.8456    1.9845   -0.9497 O   0  0  0  0  0  0  0  0  0  0  0  0
   -0.9349    2.6216    0.5345 C   0  0  2  0  0  0  0  0  0  0  0  0
   -0.4158    1.3563   -0.0334 N   0  3  0  0  0  0  0  0  0  0  0  0
   -1.1462    2.4845    2.0726 C   0  0  1  0  0  0  0  0  0  0  0  0
    0.0698    2.0862    2.7020 O   0  0  0  0  0  0  0  0  0  0  0  0
   -1.6167    3.8189    2.7109 C   0  0  2  0  0  0  0  0  0  0  0  0
   -2.0653    3.5582    4.0363 O   0  0  0  0  0  0  0  0  0  0  0  0
   -2.7646    4.4735    1.8759 C   0  0  2  0  0  0  0  0  0  0  0  0
   -3.2198    3.5497    0.8344 O   0  0  0  0  0  0  0  0  0  0  0  0
   -2.3680    5.7833    1.1567 C   0  0  0  0  0  0  0  0  0  0  0  0
   -2.4558    3.6984   -4.8906 C   0  0  1  0  0  0  0  0  0  0  0  0
   -2.6497    4.0113   -6.3241 N   0  3  0  0  0  0  0  0  0  0  0  0
   -3.6503    4.1929   -4.0334 C   0  0  1  0  0  0  0  0  0  0  0  0
   -3.5718    3.7574   -2.5287 C   0  0  1  0  0  0  0  0  0  0  0  0
   -4.8709    3.9894   -1.9208 O   0  0  0  0  0  0  0  0  0  0  0  0
   -3.2237    2.2353   -2.3381 C   0  0  1  0  0  0  0  0  0  0  0  0
   -2.0331    1.7884   -3.2469 C   0  0  1  0  0  0  0  0  0  0  0  0
   -1.8018    0.3310   -3.1806 N   0  3  0  0  0  0  0  0  0  0  0  0
   -2.2613    2.1768   -4.7250 C   0  0  0  0  0  0  0  0  0  0  0  0
   -6.0767    3.5587   -2.6161 C   0  0  1  0  0  0  0  0  0  0  0  0
   -7.2400    3.5849   -1.6319 C   0  0  1  0  0  0  0  0  0  0  0  0
   -7.5726    5.0706   -1.6523 C   0  0  1  0  0  0  0  0  0  0  0  0
   -7.4328    5.3992   -3.1456 C   0  0  2  0  0  0  0  0  0  0  0  0
   -6.4132    4.5021   -3.6466 O   0  0  0  0  0  0  0  0  0  0  0  0
   -7.0265    6.8610   -3.4049 C   0  0  0  0  0  0  0  0  0  0  0  0
   -9.7607    7.0574    2.1552 C   0  0  1  0  0  0  0  0  0  0  0  0
  -10.7912    6.6845    1.0532 C   0  0  1  0  0  0  0  0  0  0  0  0
  -10.7021    5.2067    0.5742 C   0  0  2  0  0  0  0  0  0  0  0  0
   -9.2407    4.8324    0.1668 C   0  0  1  0  0  0  0  0  0  0  0  0
   -8.9222    5.3238   -1.1660 O   0  0  0  0  0  0  0  0  0  0  0  0
   -8.7741    5.8784    2.4136 C   0  0  1  0  0  0  0  0  0  0  0  0
   -8.2620    5.3781    1.1353 O   0  0  0  0  0  0  0  0  0  0  0  0
   -7.5821    6.2902    3.3156 C   0  0  0  0  0  0  0  0  0  0  0  0
   -0.9210    6.0617    1.1518 N   0  3  0  0  0  0  0  0  0  0  0  0
   -8.3195    2.7998   -2.1389 O   0  0  0  0  0  0  0  0  0  0  0  0
  -12.1022    6.9181    1.5660 O   0  0  0  0  0  0  0  0  0  0  0  0
   -9.0418    8.2166    1.7279 O   0  0  0  0  0  0  0  0  0  0  0  0
   -6.9476    7.1247   -4.7952 O   0  0  0  0  0  0  0  0  0  0  0  0
   -3.6985    5.6182   -4.0927 O   0  0  0  0  0  0  0  0  0  0  0  0
   -6.7170    5.1524    3.6776 N   0  3  0  0  0  0  0  0  0  0  0  0
  -11.6847    4.9257   -0.5019 N   0  3  0  0  0  0  0  0  0  0  0  0
  1  2  1  1  0  0  0
  1  3  1  0  0  0  0
  1 10  1  0  0  0  0
  3  4  1  6  0  0  0
  3  5  1  0  0  0  0
  5  6  1  1  0  0  0
  5  7  1  0  0  0  0
  7  8  1  1  0  0  0
  7  9  1  0  0  0  0
  9 10  1  0  0  0  0
  9 11  1  6  0  0  0
 11 35  1  0  0  0  0
 12 13  1  6  0  0  0
 12 14  1  0  0  0  0
 12 20  1  0  0  0  0
 14 15  1  0  0  0  0
 14 40  1  1  0  0  0
 15 16  1  6  0  0  0
 15 17  1  0  0  0  0
 17  2  1  1  0  0  0
 17 18  1  0  0  0  0
 18 19  1  6  0  0  0
 18 20  1  0  0  0  0
 21 16  1  1  0  0  0
 21 22  1  0  0  0  0
 21 25  1  0  0  0  0
 22 23  1  0  0  0  0
 22 36  1  6  0  0  0
 23 24  1  0  0  0  0
 23 31  1  6  0  0  0
 24 25  1  0  0  0  0
 24 26  1  1  0  0  0
 26 39  1  0  0  0  0
 27 28  1  0  0  0  0
 27 32  1  0  0  0  0
 27 38  1  6  0  0  0
 28 29  1  0  0  0  0
 28 37  1  1  0  0  0
 29 30  1  0  0  0  0
 29 42  1  6  0  0  0
 30 31  1  6  0  0  0
 30 33  1  0  0  0  0
 32 33  1  0  0  0  0
 32 34  1  1  0  0  0
 34 41  1  0  0  0  0
M  CHG  6   4   1  13   1  19   1  35   1  41   1  42   1
M  END
>  <CHROM.1>
-129.39499603,-27.54410200,-97.83118051,-174.13667494,69.25070295,11.49859256
170.89774747,-152.84634345,172.73485404,46.28240287,165.49769452,63.22900773
-173.26516848,56.44222472,-178.33721634,-71.87222560,-63.69109631,-61.14018332
-75.45234653,178.42377758,174.21542853,-174.29419129,-5.26321157,4.36838273
-0.66602937,-0.21771734,-0.36968047,1.47001913

>  <Name>


>  <RI>
0

>  <Rbt.Current_Directory>
/home/itssahil/PROJECTS/Mol_Feturizer/New_Systems/rnas/1ei2

>  <Rbt.Executable>
rbdock ($Id: //depot/dev/client3/rdock/2013.1/src/exe/rbdock.cxx#4 $)

>  <Rbt.Library>
libRbt.so (2013.1, Build901 2013/11/27)

>  <Rbt.Parameter_File>
/export/apps/rDock/src/rDock_2013.1_src/data/scripts/dock_solv.prm

>  <Rbt.Receptor>
prm/pocket_docking_3.prm

>  <SCORE>
-47.8262

>  <SCORE.INTER>
-33.809

>  <SCORE.INTER.CONST>
1

>  <SCORE.INTER.POLAR>
-6.83646

>  <SCORE.INTER.ROT>
9

>  <SCORE.INTER.SOLV>
33.6562

>  <SCORE.INTER.VDW>
-20.5699

>  <SCORE.INTER.norm>
-0.804977

>  <SCORE.INTRA>
-14.1615

>  <SCORE.INTRA.DIHEDRAL>
-15.698

>  <SCORE.INTRA.DIHEDRAL.0>
40.8761

>  <SCORE.INTRA.POLAR>
-0.153134

>  <SCORE.INTRA.POLAR.0>
-0.0268208

>  <SCORE.INTRA.REPUL>
-0.638918

>  <SCORE.INTRA.REPUL.0>
0.641615

>  <SCORE.INTRA.SOLV>
-8.27387

>  <SCORE.INTRA.SOLV.lig_0>
-162.567

>  <SCORE.INTRA.VDW>
1.53961

>  <SCORE.INTRA.VDW.0>
-4.80338

>  <SCORE.INTRA.norm>
-0.33718

>  <SCORE.RESTR>
0.144427

>  <SCORE.RESTR.CAVITY>
0.144427

>  <SCORE.RESTR.norm>
0.00343874

>  <SCORE.SYSTEM>
0

>  <SCORE.SYSTEM.CONST>
0

>  <SCORE.SYSTEM.DIHEDRAL>
0

>  <SCORE.SYSTEM.SOLV>
0

>  <SCORE.SYSTEM.norm>
0

>  <SCORE.heavy>
42

>  <SCORE.norm>
-1.13872

>  <RMSD>
7.589

$$$$

 OpenBabel11021811393D
libRbt.so/2013.1/901 2013/11/27
 42 45  0  0  0  0  0  0  0  0999 V2000
   -4.6701    1.3120   -6.6818 C   0  0  2  0  0  0  0  0  0  0  0  0
   -3.4879    1.3654   -5.8255 O   0  0  0  0  0  0  0  0  0  0  0  0
   -4.9712    2.7000   -7.3348 C   0  0  2  0  0  0  0  0  0  0  0  0
   -3.8165    3.6202   -7.2205 N   0  3  0  0  0  0  0  0  0  0  0  0
   -6.2448    3.3400   -6.7045 C   0  0  1  0  0  0  0  0  0  0  0  0
   -6.5150    4.6001   -7.3149 O   0  0  0  0  0  0  0  0  0  0  0  0
   -7.4919    2.4320   -6.8772 C   0  0  2  0  0  0  0  0  0  0  0  0
   -8.5345    2.9242   -6.0428 O   0  0  0  0  0  0  0  0  0  0  0  0
   -7.1678    0.9475   -6.5104 C   0  0  2  0  0  0  0  0  0  0  0  0
   -5.8344    0.8562   -5.9112 O   0  0  0  0  0  0  0  0  0  0  0  0
   -7.1762   -0.0265   -7.7110 C   0  0  0  0  0  0  0  0  0  0  0  0
   -3.1538   -2.9127   -5.3719 C   0  0  1  0  0  0  0  0  0  0  0  0
   -2.6768   -4.2647   -5.0043 N   0  3  0  0  0  0  0  0  0  0  0  0
   -3.6244   -2.1170   -4.1262 C   0  0  1  0  0  0  0  0  0  0  0  0
   -3.9998   -0.6255   -4.4335 C   0  0  1  0  0  0  0  0  0  0  0  0
   -4.1036    0.0856   -3.1708 O   0  0  0  0  0  0  0  0  0  0  0  0
   -2.9271    0.1188   -5.3106 C   0  0  1  0  0  0  0  0  0  0  0  0
   -2.4704   -0.7416   -6.5329 C   0  0  1  0  0  0  0  0  0  0  0  0
   -1.3585   -0.1093   -7.2716 N   0  3  0  0  0  0  0  0  0  0  0  0
   -2.0250   -2.1578   -6.1042 C   0  0  0  0  0  0  0  0  0  0  0  0
   -4.8708   -0.4981   -2.0783 C   0  0  1  0  0  0  0  0  0  0  0  0
   -4.6304    0.3284   -0.8206 C   0  0  1  0  0  0  0  0  0  0  0  0
   -5.5845    1.4870   -1.0771 C   0  0  1  0  0  0  0  0  0  0  0  0
   -6.8063    0.7602   -1.6570 C   0  0  2  0  0  0  0  0  0  0  0  0
   -6.2771   -0.3928   -2.3543 O   0  0  0  0  0  0  0  0  0  0  0  0
   -7.6243    1.6350   -2.6239 C   0  0  0  0  0  0  0  0  0  0  0  0
   -5.1118    5.8824    0.8671 C   0  0  1  0  0  0  0  0  0  0  0  0
   -5.9761    4.9606    1.7719 C   0  0  1  0  0  0  0  0  0  0  0  0
   -5.3038    3.6012    2.1201 C   0  0  2  0  0  0  0  0  0  0  0  0
   -4.8106    2.8686    0.8310 C   0  0  1  0  0  0  0  0  0  0  0  0
   -5.9093    2.1955    0.1536 O   0  0  0  0  0  0  0  0  0  0  0  0
   -3.8188    5.1470    0.4006 C   0  0  1  0  0  0  0  0  0  0  0  0
   -4.1666    3.8173   -0.1067 O   0  0  0  0  0  0  0  0  0  0  0  0
   -3.0560    5.9299   -0.6992 C   0  0  0  0  0  0  0  0  0  0  0  0
   -8.5146   -0.3034   -8.2617 N   0  3  0  0  0  0  0  0  0  0  0  0
   -5.0159   -0.4218    0.3314 O   0  0  0  0  0  0  0  0  0  0  0  0
   -6.2533    5.6553    2.9872 O   0  0  0  0  0  0  0  0  0  0  0  0
   -5.8950    6.2675   -0.2648 O   0  0  0  0  0  0  0  0  0  0  0  0
   -6.8015    2.1550   -3.6541 O   0  0  0  0  0  0  0  0  0  0  0  0
   -4.7663   -2.7685   -3.5702 O   0  0  0  0  0  0  0  0  0  0  0  0
   -3.8898    6.2187   -1.8804 N   0  3  0  0  0  0  0  0  0  0  0  0
   -6.1934    2.7544    2.9531 N   0  3  0  0  0  0  0  0  0  0  0  0
  1  2  1  1  0  0  0
  1  3  1  0  0  0  0
  1 10  1  0  0  0  0
  3  4  1  1  0  0  0
  3  5  1  0  0  0  0
  5  6  1  6  0  0  0
  5  7  1  0  0  0  0
  7  8  1  1  0  0  0
  7  9  1  0  0  0  0
  9 10  1  0  0  0  0
  9 11  1  6  0  0  0
 11 35  1  0  0  0  0
 12 13  1  1  0  0  0
 12 14  1  0  0  0  0
 12 20  1  0  0  0  0
 14 15  1  0  0  0  0
 14 40  1  6  0  0  0
 15 16  1  1  0  0  0
 15 17  1  0  0  0  0
 17  2  1  6  0  0  0
 17 18  1  0  0  0  0
 18 19  1  1  0  0  0
 18 20  1  0  0  0  0
 21 16  1  6  0  0  0
 21 22  1  0  0  0  0
 21 25  1  0  0  0  0
 22 23  1  0  0  0  0
 22 36  1  1  0  0  0
 23 24  1  0  0  0  0
 23 31  1  1  0  0  0
 24 25  1  0  0  0  0
 24 26  1  6  0  0  0
 26 39  1  0  0  0  0
 27 28  1  0  0  0  0
 27 32  1  0  0  0  0
 27 38  1  6  0  0  0
 28 29  1  0  0  0  0
 28 37  1  1  0  0  0
 29 30  1  0  0  0  0
 29 42  1  6  0  0  0
 30 31  1  6  0  0  0
 30 33  1  0  0  0  0
 32 33  1  0  0  0  0
 32 34  1  6  0  0  0
 34 41  1  0  0  0  0
M  CHG  6   4   1  13   1  19   1  35   1  41   1  42   1
M  END
>  <CHROM.1>
-169.92606240,-60.33556005,176.30137756,65.64725245,-62.19465561,-71.04781699
-46.14059142,-61.38108497,64.14327271,-47.73559274,170.93350451,53.44465431
23.60738255,63.95371840,54.39274419,56.00020581,72.35941763,161.42717064
-157.97882766,179.20683848,-56.46687204,144.39229415,-5.10760763,1.65052060
-3.29315635,1.34147059,1.19200964,-1.91634325

>  <Name>


>  <RI>
0

>  <Rbt.Current_Directory>
/home/itssahil/PROJECTS/Mol_Feturizer/New_Systems/rnas/1ei2

>  <Rbt.Executable>
rbdock ($Id: //depot/dev/client3/rdock/2013.1/src/exe/rbdock.cxx#4 $)

>  <Rbt.Library>
libRbt.so (2013.1, Build901 2013/11/27)

>  <Rbt.Parameter_File>
/export/apps/rDock/src/rDock_2013.1_src/data/scripts/dock_solv.prm

>  <Rbt.Receptor>
prm/pocket_docking_8.prm

>  <SCORE>
-64.1286

>  <SCORE.INTER>
-36.135

>  <SCORE.INTER.CONST>
1

>  <SCORE.INTER.POLAR>
-5.59238

>  <SCORE.INTER.ROT>
9

>  <SCORE.INTER.SOLV>
35.5637

>  <SCORE.INTER.VDW>
-26.9033

>  <SCORE.INTER.norm>
-0.860358

>  <SCORE.INTRA>
-27.9936

>  <SCORE.INTRA.DIHEDRAL>
-26.7166

>  <SCORE.INTRA.DIHEDRAL.0>
40.8761

>  <SCORE.INTRA.POLAR>
-2.51271

>  <SCORE.INTRA.POLAR.0>
-0.0268208

>  <SCORE.INTRA.REPUL>
-0.641615

>  <SCORE.INTRA.REPUL.0>
0.641615

>  <SCORE.INTRA.SOLV>
-7.35496

>  <SCORE.INTRA.SOLV.lig_0>
-162.567

>  <SCORE.INTRA.VDW>
0.793505

>  <SCORE.INTRA.VDW.0>
-4.80338

>  <SCORE.INTRA.norm>
-0.666513

>  <SCORE.RESTR>
0

>  <SCORE.RESTR.CAVITY>
0

>  <SCORE.RESTR.norm>
0

>  <SCORE.SYSTEM>
0

>  <SCORE.SYSTEM.CONST>
0

>  <SCORE.SYSTEM.DIHEDRAL>
0

>  <SCORE.SYSTEM.SOLV>
0

>  <SCORE.SYSTEM.norm>
0

>  <SCORE.heavy>
42

>  <SCORE.norm>
-1.52687

>  <RMSD>
7.605

$$$$

 OpenBabel11021811393D
libRbt.so/2013.1/901 2013/11/27
 42 45  0  0  0  0  0  0  0  0999 V2000
   -4.3768    1.4092   -4.8235 C   0  0  2  0  0  0  0  0  0  0  0  0
   -5.2989    2.4923   -5.1554 O   0  0  0  0  0  0  0  0  0  0  0  0
   -3.1025    1.4404   -5.7286 C   0  0  2  0  0  0  0  0  0  0  0  0
   -2.9690    2.7320   -6.4407 N   0  3  0  0  0  0  0  0  0  0  0  0
   -3.1182    0.2564   -6.7419 C   0  0  1  0  0  0  0  0  0  0  0  0
   -1.9468    0.2895   -7.5544 O   0  0  0  0  0  0  0  0  0  0  0  0
   -3.1793   -1.1175   -6.0222 C   0  0  2  0  0  0  0  0  0  0  0  0
   -3.4818   -2.1234   -6.9825 O   0  0  0  0  0  0  0  0  0  0  0  0
   -4.2564   -1.1171   -4.8893 C   0  0  2  0  0  0  0  0  0  0  0  0
   -5.0520    0.1111   -4.9512 O   0  0  0  0  0  0  0  0  0  0  0  0
   -3.6805   -1.1942   -3.4566 C   0  0  0  0  0  0  0  0  0  0  0  0
   -8.9382    4.4316   -3.8848 C   0  0  1  0  0  0  0  0  0  0  0  0
  -10.1645    4.7922   -3.1386 N   0  3  0  0  0  0  0  0  0  0  0  0
   -7.6596    4.7498   -3.0662 C   0  0  1  0  0  0  0  0  0  0  0  0
   -6.3353    4.2514   -3.7429 C   0  0  1  0  0  0  0  0  0  0  0  0
   -5.2713    4.3099   -2.7553 O   0  0  0  0  0  0  0  0  0  0  0  0
   -6.4205    2.7689   -4.2615 C   0  0  1  0  0  0  0  0  0  0  0  0
   -7.7412    2.5000   -5.0530 C   0  0  1  0  0  0  0  0  0  0  0  0
   -7.8924    1.0751   -5.4116 N   0  3  0  0  0  0  0  0  0  0  0  0
   -8.9895    2.9340   -4.2521 C   0  0  0  0  0  0  0  0  0  0  0  0
   -4.0492    5.0429   -3.0585 C   0  0  1  0  0  0  0  0  0  0  0  0
   -3.3727    5.4225   -1.7466 C   0  0  1  0  0  0  0  0  0  0  0  0
   -2.6840    4.1065   -1.4118 C   0  0  1  0  0  0  0  0  0  0  0  0
   -2.1668    3.6678   -2.7892 C   0  0  2  0  0  0  0  0  0  0  0  0
   -3.1209    4.1879   -3.7457 O   0  0  0  0  0  0  0  0  0  0  0  0
   -2.0537    2.1393   -2.9310 C   0  0  0  0  0  0  0  0  0  0  0  0
   -3.7439    2.4023    2.0960 C   0  0  1  0  0  0  0  0  0  0  0  0
   -2.2239    2.1795    1.8607 C   0  0  1  0  0  0  0  0  0  0  0  0
   -1.3792    3.4861    1.8852 C   0  0  2  0  0  0  0  0  0  0  0  0
   -1.9746    4.5614    0.9203 C   0  0  1  0  0  0  0  0  0  0  0  0
   -1.5973    4.2978   -0.4608 O   0  0  0  0  0  0  0  0  0  0  0  0
   -4.0788    3.9236    2.1555 C   0  0  1  0  0  0  0  0  0  0  0  0
   -3.4515    4.6087    1.0225 O   0  0  0  0  0  0  0  0  0  0  0  0
   -5.6051    4.1956    2.1355 C   0  0  0  0  0  0  0  0  0  0  0  0
   -4.6804   -1.4792   -2.4125 N   0  3  0  0  0  0  0  0  0  0  0  0
   -2.4252    6.4656   -1.9758 O   0  0  0  0  0  0  0  0  0  0  0  0
   -1.7356    1.3032    2.8756 O   0  0  0  0  0  0  0  0  0  0  0  0
   -4.4623    1.7813    1.0277 O   0  0  0  0  0  0  0  0  0  0  0  0
   -0.9227    1.6491   -2.2316 O   0  0  0  0  0  0  0  0  0  0  0  0
   -7.5727    6.1625   -2.8818 O   0  0  0  0  0  0  0  0  0  0  0  0
   -6.2450    3.9705    3.4446 N   0  3  0  0  0  0  0  0  0  0  0  0
    0.0541    3.2098    1.6177 N   0  3  0  0  0  0  0  0  0  0  0  0
  1  2  1  6  0  0  0
  1  3  1  0  0  0  0
  1 10  1  0  0  0  0
  3  4  1  6  0  0  0
  3  5  1  0  0  0  0
  5  6  1  1  0  0  0
  5  7  1  0  0  0  0
  7  8  1  6  0  0  0
  7  9  1  0  0  0  0
  9 10  1  0  0  0  0
  9 11  1  1  0  0  0
 11 35  1  0  0  0  0
 12 13  1  1  0  0  0
 12 14  1  0  0  0  0
 12 20  1  0  0  0  0
 14 15  1  0  0  0  0
 14 40  1  6  0  0  0
 15 16  1  1  0  0  0
 15 17  1  0  0  0  0
 17  2  1  6  0  0  0
 17 18  1  0  0  0  0
 18 19  1  1  0  0  0
 18 20  1  0  0  0  0
 21 16  1  1  0  0  0
 21 22  1  0  0  0  0
 21 25  1  0  0  0  0
 22 23  1  0  0  0  0
 22 36  1  6  0  0  0
 23 24  1  0  0  0  0
 23 31  1  1  0  0  0
 24 25  1  0  0  0  0
 24 26  1  1  0  0  0
 26 39  1  0  0  0  0
 27 28  1  0  0  0  0
 27 32  1  0  0  0  0
 27 38  1  6  0  0  0
 28 29  1  0  0  0  0
 28 37  1  1  0  0  0
 29 30  1  0  0  0  0
 29 42  1  6  0  0  0
 30 31  1  6  0  0  0
 30 33  1  0  0  0  0
 32 33  1  0  0  0  0
 32 34  1  6  0  0  0
 34 41  1  0  0  0  0
M  CHG  6   4   1  13   1  19   1  35   1  41   1  42   1
M  END
>  <CHROM.1>
-168.95179015,121.13928501,179.20651136,-63.80482768,59.72771629,-167.72386843
64.71982725,-59.45830935,178.19018058,-125.85736049,157.72655567,101.69185407
-176.08797141,73.89504078,-75.54465267,-72.03947115,-62.97119695,-64.78646515
21.27915226,121.42022667,78.44214975,67.27699188,-4.25753564,2.65967572,-2.44151177
-1.84993894,-0.47885306,1.06733726

>  <Name>


>  <RI>
0

>  <Rbt.Current_Directory>
/home/itssahil/PROJECTS/Mol_Feturizer/New_Systems/rnas/1ei2

>  <Rbt.Executable>
rbdock ($Id: //depot/dev/client3/rdock/2013.1/src/exe/rbdock.cxx#4 $)

>  <Rbt.Library>
libRbt.so (2013.1, Build901 2013/11/27)

>  <Rbt.Parameter_File>
/export/apps/rDock/src/rDock_2013.1_src/data/scripts/dock_solv.prm

>  <Rbt.Receptor>
prm/pocket_docking_4.prm

>  <SCORE>
-59.5344

>  <SCORE.INTER>
-39.6575

>  <SCORE.INTER.CONST>
1

>  <SCORE.INTER.POLAR>
-6.82239

>  <SCORE.INTER.ROT>
9

>  <SCORE.INTER.SOLV>
31.2673

>  <SCORE.INTER.VDW>
-23.7195

>  <SCORE.INTER.norm>
-0.944227

>  <SCORE.INTRA>
-19.9153

>  <SCORE.INTRA.DIHEDRAL>
-5.96834

>  <SCORE.INTRA.DIHEDRAL.0>
40.8761

>  <SCORE.INTRA.POLAR>
-2.2774

>  <SCORE.INTRA.POLAR.0>
-0.0268208

>  <SCORE.INTRA.REPUL>
-0.544241

>  <SCORE.INTRA.REPUL.0>
0.641615

>  <SCORE.INTRA.SOLV>
-10.7791

>  <SCORE.INTRA.SOLV.lig_0>
-162.567

>  <SCORE.INTRA.VDW>
-1.07717

>  <SCORE.INTRA.VDW.0>
-4.80338

>  <SCORE.INTRA.norm>
-0.474173

>  <SCORE.RESTR>
0.0384239

>  <SCORE.RESTR.CAVITY>
0.0384239

>  <SCORE.RESTR.norm>
0.000914854

>  <SCORE.SYSTEM>
0

>  <SCORE.SYSTEM.CONST>
0

>  <SCORE.SYSTEM.DIHEDRAL>
0

>  <SCORE.SYSTEM.SOLV>
0

>  <SCORE.SYSTEM.norm>
0

>  <SCORE.heavy>
42

>  <SCORE.norm>
-1.41748

>  <RMSD>
7.613

$$$$

 OpenBabel11021811393D
libRbt.so/2013.1/901 2013/11/27
 42 45  0  0  0  0  0  0  0  0999 V2000
   -5.6610    0.9134   -5.6713 C   0  0  2  0  0  0  0  0  0  0  0  0
   -4.2705    0.5685   -5.3861 O   0  0  0  0  0  0  0  0  0  0  0  0
   -6.0945    0.4285   -7.0929 C   0  0  2  0  0  0  0  0  0  0  0  0
   -5.1350   -0.5509   -7.6527 N   0  3  0  0  0  0  0  0  0  0  0  0
   -6.2659    1.6394   -8.0588 C   0  0  1  0  0  0  0  0  0  0  0  0
   -6.6711    1.1857   -9.3485 O   0  0  0  0  0  0  0  0  0  0  0  0
   -7.3244    2.6477   -7.5369 C   0  0  2  0  0  0  0  0  0  0  0  0
   -7.2248    3.8482   -8.2949 O   0  0  0  0  0  0  0  0  0  0  0  0
   -7.1156    2.9541   -6.0183 C   0  0  2  0  0  0  0  0  0  0  0  0
   -5.8581    2.3641   -5.5537 O   0  0  0  0  0  0  0  0  0  0  0  0
   -8.2258    2.4032   -5.0942 C   0  0  0  0  0  0  0  0  0  0  0  0
   -1.2244    1.3064   -2.4202 C   0  0  1  0  0  0  0  0  0  0  0  0
   -0.3306    1.9661   -1.4422 N   0  3  0  0  0  0  0  0  0  0  0  0
   -2.6904    1.2664   -1.9148 C   0  0  1  0  0  0  0  0  0  0  0  0
   -3.7088    0.7144   -2.9722 C   0  0  1  0  0  0  0  0  0  0  0  0
   -5.0519    1.0272   -2.5149 O   0  0  0  0  0  0  0  0  0  0  0  0
   -3.5326    1.3525   -4.3990 C   0  0  1  0  0  0  0  0  0  0  0  0
   -2.0342    1.3920   -4.8421 C   0  0  1  0  0  0  0  0  0  0  0  0
   -1.8507    2.1233   -6.1123 N   0  3  0  0  0  0  0  0  0  0  0  0
   -1.1352    2.0482   -3.7702 C   0  0  0  0  0  0  0  0  0  0  0  0
   -5.7056    0.1506   -1.5521 C   0  0  1  0  0  0  0  0  0  0  0  0
   -5.2207    0.5176   -0.1545 C   0  0  1  0  0  0  0  0  0  0  0  0
   -6.0981    1.7310    0.1215 C   0  0  1  0  0  0  0  0  0  0  0  0
   -7.4471    1.2755   -0.4528 C   0  0  2  0  0  0  0  0  0  0  0  0
   -7.1224    0.3908   -1.5516 O   0  0  0  0  0  0  0  0  0  0  0  0
   -8.3145    2.4449   -0.9524 C   0  0  0  0  0  0  0  0  0  0  0  0
   -5.5251    4.9727    3.9055 C   0  0  1  0  0  0  0  0  0  0  0  0
   -5.9373    3.5428    4.3539 C   0  0  1  0  0  0  0  0  0  0  0  0
   -5.0667    2.4088    3.7396 C   0  0  2  0  0  0  0  0  0  0  0  0
   -4.9850    2.5392    2.1846 C   0  0  1  0  0  0  0  0  0  0  0  0
   -6.1847    2.0158    1.5475 O   0  0  0  0  0  0  0  0  0  0  0  0
   -4.4120    4.9127    2.8156 C   0  0  1  0  0  0  0  0  0  0  0  0
   -4.7924    3.9504    1.7783 O   0  0  0  0  0  0  0  0  0  0  0  0
   -4.1495    6.2932    2.1603 C   0  0  0  0  0  0  0  0  0  0  0  0
   -8.6199    1.0119   -5.3776 N   0  3  0  0  0  0  0  0  0  0  0  0
   -5.5038   -0.5497    0.7506 O   0  0  0  0  0  0  0  0  0  0  0  0
   -5.8394    3.4719    5.7758 O   0  0  0  0  0  0  0  0  0  0  0  0
   -6.6821    5.6362    3.3918 O   0  0  0  0  0  0  0  0  0  0  0  0
   -7.5180    3.4281   -1.5908 O   0  0  0  0  0  0  0  0  0  0  0  0
   -2.7519    0.4428   -0.7506 O   0  0  0  0  0  0  0  0  0  0  0  0
   -3.1210    6.2408    1.1051 N   0  3  0  0  0  0  0  0  0  0  0  0
   -5.5341    1.0698    4.1766 N   0  3  0  0  0  0  0  0  0  0  0  0
  1  2  1  6  0  0  0
  1  3  1  0  0  0  0
  1 10  1  0  0  0  0
  3  4  1  6  0  0  0
  3  5  1  0  0  0  0
  5  6  1  6  0  0  0
  5  7  1  0  0  0  0
  7  8  1  6  0  0  0
  7  9  1  0  0  0  0
  9 10  1  0  0  0  0
  9 11  1  1  0  0  0
 11 35  1  0  0  0  0
 12 13  1  1  0  0  0
 12 14  1  0  0  0  0
 12 20  1  0  0  0  0
 14 15  1  0  0  0  0
 14 40  1  1  0  0  0
 15 16  1  1  0  0  0
 15 17  1  0  0  0  0
 17  2  1  6  0  0  0
 17 18  1  0  0  0  0
 18 19  1  6  0  0  0
 18 20  1  0  0  0  0
 21 16  1  6  0  0  0
 21 22  1  0  0  0  0
 21 25  1  0  0  0  0
 22 23  1  0  0  0  0
 22 36  1  1  0  0  0
 23 24  1  0  0  0  0
 23 31  1  1  0  0  0
 24 25  1  0  0  0  0
 24 26  1  6  0  0  0
 26 39  1  0  0  0  0
 27 28  1  0  0  0  0
 27 32  1  0  0  0  0
 27 38  1  6  0  0  0
 28 29  1  0  0  0  0
 28 37  1  1  0  0  0
 29 30  1  0  0  0  0
 29 42  1  6  0  0  0
 30 31  1  6  0  0  0
 30 33  1  0  0  0  0
 32 33  1  0  0  0  0
 32 34  1  6  0  0  0
 34 41  1  0  0  0  0
M  CHG  6   4   1  13   1  19   1  35   1  41   1  42   1
M  END
>  <CHROM.1>
155.97001759,90.11849778,84.34102082,66.41601066,62.00750480,45.63614220
70.92440670,63.37664000,-46.80595914,-83.29518751,82.28681451,-55.33427553
35.99086642,70.72406291,38.74521897,171.45342754,170.08256037,-62.02721460
165.67790801,-163.45119432,-178.61495073,36.30903813,-5.19369384,2.13382900
-1.92915244,1.61850878,0.13575493,-1.77838764

>  <Name>


>  <RI>
0

>  <Rbt.Current_Directory>
/home/itssahil/PROJECTS/Mol_Feturizer/New_Systems/rnas/1ei2

>  <Rbt.Executable>
rbdock ($Id: //depot/dev/client3/rdock/2013.1/src/exe/rbdock.cxx#4 $)

>  <Rbt.Library>
libRbt.so (2013.1, Build901 2013/11/27)

>  <Rbt.Parameter_File>
/export/apps/rDock/src/rDock_2013.1_src/data/scripts/dock_solv.prm

>  <Rbt.Receptor>
prm/pocket_docking_4.prm

>  <SCORE>
-56.3836

>  <SCORE.INTER>
-42.7829

>  <SCORE.INTER.CONST>
1

>  <SCORE.INTER.POLAR>
-7.5305

>  <SCORE.INTER.ROT>
9

>  <SCORE.INTER.SOLV>
36.2143

>  <SCORE.INTER.VDW>
-25.0917

>  <SCORE.INTER.norm>
-1.01864

>  <SCORE.INTRA>
-14.3204

>  <SCORE.INTRA.DIHEDRAL>
-17.8416

>  <SCORE.INTRA.DIHEDRAL.0>
40.8761

>  <SCORE.INTRA.POLAR>
-0.198775

>  <SCORE.INTRA.POLAR.0>
-0.0268208

>  <SCORE.INTRA.REPUL>
-0.581497

>  <SCORE.INTRA.REPUL.0>
0.641615

>  <SCORE.INTRA.SOLV>
-7.74015

>  <SCORE.INTRA.SOLV.lig_0>
-162.567

>  <SCORE.INTRA.VDW>
2.05383

>  <SCORE.INTRA.VDW.0>
-4.80338

>  <SCORE.INTRA.norm>
-0.340961

>  <SCORE.RESTR>
0.719666

>  <SCORE.RESTR.CAVITY>
0.719666

>  <SCORE.RESTR.norm>
0.0171349

>  <SCORE.SYSTEM>
0

>  <SCORE.SYSTEM.CONST>
0

>  <SCORE.SYSTEM.DIHEDRAL>
0

>  <SCORE.SYSTEM.SOLV>
0

>  <SCORE.SYSTEM.norm>
0

>  <SCORE.heavy>
42

>  <SCORE.norm>
-1.34247

>  <RMSD>
7.642

$$$$

 OpenBabel11021811393D
libRbt.so/2013.1/901 2013/11/27
 42 45  0  0  0  0  0  0  0  0999 V2000
   -4.2403    0.3309   -2.7973 C   0  0  2  0  0  0  0  0  0  0  0  0
   -3.2365    0.3252   -3.8585 O   0  0  0  0  0  0  0  0  0  0  0  0
   -3.9214   -0.7332   -1.6974 C   0  0  2  0  0  0  0  0  0  0  0  0
   -2.5302   -1.2296   -1.8038 N   0  3  0  0  0  0  0  0  0  0  0  0
   -4.9316   -1.9178   -1.7686 C   0  0  1  0  0  0  0  0  0  0  0  0
   -4.6370   -2.8764   -0.7548 O   0  0  0  0  0  0  0  0  0  0  0  0
   -6.3961   -1.4385   -1.5822 C   0  0  2  0  0  0  0  0  0  0  0  0
   -7.2736   -2.4994   -1.9431 O   0  0  0  0  0  0  0  0  0  0  0  0
   -6.6951   -0.1760   -2.4541 C   0  0  2  0  0  0  0  0  0  0  0  0
   -5.5748    0.0873   -3.3602 O   0  0  0  0  0  0  0  0  0  0  0  0
   -6.9196    1.1230   -1.6462 C   0  0  0  0  0  0  0  0  0  0  0  0
   -2.8567    4.5990   -4.3168 C   0  0  1  0  0  0  0  0  0  0  0  0
   -2.3131    5.9547   -4.5558 N   0  3  0  0  0  0  0  0  0  0  0  0
   -2.8899    3.7610   -5.6217 C   0  0  1  0  0  0  0  0  0  0  0  0
   -3.3153    2.2673   -5.4031 C   0  0  1  0  0  0  0  0  0  0  0  0
   -2.9972    1.5236   -6.6101 O   0  0  0  0  0  0  0  0  0  0  0  0
   -2.5646    1.5745   -4.2071 C   0  0  1  0  0  0  0  0  0  0  0  0
   -2.5382    2.4763   -2.9308 C   0  0  1  0  0  0  0  0  0  0  0  0
   -1.7082    1.8932   -1.8569 N   0  3  0  0  0  0  0  0  0  0  0  0
   -2.0063    3.8938   -3.2398 C   0  0  0  0  0  0  0  0  0  0  0  0
   -4.0660    0.8698   -7.3538 C   0  0  1  0  0  0  0  0  0  0  0  0
   -3.4447   -0.1498   -8.3011 C   0  0  1  0  0  0  0  0  0  0  0  0
   -3.2042   -1.3004   -7.3332 C   0  0  1  0  0  0  0  0  0  0  0  0
   -4.4883   -1.2718   -6.4921 C   0  0  2  0  0  0  0  0  0  0  0  0
   -4.8986    0.1161   -6.4573 O   0  0  0  0  0  0  0  0  0  0  0  0
   -4.2825   -1.7996   -5.0609 C   0  0  0  0  0  0  0  0  0  0  0  0
   -2.4942   -6.2772   -7.2199 C   0  0  1  0  0  0  0  0  0  0  0  0
   -2.4971   -5.6639   -8.6480 C   0  0  1  0  0  0  0  0  0  0  0  0
   -1.5725   -4.4227   -8.8081 C   0  0  2  0  0  0  0  0  0  0  0  0
   -1.8659   -3.3543   -7.7061 C   0  0  1  0  0  0  0  0  0  0  0  0
   -3.0449   -2.5665   -8.0357 O   0  0  0  0  0  0  0  0  0  0  0  0
   -1.6623   -5.3958   -6.2396 C   0  0  1  0  0  0  0  0  0  0  0  0
   -2.0594   -3.9929   -6.3838 O   0  0  0  0  0  0  0  0  0  0  0  0
   -1.8379   -5.8269   -4.7607 C   0  0  0  0  0  0  0  0  0  0  0  0
   -7.6778    2.1632   -2.3633 N   0  3  0  0  0  0  0  0  0  0  0  0
   -4.3868   -0.5055   -9.3132 O   0  0  0  0  0  0  0  0  0  0  0  0
   -2.0740   -6.6681   -9.5694 O   0  0  0  0  0  0  0  0  0  0  0  0
   -3.8465   -6.3751   -6.7675 O   0  0  0  0  0  0  0  0  0  0  0  0
   -2.9030   -1.9384   -4.7669 O   0  0  0  0  0  0  0  0  0  0  0  0
   -3.8070    4.3666   -6.5326 O   0  0  0  0  0  0  0  0  0  0  0  0
   -2.2615   -4.7178   -3.8863 N   0  3  0  0  0  0  0  0  0  0  0  0
   -1.6490   -3.8634  -10.1805 N   0  3  0  0  0  0  0  0  0  0  0  0
  1  2  1  6  0  0  0
  1  3  1  0  0  0  0
  1 10  1  0  0  0  0
  3  4  1  6  0  0  0
  3  5  1  0  0  0  0
  5  6  1  1  0  0  0
  5  7  1  0  0  0  0
  7  8  1  6  0  0  0
  7  9  1  0  0  0  0
  9 10  1  0  0  0  0
  9 11  1  1  0  0  0
 11 35  1  0  0  0  0
 12 13  1  6  0  0  0
 12 14  1  0  0  0  0
 12 20  1  0  0  0  0
 14 15  1  0  0  0  0
 14 40  1  6  0  0  0
 15 16  1  6  0  0  0
 15 17  1  0  0  0  0
 17  2  1  1  0  0  0
 17 18  1  0  0  0  0
 18 19  1  1  0  0  0
 18 20  1  0  0  0  0
 21 16  1  1  0  0  0
 21 22  1  0  0  0  0
 21 25  1  0  0  0  0
 22 23  1  0  0  0  0
 22 36  1  6  0  0  0
 23 24  1  0  0  0  0
 23 31  1  6  0  0  0
 24 25  1  0  0  0  0
 24 26  1  1  0  0  0
 26 39  1  0  0  0  0
 27 28  1  0  0  0  0
 27 32  1  0  0  0  0
 27 38  1  1  0  0  0
 28 29  1  0  0  0  0
 28 37  1  6  0  0  0
 29 30  1  0  0  0  0
 29 42  1  6  0  0  0
 30 31  1  6  0  0  0
 30 33  1  0  0  0  0
 32 33  1  0  0  0  0
 32 34  1  1  0  0  0
 34 41  1  0  0  0  0
M  CHG  6   4   1  13   1  19   1  35   1  41   1  42   1
M  END
>  <CHROM.1>
-125.96947645,-94.04893922,-119.69311308,-56.64410712,-111.64053439,-158.06716712
65.09251609,-25.86591781,-58.88277901,-119.04057236,-163.55881263,53.97758797
-41.47297347,128.35855106,11.76464518,-175.62414990,-107.92533927,-172.71078565
-60.80606763,-162.04793199,-125.65986427,88.01191314,-3.56951337,-0.95714002
-5.10476674,2.08717521,1.18208941,0.04377985

>  <Name>


>  <RI>
0

>  <Rbt.Current_Directory>
/home/itssahil/PROJECTS/Mol_Feturizer/New_Systems/rnas/1ei2

>  <Rbt.Executable>
rbdock ($Id: //depot/dev/client3/rdock/2013.1/src/exe/rbdock.cxx#4 $)

>  <Rbt.Library>
libRbt.so (2013.1, Build901 2013/11/27)

>  <Rbt.Parameter_File>
/export/apps/rDock/src/rDock_2013.1_src/data/scripts/dock_solv.prm

>  <Rbt.Receptor>
prm/blind_docking_80.prm

>  <SCORE>
33.1647

>  <SCORE.INTER>
7.01399

>  <SCORE.INTER.CONST>
1

>  <SCORE.INTER.POLAR>
-3.5062

>  <SCORE.INTER.ROT>
9

>  <SCORE.INTER.SOLV>
43.4067

>  <SCORE.INTER.VDW>
-7.70558

>  <SCORE.INTER.norm>
0.167

>  <SCORE.INTRA>
15.4586

>  <SCORE.INTRA.DIHEDRAL>
22.1873

>  <SCORE.INTRA.DIHEDRAL.0>
40.8761

>  <SCORE.INTRA.POLAR>
-0.543326

>  <SCORE.INTRA.POLAR.0>
-0.0268208

>  <SCORE.INTRA.REPUL>
-0.168905

>  <SCORE.INTRA.REPUL.0>
0.641615

>  <SCORE.INTRA.SOLV>
2.29143

>  <SCORE.INTRA.SOLV.lig_0>
-162.567

>  <SCORE.INTRA.VDW>
5.91101

>  <SCORE.INTRA.VDW.0>
-4.80338

>  <SCORE.INTRA.norm>
0.368061

>  <SCORE.RESTR>
10.6922

>  <SCORE.RESTR.CAVITY>
10.6922

>  <SCORE.RESTR.norm>
0.254576

>  <SCORE.SYSTEM>
0

>  <SCORE.SYSTEM.CONST>
0

>  <SCORE.SYSTEM.DIHEDRAL>
0

>  <SCORE.SYSTEM.SOLV>
0

>  <SCORE.SYSTEM.norm>
0

>  <SCORE.heavy>
42

>  <SCORE.norm>
0.789637

>  <RMSD>
7.646

$$$$

 OpenBabel11021811393D
libRbt.so/2013.1/901 2013/11/27
 42 45  0  0  0  0  0  0  0  0999 V2000
   -6.7858    3.5321   -3.6472 C   0  0  2  0  0  0  0  0  0  0  0  0
   -7.2189    4.9169   -3.8158 O   0  0  0  0  0  0  0  0  0  0  0  0
   -5.2563    3.3692   -3.9267 C   0  0  2  0  0  0  0  0  0  0  0  0
   -4.5611    4.6767   -3.9430 N   0  3  0  0  0  0  0  0  0  0  0  0
   -5.0198    2.6074   -5.2656 C   0  0  1  0  0  0  0  0  0  0  0  0
   -3.6221    2.4560   -5.5045 O   0  0  0  0  0  0  0  0  0  0  0  0
   -5.6718    1.1989   -5.2503 C   0  0  2  0  0  0  0  0  0  0  0  0
   -5.6736    0.6817   -6.5763 O   0  0  0  0  0  0  0  0  0  0  0  0
   -7.1321    1.2558   -4.6956 C   0  0  2  0  0  0  0  0  0  0  0  0
   -7.5552    2.6485   -4.5329 O   0  0  0  0  0  0  0  0  0  0  0  0
   -7.3227    0.5765   -3.3199 C   0  0  0  0  0  0  0  0  0  0  0  0
  -10.3116    7.7188   -2.7184 C   0  0  1  0  0  0  0  0  0  0  0  0
  -11.5253    8.3303   -2.1322 N   0  3  0  0  0  0  0  0  0  0  0  0
   -9.2602    7.3831   -1.6284 C   0  0  1  0  0  0  0  0  0  0  0  0
   -8.0163    6.5967   -2.1708 C   0  0  1  0  0  0  0  0  0  0  0  0
   -7.2839    6.0660   -1.0338 O   0  0  0  0  0  0  0  0  0  0  0  0
   -8.4008    5.3839   -3.0956 C   0  0  1  0  0  0  0  0  0  0  0  0
   -9.4831    5.7740   -4.1536 C   0  0  1  0  0  0  0  0  0  0  0  0
   -9.9532    4.6041   -4.9232 N   0  3  0  0  0  0  0  0  0  0  0  0
  -10.7095    6.4489   -3.4990 C   0  0  0  0  0  0  0  0  0  0  0  0
   -8.0156    5.5777    0.1277 C   0  0  1  0  0  0  0  0  0  0  0  0
   -7.1499    4.5529    0.8510 C   0  0  1  0  0  0  0  0  0  0  0  0
   -6.2295    5.4836    1.6289 C   0  0  1  0  0  0  0  0  0  0  0  0
   -7.2091    6.5699    2.0954 C   0  0  2  0  0  0  0  0  0  0  0  0
   -8.2220    6.6479    1.0641 O   0  0  0  0  0  0  0  0  0  0  0  0
   -6.5397    7.9428    2.2857 C   0  0  0  0  0  0  0  0  0  0  0  0
   -2.2159    3.1976    3.5880 C   0  0  1  0  0  0  0  0  0  0  0  0
   -3.4673    3.1815    4.5096 C   0  0  1  0  0  0  0  0  0  0  0  0
   -4.7689    2.7013    3.8050 C   0  0  2  0  0  0  0  0  0  0  0  0
   -5.0202    3.4941    2.4821 C   0  0  1  0  0  0  0  0  0  0  0  0
   -5.6028    4.8005    2.7525 O   0  0  0  0  0  0  0  0  0  0  0  0
   -2.6064    2.8613    2.1167 C   0  0  1  0  0  0  0  0  0  0  0  0
   -3.7626    3.6687    1.7193 O   0  0  0  0  0  0  0  0  0  0  0  0
   -1.4429    3.1113    1.1230 C   0  0  0  0  0  0  0  0  0  0  0  0
   -8.6990    0.1257   -3.0483 N   0  3  0  0  0  0  0  0  0  0  0  0
   -7.9602    3.7672    1.7254 O   0  0  0  0  0  0  0  0  0  0  0  0
   -3.2018    2.3165    5.6131 O   0  0  0  0  0  0  0  0  0  0  0  0
   -1.6218    4.4958    3.6555 O   0  0  0  0  0  0  0  0  0  0  0  0
   -6.9751    8.8589    1.2959 O   0  0  0  0  0  0  0  0  0  0  0  0
   -8.8067    8.6009   -1.0379 O   0  0  0  0  0  0  0  0  0  0  0  0
   -0.9830    4.5122    1.1191 N   0  3  0  0  0  0  0  0  0  0  0  0
   -5.9314    2.7447    4.7264 N   0  3  0  0  0  0  0  0  0  0  0  0
  1  2  1  6  0  0  0
  1  3  1  0  0  0  0
  1 10  1  0  0  0  0
  3  4  1  6  0  0  0
  3  5  1  0  0  0  0
  5  6  1  1  0  0  0
  5  7  1  0  0  0  0
  7  8  1  6  0  0  0
  7  9  1  0  0  0  0
  9 10  1  0  0  0  0
  9 11  1  1  0  0  0
 11 35  1  0  0  0  0
 12 13  1  1  0  0  0
 12 14  1  0  0  0  0
 12 20  1  0  0  0  0
 14 15  1  0  0  0  0
 14 40  1  6  0  0  0
 15 16  1  1  0  0  0
 15 17  1  0  0  0  0
 17  2  1  6  0  0  0
 17 18  1  0  0  0  0
 18 19  1  1  0  0  0
 18 20  1  0  0  0  0
 21 16  1  6  0  0  0
 21 22  1  0  0  0  0
 21 25  1  0  0  0  0
 22 23  1  0  0  0  0
 22 36  1  1  0  0  0
 23 24  1  0  0  0  0
 23 31  1  1  0  0  0
 24 25  1  0  0  0  0
 24 26  1  6  0  0  0
 26 39  1  0  0  0  0
 27 28  1  0  0  0  0
 27 32  1  0  0  0  0
 27 38  1  6  0  0  0
 28 29  1  0  0  0  0
 28 37  1  1  0  0  0
 29 30  1  0  0  0  0
 29 42  1  1  0  0  0
 30 31  1  1  0  0  0
 30 33  1  0  0  0  0
 32 33  1  0  0  0  0
 32 34  1  6  0  0  0
 34 41  1  0  0  0  0
M  CHG  6   4   1  13   1  19   1  35   1  41   1  42   1
M  END
>  <CHROM.1>
-154.62047479,121.20610995,170.45946391,-58.10336890,173.72719353,-155.74190178
-58.26736687,55.99480095,167.38838839,37.00824217,154.82616737,86.39324114
169.42696354,46.97466047,110.53761783,-178.69774969,64.46144623,-172.61556089
156.70842968,-163.25668074,-59.72182440,42.43262879,-6.35122808,4.42043009
-0.74032154,-2.29532742,-0.71057515,1.09473159

>  <Name>


>  <RI>
0

>  <Rbt.Current_Directory>
/home/itssahil/PROJECTS/Mol_Feturizer/New_Systems/rnas/1ei2

>  <Rbt.Executable>
rbdock ($Id: //depot/dev/client3/rdock/2013.1/src/exe/rbdock.cxx#4 $)

>  <Rbt.Library>
libRbt.so (2013.1, Build901 2013/11/27)

>  <Rbt.Parameter_File>
/export/apps/rDock/src/rDock_2013.1_src/data/scripts/dock_solv.prm

>  <Rbt.Receptor>
prm/pocket_docking_5.prm

>  <SCORE>
-50.0083

>  <SCORE.INTER>
-25.953

>  <SCORE.INTER.CONST>
1

>  <SCORE.INTER.POLAR>
-5.73454

>  <SCORE.INTER.ROT>
9

>  <SCORE.INTER.SOLV>
25.8181

>  <SCORE.INTER.VDW>
-16.3929

>  <SCORE.INTER.norm>
-0.617928

>  <SCORE.INTRA>
-24.0553

>  <SCORE.INTRA.DIHEDRAL>
-10.9949

>  <SCORE.INTRA.DIHEDRAL.0>
40.8761

>  <SCORE.INTRA.POLAR>
-3.78451

>  <SCORE.INTRA.POLAR.0>
-0.0268208

>  <SCORE.INTRA.REPUL>
-0.617508

>  <SCORE.INTRA.REPUL.0>
0.641615

>  <SCORE.INTRA.SOLV>
-7.47088

>  <SCORE.INTRA.SOLV.lig_0>
-162.567

>  <SCORE.INTRA.VDW>
1.13243

>  <SCORE.INTRA.VDW.0>
-4.80338

>  <SCORE.INTRA.norm>
-0.572746

>  <SCORE.RESTR>
0

>  <SCORE.RESTR.CAVITY>
0

>  <SCORE.RESTR.norm>
0

>  <SCORE.SYSTEM>
0

>  <SCORE.SYSTEM.CONST>
0

>  <SCORE.SYSTEM.DIHEDRAL>
0

>  <SCORE.SYSTEM.SOLV>
0

>  <SCORE.SYSTEM.norm>
0

>  <SCORE.heavy>
42

>  <SCORE.norm>
-1.19067

>  <RMSD>
7.646

$$$$

 OpenBabel11021811393D
libRbt.so/2013.1/901 2013/11/27
 42 45  0  0  0  0  0  0  0  0999 V2000
   -2.7165    0.7943   -3.8091 C   0  0  2  0  0  0  0  0  0  0  0  0
   -3.0272    0.9095   -2.3865 O   0  0  0  0  0  0  0  0  0  0  0  0
   -1.7363    1.9185   -4.2773 C   0  0  2  0  0  0  0  0  0  0  0  0
   -1.0923    2.5958   -3.1286 N   0  3  0  0  0  0  0  0  0  0  0  0
   -2.4760    2.9535   -5.1777 C   0  0  1  0  0  0  0  0  0  0  0  0
   -1.5701    3.9678   -5.6066 O   0  0  0  0  0  0  0  0  0  0  0  0
   -3.0970    2.2852   -6.4335 C   0  0  2  0  0  0  0  0  0  0  0  0
   -3.9885    3.2084   -7.0488 O   0  0  0  0  0  0  0  0  0  0  0  0
   -3.8591    0.9727   -6.0593 C   0  0  2  0  0  0  0  0  0  0  0  0
   -3.9510    0.8412   -4.6034 O   0  0  0  0  0  0  0  0  0  0  0  0
   -3.1945   -0.3243   -6.5753 C   0  0  0  0  0  0  0  0  0  0  0  0
   -7.1048   -0.4719   -2.6776 C   0  0  1  0  0  0  0  0  0  0  0  0
   -8.4255   -1.0622   -2.3651 N   0  3  0  0  0  0  0  0  0  0  0  0
   -6.8733    0.8495   -1.8989 C   0  0  1  0  0  0  0  0  0  0  0  0
   -5.4318    1.4423   -2.0740 C   0  0  1  0  0  0  0  0  0  0  0  0
   -5.2374    2.4686   -1.0641 O   0  0  0  0  0  0  0  0  0  0  0  0
   -4.2922    0.3738   -1.8903 C   0  0  1  0  0  0  0  0  0  0  0  0
   -4.5938   -0.9449   -2.6733 C   0  0  1  0  0  0  0  0  0  0  0  0
   -3.6022   -2.0008   -2.3838 N   0  3  0  0  0  0  0  0  0  0  0  0
   -5.9999   -1.4973   -2.3484 C   0  0  0  0  0  0  0  0  0  0  0  0
   -4.4335    3.6424   -1.3780 C   0  0  1  0  0  0  0  0  0  0  0  0
   -5.3702    4.7936   -1.7248 C   0  0  1  0  0  0  0  0  0  0  0  0
   -5.7645    5.2466   -0.3256 C   0  0  1  0  0  0  0  0  0  0  0  0
   -4.4262    5.1498    0.4205 C   0  0  2  0  0  0  0  0  0  0  0  0
   -3.7060    4.0656   -0.2132 O   0  0  0  0  0  0  0  0  0  0  0  0
   -4.5942    4.8669    1.9242 C   0  0  0  0  0  0  0  0  0  0  0  0
   -9.6527    5.2423    0.9088 C   0  0  1  0  0  0  0  0  0  0  0  0
   -8.9623    6.5337    1.4293 C   0  0  1  0  0  0  0  0  0  0  0  0
   -8.5177    7.5135    0.3053 C   0  0  2  0  0  0  0  0  0  0  0  0
   -7.6601    6.7805   -0.7760 C   0  0  1  0  0  0  0  0  0  0  0  0
   -6.2851    6.6071   -0.3303 O   0  0  0  0  0  0  0  0  0  0  0  0
   -9.6001    5.1742   -0.6478 C   0  0  1  0  0  0  0  0  0  0  0  0
   -8.2372    5.4568   -1.1054 O   0  0  0  0  0  0  0  0  0  0  0  0
  -10.0473    3.7946   -1.1960 C   0  0  0  0  0  0  0  0  0  0  0  0
   -2.6041   -0.2129   -7.9207 N   0  3  0  0  0  0  0  0  0  0  0  0
   -4.6487    5.8106   -2.4203 O   0  0  0  0  0  0  0  0  0  0  0  0
   -9.8733    7.2141    2.2916 O   0  0  0  0  0  0  0  0  0  0  0  0
   -8.9833    4.1129    1.4740 O   0  0  0  0  0  0  0  0  0  0  0  0
   -5.0073    3.5290    2.1436 O   0  0  0  0  0  0  0  0  0  0  0  0
   -7.8212    1.8181   -2.3469 O   0  0  0  0  0  0  0  0  0  0  0  0
  -10.1058    3.7542   -2.6687 N   0  3  0  0  0  0  0  0  0  0  0  0
   -7.8337    8.7057    0.8648 N   0  3  0  0  0  0  0  0  0  0  0  0
  1  2  1  1  0  0  0
  1  3  1  0  0  0  0
  1 10  1  0  0  0  0
  3  4  1  1  0  0  0
  3  5  1  0  0  0  0
  5  6  1  6  0  0  0
  5  7  1  0  0  0  0
  7  8  1  1  0  0  0
  7  9  1  0  0  0  0
  9 10  1  0  0  0  0
  9 11  1  1  0  0  0
 11 35  1  0  0  0  0
 12 13  1  1  0  0  0
 12 14  1  0  0  0  0
 12 20  1  0  0  0  0
 14 15  1  0  0  0  0
 14 40  1  6  0  0  0
 15 16  1  1  0  0  0
 15 17  1  0  0  0  0
 17  2  1  6  0  0  0
 17 18  1  0  0  0  0
 18 19  1  1  0  0  0
 18 20  1  0  0  0  0
 21 16  1  1  0  0  0
 21 22  1  0  0  0  0
 21 25  1  0  0  0  0
 22 23  1  0  0  0  0
 22 36  1  1  0  0  0
 23 24  1  0  0  0  0
 23 31  1  6  0  0  0
 24 25  1  0  0  0  0
 24 26  1  1  0  0  0
 26 39  1  0  0  0  0
 27 28  1  0  0  0  0
 27 32  1  0  0  0  0
 27 38  1  1  0  0  0
 28 29  1  0  0  0  0
 28 37  1  1  0  0  0
 29 30  1  0  0  0  0
 29 42  1  1  0  0  0
 30 31  1  1  0  0  0
 30 33  1  0  0  0  0
 32 33  1  0  0  0  0
 32 34  1  1  0  0  0
 34 41  1  0  0  0  0
M  CHG  6   4   1  13   1  19   1  35   1  41   1  42   1
M  END
>  <CHROM.1>
153.87852790,-85.07179434,-5.77019203,-78.52993868,66.87897269,-38.42499382
165.44996437,167.74384960,71.54606166,-145.57436797,99.49570548,-53.99183254
-178.73048734,78.43629728,72.48330398,52.07104352,63.31528103,75.66151712
173.63005046,124.29414151,175.34916677,-2.55226344,-5.62911248,3.08036121
-2.04418013,-0.87706819,0.53641466,0.40845259

>  <Name>


>  <RI>
0

>  <Rbt.Current_Directory>
/home/itssahil/PROJECTS/Mol_Feturizer/New_Systems/rnas/1ei2

>  <Rbt.Executable>
rbdock ($Id: //depot/dev/client3/rdock/2013.1/src/exe/rbdock.cxx#4 $)

>  <Rbt.Library>
libRbt.so (2013.1, Build901 2013/11/27)

>  <Rbt.Parameter_File>
/export/apps/rDock/src/rDock_2013.1_src/data/scripts/dock_solv.prm

>  <Rbt.Receptor>
prm/pocket_docking_4.prm

>  <SCORE>
-43.82

>  <SCORE.INTER>
-33.4422

>  <SCORE.INTER.CONST>
1

>  <SCORE.INTER.POLAR>
-5.86521

>  <SCORE.INTER.ROT>
9

>  <SCORE.INTER.SOLV>
31.8344

>  <SCORE.INTER.VDW>
-22.9555

>  <SCORE.INTER.norm>
-0.796243

>  <SCORE.INTRA>
-11.5017

>  <SCORE.INTRA.DIHEDRAL>
-2.20837

>  <SCORE.INTRA.DIHEDRAL.0>
40.8761

>  <SCORE.INTRA.POLAR>
-1.34662

>  <SCORE.INTRA.POLAR.0>
-0.0268208

>  <SCORE.INTRA.REPUL>
-0.452213

>  <SCORE.INTRA.REPUL.0>
0.641615

>  <SCORE.INTRA.SOLV>
-8.96932

>  <SCORE.INTRA.SOLV.lig_0>
-162.567

>  <SCORE.INTRA.VDW>
0.926761

>  <SCORE.INTRA.VDW.0>
-4.80338

>  <SCORE.INTRA.norm>
-0.273849

>  <SCORE.RESTR>
1.12388

>  <SCORE.RESTR.CAVITY>
1.12388

>  <SCORE.RESTR.norm>
0.0267591

>  <SCORE.SYSTEM>
0

>  <SCORE.SYSTEM.CONST>
0

>  <SCORE.SYSTEM.DIHEDRAL>
0

>  <SCORE.SYSTEM.SOLV>
0

>  <SCORE.SYSTEM.norm>
0

>  <SCORE.heavy>
42

>  <SCORE.norm>
-1.04333

>  <RMSD>
7.650

$$$$

 OpenBabel11021811393D
libRbt.so/2013.1/901 2013/11/27
 42 45  0  0  0  0  0  0  0  0999 V2000
   -4.6164    1.8226   -7.3299 C   0  0  2  0  0  0  0  0  0  0  0  0
   -3.5844    2.1349   -6.3444 O   0  0  0  0  0  0  0  0  0  0  0  0
   -4.9526    3.0605   -8.2235 C   0  0  2  0  0  0  0  0  0  0  0  0
   -3.9233    4.1182   -8.1022 N   0  3  0  0  0  0  0  0  0  0  0  0
   -6.3618    3.6261   -7.8725 C   0  0  1  0  0  0  0  0  0  0  0  0
   -6.6613    4.7477   -8.7005 O   0  0  0  0  0  0  0  0  0  0  0  0
   -7.4746    2.5612   -8.0649 C   0  0  2  0  0  0  0  0  0  0  0  0
   -8.6721    3.0374   -7.4608 O   0  0  0  0  0  0  0  0  0  0  0  0
   -7.0642    1.1913   -7.4336 C   0  0  2  0  0  0  0  0  0  0  0  0
   -5.8313    1.3435   -6.6577 O   0  0  0  0  0  0  0  0  0  0  0  0
   -6.7998    0.0656   -8.4598 C   0  0  0  0  0  0  0  0  0  0  0  0
   -3.6836   -1.7414   -4.4512 C   0  0  1  0  0  0  0  0  0  0  0  0
   -3.3816   -2.9012   -3.5829 N   0  3  0  0  0  0  0  0  0  0  0  0
   -4.2624   -0.5554   -3.6359 C   0  0  1  0  0  0  0  0  0  0  0  0
   -4.4612    0.7531   -4.4775 C   0  0  1  0  0  0  0  0  0  0  0  0
   -4.6881    1.8544   -3.5574 O   0  0  0  0  0  0  0  0  0  0  0  0
   -3.2126    1.1217   -5.3602 C   0  0  1  0  0  0  0  0  0  0  0  0
   -2.6564   -0.1167   -6.1347 C   0  0  1  0  0  0  0  0  0  0  0  0
   -1.3988    0.1925   -6.8451 N   0  3  0  0  0  0  0  0  0  0  0  0
   -2.3999   -1.3152   -5.1935 C   0  0  0  0  0  0  0  0  0  0  0  0
   -5.4999    2.9880   -3.9799 C   0  0  1  0  0  0  0  0  0  0  0  0
   -6.3378    3.4534   -2.7949 C   0  0  1  0  0  0  0  0  0  0  0  0
   -5.3013    4.2777   -2.0435 C   0  0  1  0  0  0  0  0  0  0  0  0
   -4.5878    5.0022   -3.1938 C   0  0  2  0  0  0  0  0  0  0  0  0
   -4.6538    4.0979   -4.3223 O   0  0  0  0  0  0  0  0  0  0  0  0
   -3.1215    5.3433   -2.8731 C   0  0  0  0  0  0  0  0  0  0  0  0
   -5.7836    4.8989    2.7033 C   0  0  1  0  0  0  0  0  0  0  0  0
   -6.3445    6.1215    1.9249 C   0  0  1  0  0  0  0  0  0  0  0  0
   -7.3853    5.7533    0.8284 C   0  0  2  0  0  0  0  0  0  0  0  0
   -6.8313    4.6483   -0.1277 C   0  0  1  0  0  0  0  0  0  0  0  0
   -5.9286    5.2135   -1.1201 O   0  0  0  0  0  0  0  0  0  0  0  0
   -6.3010    3.5639    2.0866 C   0  0  1  0  0  0  0  0  0  0  0  0
   -6.1223    3.5934    0.6327 O   0  0  0  0  0  0  0  0  0  0  0  0
   -5.5742    2.3228    2.6656 C   0  0  0  0  0  0  0  0  0  0  0  0
   -6.0205    0.4856   -9.6378 N   0  3  0  0  0  0  0  0  0  0  0  0
   -7.4179    4.2653   -3.2563 O   0  0  0  0  0  0  0  0  0  0  0  0
   -6.9623    7.0049    2.8599 O   0  0  0  0  0  0  0  0  0  0  0  0
   -4.3560    4.9454    2.6497 O   0  0  0  0  0  0  0  0  0  0  0  0
   -3.0426    6.4021   -1.9343 O   0  0  0  0  0  0  0  0  0  0  0  0
   -5.5243   -0.9439   -3.0938 O   0  0  0  0  0  0  0  0  0  0  0  0
   -5.7332    2.1944    4.1258 N   0  3  0  0  0  0  0  0  0  0  0  0
   -7.8529    6.9579    0.0986 N   0  3  0  0  0  0  0  0  0  0  0  0
  1  2  1  1  0  0  0
  1  3  1  0  0  0  0
  1 10  1  0  0  0  0
  3  4  1  1  0  0  0
  3  5  1  0  0  0  0
  5  6  1  6  0  0  0
  5  7  1  0  0  0  0
  7  8  1  1  0  0  0
  7  9  1  0  0  0  0
  9 10  1  0  0  0  0
  9 11  1  6  0  0  0
 11 35  1  0  0  0  0
 12 13  1  1  0  0  0
 12 14  1  0  0  0  0
 12 20  1  0  0  0  0
 14 15  1  0  0  0  0
 14 40  1  6  0  0  0
 15 16  1  1  0  0  0
 15 17  1  0  0  0  0
 17  2  1  6  0  0  0
 17 18  1  0  0  0  0
 18 19  1  1  0  0  0
 18 20  1  0  0  0  0
 21 16  1  1  0  0  0
 21 22  1  0  0  0  0
 21 25  1  0  0  0  0
 22 23  1  0  0  0  0
 22 36  1  6  0  0  0
 23 24  1  0  0  0  0
 23 31  1  1  0  0  0
 24 25  1  0  0  0  0
 24 26  1  1  0  0  0
 26 39  1  0  0  0  0
 27 28  1  0  0  0  0
 27 32  1  0  0  0  0
 27 38  1  6  0  0  0
 28 29  1  0  0  0  0
 28 37  1  1  0  0  0
 29 30  1  0  0  0  0
 29 42  1  6  0  0  0
 30 31  1  6  0  0  0
 30 33  1  0  0  0  0
 32 33  1  0  0  0  0
 32 34  1  1  0  0  0
 34 41  1  0  0  0  0
M  CHG  6   4   1  13   1  19   1  35   1  41   1  42   1
M  END
>  <CHROM.1>
175.67202644,-61.13231089,-74.53221385,-67.37195846,-59.56994421,43.05335117
-161.96321676,175.16938756,64.70515865,-150.79336287,142.32038785,-58.23518260
177.48262497,56.28228792,-72.58238102,-62.04373999,-60.07525867,-65.80350879
-48.02833508,177.71962211,59.65577868,78.65133054,-5.30394080,2.82804590
-3.45498758,1.31767348,1.10751131,-1.73767259

>  <Name>


>  <RI>
0

>  <Rbt.Current_Directory>
/home/itssahil/PROJECTS/Mol_Feturizer/New_Systems/rnas/1ei2

>  <Rbt.Executable>
rbdock ($Id: //depot/dev/client3/rdock/2013.1/src/exe/rbdock.cxx#4 $)

>  <Rbt.Library>
libRbt.so (2013.1, Build901 2013/11/27)

>  <Rbt.Parameter_File>
/export/apps/rDock/src/rDock_2013.1_src/data/scripts/dock_solv.prm

>  <Rbt.Receptor>
prm/pocket_docking_6.prm

>  <SCORE>
-55.5758

>  <SCORE.INTER>
-34.3611

>  <SCORE.INTER.CONST>
1

>  <SCORE.INTER.POLAR>
-5.47678

>  <SCORE.INTER.ROT>
9

>  <SCORE.INTER.SOLV>
27.1609

>  <SCORE.INTER.VDW>
-23.3051

>  <SCORE.INTER.norm>
-0.818122

>  <SCORE.INTRA>
-21.2147

>  <SCORE.INTRA.DIHEDRAL>
-26.6565

>  <SCORE.INTRA.DIHEDRAL.0>
40.8761

>  <SCORE.INTRA.POLAR>
0.013977

>  <SCORE.INTRA.POLAR.0>
-0.0268208

>  <SCORE.INTRA.REPUL>
-0.641615

>  <SCORE.INTRA.REPUL.0>
0.641615

>  <SCORE.INTRA.SOLV>
-9.08094

>  <SCORE.INTRA.SOLV.lig_0>
-162.567

>  <SCORE.INTRA.VDW>
-0.185398

>  <SCORE.INTRA.VDW.0>
-4.80338

>  <SCORE.INTRA.norm>
-0.505112

>  <SCORE.RESTR>
0

>  <SCORE.RESTR.CAVITY>
0

>  <SCORE.RESTR.norm>
0

>  <SCORE.SYSTEM>
0

>  <SCORE.SYSTEM.CONST>
0

>  <SCORE.SYSTEM.DIHEDRAL>
0

>  <SCORE.SYSTEM.SOLV>
0

>  <SCORE.SYSTEM.norm>
0

>  <SCORE.heavy>
42

>  <SCORE.norm>
-1.32323

>  <RMSD>
7.650

$$$$

 OpenBabel11021811393D
libRbt.so/2013.1/901 2013/11/27
 42 45  0  0  0  0  0  0  0  0999 V2000
   -2.0778    3.7545    0.8566 C   0  0  2  0  0  0  0  0  0  0  0  0
   -1.6269    4.1357   -0.4794 O   0  0  0  0  0  0  0  0  0  0  0  0
   -1.2324    4.4531    1.9707 C   0  0  2  0  0  0  0  0  0  0  0  0
   -0.4362    5.5779    1.4285 N   0  3  0  0  0  0  0  0  0  0  0  0
   -0.3071    3.4233    2.6865 C   0  0  1  0  0  0  0  0  0  0  0  0
    0.4510    4.0699    3.7066 O   0  0  0  0  0  0  0  0  0  0  0  0
   -1.1202    2.2702    3.3335 C   0  0  2  0  0  0  0  0  0  0  0  0
   -0.2217    1.2321    3.7087 O   0  0  0  0  0  0  0  0  0  0  0  0
   -2.1993    1.7148    2.3485 C   0  0  2  0  0  0  0  0  0  0  0  0
   -2.0128    2.2960    1.0170 O   0  0  0  0  0  0  0  0  0  0  0  0
   -3.6588    2.0182    2.7584 C   0  0  0  0  0  0  0  0  0  0  0  0
   -1.3953    2.5895   -4.5013 C   0  0  1  0  0  0  0  0  0  0  0  0
   -1.6343    1.8024   -5.7317 N   0  3  0  0  0  0  0  0  0  0  0  0
   -2.5879    3.5301   -4.1866 C   0  0  1  0  0  0  0  0  0  0  0  0
   -2.4578    4.2788   -2.8146 C   0  0  1  0  0  0  0  0  0  0  0  0
   -3.7504    4.8563   -2.4884 O   0  0  0  0  0  0  0  0  0  0  0  0
   -2.0465    3.3340   -1.6261 C   0  0  1  0  0  0  0  0  0  0  0  0
   -0.8609    2.3909   -2.0106 C   0  0  1  0  0  0  0  0  0  0  0  0
   -0.5717    1.4035   -0.9507 N   0  3  0  0  0  0  0  0  0  0  0  0
   -1.1382    1.6258   -3.3242 C   0  0  0  0  0  0  0  0  0  0  0  0
   -4.8588    3.9809   -2.1305 C   0  0  1  0  0  0  0  0  0  0  0  0
   -5.4603    4.4709   -0.8187 C   0  0  1  0  0  0  0  0  0  0  0  0
   -6.3259    5.6131   -1.3331 C   0  0  1  0  0  0  0  0  0  0  0  0
   -6.9149    5.0037   -2.6134 C   0  0  2  0  0  0  0  0  0  0  0  0
   -5.9066    4.0902   -3.1078 O   0  0  0  0  0  0  0  0  0  0  0  0
   -7.2461    6.0579   -3.6849 C   0  0  0  0  0  0  0  0  0  0  0  0
   -9.3450    8.1439    2.0922 C   0  0  1  0  0  0  0  0  0  0  0  0
   -8.9829    6.6477    2.3055 C   0  0  1  0  0  0  0  0  0  0  0  0
   -7.4771    6.3214    2.0885 C   0  0  2  0  0  0  0  0  0  0  0  0
   -6.9758    6.8593    0.7097 C   0  0  1  0  0  0  0  0  0  0  0  0
   -7.3642    5.9708   -0.3761 O   0  0  0  0  0  0  0  0  0  0  0  0
   -8.1155    8.9417    1.5610 C   0  0  1  0  0  0  0  0  0  0  0  0
   -7.5058    8.2165    0.4434 O   0  0  0  0  0  0  0  0  0  0  0  0
   -8.4930   10.3720    1.0966 C   0  0  0  0  0  0  0  0  0  0  0  0
   -4.0357    1.5118    4.0898 N   0  3  0  0  0  0  0  0  0  0  0  0
   -6.2520    3.4365   -0.2342 O   0  0  0  0  0  0  0  0  0  0  0  0
   -9.3395    6.2844    3.6386 O   0  0  0  0  0  0  0  0  0  0  0  0
  -10.4227    8.2190    1.1563 O   0  0  0  0  0  0  0  0  0  0  0  0
   -8.0520    7.0913   -3.1451 O   0  0  0  0  0  0  0  0  0  0  0  0
   -2.6927    4.5018   -5.2270 O   0  0  0  0  0  0  0  0  0  0  0  0
   -7.7603   10.7950   -0.1109 N   0  3  0  0  0  0  0  0  0  0  0  0
   -7.2046    4.8739    2.2700 N   0  3  0  0  0  0  0  0  0  0  0  0
  1  2  1  6  0  0  0
  1  3  1  0  0  0  0
  1 10  1  0  0  0  0
  3  4  1  6  0  0  0
  3  5  1  0  0  0  0
  5  6  1  1  0  0  0
  5  7  1  0  0  0  0
  7  8  1  6  0  0  0
  7  9  1  0  0  0  0
  9 10  1  0  0  0  0
  9 11  1  1  0  0  0
 11 35  1  0  0  0  0
 12 13  1  6  0  0  0
 12 14  1  0  0  0  0
 12 20  1  0  0  0  0
 14 15  1  0  0  0  0
 14 40  1  6  0  0  0
 15 16  1  1  0  0  0
 15 17  1  0  0  0  0
 17  2  1  1  0  0  0
 17 18  1  0  0  0  0
 18 19  1  1  0  0  0
 18 20  1  0  0  0  0
 21 16  1  6  0  0  0
 21 22  1  0  0  0  0
 21 25  1  0  0  0  0
 22 23  1  0  0  0  0
 22 36  1  6  0  0  0
 23 24  1  0  0  0  0
 23 31  1  1  0  0  0
 24 25  1  0  0  0  0
 24 26  1  6  0  0  0
 26 39  1  0  0  0  0
 27 28  1  0  0  0  0
 27 32  1  0  0  0  0
 27 38  1  6  0  0  0
 28 29  1  0  0  0  0
 28 37  1  1  0  0  0
 29 30  1  0  0  0  0
 29 42  1  6  0  0  0
 30 31  1  6  0  0  0
 30 33  1  0  0  0  0
 32 33  1  0  0  0  0
 32 34  1  6  0  0  0
 34 41  1  0  0  0  0
M  CHG  6   4   1  13   1  19   1  35   1  41   1  42   1
M  END
>  <CHROM.1>
164.00719821,137.12122653,55.94534932,60.33622305,175.43570528,-57.72715982
75.46432658,-58.45615592,166.79330305,69.52667894,128.66180842,-1.25839041
-50.53022656,82.31199841,-52.08562532,74.96739883,77.32436378,-61.19519070
94.48387619,-132.35417163,-141.81640447,47.68335112,-4.48010669,4.72108670
-0.11454320,-0.12372068,-0.62129757,1.56751222

>  <Name>


>  <RI>
0

>  <Rbt.Current_Directory>
/home/itssahil/PROJECTS/Mol_Feturizer/New_Systems/rnas/1ei2

>  <Rbt.Executable>
rbdock ($Id: //depot/dev/client3/rdock/2013.1/src/exe/rbdock.cxx#4 $)

>  <Rbt.Library>
libRbt.so (2013.1, Build901 2013/11/27)

>  <Rbt.Parameter_File>
/export/apps/rDock/src/rDock_2013.1_src/data/scripts/dock_solv.prm

>  <Rbt.Receptor>
prm/pocket_docking_4.prm

>  <SCORE>
-62.693

>  <SCORE.INTER>
-48.3261

>  <SCORE.INTER.CONST>
1

>  <SCORE.INTER.POLAR>
-7.69852

>  <SCORE.INTER.ROT>
9

>  <SCORE.INTER.SOLV>
32.3911

>  <SCORE.INTER.VDW>
-26.9527

>  <SCORE.INTER.norm>
-1.15062

>  <SCORE.INTRA>
-15.9099

>  <SCORE.INTRA.DIHEDRAL>
-2.75528

>  <SCORE.INTRA.DIHEDRAL.0>
40.8761

>  <SCORE.INTRA.POLAR>
-2.28471

>  <SCORE.INTRA.POLAR.0>
-0.0268208

>  <SCORE.INTRA.REPUL>
-0.641615

>  <SCORE.INTRA.REPUL.0>
0.641615

>  <SCORE.INTRA.SOLV>
-7.90224

>  <SCORE.INTRA.SOLV.lig_0>
-162.567

>  <SCORE.INTRA.VDW>
0.394932

>  <SCORE.INTRA.VDW.0>
-4.80338

>  <SCORE.INTRA.norm>
-0.378807

>  <SCORE.RESTR>
1.54307

>  <SCORE.RESTR.CAVITY>
1.54307

>  <SCORE.RESTR.norm>
0.0367397

>  <SCORE.SYSTEM>
0

>  <SCORE.SYSTEM.CONST>
0

>  <SCORE.SYSTEM.DIHEDRAL>
0

>  <SCORE.SYSTEM.SOLV>
0

>  <SCORE.SYSTEM.norm>
0

>  <SCORE.heavy>
42

>  <SCORE.norm>
-1.49269

>  <RMSD>
7.656

$$$$

 OpenBabel11021811393D
libRbt.so/2013.1/901 2013/11/27
 42 45  0  0  0  0  0  0  0  0999 V2000
   -4.4904    1.3085   -6.5315 C   0  0  2  0  0  0  0  0  0  0  0  0
   -3.4282    1.2984   -5.5288 O   0  0  0  0  0  0  0  0  0  0  0  0
   -4.6838    2.7306   -7.1510 C   0  0  2  0  0  0  0  0  0  0  0  0
   -3.5400    3.6203   -6.8456 N   0  3  0  0  0  0  0  0  0  0  0  0
   -6.0185    3.3679   -6.6598 C   0  0  1  0  0  0  0  0  0  0  0  0
   -6.1887    4.6597   -7.2392 O   0  0  0  0  0  0  0  0  0  0  0  0
   -7.2461    2.4949   -7.0343 C   0  0  2  0  0  0  0  0  0  0  0  0
   -8.3805    2.9705   -6.3183 O   0  0  0  0  0  0  0  0  0  0  0  0
   -6.9944    0.9888   -6.7000 C   0  0  2  0  0  0  0  0  0  0  0  0
   -5.7512    0.8427   -5.9394 O   0  0  0  0  0  0  0  0  0  0  0  0
   -6.8619    0.0707   -7.9367 C   0  0  0  0  0  0  0  0  0  0  0  0
   -2.9667   -2.9919   -5.5120 C   0  0  1  0  0  0  0  0  0  0  0  0
   -2.4720   -4.3618   -5.2491 N   0  3  0  0  0  0  0  0  0  0  0  0
   -3.5819   -2.3547   -4.2385 C   0  0  1  0  0  0  0  0  0  0  0  0
   -3.9867   -0.8500   -4.4169 C   0  0  1  0  0  0  0  0  0  0  0  0
   -4.2351   -0.2878   -3.1004 O   0  0  0  0  0  0  0  0  0  0  0  0
   -2.8680    0.0192   -5.1006 C   0  0  1  0  0  0  0  0  0  0  0  0
   -2.2662   -0.6854   -6.3593 C   0  0  1  0  0  0  0  0  0  0  0  0
   -1.1168    0.0581   -6.9144 N   0  3  0  0  0  0  0  0  0  0  0  0
   -1.8060   -2.1269   -6.0459 C   0  0  0  0  0  0  0  0  0  0  0  0
   -3.1556   -0.2428   -2.1229 C   0  0  1  0  0  0  0  0  0  0  0  0
   -2.6616    1.1946   -2.0112 C   0  0  1  0  0  0  0  0  0  0  0  0
   -3.7278    1.7716   -1.0899 C   0  0  1  0  0  0  0  0  0  0  0  0
   -3.9182    0.6291   -0.0821 C   0  0  2  0  0  0  0  0  0  0  0  0
   -3.6567   -0.5879   -0.8211 O   0  0  0  0  0  0  0  0  0  0  0  0
   -5.3334    0.5887    0.5219 C   0  0  0  0  0  0  0  0  0  0  0  0
   -4.5687    5.3165    2.3254 C   0  0  1  0  0  0  0  0  0  0  0  0
   -3.2740    5.5453    1.4967 C   0  0  1  0  0  0  0  0  0  0  0  0
   -3.4790    5.4452   -0.0425 C   0  0  2  0  0  0  0  0  0  0  0  0
   -4.2009    4.1147   -0.4306 C   0  0  1  0  0  0  0  0  0  0  0  0
   -3.2714    2.9943   -0.4429 O   0  0  0  0  0  0  0  0  0  0  0  0
   -5.7502    4.8905    1.4018 C   0  0  1  0  0  0  0  0  0  0  0  0
   -5.3102    3.8187    0.5051 O   0  0  0  0  0  0  0  0  0  0  0  0
   -6.9863    4.4097    2.2048 C   0  0  0  0  0  0  0  0  0  0  0  0
   -8.0355    0.0754   -8.8277 N   0  3  0  0  0  0  0  0  0  0  0  0
   -1.3725    1.2160   -1.3978 O   0  0  0  0  0  0  0  0  0  0  0  0
   -2.7667    6.8431    1.8045 O   0  0  0  0  0  0  0  0  0  0  0  0
   -4.3104    4.2990    3.2954 O   0  0  0  0  0  0  0  0  0  0  0  0
   -6.2226   -0.1235   -0.3213 O   0  0  0  0  0  0  0  0  0  0  0  0
   -4.7434   -3.0977   -3.8692 O   0  0  0  0  0  0  0  0  0  0  0  0
   -8.2066    4.3228    1.3817 N   0  3  0  0  0  0  0  0  0  0  0  0
   -2.2013    5.6357   -0.7729 N   0  3  0  0  0  0  0  0  0  0  0  0
  1  2  1  1  0  0  0
  1  3  1  0  0  0  0
  1 10  1  0  0  0  0
  3  4  1  1  0  0  0
  3  5  1  0  0  0  0
  5  6  1  6  0  0  0
  5  7  1  0  0  0  0
  7  8  1  1  0  0  0
  7  9  1  0  0  0  0
  9 10  1  0  0  0  0
  9 11  1  6  0  0  0
 11 35  1  0  0  0  0
 12 13  1  1  0  0  0
 12 14  1  0  0  0  0
 12 20  1  0  0  0  0
 14 15  1  0  0  0  0
 14 40  1  6  0  0  0
 15 16  1  1  0  0  0
 15 17  1  0  0  0  0
 17  2  1  6  0  0  0
 17 18  1  0  0  0  0
 18 19  1  1  0  0  0
 18 20  1  0  0  0  0
 21 16  1  6  0  0  0
 21 22  1  0  0  0  0
 21 25  1  0  0  0  0
 22 23  1  0  0  0  0
 22 36  1  1  0  0  0
 23 24  1  0  0  0  0
 23 31  1  1  0  0  0
 24 25  1  0  0  0  0
 24 26  1  6  0  0  0
 26 39  1  0  0  0  0
 27 28  1  0  0  0  0
 27 32  1  0  0  0  0
 27 38  1  1  0  0  0
 28 29  1  0  0  0  0
 28 37  1  6  0  0  0
 29 30  1  0  0  0  0
 29 42  1  6  0  0  0
 30 31  1  1  0  0  0
 30 33  1  0  0  0  0
 32 33  1  0  0  0  0
 32 34  1  1  0  0  0
 34 41  1  0  0  0  0
M  CHG  6   4   1  13   1  19   1  35   1  41   1  42   1
M  END
>  <CHROM.1>
-164.08664917,-62.50962952,92.10678148,-75.00070628,-169.47564295,-58.54505139
-42.34085350,59.40099515,79.19022658,61.69347292,105.39258963,171.55552561
-175.06784744,134.14470248,84.77920222,69.72837028,63.55152569,172.36579447
59.35672512,-165.71580676,165.81674354,56.55378409,-4.43728458,1.67640359
-3.04611835,1.58558381,0.98032119,-2.12539222

>  <Name>


>  <RI>
0

>  <Rbt.Current_Directory>
/home/itssahil/PROJECTS/Mol_Feturizer/New_Systems/rnas/1ei2

>  <Rbt.Executable>
rbdock ($Id: //depot/dev/client3/rdock/2013.1/src/exe/rbdock.cxx#4 $)

>  <Rbt.Library>
libRbt.so (2013.1, Build901 2013/11/27)

>  <Rbt.Parameter_File>
/export/apps/rDock/src/rDock_2013.1_src/data/scripts/dock_solv.prm

>  <Rbt.Receptor>
prm/pocket_docking_6.prm

>  <SCORE>
-60.6198

>  <SCORE.INTER>
-42.3258

>  <SCORE.INTER.CONST>
1

>  <SCORE.INTER.POLAR>
-6.49061

>  <SCORE.INTER.ROT>
9

>  <SCORE.INTER.SOLV>
33.0254

>  <SCORE.INTER.VDW>
-27.1903

>  <SCORE.INTER.norm>
-1.00776

>  <SCORE.INTRA>
-18.5639

>  <SCORE.INTRA.DIHEDRAL>
-15.8718

>  <SCORE.INTRA.DIHEDRAL.0>
40.8761

>  <SCORE.INTRA.POLAR>
-0.256889

>  <SCORE.INTRA.POLAR.0>
-0.0268208

>  <SCORE.INTRA.REPUL>
-0.641615

>  <SCORE.INTRA.REPUL.0>
0.641615

>  <SCORE.INTRA.SOLV>
-13.1305

>  <SCORE.INTRA.SOLV.lig_0>
-162.567

>  <SCORE.INTRA.VDW>
0.0187114

>  <SCORE.INTRA.VDW.0>
-4.80338

>  <SCORE.INTRA.norm>
-0.441998

>  <SCORE.RESTR>
0.269895

>  <SCORE.RESTR.CAVITY>
0.269895

>  <SCORE.RESTR.norm>
0.00642608

>  <SCORE.SYSTEM>
0

>  <SCORE.SYSTEM.CONST>
0

>  <SCORE.SYSTEM.DIHEDRAL>
0

>  <SCORE.SYSTEM.SOLV>
0

>  <SCORE.SYSTEM.norm>
0

>  <SCORE.heavy>
42

>  <SCORE.norm>
-1.44333

>  <RMSD>
7.665

$$$$

 OpenBabel11021811393D
libRbt.so/2013.1/901 2013/11/27
 42 45  0  0  0  0  0  0  0  0999 V2000
   -2.4564    2.9329   -1.8281 C   0  0  2  0  0  0  0  0  0  0  0  0
   -2.0865    3.0617   -3.2353 O   0  0  0  0  0  0  0  0  0  0  0  0
   -2.9210    4.2993   -1.2275 C   0  0  2  0  0  0  0  0  0  0  0  0
   -3.2107    5.2923   -2.2873 N   0  3  0  0  0  0  0  0  0  0  0  0
   -1.8558    4.8546   -0.2345 C   0  0  1  0  0  0  0  0  0  0  0  0
   -2.2950    6.0953    0.3142 O   0  0  0  0  0  0  0  0  0  0  0  0
   -1.5865    3.8679    0.9331 C   0  0  2  0  0  0  0  0  0  0  0  0
   -0.4187    4.2903    1.6283 O   0  0  0  0  0  0  0  0  0  0  0  0
   -1.3993    2.4070    0.4095 C   0  0  2  0  0  0  0  0  0  0  0  0
   -1.3273    2.4015   -1.0534 O   0  0  0  0  0  0  0  0  0  0  0  0
   -2.5388    1.4361    0.7957 C   0  0  0  0  0  0  0  0  0  0  0  0
   -3.6625    2.2779   -7.1750 C   0  0  1  0  0  0  0  0  0  0  0  0
   -4.3357    1.6435   -8.3304 N   0  3  0  0  0  0  0  0  0  0  0  0
   -4.6834    2.7205   -6.0942 C   0  0  1  0  0  0  0  0  0  0  0  0
   -4.0187    3.2628   -4.7811 C   0  0  1  0  0  0  0  0  0  0  0  0
   -5.0404    3.3320   -3.7505 O   0  0  0  0  0  0  0  0  0  0  0  0
   -2.8625    2.3425   -4.2422 C   0  0  1  0  0  0  0  0  0  0  0  0
   -1.8833    1.9054   -5.3793 C   0  0  1  0  0  0  0  0  0  0  0  0
   -0.8862    0.9239   -4.9056 N   0  3  0  0  0  0  0  0  0  0  0  0
   -2.6360    1.2911   -6.5810 C   0  0  0  0  0  0  0  0  0  0  0  0
   -6.4448    3.3909   -4.1339 C   0  0  1  0  0  0  0  0  0  0  0  0
   -7.2954    3.3407   -2.8702 C   0  0  1  0  0  0  0  0  0  0  0  0
   -7.1962    4.7934   -2.4248 C   0  0  1  0  0  0  0  0  0  0  0  0
   -7.3184    5.5370   -3.7624 C   0  0  2  0  0  0  0  0  0  0  0  0
   -6.7331    4.6562   -4.7510 O   0  0  0  0  0  0  0  0  0  0  0  0
   -6.5919    6.8940   -3.7654 C   0  0  0  0  0  0  0  0  0  0  0  0
   -9.5572    5.9476    2.0195 C   0  0  1  0  0  0  0  0  0  0  0  0
  -10.4288    5.4200    0.8459 C   0  0  1  0  0  0  0  0  0  0  0  0
   -9.8521    4.1564    0.1446 C   0  0  2  0  0  0  0  0  0  0  0  0
   -8.3635    4.3748   -0.2775 C   0  0  1  0  0  0  0  0  0  0  0  0
   -8.2719    5.1468   -1.5083 O   0  0  0  0  0  0  0  0  0  0  0  0
   -8.2189    5.1541    2.1166 C   0  0  1  0  0  0  0  0  0  0  0  0
   -7.6036    5.0655    0.7899 O   0  0  0  0  0  0  0  0  0  0  0  0
   -7.2148    5.8043    3.1030 C   0  0  0  0  0  0  0  0  0  0  0  0
   -2.7085    0.2985   -0.1254 N   0  3  0  0  0  0  0  0  0  0  0  0
   -8.6374    2.9864   -3.2051 O   0  0  0  0  0  0  0  0  0  0  0  0
  -11.7249    5.1064    1.3541 O   0  0  0  0  0  0  0  0  0  0  0  0
   -9.2925    7.3346    1.7976 O   0  0  0  0  0  0  0  0  0  0  0  0
   -5.2739    6.7628   -3.2609 O   0  0  0  0  0  0  0  0  0  0  0  0
   -5.5143    3.7447   -6.6401 O   0  0  0  0  0  0  0  0  0  0  0  0
   -7.4943    5.4677    4.5110 N   0  3  0  0  0  0  0  0  0  0  0  0
  -10.7095    3.7263   -0.9878 N   0  3  0  0  0  0  0  0  0  0  0  0
  1  2  1  6  0  0  0
  1  3  1  0  0  0  0
  1 10  1  0  0  0  0
  3  4  1  6  0  0  0
  3  5  1  0  0  0  0
  5  6  1  1  0  0  0
  5  7  1  0  0  0  0
  7  8  1  6  0  0  0
  7  9  1  0  0  0  0
  9 10  1  0  0  0  0
  9 11  1  6  0  0  0
 11 35  1  0  0  0  0
 12 13  1  6  0  0  0
 12 14  1  0  0  0  0
 12 20  1  0  0  0  0
 14 15  1  0  0  0  0
 14 40  1  6  0  0  0
 15 16  1  1  0  0  0
 15 17  1  0  0  0  0
 17  2  1  1  0  0  0
 17 18  1  0  0  0  0
 18 19  1  1  0  0  0
 18 20  1  0  0  0  0
 21 16  1  1  0  0  0
 21 22  1  0  0  0  0
 21 25  1  0  0  0  0
 22 23  1  0  0  0  0
 22 36  1  6  0  0  0
 23 24  1  0  0  0  0
 23 31  1  1  0  0  0
 24 25  1  0  0  0  0
 24 26  1  1  0  0  0
 26 39  1  0  0  0  0
 27 28  1  0  0  0  0
 27 32  1  0  0  0  0
 27 38  1  6  0  0  0
 28 29  1  0  0  0  0
 28 37  1  1  0  0  0
 29 30  1  0  0  0  0
 29 42  1  6  0  0  0
 30 31  1  6  0  0  0
 30 33  1  0  0  0  0
 32 33  1  0  0  0  0
 32 34  1  1  0  0  0
 34 41  1  0  0  0  0
M  CHG  6   4   1  13   1  19   1  35   1  41   1  42   1
M  END
>  <CHROM.1>
-116.17014315,92.15720726,64.05661900,-94.84247576,-55.37970933,154.14876957
158.87587854,-60.97889952,-73.33680251,-21.52423626,175.40332037,48.47441387
65.36076508,58.98834643,48.61934839,-69.32295705,172.57456952,70.13147217
-88.01582972,-144.35161221,80.82734643,151.46428021,-5.35528542,3.96058176
-1.84474298,-0.76748391,-0.25724296,1.34946964

>  <Name>


>  <RI>
0

>  <Rbt.Current_Directory>
/home/itssahil/PROJECTS/Mol_Feturizer/New_Systems/rnas/1ei2

>  <Rbt.Executable>
rbdock ($Id: //depot/dev/client3/rdock/2013.1/src/exe/rbdock.cxx#4 $)

>  <Rbt.Library>
libRbt.so (2013.1, Build901 2013/11/27)

>  <Rbt.Parameter_File>
/export/apps/rDock/src/rDock_2013.1_src/data/scripts/dock_solv.prm

>  <Rbt.Receptor>
prm/pocket_docking_3.prm

>  <SCORE>
-48.8477

>  <SCORE.INTER>
-35.724

>  <SCORE.INTER.CONST>
1

>  <SCORE.INTER.POLAR>
-5.90724

>  <SCORE.INTER.ROT>
9

>  <SCORE.INTER.SOLV>
23.3382

>  <SCORE.INTER.VDW>
-21.5046

>  <SCORE.INTER.norm>
-0.850572

>  <SCORE.INTRA>
-13.3636

>  <SCORE.INTRA.DIHEDRAL>
-4.16674

>  <SCORE.INTRA.DIHEDRAL.0>
40.8761

>  <SCORE.INTRA.POLAR>
-2.38237

>  <SCORE.INTRA.POLAR.0>
-0.0268208

>  <SCORE.INTRA.REPUL>
-0.641615

>  <SCORE.INTRA.REPUL.0>
0.641615

>  <SCORE.INTRA.SOLV>
-3.48758

>  <SCORE.INTRA.SOLV.lig_0>
-162.567

>  <SCORE.INTRA.VDW>
1.77165

>  <SCORE.INTRA.VDW.0>
-4.80338

>  <SCORE.INTRA.norm>
-0.318182

>  <SCORE.RESTR>
0.239954

>  <SCORE.RESTR.CAVITY>
0.239954

>  <SCORE.RESTR.norm>
0.0057132

>  <SCORE.SYSTEM>
0

>  <SCORE.SYSTEM.CONST>
0

>  <SCORE.SYSTEM.DIHEDRAL>
0

>  <SCORE.SYSTEM.SOLV>
0

>  <SCORE.SYSTEM.norm>
0

>  <SCORE.heavy>
42

>  <SCORE.norm>
-1.16304

>  <RMSD>
7.669

$$$$

 OpenBabel11021811393D
libRbt.so/2013.1/901 2013/11/27
 42 45  0  0  0  0  0  0  0  0999 V2000
   -5.2130    3.1515   -4.2620 C   0  0  2  0  0  0  0  0  0  0  0  0
   -5.8528    4.3251   -3.6730 O   0  0  0  0  0  0  0  0  0  0  0  0
   -3.7485    3.4600   -4.7138 C   0  0  2  0  0  0  0  0  0  0  0  0
   -3.2509    4.7260   -4.1283 N   0  3  0  0  0  0  0  0  0  0  0  0
   -3.6494    3.5006   -6.2686 C   0  0  1  0  0  0  0  0  0  0  0  0
   -2.3079    3.7725   -6.6685 O   0  0  0  0  0  0  0  0  0  0  0  0
   -4.0914    2.1578   -6.9096 C   0  0  2  0  0  0  0  0  0  0  0  0
   -4.2556    2.3520   -8.3100 O   0  0  0  0  0  0  0  0  0  0  0  0
   -5.4258    1.6410   -6.2804 C   0  0  2  0  0  0  0  0  0  0  0  0
   -5.9988    2.6646   -5.4034 O   0  0  0  0  0  0  0  0  0  0  0  0
   -5.2781    0.3626   -5.4235 C   0  0  0  0  0  0  0  0  0  0  0  0
   -9.6623    5.7571   -2.2389 C   0  0  1  0  0  0  0  0  0  0  0  0
  -11.0644    5.8240   -1.7697 N   0  3  0  0  0  0  0  0  0  0  0  0
   -8.7469    5.0590   -1.1993 C   0  0  1  0  0  0  0  0  0  0  0  0
   -7.2806    4.8248   -1.7044 C   0  0  1  0  0  0  0  0  0  0  0  0
   -6.6311    3.8946   -0.7967 O   0  0  0  0  0  0  0  0  0  0  0  0
   -7.2108    4.2054   -3.1486 C   0  0  1  0  0  0  0  0  0  0  0  0
   -8.1740    4.9296   -4.1439 C   0  0  1  0  0  0  0  0  0  0  0  0
   -8.2210    4.2573   -5.4583 N   0  3  0  0  0  0  0  0  0  0  0  0
   -9.6143    5.0144   -3.5905 C   0  0  0  0  0  0  0  0  0  0  0  0
   -5.4026    3.2284   -1.2084 C   0  0  1  0  0  0  0  0  0  0  0  0
   -4.2174    4.0758   -0.7609 C   0  0  1  0  0  0  0  0  0  0  0  0
   -4.1332    3.6638    0.7025 C   0  0  1  0  0  0  0  0  0  0  0  0
   -4.3895    2.1526    0.6146 C   0  0  2  0  0  0  0  0  0  0  0  0
   -5.2698    1.9736   -0.5207 O   0  0  0  0  0  0  0  0  0  0  0  0
   -5.0401    1.5773    1.8855 C   0  0  0  0  0  0  0  0  0  0  0  0
    0.0206    5.4258    3.3884 C   0  0  1  0  0  0  0  0  0  0  0  0
   -0.4867    6.0111    2.0411 C   0  0  1  0  0  0  0  0  0  0  0  0
   -2.0283    6.2120    1.9760 C   0  0  2  0  0  0  0  0  0  0  0  0
   -2.7853    4.9042    2.3739 C   0  0  1  0  0  0  0  0  0  0  0  0
   -2.8233    3.9591    1.2672 O   0  0  0  0  0  0  0  0  0  0  0  0
   -1.1755    5.0392    4.3104 C   0  0  1  0  0  0  0  0  0  0  0  0
   -2.1515    4.2581    3.5463 O   0  0  0  0  0  0  0  0  0  0  0  0
   -0.7279    4.2243    5.5512 C   0  0  0  0  0  0  0  0  0  0  0  0
   -4.0280    0.2908   -4.6467 N   0  3  0  0  0  0  0  0  0  0  0  0
   -3.0473    3.6888   -1.4818 O   0  0  0  0  0  0  0  0  0  0  0  0
    0.1457    7.2733    1.8327 O   0  0  0  0  0  0  0  0  0  0  0  0
    0.8191    4.2739    3.1086 O   0  0  0  0  0  0  0  0  0  0  0  0
   -5.0705    0.1610    1.8409 O   0  0  0  0  0  0  0  0  0  0  0  0
   -8.6990    5.8603   -0.0190 O   0  0  0  0  0  0  0  0  0  0  0  0
   -0.0223    5.0451    6.5524 N   0  3  0  0  0  0  0  0  0  0  0  0
   -2.4511    6.7369    0.6539 N   0  3  0  0  0  0  0  0  0  0  0  0
  1  2  1  6  0  0  0
  1  3  1  0  0  0  0
  1 10  1  0  0  0  0
  3  4  1  1  0  0  0
  3  5  1  0  0  0  0
  5  6  1  1  0  0  0
  5  7  1  0  0  0  0
  7  8  1  6  0  0  0
  7  9  1  0  0  0  0
  9 10  1  0  0  0  0
  9 11  1  1  0  0  0
 11 35  1  0  0  0  0
 12 13  1  1  0  0  0
 12 14  1  0  0  0  0
 12 20  1  0  0  0  0
 14 15  1  0  0  0  0
 14 40  1  1  0  0  0
 15 16  1  1  0  0  0
 15 17  1  0  0  0  0
 17  2  1  6  0  0  0
 17 18  1  0  0  0  0
 18 19  1  6  0  0  0
 18 20  1  0  0  0  0
 21 16  1  1  0  0  0
 21 22  1  0  0  0  0
 21 25  1  0  0  0  0
 22 23  1  0  0  0  0
 22 36  1  6  0  0  0
 23 24  1  0  0  0  0
 23 31  1  6  0  0  0
 24 25  1  0  0  0  0
 24 26  1  1  0  0  0
 26 39  1  0  0  0  0
 27 28  1  0  0  0  0
 27 32  1  0  0  0  0
 27 38  1  6  0  0  0
 28 29  1  0  0  0  0
 28 37  1  1  0  0  0
 29 30  1  0  0  0  0
 29 42  1  6  0  0  0
 30 31  1  6  0  0  0
 30 33  1  0  0  0  0
 32 33  1  0  0  0  0
 32 34  1  1  0  0  0
 34 41  1  0  0  0  0
M  CHG  6   4   1  13   1  19   1  35   1  41   1  42   1
M  END
>  <CHROM.1>
-177.74427870,131.18533293,178.74094972,-71.57373747,70.79224546,36.32110587
63.70611372,68.90734193,-177.32656807,163.79479155,91.25615095,-157.43622309
-155.63695046,118.09137608,-171.10712117,-177.62535285,177.81946572,74.40378245
-160.34169521,-114.38287427,72.75771633,172.84439725,-4.45408640,3.95106066
-1.25787478,-2.11845901,-0.15802918,1.30004165

>  <Name>


>  <RI>
0

>  <Rbt.Current_Directory>
/home/itssahil/PROJECTS/Mol_Feturizer/New_Systems/rnas/1ei2

>  <Rbt.Executable>
rbdock ($Id: //depot/dev/client3/rdock/2013.1/src/exe/rbdock.cxx#4 $)

>  <Rbt.Library>
libRbt.so (2013.1, Build901 2013/11/27)

>  <Rbt.Parameter_File>
/export/apps/rDock/src/rDock_2013.1_src/data/scripts/dock_solv.prm

>  <Rbt.Receptor>
prm/pocket_docking_7.prm

>  <SCORE>
-49.7021

>  <SCORE.INTER>
-34.1437

>  <SCORE.INTER.CONST>
1

>  <SCORE.INTER.POLAR>
-6.80084

>  <SCORE.INTER.ROT>
9

>  <SCORE.INTER.SOLV>
19.5837

>  <SCORE.INTER.VDW>
-16.2209

>  <SCORE.INTER.norm>
-0.812945

>  <SCORE.INTRA>
-15.5585

>  <SCORE.INTRA.DIHEDRAL>
-4.74769

>  <SCORE.INTRA.DIHEDRAL.0>
40.8761

>  <SCORE.INTRA.POLAR>
-2.43679

>  <SCORE.INTRA.POLAR.0>
-0.0268208

>  <SCORE.INTRA.REPUL>
-0.641615

>  <SCORE.INTRA.REPUL.0>
0.641615

>  <SCORE.INTRA.SOLV>
-2.87031

>  <SCORE.INTRA.SOLV.lig_0>
-162.567

>  <SCORE.INTRA.VDW>
-0.256308

>  <SCORE.INTRA.VDW.0>
-4.80338

>  <SCORE.INTRA.norm>
-0.370439

>  <SCORE.RESTR>
0

>  <SCORE.RESTR.CAVITY>
0

>  <SCORE.RESTR.norm>
0

>  <SCORE.SYSTEM>
0

>  <SCORE.SYSTEM.CONST>
0

>  <SCORE.SYSTEM.DIHEDRAL>
0

>  <SCORE.SYSTEM.SOLV>
0

>  <SCORE.SYSTEM.norm>
0

>  <SCORE.heavy>
42

>  <SCORE.norm>
-1.18338

>  <RMSD>
7.671

$$$$

 OpenBabel11021811393D
libRbt.so/2013.1/901 2013/11/27
 42 45  0  0  0  0  0  0  0  0999 V2000
   -6.6257    3.4718   -1.6322 C   0  0  2  0  0  0  0  0  0  0  0  0
   -5.5136    4.1028   -0.9259 O   0  0  0  0  0  0  0  0  0  0  0  0
   -7.9981    3.8109   -0.9650 C   0  0  2  0  0  0  0  0  0  0  0  0
   -7.8819    4.9466   -0.0218 N   0  3  0  0  0  0  0  0  0  0  0  0
   -8.5837    2.5593   -0.2442 C   0  0  1  0  0  0  0  0  0  0  0  0
   -9.8395    2.8779    0.3514 O   0  0  0  0  0  0  0  0  0  0  0  0
   -8.7906    1.3737   -1.2246 C   0  0  2  0  0  0  0  0  0  0  0  0
   -9.0439    0.1947   -0.4688 O   0  0  0  0  0  0  0  0  0  0  0  0
   -7.5381    1.1666   -2.1367 C   0  0  2  0  0  0  0  0  0  0  0  0
   -6.4360    2.0161   -1.6795 O   0  0  0  0  0  0  0  0  0  0  0  0
   -7.7661    1.5092   -3.6269 C   0  0  0  0  0  0  0  0  0  0  0  0
   -2.4139    2.0467   -3.1132 C   0  0  1  0  0  0  0  0  0  0  0  0
   -1.1130    1.6735   -3.7122 N   0  3  0  0  0  0  0  0  0  0  0  0
   -2.3962    1.8892   -1.5702 C   0  0  1  0  0  0  0  0  0  0  0  0
   -3.6966    2.4121   -0.8662 C   0  0  1  0  0  0  0  0  0  0  0  0
   -3.4318    2.5133    0.5587 O   0  0  0  0  0  0  0  0  0  0  0  0
   -4.1476    3.8333   -1.3673 C   0  0  1  0  0  0  0  0  0  0  0  0
   -4.1180    3.9415   -2.9262 C   0  0  1  0  0  0  0  0  0  0  0  0
   -4.3964    5.3153   -3.3921 N   0  3  0  0  0  0  0  0  0  0  0  0
   -2.7562    3.4987   -3.5071 C   0  0  0  0  0  0  0  0  0  0  0  0
   -2.8028    1.3979    1.2537 C   0  0  1  0  0  0  0  0  0  0  0  0
   -2.2072    1.9129    2.5586 C   0  0  1  0  0  0  0  0  0  0  0  0
   -3.4580    1.9492    3.4261 C   0  0  1  0  0  0  0  0  0  0  0  0
   -4.1581    0.6459    3.0156 C   0  0  2  0  0  0  0  0  0  0  0  0
   -3.7964    0.4305    1.6305 O   0  0  0  0  0  0  0  0  0  0  0  0
   -5.6892    0.7139    3.1590 C   0  0  0  0  0  0  0  0  0  0  0  0
   -3.7918    4.2794    7.8318 C   0  0  1  0  0  0  0  0  0  0  0  0
   -2.9332    2.9847    7.8752 C   0  0  1  0  0  0  0  0  0  0  0  0
   -1.8469    2.9053    6.7640 C   0  0  2  0  0  0  0  0  0  0  0  0
   -2.4653    3.1565    5.3510 C   0  0  1  0  0  0  0  0  0  0  0  0
   -3.1257    1.9622    4.8443 O   0  0  0  0  0  0  0  0  0  0  0  0
   -3.4458    5.1323    6.5737 C   0  0  1  0  0  0  0  0  0  0  0  0
   -3.4368    4.2739    5.3864 O   0  0  0  0  0  0  0  0  0  0  0  0
   -4.4452    6.2972    6.3543 C   0  0  0  0  0  0  0  0  0  0  0  0
   -8.6005    0.5371   -4.3549 N   0  3  0  0  0  0  0  0  0  0  0  0
   -1.2520    0.9757    3.0565 O   0  0  0  0  0  0  0  0  0  0  0  0
   -2.2890    2.9148    9.1467 O   0  0  0  0  0  0  0  0  0  0  0  0
   -5.1713    3.9061    7.8096 O   0  0  0  0  0  0  0  0  0  0  0  0
   -6.0977    0.2591    4.4377 O   0  0  0  0  0  0  0  0  0  0  0  0
   -2.2308    0.5075   -1.2521 O   0  0  0  0  0  0  0  0  0  0  0  0
   -4.1281    7.1086    5.1648 N   0  3  0  0  0  0  0  0  0  0  0  0
   -1.0888    1.6317    6.8373 N   0  3  0  0  0  0  0  0  0  0  0  0
  1  2  1  1  0  0  0
  1  3  1  0  0  0  0
  1 10  1  0  0  0  0
  3  4  1  1  0  0  0
  3  5  1  0  0  0  0
  5  6  1  6  0  0  0
  5  7  1  0  0  0  0
  7  8  1  1  0  0  0
  7  9  1  0  0  0  0
  9 10  1  0  0  0  0
  9 11  1  6  0  0  0
 11 35  1  0  0  0  0
 12 13  1  1  0  0  0
 12 14  1  0  0  0  0
 12 20  1  0  0  0  0
 14 15  1  0  0  0  0
 14 40  1  6  0  0  0
 15 16  1  1  0  0  0
 15 17  1  0  0  0  0
 17  2  1  6  0  0  0
 17 18  1  0  0  0  0
 18 19  1  1  0  0  0
 18 20  1  0  0  0  0
 21 16  1  1  0  0  0
 21 22  1  0  0  0  0
 21 25  1  0  0  0  0
 22 23  1  0  0  0  0
 22 36  1  1  0  0  0
 23 24  1  0  0  0  0
 23 31  1  1  0  0  0
 24 25  1  0  0  0  0
 24 26  1  6  0  0  0
 26 39  1  0  0  0  0
 27 28  1  0  0  0  0
 27 32  1  0  0  0  0
 27 38  1  6  0  0  0
 28 29  1  0  0  0  0
 28 37  1  1  0  0  0
 29 30  1  0  0  0  0
 29 42  1  6  0  0  0
 30 31  1  1  0  0  0
 30 33  1  0  0  0  0
 32 33  1  0  0  0  0
 32 34  1  6  0  0  0
 34 41  1  0  0  0  0
M  CHG  6   4   1  13   1  19   1  35   1  41   1  42   1
M  END
>  <CHROM.1>
176.60448270,-77.17073311,-27.84225635,65.15768200,67.74149047,-72.46455264
86.97311897,-170.56722200,77.54810127,-47.98559657,160.52788315,58.86551145
-174.09577616,67.33692290,-91.53948976,61.60765114,-44.80747527,-53.34599854
-146.34749794,-165.56315438,-179.88266644,-38.71001970,-4.60875851,2.63630303
1.55212862,1.89344359,0.10289159,-1.72120654

>  <Name>


>  <RI>
0

>  <Rbt.Current_Directory>
/home/itssahil/PROJECTS/Mol_Feturizer/New_Systems/rnas/1ei2

>  <Rbt.Executable>
rbdock ($Id: //depot/dev/client3/rdock/2013.1/src/exe/rbdock.cxx#4 $)

>  <Rbt.Library>
libRbt.so (2013.1, Build901 2013/11/27)

>  <Rbt.Parameter_File>
/export/apps/rDock/src/rDock_2013.1_src/data/scripts/dock_solv.prm

>  <Rbt.Receptor>
prm/pocket_docking_8.prm

>  <SCORE>
-59.1815

>  <SCORE.INTER>
-38.7361

>  <SCORE.INTER.CONST>
1

>  <SCORE.INTER.POLAR>
-6.89177

>  <SCORE.INTER.ROT>
9

>  <SCORE.INTER.SOLV>
26.1487

>  <SCORE.INTER.VDW>
-21.1677

>  <SCORE.INTER.norm>
-0.922287

>  <SCORE.INTRA>
-20.4454

>  <SCORE.INTRA.DIHEDRAL>
-20.9403

>  <SCORE.INTRA.DIHEDRAL.0>
40.8761

>  <SCORE.INTRA.POLAR>
-0.400822

>  <SCORE.INTRA.POLAR.0>
-0.0268208

>  <SCORE.INTRA.REPUL>
-0.641615

>  <SCORE.INTRA.REPUL.0>
0.641615

>  <SCORE.INTRA.SOLV>
-13.9395

>  <SCORE.INTRA.SOLV.lig_0>
-162.567

>  <SCORE.INTRA.VDW>
1.5654

>  <SCORE.INTRA.VDW.0>
-4.80338

>  <SCORE.INTRA.norm>
-0.486796

>  <SCORE.RESTR>
0

>  <SCORE.RESTR.CAVITY>
0

>  <SCORE.RESTR.norm>
0

>  <SCORE.SYSTEM>
0

>  <SCORE.SYSTEM.CONST>
0

>  <SCORE.SYSTEM.DIHEDRAL>
0

>  <SCORE.SYSTEM.SOLV>
0

>  <SCORE.SYSTEM.norm>
0

>  <SCORE.heavy>
42

>  <SCORE.norm>
-1.40908

>  <RMSD>
7.671

$$$$

 OpenBabel11021811393D
libRbt.so/2013.1/901 2013/11/27
 42 45  0  0  0  0  0  0  0  0999 V2000
   -6.5711    3.2586   -2.3022 C   0  0  2  0  0  0  0  0  0  0  0  0
   -7.6226    3.8623   -1.4876 O   0  0  0  0  0  0  0  0  0  0  0  0
   -5.8119    2.1361   -1.5227 C   0  0  2  0  0  0  0  0  0  0  0  0
   -6.5508    1.7171   -0.3097 N   0  3  0  0  0  0  0  0  0  0  0  0
   -4.3714    2.6015   -1.1520 C   0  0  1  0  0  0  0  0  0  0  0  0
   -3.6858    1.5663   -0.4508 O   0  0  0  0  0  0  0  0  0  0  0  0
   -3.5441    2.9744   -2.4113 C   0  0  2  0  0  0  0  0  0  0  0  0
   -2.3650    3.6559   -1.9982 O   0  0  0  0  0  0  0  0  0  0  0  0
   -4.3698    3.8751   -3.3862 C   0  0  2  0  0  0  0  0  0  0  0  0
   -5.6237    4.2872   -2.7512 O   0  0  0  0  0  0  0  0  0  0  0  0
   -4.7571    3.1919   -4.7180 C   0  0  0  0  0  0  0  0  0  0  0  0
   -9.0533    6.4908   -4.5962 C   0  0  1  0  0  0  0  0  0  0  0  0
   -9.8766    7.4348   -5.3846 N   0  3  0  0  0  0  0  0  0  0  0  0
   -8.4660    7.1679   -3.3302 C   0  0  1  0  0  0  0  0  0  0  0  0
   -7.7089    6.1783   -2.3776 C   0  0  1  0  0  0  0  0  0  0  0  0
   -7.4982    6.8459   -1.1045 O   0  0  0  0  0  0  0  0  0  0  0  0
   -8.5082    4.8539   -2.0924 C   0  0  1  0  0  0  0  0  0  0  0  0
   -9.0998    4.2337   -3.3995 C   0  0  1  0  0  0  0  0  0  0  0  0
   -9.9730    3.0761   -3.1179 N   0  3  0  0  0  0  0  0  0  0  0  0
   -9.9122    5.2687   -4.2099 C   0  0  0  0  0  0  0  0  0  0  0  0
   -8.4907    6.7063   -0.0471 C   0  0  1  0  0  0  0  0  0  0  0  0
   -7.9971    5.6618    0.9471 C   0  0  1  0  0  0  0  0  0  0  0  0
   -7.0245    6.5062    1.7592 C   0  0  1  0  0  0  0  0  0  0  0  0
   -7.7981    7.8253    1.8959 C   0  0  2  0  0  0  0  0  0  0  0  0
   -8.5963    7.9335    0.6930 O   0  0  0  0  0  0  0  0  0  0  0  0
   -6.8779    9.0515    2.0333 C   0  0  0  0  0  0  0  0  0  0  0  0
   -3.2562    4.5599    3.9204 C   0  0  1  0  0  0  0  0  0  0  0  0
   -4.4173    4.7576    4.9344 C   0  0  1  0  0  0  0  0  0  0  0  0
   -5.7645    4.1183    4.4901 C   0  0  2  0  0  0  0  0  0  0  0  0
   -6.1567    4.5734    3.0475 C   0  0  1  0  0  0  0  0  0  0  0  0
   -6.7469    5.9041    3.0563 O   0  0  0  0  0  0  0  0  0  0  0  0
   -3.7704    3.8823    2.6139 C   0  0  1  0  0  0  0  0  0  0  0  0
   -4.9792    4.5673    2.1491 O   0  0  0  0  0  0  0  0  0  0  0  0
   -2.7096    3.8943    1.4832 C   0  0  0  0  0  0  0  0  0  0  0  0
   -4.0390    3.7056   -5.8977 N   0  3  0  0  0  0  0  0  0  0  0  0
   -9.0871    5.2037    1.7475 O   0  0  0  0  0  0  0  0  0  0  0  0
   -4.0291    4.1804    6.1805 O   0  0  0  0  0  0  0  0  0  0  0  0
   -2.6933    5.8396    3.6229 O   0  0  0  0  0  0  0  0  0  0  0  0
   -7.6362   10.2337    2.2229 O   0  0  0  0  0  0  0  0  0  0  0  0
   -7.5587    8.1920   -3.7368 O   0  0  0  0  0  0  0  0  0  0  0  0
   -2.7537    5.1224    0.6684 N   0  3  0  0  0  0  0  0  0  0  0  0
   -6.8387    4.3741    5.4814 N   0  3  0  0  0  0  0  0  0  0  0  0
  1  2  1  1  0  0  0
  1  3  1  0  0  0  0
  1 10  1  0  0  0  0
  3  4  1  1  0  0  0
  3  5  1  0  0  0  0
  5  6  1  6  0  0  0
  5  7  1  0  0  0  0
  7  8  1  1  0  0  0
  7  9  1  0  0  0  0
  9 10  1  0  0  0  0
  9 11  1  6  0  0  0
 11 35  1  0  0  0  0
 12 13  1  1  0  0  0
 12 14  1  0  0  0  0
 12 20  1  0  0  0  0
 14 15  1  0  0  0  0
 14 40  1  6  0  0  0
 15 16  1  1  0  0  0
 15 17  1  0  0  0  0
 17  2  1  6  0  0  0
 17 18  1  0  0  0  0
 18 19  1  1  0  0  0
 18 20  1  0  0  0  0
 21 16  1  6  0  0  0
 21 22  1  0  0  0  0
 21 25  1  0  0  0  0
 22 23  1  0  0  0  0
 22 36  1  1  0  0  0
 23 24  1  0  0  0  0
 23 31  1  1  0  0  0
 24 25  1  0  0  0  0
 24 26  1  6  0  0  0
 26 39  1  0  0  0  0
 27 28  1  0  0  0  0
 27 32  1  0  0  0  0
 27 38  1  6  0  0  0
 28 29  1  0  0  0  0
 28 37  1  1  0  0  0
 29 30  1  0  0  0  0
 29 42  1  1  0  0  0
 30 31  1  1  0  0  0
 30 33  1  0  0  0  0
 32 33  1  0  0  0  0
 32 34  1  6  0  0  0
 34 41  1  0  0  0  0
M  CHG  6   4   1  13   1  19   1  35   1  41   1  42   1
M  END
>  <CHROM.1>
-174.98109028,-69.82926431,-62.03072183,58.95398899,179.50269722,-109.11035728
176.24826088,61.95242398,-179.54485275,91.27401158,100.24210643,-139.63955812
178.47670225,59.91650359,-177.09270614,-176.87797697,-56.72000770,169.91189042
53.95573546,173.56392693,-87.46790269,-150.92308489,-6.28564085,5.04740281
-0.19752836,-2.04525958,-0.69259973,1.28032123

>  <Name>


>  <RI>
0

>  <Rbt.Current_Directory>
/home/itssahil/PROJECTS/Mol_Feturizer/New_Systems/rnas/1ei2

>  <Rbt.Executable>
rbdock ($Id: //depot/dev/client3/rdock/2013.1/src/exe/rbdock.cxx#4 $)

>  <Rbt.Library>
libRbt.so (2013.1, Build901 2013/11/27)

>  <Rbt.Parameter_File>
/export/apps/rDock/src/rDock_2013.1_src/data/scripts/dock_solv.prm

>  <Rbt.Receptor>
prm/pocket_docking_5.prm

>  <SCORE>
-37.9282

>  <SCORE.INTER>
-17.1249

>  <SCORE.INTER.CONST>
1

>  <SCORE.INTER.POLAR>
-3.94565

>  <SCORE.INTER.ROT>
9

>  <SCORE.INTER.SOLV>
17.4503

>  <SCORE.INTER.VDW>
-13.6812

>  <SCORE.INTER.norm>
-0.407737

>  <SCORE.INTRA>
-20.8033

>  <SCORE.INTRA.DIHEDRAL>
-17.4799

>  <SCORE.INTRA.DIHEDRAL.0>
40.8761

>  <SCORE.INTRA.POLAR>
-1.41762

>  <SCORE.INTRA.POLAR.0>
-0.0268208

>  <SCORE.INTRA.REPUL>
-0.641615

>  <SCORE.INTRA.REPUL.0>
0.641615

>  <SCORE.INTRA.SOLV>
-7.71763

>  <SCORE.INTRA.SOLV.lig_0>
-162.567

>  <SCORE.INTRA.VDW>
-0.17652

>  <SCORE.INTRA.VDW.0>
-4.80338

>  <SCORE.INTRA.norm>
-0.495316

>  <SCORE.RESTR>
0

>  <SCORE.RESTR.CAVITY>
0

>  <SCORE.RESTR.norm>
0

>  <SCORE.SYSTEM>
0

>  <SCORE.SYSTEM.CONST>
0

>  <SCORE.SYSTEM.DIHEDRAL>
0

>  <SCORE.SYSTEM.SOLV>
0

>  <SCORE.SYSTEM.norm>
0

>  <SCORE.heavy>
42

>  <SCORE.norm>
-0.903053

>  <RMSD>
7.675

$$$$

 OpenBabel11021811393D
libRbt.so/2013.1/901 2013/11/27
 42 45  0  0  0  0  0  0  0  0999 V2000
   -3.0142    4.2513   -4.5044 C   0  0  2  0  0  0  0  0  0  0  0  0
   -1.9199    3.8933   -3.6056 O   0  0  0  0  0  0  0  0  0  0  0  0
   -3.8034    5.4961   -3.9833 C   0  0  2  0  0  0  0  0  0  0  0  0
   -3.0564    6.2134   -2.9248 N   0  3  0  0  0  0  0  0  0  0  0  0
   -5.2139    5.0777   -3.4692 C   0  0  1  0  0  0  0  0  0  0  0  0
   -5.9277    6.2221   -3.0063 O   0  0  0  0  0  0  0  0  0  0  0  0
   -6.0523    4.3912   -4.5807 C   0  0  2  0  0  0  0  0  0  0  0  0
   -7.1915    3.7821   -3.9834 O   0  0  0  0  0  0  0  0  0  0  0  0
   -5.2106    3.3187   -5.3454 C   0  0  2  0  0  0  0  0  0  0  0  0
   -3.9263    3.1123   -4.6720 O   0  0  0  0  0  0  0  0  0  0  0  0
   -4.8828    3.6859   -6.8109 C   0  0  0  0  0  0  0  0  0  0  0  0
   -3.7993    0.3250   -2.0709 C   0  0  1  0  0  0  0  0  0  0  0  0
   -4.0812   -0.9088   -1.3037 N   0  3  0  0  0  0  0  0  0  0  0  0
   -3.8551    1.5835   -1.1657 C   0  0  1  0  0  0  0  0  0  0  0  0
   -3.4176    2.9037   -1.8906 C   0  0  1  0  0  0  0  0  0  0  0  0
   -3.1998    3.9252   -0.8807 O   0  0  0  0  0  0  0  0  0  0  0  0
   -2.0824    2.7523   -2.7082 C   0  0  1  0  0  0  0  0  0  0  0  0
   -2.0720    1.4537   -3.5780 C   0  0  1  0  0  0  0  0  0  0  0  0
   -0.7647    1.2330   -4.2292 N   0  3  0  0  0  0  0  0  0  0  0  0
   -2.4160    0.2000   -2.7427 C   0  0  0  0  0  0  0  0  0  0  0  0
   -2.3134    3.6481    0.2420 C   0  0  1  0  0  0  0  0  0  0  0  0
   -1.6418    4.9499    0.6629 C   0  0  1  0  0  0  0  0  0  0  0  0
   -2.7569    5.5674    1.4958 C   0  0  1  0  0  0  0  0  0  0  0  0
   -3.2859    4.3457    2.2605 C   0  0  2  0  0  0  0  0  0  0  0  0
   -3.0798    3.2165    1.3783 O   0  0  0  0  0  0  0  0  0  0  0  0
   -4.7755    4.4650    2.6295 C   0  0  0  0  0  0  0  0  0  0  0  0
   -3.2151    9.2396    5.0032 C   0  0  1  0  0  0  0  0  0  0  0  0
   -1.8214    9.1146    4.3269 C   0  0  1  0  0  0  0  0  0  0  0  0
   -1.8744    9.0267    2.7743 C   0  0  2  0  0  0  0  0  0  0  0  0
   -2.8605    7.9088    2.3054 C   0  0  1  0  0  0  0  0  0  0  0  0
   -2.2472    6.5918    2.3973 O   0  0  0  0  0  0  0  0  0  0  0  0
   -4.3567    9.0974    3.9512 C   0  0  1  0  0  0  0  0  0  0  0  0
   -4.1045    7.9253    3.1090 O   0  0  0  0  0  0  0  0  0  0  0  0
   -5.7546    8.9630    4.6084 C   0  0  0  0  0  0  0  0  0  0  0  0
   -4.0711    2.6835   -7.5234 N   0  3  0  0  0  0  0  0  0  0  0  0
   -0.4910    4.6644    1.4584 O   0  0  0  0  0  0  0  0  0  0  0  0
   -1.0410   10.2523    4.6916 O   0  0  0  0  0  0  0  0  0  0  0  0
   -3.3292    8.2169    5.9952 O   0  0  0  0  0  0  0  0  0  0  0  0
   -5.1890    3.3664    3.4237 O   0  0  0  0  0  0  0  0  0  0  0  0
   -5.1906    1.7470   -0.6893 O   0  0  0  0  0  0  0  0  0  0  0  0
   -6.6737   10.0517    4.2290 N   0  3  0  0  0  0  0  0  0  0  0  0
   -0.5176    8.8716    2.1936 N   0  3  0  0  0  0  0  0  0  0  0  0
  1  2  1  1  0  0  0
  1  3  1  0  0  0  0
  1 10  1  0  0  0  0
  3  4  1  1  0  0  0
  3  5  1  0  0  0  0
  5  6  1  6  0  0  0
  5  7  1  0  0  0  0
  7  8  1  1  0  0  0
  7  9  1  0  0  0  0
  9 10  1  0  0  0  0
  9 11  1  6  0  0  0
 11 35  1  0  0  0  0
 12 13  1  1  0  0  0
 12 14  1  0  0  0  0
 12 20  1  0  0  0  0
 14 15  1  0  0  0  0
 14 40  1  6  0  0  0
 15 16  1  1  0  0  0
 15 17  1  0  0  0  0
 17  2  1  6  0  0  0
 17 18  1  0  0  0  0
 18 19  1  1  0  0  0
 18 20  1  0  0  0  0
 21 16  1  6  0  0  0
 21 22  1  0  0  0  0
 21 25  1  0  0  0  0
 22 23  1  0  0  0  0
 22 36  1  1  0  0  0
 23 24  1  0  0  0  0
 23 31  1  1  0  0  0
 24 25  1  0  0  0  0
 24 26  1  6  0  0  0
 26 39  1  0  0  0  0
 27 28  1  0  0  0  0
 27 32  1  0  0  0  0
 27 38  1  1  0  0  0
 28 29  1  0  0  0  0
 28 37  1  6  0  0  0
 29 30  1  0  0  0  0
 29 42  1  1  0  0  0
 30 31  1  1  0  0  0
 30 33  1  0  0  0  0
 32 33  1  0  0  0  0
 32 34  1  1  0  0  0
 34 41  1  0  0  0  0
M  CHG  6   4   1  13   1  19   1  35   1  41   1  42   1
M  END
>  <CHROM.1>
102.94604658,-52.16776906,-72.48182248,61.86843957,71.92337363,179.07402499
24.31036853,176.88098675,-57.19370465,52.72121759,148.28716247,52.95582815
71.98387040,124.93463499,-175.33145273,-173.27489815,173.27948859,62.70598734
-59.28163806,-153.74958506,119.11181602,178.63540054,-3.49633259,4.93284287
-0.37399940,1.70669606,1.11502716,-2.31973919

>  <Name>


>  <RI>
0

>  <Rbt.Current_Directory>
/home/itssahil/PROJECTS/Mol_Feturizer/New_Systems/rnas/1ei2

>  <Rbt.Executable>
rbdock ($Id: //depot/dev/client3/rdock/2013.1/src/exe/rbdock.cxx#4 $)

>  <Rbt.Library>
libRbt.so (2013.1, Build901 2013/11/27)

>  <Rbt.Parameter_File>
/export/apps/rDock/src/rDock_2013.1_src/data/scripts/dock_solv.prm

>  <Rbt.Receptor>
prm/pocket_docking_8.prm

>  <SCORE>
-58.7643

>  <SCORE.INTER>
-39.6279

>  <SCORE.INTER.CONST>
1

>  <SCORE.INTER.POLAR>
-6.21164

>  <SCORE.INTER.ROT>
9

>  <SCORE.INTER.SOLV>
33.0839

>  <SCORE.INTER.VDW>
-26.3411

>  <SCORE.INTER.norm>
-0.943521

>  <SCORE.INTRA>
-19.1364

>  <SCORE.INTRA.DIHEDRAL>
-10.2364

>  <SCORE.INTRA.DIHEDRAL.0>
40.8761

>  <SCORE.INTRA.POLAR>
-1.13985

>  <SCORE.INTRA.POLAR.0>
-0.0268208

>  <SCORE.INTRA.REPUL>
-0.641615

>  <SCORE.INTRA.REPUL.0>
0.641615

>  <SCORE.INTRA.SOLV>
-12.4686

>  <SCORE.INTRA.SOLV.lig_0>
-162.567

>  <SCORE.INTRA.VDW>
-0.700398

>  <SCORE.INTRA.VDW.0>
-4.80338

>  <SCORE.INTRA.norm>
-0.455629

>  <SCORE.RESTR>
0

>  <SCORE.RESTR.CAVITY>
0

>  <SCORE.RESTR.norm>
0

>  <SCORE.SYSTEM>
0

>  <SCORE.SYSTEM.CONST>
0

>  <SCORE.SYSTEM.DIHEDRAL>
0

>  <SCORE.SYSTEM.SOLV>
0

>  <SCORE.SYSTEM.norm>
0

>  <SCORE.heavy>
42

>  <SCORE.norm>
-1.39915

>  <RMSD>
7.679

$$$$

 OpenBabel11021811393D
libRbt.so/2013.1/901 2013/11/27
 42 45  0  0  0  0  0  0  0  0999 V2000
   -5.5517    3.4148   -5.1555 C   0  0  2  0  0  0  0  0  0  0  0  0
   -5.2247    4.2395   -3.9951 O   0  0  0  0  0  0  0  0  0  0  0  0
   -6.7193    4.0334   -5.9909 C   0  0  2  0  0  0  0  0  0  0  0  0
   -6.9669    5.4461   -5.6221 N   0  3  0  0  0  0  0  0  0  0  0  0
   -8.0196    3.1898   -5.8278 C   0  0  1  0  0  0  0  0  0  0  0  0
   -9.0740    3.7576   -6.6018 O   0  0  0  0  0  0  0  0  0  0  0  0
   -7.8133    1.7195   -6.2806 C   0  0  2  0  0  0  0  0  0  0  0  0
   -8.9245    0.9460   -5.8415 O   0  0  0  0  0  0  0  0  0  0  0  0
   -6.4870    1.1284   -5.7018 C   0  0  2  0  0  0  0  0  0  0  0  0
   -5.9054    2.0549   -4.7279 O   0  0  0  0  0  0  0  0  0  0  0  0
   -5.3907    0.8579   -6.7579 C   0  0  0  0  0  0  0  0  0  0  0  0
   -2.0298    1.7387   -2.5260 C   0  0  1  0  0  0  0  0  0  0  0  0
   -0.8011    1.2600   -1.8539 N   0  3  0  0  0  0  0  0  0  0  0  0
   -3.1160    2.1525   -1.4989 C   0  0  1  0  0  0  0  0  0  0  0  0
   -4.3837    2.8084   -2.1490 C   0  0  1  0  0  0  0  0  0  0  0  0
   -5.1611    3.4363   -1.0943 O   0  0  0  0  0  0  0  0  0  0  0  0
   -4.0369    3.9186   -3.2079 C   0  0  1  0  0  0  0  0  0  0  0  0
   -2.9179    3.4563   -4.1963 C   0  0  1  0  0  0  0  0  0  0  0  0
   -2.4866    4.5465   -5.0948 N   0  3  0  0  0  0  0  0  0  0  0  0
   -1.6750    2.9235   -3.4485 C   0  0  0  0  0  0  0  0  0  0  0  0
   -5.8388    2.6042   -0.1087 C   0  0  1  0  0  0  0  0  0  0  0  0
   -5.4234    3.0650    1.2834 C   0  0  1  0  0  0  0  0  0  0  0  0
   -6.3362    4.2726    1.4474 C   0  0  1  0  0  0  0  0  0  0  0  0
   -7.6493    3.7531    0.8448 C   0  0  2  0  0  0  0  0  0  0  0  0
   -7.2587    2.8118   -0.1834 O   0  0  0  0  0  0  0  0  0  0  0  0
   -8.5171    4.8704    0.2384 C   0  0  0  0  0  0  0  0  0  0  0  0
   -5.3100    7.5622    5.0404 C   0  0  1  0  0  0  0  0  0  0  0  0
   -6.1395    6.3460    5.5384 C   0  0  1  0  0  0  0  0  0  0  0  0
   -5.5486    4.9650    5.1323 C   0  0  2  0  0  0  0  0  0  0  0  0
   -5.2694    4.9000    3.5962 C   0  0  1  0  0  0  0  0  0  0  0  0
   -6.4912    4.6401    2.8485 O   0  0  0  0  0  0  0  0  0  0  0  0
   -4.1453    7.0973    4.1142 C   0  0  1  0  0  0  0  0  0  0  0  0
   -4.6595    6.1601    3.1123 O   0  0  0  0  0  0  0  0  0  0  0  0
   -3.4503    8.2826    3.3958 C   0  0  0  0  0  0  0  0  0  0  0  0
   -5.6803   -0.2691   -7.6619 N   0  3  0  0  0  0  0  0  0  0  0  0
   -5.7245    2.0477    2.2388 O   0  0  0  0  0  0  0  0  0  0  0  0
   -6.2164    6.4069    6.9620 O   0  0  0  0  0  0  0  0  0  0  0  0
   -6.1824    8.4437    4.3298 O   0  0  0  0  0  0  0  0  0  0  0  0
   -9.8291    4.4041   -0.0260 O   0  0  0  0  0  0  0  0  0  0  0  0
   -3.5251    0.9941   -0.7722 O   0  0  0  0  0  0  0  0  0  0  0  0
   -4.4029    9.1787    2.7150 N   0  3  0  0  0  0  0  0  0  0  0  0
   -6.4050    3.8490    5.6048 N   0  3  0  0  0  0  0  0  0  0  0  0
  1  2  1  1  0  0  0
  1  3  1  0  0  0  0
  1 10  1  0  0  0  0
  3  4  1  1  0  0  0
  3  5  1  0  0  0  0
  5  6  1  6  0  0  0
  5  7  1  0  0  0  0
  7  8  1  1  0  0  0
  7  9  1  0  0  0  0
  9 10  1  0  0  0  0
  9 11  1  6  0  0  0
 11 35  1  0  0  0  0
 12 13  1  1  0  0  0
 12 14  1  0  0  0  0
 12 20  1  0  0  0  0
 14 15  1  0  0  0  0
 14 40  1  6  0  0  0
 15 16  1  1  0  0  0
 15 17  1  0  0  0  0
 17  2  1  6  0  0  0
 17 18  1  0  0  0  0
 18 19  1  1  0  0  0
 18 20  1  0  0  0  0
 21 16  1  6  0  0  0
 21 22  1  0  0  0  0
 21 25  1  0  0  0  0
 22 23  1  0  0  0  0
 22 36  1  1  0  0  0
 23 24  1  0  0  0  0
 23 31  1  1  0  0  0
 24 25  1  0  0  0  0
 24 26  1  6  0  0  0
 26 39  1  0  0  0  0
 27 28  1  0  0  0  0
 27 32  1  0  0  0  0
 27 38  1  6  0  0  0
 28 29  1  0  0  0  0
 28 37  1  1  0  0  0
 29 30  1  0  0  0  0
 29 42  1  6  0  0  0
 30 31  1  6  0  0  0
 30 33  1  0  0  0  0
 32 33  1  0  0  0  0
 32 34  1  6  0  0  0
 34 41  1  0  0  0  0
M  CHG  6   4   1  13   1  19   1  35   1  41   1  42   1
M  END
>  <CHROM.1>
-171.37500000,-84.57969955,58.99131117,-172.11218042,-52.17439761,-70.51893140
-37.46416078,-172.47857829,-56.46327424,-68.91579461,126.52821858,64.93804034
52.80879342,55.41808274,-166.70524427,58.02318783,-44.97276502,70.53293529
-175.58242641,-167.27045307,-50.78686229,-84.16621413,-5.57345445,3.89364501
-0.89975279,1.59764037,0.17454699,-1.95547850

>  <Name>


>  <RI>
0

>  <Rbt.Current_Directory>
/home/itssahil/PROJECTS/Mol_Feturizer/New_Systems/rnas/1ei2

>  <Rbt.Executable>
rbdock ($Id: //depot/dev/client3/rdock/2013.1/src/exe/rbdock.cxx#4 $)

>  <Rbt.Library>
libRbt.so (2013.1, Build901 2013/11/27)

>  <Rbt.Parameter_File>
/export/apps/rDock/src/rDock_2013.1_src/data/scripts/dock_solv.prm

>  <Rbt.Receptor>
prm/pocket_docking_6.prm

>  <SCORE>
-61.8666

>  <SCORE.INTER>
-41.4152

>  <SCORE.INTER.CONST>
1

>  <SCORE.INTER.POLAR>
-7.85718

>  <SCORE.INTER.ROT>
9

>  <SCORE.INTER.SOLV>
34.0642

>  <SCORE.INTER.VDW>
-22.3743

>  <SCORE.INTER.norm>
-0.986076

>  <SCORE.INTRA>
-20.4513

>  <SCORE.INTRA.DIHEDRAL>
-22.3541

>  <SCORE.INTRA.DIHEDRAL.0>
40.8761

>  <SCORE.INTRA.POLAR>
-0.780499

>  <SCORE.INTRA.POLAR.0>
-0.0268208

>  <SCORE.INTRA.REPUL>
-0.641615

>  <SCORE.INTRA.REPUL.0>
0.641615

>  <SCORE.INTRA.SOLV>
-10.56

>  <SCORE.INTRA.SOLV.lig_0>
-162.567

>  <SCORE.INTRA.VDW>
1.86749

>  <SCORE.INTRA.VDW.0>
-4.80338

>  <SCORE.INTRA.norm>
-0.486937

>  <SCORE.RESTR>
0

>  <SCORE.RESTR.CAVITY>
0

>  <SCORE.RESTR.norm>
0

>  <SCORE.SYSTEM>
0

>  <SCORE.SYSTEM.CONST>
0

>  <SCORE.SYSTEM.DIHEDRAL>
0

>  <SCORE.SYSTEM.SOLV>
0

>  <SCORE.SYSTEM.norm>
0

>  <SCORE.heavy>
42

>  <SCORE.norm>
-1.47301

>  <RMSD>
7.695

$$$$

 OpenBabel11021811393D
libRbt.so/2013.1/901 2013/11/27
 42 45  0  0  0  0  0  0  0  0999 V2000
   -3.4654    3.3688   -4.1144 C   0  0  2  0  0  0  0  0  0  0  0  0
   -4.6676    3.9438   -4.7125 O   0  0  0  0  0  0  0  0  0  0  0  0
   -2.3891    3.0306   -5.1966 C   0  0  2  0  0  0  0  0  0  0  0  0
   -2.6902    3.6853   -6.4905 N   0  3  0  0  0  0  0  0  0  0  0  0
   -2.2599    1.4885   -5.3811 C   0  0  1  0  0  0  0  0  0  0  0  0
   -1.2688    1.1924   -6.3627 O   0  0  0  0  0  0  0  0  0  0  0  0
   -1.8679    0.7804   -4.0566 C   0  0  2  0  0  0  0  0  0  0  0  0
   -2.0497   -0.6220   -4.2171 O   0  0  0  0  0  0  0  0  0  0  0  0
   -2.7293    1.2988   -2.8597 C   0  0  2  0  0  0  0  0  0  0  0  0
   -3.8064    2.1615   -3.3507 O   0  0  0  0  0  0  0  0  0  0  0  0
   -1.9452    2.1278   -1.8166 C   0  0  0  0  0  0  0  0  0  0  0  0
   -6.7644    4.4183   -0.9711 C   0  0  1  0  0  0  0  0  0  0  0  0
   -7.7754    4.7710    0.0506 N   0  3  0  0  0  0  0  0  0  0  0  0
   -7.2774    3.3017   -1.9178 C   0  0  1  0  0  0  0  0  0  0  0  0
   -6.3093    2.9913   -3.1122 C   0  0  1  0  0  0  0  0  0  0  0  0
   -7.0309    2.1876   -4.0840 O   0  0  0  0  0  0  0  0  0  0  0  0
   -5.7972    4.2823   -3.8506 C   0  0  1  0  0  0  0  0  0  0  0  0
   -5.3210    5.3815   -2.8467 C   0  0  1  0  0  0  0  0  0  0  0  0
   -4.9807    6.6462   -3.5296 N   0  3  0  0  0  0  0  0  0  0  0  0
   -6.3916    5.6822   -1.7737 C   0  0  0  0  0  0  0  0  0  0  0  0
   -8.3966    2.5474   -4.4418 C   0  0  1  0  0  0  0  0  0  0  0  0
   -8.3744    3.9014   -5.1410 C   0  0  1  0  0  0  0  0  0  0  0  0
   -7.9566    3.4713   -6.5407 C   0  0  1  0  0  0  0  0  0  0  0  0
   -8.7785    2.1882   -6.7291 C   0  0  2  0  0  0  0  0  0  0  0  0
   -8.9136    1.6160   -5.4063 O   0  0  0  0  0  0  0  0  0  0  0  0
   -8.1085    1.1780   -7.6777 C   0  0  0  0  0  0  0  0  0  0  0  0
   -7.0051    4.1113  -11.1314 C   0  0  1  0  0  0  0  0  0  0  0  0
   -8.1007    5.1124  -10.6702 C   0  0  1  0  0  0  0  0  0  0  0  0
   -7.6966    5.9735   -9.4388 C   0  0  2  0  0  0  0  0  0  0  0  0
   -7.1851    5.0765   -8.2660 C   0  0  1  0  0  0  0  0  0  0  0  0
   -8.2941    4.4817   -7.5342 O   0  0  0  0  0  0  0  0  0  0  0  0
   -5.8016    4.1111  -10.1405 C   0  0  1  0  0  0  0  0  0  0  0  0
   -6.2976    4.0014   -8.7663 O   0  0  0  0  0  0  0  0  0  0  0  0
   -4.8058    2.9555  -10.4180 C   0  0  0  0  0  0  0  0  0  0  0  0
   -2.7456    2.5652   -0.6593 N   0  3  0  0  0  0  0  0  0  0  0  0
   -9.6846    4.4687   -5.1371 O   0  0  0  0  0  0  0  0  0  0  0  0
   -8.3981    5.9863  -11.7584 O   0  0  0  0  0  0  0  0  0  0  0  0
   -7.5854    2.8070  -11.2017 O   0  0  0  0  0  0  0  0  0  0  0  0
   -6.6987    1.2093   -7.5354 O   0  0  0  0  0  0  0  0  0  0  0  0
   -7.4624    2.1066   -1.1596 O   0  0  0  0  0  0  0  0  0  0  0  0
   -4.0435    3.1426  -11.6661 N   0  3  0  0  0  0  0  0  0  0  0  0
   -8.7971    6.8797   -9.0266 N   0  3  0  0  0  0  0  0  0  0  0  0
  1  2  1  6  0  0  0
  1  3  1  0  0  0  0
  1 10  1  0  0  0  0
  3  4  1  6  0  0  0
  3  5  1  0  0  0  0
  5  6  1  6  0  0  0
  5  7  1  0  0  0  0
  7  8  1  6  0  0  0
  7  9  1  0  0  0  0
  9 10  1  0  0  0  0
  9 11  1  1  0  0  0
 11 35  1  0  0  0  0
 12 13  1  1  0  0  0
 12 14  1  0  0  0  0
 12 20  1  0  0  0  0
 14 15  1  0  0  0  0
 14 40  1  1  0  0  0
 15 16  1  6  0  0  0
 15 17  1  0  0  0  0
 17  2  1  6  0  0  0
 17 18  1  0  0  0  0
 18 19  1  6  0  0  0
 18 20  1  0  0  0  0
 21 16  1  6  0  0  0
 21 22  1  0  0  0  0
 21 25  1  0  0  0  0
 22 23  1  0  0  0  0
 22 36  1  6  0  0  0
 23 24  1  0  0  0  0
 23 31  1  6  0  0  0
 24 25  1  0  0  0  0
 24 26  1  6  0  0  0
 26 39  1  0  0  0  0
 27 28  1  0  0  0  0
 27 32  1  0  0  0  0
 27 38  1  1  0  0  0
 28 29  1  0  0  0  0
 28 37  1  6  0  0  0
 29 30  1  0  0  0  0
 29 42  1  1  0  0  0
 30 31  1  6  0  0  0
 30 33  1  0  0  0  0
 32 33  1  0  0  0  0
 32 34  1  6  0  0  0
 34 41  1  0  0  0  0
M  CHG  6   4   1  13   1  19   1  35   1  41   1  42   1
M  END
>  <CHROM.1>
178.09516748,-59.93498736,-56.47917371,-61.57473544,55.25187051,-177.43585115
62.18601152,58.35391223,-58.58392398,44.00443550,64.97492412,-40.86986018
-57.28539213,118.02913430,35.18197966,-64.13513586,61.53584307,63.42589904
-177.30373659,171.33481478,70.25614483,-57.35169945,-5.90243635,3.37939616
-5.76640373,-1.17170253,0.44496709,-1.55549642

>  <Name>


>  <RI>
0

>  <Rbt.Current_Directory>
/home/itssahil/PROJECTS/Mol_Feturizer/New_Systems/rnas/1ei2

>  <Rbt.Executable>
rbdock ($Id: //depot/dev/client3/rdock/2013.1/src/exe/rbdock.cxx#4 $)

>  <Rbt.Library>
libRbt.so (2013.1, Build901 2013/11/27)

>  <Rbt.Parameter_File>
/export/apps/rDock/src/rDock_2013.1_src/data/scripts/dock_solv.prm

>  <Rbt.Receptor>
prm/pocket_docking_8.prm

>  <SCORE>
-52.4914

>  <SCORE.INTER>
-27.8688

>  <SCORE.INTER.CONST>
1

>  <SCORE.INTER.POLAR>
-4.85921

>  <SCORE.INTER.ROT>
9

>  <SCORE.INTER.SOLV>
21.6513

>  <SCORE.INTER.VDW>
-19.1989

>  <SCORE.INTER.norm>
-0.663543

>  <SCORE.INTRA>
-24.6225

>  <SCORE.INTRA.DIHEDRAL>
-27.6058

>  <SCORE.INTRA.DIHEDRAL.0>
40.8761

>  <SCORE.INTRA.POLAR>
-0.974792

>  <SCORE.INTRA.POLAR.0>
-0.0268208

>  <SCORE.INTRA.REPUL>
-0.630085

>  <SCORE.INTRA.REPUL.0>
0.641615

>  <SCORE.INTRA.SOLV>
-11.5476

>  <SCORE.INTRA.SOLV.lig_0>
-162.567

>  <SCORE.INTRA.VDW>
1.4189

>  <SCORE.INTRA.VDW.0>
-4.80338

>  <SCORE.INTRA.norm>
-0.586251

>  <SCORE.RESTR>
0

>  <SCORE.RESTR.CAVITY>
0

>  <SCORE.RESTR.norm>
0

>  <SCORE.SYSTEM>
0

>  <SCORE.SYSTEM.CONST>
0

>  <SCORE.SYSTEM.DIHEDRAL>
0

>  <SCORE.SYSTEM.SOLV>
0

>  <SCORE.SYSTEM.norm>
0

>  <SCORE.heavy>
42

>  <SCORE.norm>
-1.24979

>  <RMSD>
7.695

$$$$

 OpenBabel11021811393D
libRbt.so/2013.1/901 2013/11/27
 42 45  0  0  0  0  0  0  0  0999 V2000
   -3.9079    0.1857   -1.9849 C   0  0  2  0  0  0  0  0  0  0  0  0
   -2.8106    0.2168   -2.9485 O   0  0  0  0  0  0  0  0  0  0  0  0
   -4.2001   -1.2688   -1.4918 C   0  0  2  0  0  0  0  0  0  0  0  0
   -3.0953   -2.1941   -1.8330 N   0  3  0  0  0  0  0  0  0  0  0  0
   -5.5482   -1.7876   -2.0769 C   0  0  1  0  0  0  0  0  0  0  0  0
   -5.8088   -3.1104   -1.6123 O   0  0  0  0  0  0  0  0  0  0  0  0
   -6.7401   -0.8797   -1.6710 C   0  0  2  0  0  0  0  0  0  0  0  0
   -7.8713   -1.2308   -2.4601 O   0  0  0  0  0  0  0  0  0  0  0  0
   -6.3956    0.6318   -1.8711 C   0  0  2  0  0  0  0  0  0  0  0  0
   -5.1193    0.7685   -2.5765 O   0  0  0  0  0  0  0  0  0  0  0  0
   -6.2594    1.4379   -0.5589 C   0  0  0  0  0  0  0  0  0  0  0  0
   -3.1601    4.4296   -3.8147 C   0  0  1  0  0  0  0  0  0  0  0  0
   -2.8797    5.8095   -4.2703 N   0  3  0  0  0  0  0  0  0  0  0  0
   -3.3291    3.4581   -5.0122 C   0  0  1  0  0  0  0  0  0  0  0  0
   -3.4789    1.9549   -4.5905 C   0  0  1  0  0  0  0  0  0  0  0  0
   -3.3017    1.1317   -5.7745 O   0  0  0  0  0  0  0  0  0  0  0  0
   -2.4119    1.4962   -3.5296 C   0  0  1  0  0  0  0  0  0  0  0  0
   -2.2647    2.5266   -2.3636 C   0  0  1  0  0  0  0  0  0  0  0  0
   -1.1614    2.1731   -1.4473 N   0  3  0  0  0  0  0  0  0  0  0  0
   -2.0185    3.9585   -2.8899 C   0  0  0  0  0  0  0  0  0  0  0  0
   -4.3708    0.2342   -6.1921 C   0  0  1  0  0  0  0  0  0  0  0  0
   -3.9436   -0.4643   -7.4776 C   0  0  1  0  0  0  0  0  0  0  0  0
   -3.0451   -1.5514   -6.9039 C   0  0  1  0  0  0  0  0  0  0  0  0
   -3.8408   -1.9906   -5.6665 C   0  0  2  0  0  0  0  0  0  0  0  0
   -4.5457   -0.8082   -5.2186 O   0  0  0  0  0  0  0  0  0  0  0  0
   -2.9469   -2.5343   -4.5375 C   0  0  0  0  0  0  0  0  0  0  0  0
   -2.6968   -6.4356   -7.2505 C   0  0  1  0  0  0  0  0  0  0  0  0
   -2.6390   -5.7433   -8.6407 C   0  0  1  0  0  0  0  0  0  0  0  0
   -1.5910   -4.5972   -8.7365 C   0  0  2  0  0  0  0  0  0  0  0  0
   -1.7696   -3.5700   -7.5725 C   0  0  1  0  0  0  0  0  0  0  0  0
   -2.8612   -2.6467   -7.8466 O   0  0  0  0  0  0  0  0  0  0  0  0
   -1.7757   -5.7035   -6.2277 C   0  0  1  0  0  0  0  0  0  0  0  0
   -2.0255   -4.2610   -6.2877 O   0  0  0  0  0  0  0  0  0  0  0  0
   -1.9920   -6.1994   -4.7748 C   0  0  0  0  0  0  0  0  0  0  0  0
   -6.1103    0.6109    0.6515 N   0  3  0  0  0  0  0  0  0  0  0  0
   -5.0868   -1.0195   -8.1284 O   0  0  0  0  0  0  0  0  0  0  0  0
   -2.3243   -6.7306   -9.6219 O   0  0  0  0  0  0  0  0  0  0  0  0
   -4.0510   -6.4192   -6.7934 O   0  0  0  0  0  0  0  0  0  0  0  0
   -3.4058   -3.8000   -4.0947 O   0  0  0  0  0  0  0  0  0  0  0  0
   -4.4876    3.8405   -5.7531 O   0  0  0  0  0  0  0  0  0  0  0  0
   -1.8463   -7.6604   -4.6398 N   0  3  0  0  0  0  0  0  0  0  0  0
   -1.6120   -3.9541  -10.0738 N   0  3  0  0  0  0  0  0  0  0  0  0
  1  2  1  6  0  0  0
  1  3  1  0  0  0  0
  1 10  1  0  0  0  0
  3  4  1  6  0  0  0
  3  5  1  0  0  0  0
  5  6  1  1  0  0  0
  5  7  1  0  0  0  0
  7  8  1  6  0  0  0
  7  9  1  0  0  0  0
  9 10  1  0  0  0  0
  9 11  1  1  0  0  0
 11 35  1  0  0  0  0
 12 13  1  6  0  0  0
 12 14  1  0  0  0  0
 12 20  1  0  0  0  0
 14 15  1  0  0  0  0
 14 40  1  1  0  0  0
 15 16  1  6  0  0  0
 15 17  1  0  0  0  0
 17  2  1  1  0  0  0
 17 18  1  0  0  0  0
 18 19  1  1  0  0  0
 18 20  1  0  0  0  0
 21 16  1  1  0  0  0
 21 22  1  0  0  0  0
 21 25  1  0  0  0  0
 22 23  1  0  0  0  0
 22 36  1  1  0  0  0
 23 24  1  0  0  0  0
 23 31  1  6  0  0  0
 24 25  1  0  0  0  0
 24 26  1  1  0  0  0
 26 39  1  0  0  0  0
 27 28  1  0  0  0  0
 27 32  1  0  0  0  0
 27 38  1  1  0  0  0
 28 29  1  0  0  0  0
 28 37  1  6  0  0  0
 29 30  1  0  0  0  0
 29 42  1  6  0  0  0
 30 31  1  6  0  0  0
 30 33  1  0  0  0  0
 32 33  1  0  0  0  0
 32 34  1  1  0  0  0
 34 41  1  0  0  0  0
M  CHG  6   4   1  13   1  19   1  35   1  41   1  42   1
M  END
>  <CHROM.1>
179.20378113,-74.26480210,-2.59267593,-74.06842334,-172.91235538,15.79744899
-106.91233264,80.68540892,-55.16462853,-121.30274930,177.99943039,49.68511880
-47.13954613,164.64803873,-128.53096305,-41.42837723,77.84132143,-53.87958586
10.48574020,-173.87473286,54.40160670,-171.33364549,-3.60208610,-1.27325761
-4.67603646,2.03618101,1.15885112,0.13125630

>  <Name>


>  <RI>
0

>  <Rbt.Current_Directory>
/home/itssahil/PROJECTS/Mol_Feturizer/New_Systems/rnas/1ei2

>  <Rbt.Executable>
rbdock ($Id: //depot/dev/client3/rdock/2013.1/src/exe/rbdock.cxx#4 $)

>  <Rbt.Library>
libRbt.so (2013.1, Build901 2013/11/27)

>  <Rbt.Parameter_File>
/export/apps/rDock/src/rDock_2013.1_src/data/scripts/dock_solv.prm

>  <Rbt.Receptor>
prm/blind_docking_80.prm

>  <SCORE>
-11.9809

>  <SCORE.INTER>
-21.534

>  <SCORE.INTER.CONST>
1

>  <SCORE.INTER.POLAR>
-5.69501

>  <SCORE.INTER.ROT>
9

>  <SCORE.INTER.SOLV>
53.542

>  <SCORE.INTER.VDW>
-22.82

>  <SCORE.INTER.norm>
-0.512714

>  <SCORE.INTRA>
-2.98835

>  <SCORE.INTRA.DIHEDRAL>
-4.52275

>  <SCORE.INTRA.DIHEDRAL.0>
40.8761

>  <SCORE.INTRA.POLAR>
-0.41959

>  <SCORE.INTRA.POLAR.0>
-0.0268208

>  <SCORE.INTRA.REPUL>
-0.638759

>  <SCORE.INTRA.REPUL.0>
0.641615

>  <SCORE.INTRA.SOLV>
-3.77524

>  <SCORE.INTRA.SOLV.lig_0>
-162.567

>  <SCORE.INTRA.VDW>
5.78105

>  <SCORE.INTRA.VDW.0>
-4.80338

>  <SCORE.INTRA.norm>
-0.0711511

>  <SCORE.RESTR>
12.5414

>  <SCORE.RESTR.CAVITY>
12.5414

>  <SCORE.RESTR.norm>
0.298605

>  <SCORE.SYSTEM>
0

>  <SCORE.SYSTEM.CONST>
0

>  <SCORE.SYSTEM.DIHEDRAL>
0

>  <SCORE.SYSTEM.SOLV>
0

>  <SCORE.SYSTEM.norm>
0

>  <SCORE.heavy>
42

>  <SCORE.norm>
-0.28526

>  <RMSD>
7.706

$$$$

 OpenBabel11021811393D
libRbt.so/2013.1/901 2013/11/27
 42 45  0  0  0  0  0  0  0  0999 V2000
   -4.6153    1.4296   -6.5731 C   0  0  2  0  0  0  0  0  0  0  0  0
   -3.4969    1.4594   -5.6340 O   0  0  0  0  0  0  0  0  0  0  0  0
   -4.8755    2.8363   -7.2034 C   0  0  2  0  0  0  0  0  0  0  0  0
   -3.7358    3.7550   -6.9798 N   0  3  0  0  0  0  0  0  0  0  0  0
   -6.1933    3.4539   -6.6458 C   0  0  1  0  0  0  0  0  0  0  0  0
   -6.4251    4.7315   -7.2352 O   0  0  0  0  0  0  0  0  0  0  0  0
   -7.4210    2.5489   -6.9337 C   0  0  2  0  0  0  0  0  0  0  0  0
   -8.5222    3.0131   -6.1607 O   0  0  0  0  0  0  0  0  0  0  0  0
   -7.1173    1.0545   -6.5901 C   0  0  2  0  0  0  0  0  0  0  0  0
   -5.8292    0.9479   -5.9011 O   0  0  0  0  0  0  0  0  0  0  0  0
   -7.0365    0.1177   -7.8173 C   0  0  0  0  0  0  0  0  0  0  0  0
   -3.1563   -2.8302   -5.3121 C   0  0  1  0  0  0  0  0  0  0  0  0
   -2.6946   -4.1914   -4.9596 N   0  3  0  0  0  0  0  0  0  0  0  0
   -3.7245   -2.0841   -4.0766 C   0  0  1  0  0  0  0  0  0  0  0  0
   -4.0906   -0.5849   -4.3565 C   0  0  1  0  0  0  0  0  0  0  0  0
   -4.2936    0.0786   -3.0800 O   0  0  0  0  0  0  0  0  0  0  0  0
   -2.9636    0.1986   -5.1247 C   0  0  1  0  0  0  0  0  0  0  0  0
   -2.4102   -0.6132   -6.3403 C   0  0  1  0  0  0  0  0  0  0  0  0
   -1.2531    0.0535   -6.9716 N   0  3  0  0  0  0  0  0  0  0  0  0
   -1.9839   -2.0411   -5.9314 C   0  0  0  0  0  0  0  0  0  0  0  0
   -5.3878   -0.3447   -2.2162 C   0  0  1  0  0  0  0  0  0  0  0  0
   -5.1382    0.1996   -0.8146 C   0  0  1  0  0  0  0  0  0  0  0  0
   -5.6277    1.6302   -0.9936 C   0  0  1  0  0  0  0  0  0  0  0  0
   -6.8868    1.4227   -1.8473 C   0  0  2  0  0  0  0  0  0  0  0  0
   -6.6194    0.2516   -2.6551 O   0  0  0  0  0  0  0  0  0  0  0  0
   -7.2073    2.6275   -2.7502 C   0  0  0  0  0  0  0  0  0  0  0  0
   -5.1605    5.2349    2.5769 C   0  0  1  0  0  0  0  0  0  0  0  0
   -5.9453    3.9612    2.9978 C   0  0  1  0  0  0  0  0  0  0  0  0
   -5.2267    2.6269    2.6450 C   0  0  2  0  0  0  0  0  0  0  0  0
   -4.8080    2.5918    1.1400 C   0  0  1  0  0  0  0  0  0  0  0  0
   -5.9375    2.2540    0.2859 O   0  0  0  0  0  0  0  0  0  0  0  0
   -3.8887    4.8574    1.7582 C   0  0  1  0  0  0  0  0  0  0  0  0
   -4.2458    3.8941    0.7136 O   0  0  0  0  0  0  0  0  0  0  0  0
   -3.2158    6.0925    1.1057 C   0  0  0  0  0  0  0  0  0  0  0  0
   -6.4563    0.7389   -9.0210 N   0  3  0  0  0  0  0  0  0  0  0  0
   -5.9377   -0.5129    0.1297 O   0  0  0  0  0  0  0  0  0  0  0  0
   -6.1527    4.0068    4.4089 O   0  0  0  0  0  0  0  0  0  0  0  0
   -6.0248    6.0594    1.7919 O   0  0  0  0  0  0  0  0  0  0  0  0
   -8.4700    2.4696   -3.3742 O   0  0  0  0  0  0  0  0  0  0  0  0
   -4.8979   -2.7633   -3.6302 O   0  0  0  0  0  0  0  0  0  0  0  0
   -1.9804    5.7537    0.3756 N   0  3  0  0  0  0  0  0  0  0  0  0
   -6.0429    1.4515    3.0382 N   0  3  0  0  0  0  0  0  0  0  0  0
  1  2  1  1  0  0  0
  1  3  1  0  0  0  0
  1 10  1  0  0  0  0
  3  4  1  1  0  0  0
  3  5  1  0  0  0  0
  5  6  1  6  0  0  0
  5  7  1  0  0  0  0
  7  8  1  1  0  0  0
  7  9  1  0  0  0  0
  9 10  1  0  0  0  0
  9 11  1  6  0  0  0
 11 35  1  0  0  0  0
 12 13  1  1  0  0  0
 12 14  1  0  0  0  0
 12 20  1  0  0  0  0
 14 15  1  0  0  0  0
 14 40  1  6  0  0  0
 15 16  1  1  0  0  0
 15 17  1  0  0  0  0
 17  2  1  6  0  0  0
 17 18  1  0  0  0  0
 18 19  1  1  0  0  0
 18 20  1  0  0  0  0
 21 16  1  6  0  0  0
 21 22  1  0  0  0  0
 21 25  1  0  0  0  0
 22 23  1  0  0  0  0
 22 36  1  1  0  0  0
 23 24  1  0  0  0  0
 23 31  1  1  0  0  0
 24 25  1  0  0  0  0
 24 26  1  6  0  0  0
 26 39  1  0  0  0  0
 27 28  1  0  0  0  0
 27 32  1  0  0  0  0
 27 38  1  6  0  0  0
 28 29  1  0  0  0  0
 28 37  1  1  0  0  0
 29 30  1  0  0  0  0
 29 42  1  6  0  0  0
 30 31  1  6  0  0  0
 30 33  1  0  0  0  0
 32 33  1  0  0  0  0
 32 34  1  6  0  0  0
 34 41  1  0  0  0  0
M  CHG  6   4   1  13   1  19   1  35   1  41   1  42   1
M  END
>  <CHROM.1>
-169.58183122,-60.13425488,124.02874172,-62.44379025,-170.93355609,35.11328187
60.43547549,59.17210014,59.89963928,-64.00262967,163.60165792,172.74810560
55.13054887,71.35378627,-171.79764270,59.95626672,64.16683233,145.04712014
-159.95052679,-154.21305610,177.60519707,-58.28816059,-5.08736681,1.63070781
-2.95523777,1.42857710,1.14843165,-1.84253277

>  <Name>


>  <RI>
0

>  <Rbt.Current_Directory>
/home/itssahil/PROJECTS/Mol_Feturizer/New_Systems/rnas/1ei2

>  <Rbt.Executable>
rbdock ($Id: //depot/dev/client3/rdock/2013.1/src/exe/rbdock.cxx#4 $)

>  <Rbt.Library>
libRbt.so (2013.1, Build901 2013/11/27)

>  <Rbt.Parameter_File>
/export/apps/rDock/src/rDock_2013.1_src/data/scripts/dock_solv.prm

>  <Rbt.Receptor>
prm/pocket_docking_6.prm

>  <SCORE>
-60.6117

>  <SCORE.INTER>
-41.2971

>  <SCORE.INTER.CONST>
1

>  <SCORE.INTER.POLAR>
-6.91092

>  <SCORE.INTER.ROT>
9

>  <SCORE.INTER.SOLV>
33.7665

>  <SCORE.INTER.VDW>
-25.3505

>  <SCORE.INTER.norm>
-0.983265

>  <SCORE.INTRA>
-19.406

>  <SCORE.INTRA.DIHEDRAL>
-22.874

>  <SCORE.INTRA.DIHEDRAL.0>
40.8761

>  <SCORE.INTRA.POLAR>
-0.356127

>  <SCORE.INTRA.POLAR.0>
-0.0268208

>  <SCORE.INTRA.REPUL>
-0.632784

>  <SCORE.INTRA.REPUL.0>
0.641615

>  <SCORE.INTRA.SOLV>
-7.13956

>  <SCORE.INTRA.SOLV.lig_0>
-162.567

>  <SCORE.INTRA.VDW>
-0.0244681

>  <SCORE.INTRA.VDW.0>
-4.80338

>  <SCORE.INTRA.norm>
-0.462048

>  <SCORE.RESTR>
0.0914102

>  <SCORE.RESTR.CAVITY>
0.0914102

>  <SCORE.RESTR.norm>
0.00217643

>  <SCORE.SYSTEM>
0

>  <SCORE.SYSTEM.CONST>
0

>  <SCORE.SYSTEM.DIHEDRAL>
0

>  <SCORE.SYSTEM.SOLV>
0

>  <SCORE.SYSTEM.norm>
0

>  <SCORE.heavy>
42

>  <SCORE.norm>
-1.44314

>  <RMSD>
7.707

$$$$

 OpenBabel11021811393D
libRbt.so/2013.1/901 2013/11/27
 42 45  0  0  0  0  0  0  0  0999 V2000
   -4.1622    1.4913   -6.8023 C   0  0  2  0  0  0  0  0  0  0  0  0
   -3.3254    1.4136   -5.6075 O   0  0  0  0  0  0  0  0  0  0  0  0
   -4.1402    2.9235   -7.4285 C   0  0  2  0  0  0  0  0  0  0  0  0
   -3.0289    3.7396   -6.8882 N   0  3  0  0  0  0  0  0  0  0  0  0
   -5.5050    3.6424   -7.2058 C   0  0  1  0  0  0  0  0  0  0  0  0
   -5.4763    4.9430   -7.7898 O   0  0  0  0  0  0  0  0  0  0  0  0
   -6.6834    2.8483   -7.8304 C   0  0  2  0  0  0  0  0  0  0  0  0
   -7.9072    3.3930   -7.3496 O   0  0  0  0  0  0  0  0  0  0  0  0
   -6.5962    1.3290   -7.4731 C   0  0  2  0  0  0  0  0  0  0  0  0
   -5.5422    1.1045   -6.4811 O   0  0  0  0  0  0  0  0  0  0  0  0
   -6.2745    0.4058   -8.6707 C   0  0  0  0  0  0  0  0  0  0  0  0
   -3.1742   -2.8960   -5.4530 C   0  0  1  0  0  0  0  0  0  0  0  0
   -2.7588   -4.2892   -5.1759 N   0  3  0  0  0  0  0  0  0  0  0  0
   -3.6311   -2.1705   -4.1603 C   0  0  1  0  0  0  0  0  0  0  0  0
   -3.9402   -0.6466   -4.3662 C   0  0  1  0  0  0  0  0  0  0  0  0
   -4.0343   -0.0219   -3.0578 O   0  0  0  0  0  0  0  0  0  0  0  0
   -2.8244    0.1116   -5.1750 C   0  0  1  0  0  0  0  0  0  0  0  0
   -2.3844   -0.6796   -6.4491 C   0  0  1  0  0  0  0  0  0  0  0  0
   -1.2361   -0.0443   -7.1272 N   0  3  0  0  0  0  0  0  0  0  0  0
   -2.0041   -2.1398   -6.1159 C   0  0  0  0  0  0  0  0  0  0  0  0
   -2.9756   -0.2384   -2.0805 C   0  0  1  0  0  0  0  0  0  0  0  0
   -2.2651    1.0870   -1.8332 C   0  0  1  0  0  0  0  0  0  0  0  0
   -3.2417    1.7354   -0.8614 C   0  0  1  0  0  0  0  0  0  0  0  0
   -3.6231    0.5477    0.0337 C   0  0  2  0  0  0  0  0  0  0  0  0
   -3.5438   -0.6208   -0.8172 O   0  0  0  0  0  0  0  0  0  0  0  0
   -5.0361    0.6734    0.6311 C   0  0  0  0  0  0  0  0  0  0  0  0
   -4.7420    5.9897    0.1279 C   0  0  1  0  0  0  0  0  0  0  0  0
   -3.5442    5.6439    1.0558 C   0  0  1  0  0  0  0  0  0  0  0  0
   -2.2482    5.2389    0.2957 C   0  0  2  0  0  0  0  0  0  0  0  0
   -2.5340    4.1090   -0.7452 C   0  0  1  0  0  0  0  0  0  0  0  0
   -2.6098    2.8055   -0.1015 O   0  0  0  0  0  0  0  0  0  0  0  0
   -4.3901    5.7007   -1.3630 C   0  0  1  0  0  0  0  0  0  0  0  0
   -3.7958    4.3664   -1.4770 O   0  0  0  0  0  0  0  0  0  0  0  0
   -5.6282    5.7895   -2.2921 C   0  0  0  0  0  0  0  0  0  0  0  0
   -6.7307   -0.9858   -8.5072 N   0  3  0  0  0  0  0  0  0  0  0  0
   -0.9977    0.8486   -1.2205 O   0  0  0  0  0  0  0  0  0  0  0  0
   -3.2591    6.7839    1.8655 O   0  0  0  0  0  0  0  0  0  0  0  0
   -5.8664    5.2040    0.5298 O   0  0  0  0  0  0  0  0  0  0  0  0
   -5.1504   -0.0857    1.8225 O   0  0  0  0  0  0  0  0  0  0  0  0
   -4.8073   -2.8107   -3.6662 O   0  0  0  0  0  0  0  0  0  0  0  0
   -5.3141    5.4747   -3.6979 N   0  3  0  0  0  0  0  0  0  0  0  0
   -1.1562    4.8858    1.2365 N   0  3  0  0  0  0  0  0  0  0  0  0
  1  2  1  1  0  0  0
  1  3  1  0  0  0  0
  1 10  1  0  0  0  0
  3  4  1  1  0  0  0
  3  5  1  0  0  0  0
  5  6  1  6  0  0  0
  5  7  1  0  0  0  0
  7  8  1  1  0  0  0
  7  9  1  0  0  0  0
  9 10  1  0  0  0  0
  9 11  1  6  0  0  0
 11 35  1  0  0  0  0
 12 13  1  1  0  0  0
 12 14  1  0  0  0  0
 12 20  1  0  0  0  0
 14 15  1  0  0  0  0
 14 40  1  6  0  0  0
 15 16  1  1  0  0  0
 15 17  1  0  0  0  0
 17  2  1  6  0  0  0
 17 18  1  0  0  0  0
 18 19  1  1  0  0  0
 18 20  1  0  0  0  0
 21 16  1  6  0  0  0
 21 22  1  0  0  0  0
 21 25  1  0  0  0  0
 22 23  1  0  0  0  0
 22 36  1  1  0  0  0
 23 24  1  0  0  0  0
 23 31  1  1  0  0  0
 24 25  1  0  0  0  0
 24 26  1  6  0  0  0
 26 39  1  0  0  0  0
 27 28  1  0  0  0  0
 27 32  1  0  0  0  0
 27 38  1  1  0  0  0
 28 29  1  0  0  0  0
 28 37  1  6  0  0  0
 29 30  1  0  0  0  0
 29 42  1  1  0  0  0
 30 31  1  1  0  0  0
 30 33  1  0  0  0  0
 32 33  1  0  0  0  0
 32 34  1  6  0  0  0
 34 41  1  0  0  0  0
M  CHG  6   4   1  13   1  19   1  35   1  41   1  42   1
M  END
>  <CHROM.1>
-157.65169146,-81.27053076,79.18873200,-170.30763659,72.24993343,-155.59346185
-176.47917090,-67.95012378,70.34369640,50.14833242,113.80221535,176.30681175
-30.22498059,83.11412709,-155.91529024,90.97304744,173.63956249,66.20519867
-66.52042093,162.75494589,-178.12844318,172.52595143,-4.01096099,1.83066245
-3.50247526,1.88093699,1.17928469,-2.40314411

>  <Name>


>  <RI>
0

>  <Rbt.Current_Directory>
/home/itssahil/PROJECTS/Mol_Feturizer/New_Systems/rnas/1ei2

>  <Rbt.Executable>
rbdock ($Id: //depot/dev/client3/rdock/2013.1/src/exe/rbdock.cxx#4 $)

>  <Rbt.Library>
libRbt.so (2013.1, Build901 2013/11/27)

>  <Rbt.Parameter_File>
/export/apps/rDock/src/rDock_2013.1_src/data/scripts/dock_solv.prm

>  <Rbt.Receptor>
prm/pocket_docking_6.prm

>  <SCORE>
-60.2366

>  <SCORE.INTER>
-45.9548

>  <SCORE.INTER.CONST>
1

>  <SCORE.INTER.POLAR>
-7.58606

>  <SCORE.INTER.ROT>
9

>  <SCORE.INTER.SOLV>
37.4854

>  <SCORE.INTER.VDW>
-27.4448

>  <SCORE.INTER.norm>
-1.09416

>  <SCORE.INTRA>
-14.471

>  <SCORE.INTRA.DIHEDRAL>
-10.722

>  <SCORE.INTRA.DIHEDRAL.0>
40.8761

>  <SCORE.INTRA.POLAR>
-0.103983

>  <SCORE.INTRA.POLAR.0>
-0.0268208

>  <SCORE.INTRA.REPUL>
-0.641615

>  <SCORE.INTRA.REPUL.0>
0.641615

>  <SCORE.INTRA.SOLV>
-13.14

>  <SCORE.INTRA.SOLV.lig_0>
-162.567

>  <SCORE.INTRA.VDW>
1.02166

>  <SCORE.INTRA.VDW.0>
-4.80338

>  <SCORE.INTRA.norm>
-0.344547

>  <SCORE.RESTR>
0.189237

>  <SCORE.RESTR.CAVITY>
0.189237

>  <SCORE.RESTR.norm>
0.00450564

>  <SCORE.SYSTEM>
0

>  <SCORE.SYSTEM.CONST>
0

>  <SCORE.SYSTEM.DIHEDRAL>
0

>  <SCORE.SYSTEM.SOLV>
0

>  <SCORE.SYSTEM.norm>
0

>  <SCORE.heavy>
42

>  <SCORE.norm>
-1.4342

>  <RMSD>
7.715

$$$$

 OpenBabel11021811393D
libRbt.so/2013.1/901 2013/11/27
 42 45  0  0  0  0  0  0  0  0999 V2000
   -3.8512    1.5779   -5.6960 C   0  0  2  0  0  0  0  0  0  0  0  0
   -2.7926    1.2971   -4.7295 O   0  0  0  0  0  0  0  0  0  0  0  0
   -4.2560    3.0878   -5.6841 C   0  0  2  0  0  0  0  0  0  0  0  0
   -3.2537    3.9171   -4.9763 N   0  3  0  0  0  0  0  0  0  0  0  0
   -5.6668    3.2742   -5.0488 C   0  0  1  0  0  0  0  0  0  0  0  0
   -6.0292    4.6534   -5.0528 O   0  0  0  0  0  0  0  0  0  0  0  0
   -6.7549    2.4772   -5.8171 C   0  0  2  0  0  0  0  0  0  0  0  0
   -7.9423    2.4522   -5.0328 O   0  0  0  0  0  0  0  0  0  0  0  0
   -6.2819    1.0184   -6.1197 C   0  0  2  0  0  0  0  0  0  0  0  0
   -5.0258    0.7407   -5.4195 O   0  0  0  0  0  0  0  0  0  0  0  0
   -6.0235    0.7252   -7.6156 C   0  0  0  0  0  0  0  0  0  0  0  0
   -2.7506   -2.9695   -5.3727 C   0  0  1  0  0  0  0  0  0  0  0  0
   -2.3379   -4.3899   -5.4227 N   0  3  0  0  0  0  0  0  0  0  0  0
   -2.9626   -2.4894   -3.9130 C   0  0  1  0  0  0  0  0  0  0  0  0
   -3.2546   -0.9535   -3.7887 C   0  0  1  0  0  0  0  0  0  0  0  0
   -3.1096   -0.5754   -2.3934 O   0  0  0  0  0  0  0  0  0  0  0  0
   -2.2667   -0.0617   -4.6271 C   0  0  1  0  0  0  0  0  0  0  0  0
   -2.0702   -0.6097   -6.0777 C   0  0  1  0  0  0  0  0  0  0  0  0
   -1.0323    0.1374   -6.8168 N   0  3  0  0  0  0  0  0  0  0  0  0
   -1.6849   -2.1061   -6.0792 C   0  0  0  0  0  0  0  0  0  0  0  0
   -4.1821    0.1561   -1.7320 C   0  0  1  0  0  0  0  0  0  0  0  0
   -4.0914   -0.1001   -0.2323 C   0  0  1  0  0  0  0  0  0  0  0  0
   -2.9856    0.8788    0.1385 C   0  0  1  0  0  0  0  0  0  0  0  0
   -3.3554    2.1017   -0.7130 C   0  0  2  0  0  0  0  0  0  0  0  0
   -3.9893    1.5701   -1.9009 O   0  0  0  0  0  0  0  0  0  0  0  0
   -2.1355    2.9566   -1.1006 C   0  0  0  0  0  0  0  0  0  0  0  0
   -2.1153    4.3630    3.5288 C   0  0  1  0  0  0  0  0  0  0  0  0
   -2.6266    3.0349    4.1533 C   0  0  1  0  0  0  0  0  0  0  0  0
   -1.8430    1.7726    3.6911 C   0  0  2  0  0  0  0  0  0  0  0  0
   -1.7605    1.6986    2.1324 C   0  0  1  0  0  0  0  0  0  0  0  0
   -2.9982    1.1862    1.5623 O   0  0  0  0  0  0  0  0  0  0  0  0
   -1.0154    4.0856    2.4595 C   0  0  1  0  0  0  0  0  0  0  0  0
   -1.4694    3.0294    1.5512 O   0  0  0  0  0  0  0  0  0  0  0  0
   -0.6580    5.3494    1.6354 C   0  0  0  0  0  0  0  0  0  0  0  0
   -6.6027   -0.5413   -8.0971 N   0  3  0  0  0  0  0  0  0  0  0  0
   -5.3278    0.2458    0.3924 O   0  0  0  0  0  0  0  0  0  0  0  0
   -2.5264    3.1379    5.5731 O   0  0  0  0  0  0  0  0  0  0  0  0
   -3.2246    5.0375    2.9307 O   0  0  0  0  0  0  0  0  0  0  0  0
   -2.4622    3.8603   -2.1423 O   0  0  0  0  0  0  0  0  0  0  0  0
   -4.0589   -3.2082   -3.3483 O   0  0  0  0  0  0  0  0  0  0  0  0
    0.1880    6.2996    2.3805 N   0  3  0  0  0  0  0  0  0  0  0  0
   -2.4029    0.5369    4.2927 N   0  3  0  0  0  0  0  0  0  0  0  0
  1  2  1  1  0  0  0
  1  3  1  0  0  0  0
  1 10  1  0  0  0  0
  3  4  1  1  0  0  0
  3  5  1  0  0  0  0
  5  6  1  6  0  0  0
  5  7  1  0  0  0  0
  7  8  1  1  0  0  0
  7  9  1  0  0  0  0
  9 10  1  0  0  0  0
  9 11  1  6  0  0  0
 11 35  1  0  0  0  0
 12 13  1  1  0  0  0
 12 14  1  0  0  0  0
 12 20  1  0  0  0  0
 14 15  1  0  0  0  0
 14 40  1  6  0  0  0
 15 16  1  1  0  0  0
 15 17  1  0  0  0  0
 17  2  1  6  0  0  0
 17 18  1  0  0  0  0
 18 19  1  1  0  0  0
 18 20  1  0  0  0  0
 21 16  1  6  0  0  0
 21 22  1  0  0  0  0
 21 25  1  0  0  0  0
 22 23  1  0  0  0  0
 22 36  1  1  0  0  0
 23 24  1  0  0  0  0
 23 31  1  1  0  0  0
 24 25  1  0  0  0  0
 24 26  1  6  0  0  0
 26 39  1  0  0  0  0
 27 28  1  0  0  0  0
 27 32  1  0  0  0  0
 27 38  1  6  0  0  0
 28 29  1  0  0  0  0
 28 37  1  1  0  0  0
 29 30  1  0  0  0  0
 29 42  1  6  0  0  0
 30 31  1  6  0  0  0
 30 33  1  0  0  0  0
 32 33  1  0  0  0  0
 32 34  1  6  0  0  0
 34 41  1  0  0  0  0
M  CHG  6   4   1  13   1  19   1  35   1  41   1  42   1
M  END
>  <CHROM.1>
-178.55135559,-78.91388241,-67.85923297,46.82584498,-62.02463573,-133.94270183
-58.80097677,58.78016174,174.63154141,-128.17139958,155.45703263,43.08234519
64.47693031,158.67403799,165.27102258,-146.30901279,-60.17945751,59.66608354
-28.23683303,-171.10731908,76.06000343,-81.16217849,-3.36797780,1.41696965
-2.09628516,2.20682137,1.15936239,-2.52890919

>  <Name>


>  <RI>
0

>  <Rbt.Current_Directory>
/home/itssahil/PROJECTS/Mol_Feturizer/New_Systems/rnas/1ei2

>  <Rbt.Executable>
rbdock ($Id: //depot/dev/client3/rdock/2013.1/src/exe/rbdock.cxx#4 $)

>  <Rbt.Library>
libRbt.so (2013.1, Build901 2013/11/27)

>  <Rbt.Parameter_File>
/export/apps/rDock/src/rDock_2013.1_src/data/scripts/dock_solv.prm

>  <Rbt.Receptor>
prm/pocket_docking_8.prm

>  <SCORE>
-58.1898

>  <SCORE.INTER>
-37.8003

>  <SCORE.INTER.CONST>
1

>  <SCORE.INTER.POLAR>
-5.87679

>  <SCORE.INTER.ROT>
9

>  <SCORE.INTER.SOLV>
33.8524

>  <SCORE.INTER.VDW>
-26.495

>  <SCORE.INTER.norm>
-0.900006

>  <SCORE.INTRA>
-20.3895

>  <SCORE.INTRA.DIHEDRAL>
-11.4109

>  <SCORE.INTRA.DIHEDRAL.0>
40.8761

>  <SCORE.INTRA.POLAR>
-1.26381

>  <SCORE.INTRA.POLAR.0>
-0.0268208

>  <SCORE.INTRA.REPUL>
-0.641615

>  <SCORE.INTRA.REPUL.0>
0.641615

>  <SCORE.INTRA.SOLV>
-12.3659

>  <SCORE.INTRA.SOLV.lig_0>
-162.567

>  <SCORE.INTRA.VDW>
-0.996106

>  <SCORE.INTRA.VDW.0>
-4.80338

>  <SCORE.INTRA.norm>
-0.485465

>  <SCORE.RESTR>
0

>  <SCORE.RESTR.CAVITY>
0

>  <SCORE.RESTR.norm>
0

>  <SCORE.SYSTEM>
0

>  <SCORE.SYSTEM.CONST>
0

>  <SCORE.SYSTEM.DIHEDRAL>
0

>  <SCORE.SYSTEM.SOLV>
0

>  <SCORE.SYSTEM.norm>
0

>  <SCORE.heavy>
42

>  <SCORE.norm>
-1.38547

>  <RMSD>
7.716

$$$$

 OpenBabel11021811393D
libRbt.so/2013.1/901 2013/11/27
 42 45  0  0  0  0  0  0  0  0999 V2000
   -6.2357    3.8179   -3.4301 C   0  0  2  0  0  0  0  0  0  0  0  0
   -5.2522    3.1710   -2.5653 O   0  0  0  0  0  0  0  0  0  0  0  0
   -5.7227    5.1989   -3.9530 C   0  0  2  0  0  0  0  0  0  0  0  0
   -4.2645    5.3545   -3.7464 N   0  3  0  0  0  0  0  0  0  0  0  0
   -6.4989    6.3673   -3.2737 C   0  0  1  0  0  0  0  0  0  0  0  0
   -6.0295    7.6207   -3.7658 O   0  0  0  0  0  0  0  0  0  0  0  0
   -8.0257    6.2754   -3.5378 C   0  0  2  0  0  0  0  0  0  0  0  0
   -8.6953    7.1810   -2.6677 O   0  0  0  0  0  0  0  0  0  0  0  0
   -8.5546    4.8223   -3.3088 C   0  0  2  0  0  0  0  0  0  0  0  0
   -7.5052    3.9925   -2.7125 O   0  0  0  0  0  0  0  0  0  0  0  0
   -9.0101    4.0953   -4.5949 C   0  0  0  0  0  0  0  0  0  0  0  0
   -7.5210   -0.4659   -2.0701 C   0  0  1  0  0  0  0  0  0  0  0  0
   -7.9272   -1.8442   -1.7156 N   0  3  0  0  0  0  0  0  0  0  0  0
   -7.3390    0.4164   -0.8073 C   0  0  1  0  0  0  0  0  0  0  0  0
   -6.7643    1.8438   -1.1108 C   0  0  1  0  0  0  0  0  0  0  0  0
   -6.3392    2.4382    0.1450 O   0  0  0  0  0  0  0  0  0  0  0  0
   -5.5188    1.8225   -2.0714 C   0  0  1  0  0  0  0  0  0  0  0  0
   -5.7492    0.8961   -3.3089 C   0  0  1  0  0  0  0  0  0  0  0  0
   -4.5307    0.7576   -4.1323 N   0  3  0  0  0  0  0  0  0  0  0  0
   -6.2152   -0.5166   -2.8902 C   0  0  0  0  0  0  0  0  0  0  0  0
   -5.5239    3.6457    0.1287 C   0  0  1  0  0  0  0  0  0  0  0  0
   -6.3769    4.8137    0.6092 C   0  0  1  0  0  0  0  0  0  0  0  0
   -6.3013    4.5970    2.1145 C   0  0  1  0  0  0  0  0  0  0  0  0
   -4.8276    4.2074    2.2982 C   0  0  2  0  0  0  0  0  0  0  0  0
   -4.4510    3.5269    1.0773 O   0  0  0  0  0  0  0  0  0  0  0  0
   -4.5944    3.2884    3.5107 C   0  0  0  0  0  0  0  0  0  0  0  0
   -9.0215    7.9477    4.9644 C   0  0  1  0  0  0  0  0  0  0  0  0
   -7.8865    8.5011    4.0584 C   0  0  1  0  0  0  0  0  0  0  0  0
   -7.9036    7.9425    2.6062 C   0  0  2  0  0  0  0  0  0  0  0  0
   -7.9532    6.3806    2.6027 C   0  0  1  0  0  0  0  0  0  0  0  0
   -6.6364    5.8104    2.8475 O   0  0  0  0  0  0  0  0  0  0  0  0
   -9.8283    6.8367    4.2263 C   0  0  1  0  0  0  0  0  0  0  0  0
   -8.9012    5.8761    3.6228 O   0  0  0  0  0  0  0  0  0  0  0  0
  -10.8007    6.0840    5.1707 C   0  0  0  0  0  0  0  0  0  0  0  0
  -10.2265    4.6530   -5.2118 N   0  3  0  0  0  0  0  0  0  0  0  0
   -5.7670    6.0467    0.2267 O   0  0  0  0  0  0  0  0  0  0  0  0
   -8.0096    9.9217    4.0007 O   0  0  0  0  0  0  0  0  0  0  0  0
   -8.4324    7.4201    6.1550 O   0  0  0  0  0  0  0  0  0  0  0  0
   -4.9866    3.9285    4.7129 O   0  0  0  0  0  0  0  0  0  0  0  0
   -8.6046    0.5629   -0.1637 O   0  0  0  0  0  0  0  0  0  0  0  0
  -11.3942    4.8870    4.5472 N   0  3  0  0  0  0  0  0  0  0  0  0
   -6.7755    8.4798    1.8056 N   0  3  0  0  0  0  0  0  0  0  0  0
  1  2  1  1  0  0  0
  1  3  1  0  0  0  0
  1 10  1  0  0  0  0
  3  4  1  1  0  0  0
  3  5  1  0  0  0  0
  5  6  1  6  0  0  0
  5  7  1  0  0  0  0
  7  8  1  1  0  0  0
  7  9  1  0  0  0  0
  9 10  1  0  0  0  0
  9 11  1  6  0  0  0
 11 35  1  0  0  0  0
 12 13  1  1  0  0  0
 12 14  1  0  0  0  0
 12 20  1  0  0  0  0
 14 15  1  0  0  0  0
 14 40  1  6  0  0  0
 15 16  1  1  0  0  0
 15 17  1  0  0  0  0
 17  2  1  6  0  0  0
 17 18  1  0  0  0  0
 18 19  1  1  0  0  0
 18 20  1  0  0  0  0
 21 16  1  1  0  0  0
 21 22  1  0  0  0  0
 21 25  1  0  0  0  0
 22 23  1  0  0  0  0
 22 36  1  1  0  0  0
 23 24  1  0  0  0  0
 23 31  1  1  0  0  0
 24 25  1  0  0  0  0
 24 26  1  1  0  0  0
 26 39  1  0  0  0  0
 27 28  1  0  0  0  0
 27 32  1  0  0  0  0
 27 38  1  1  0  0  0
 28 29  1  0  0  0  0
 28 37  1  6  0  0  0
 29 30  1  0  0  0  0
 29 42  1  1  0  0  0
 30 31  1  1  0  0  0
 30 33  1  0  0  0  0
 32 33  1  0  0  0  0
 32 34  1  1  0  0  0
 34 41  1  0  0  0  0
M  CHG  6   4   1  13   1  19   1  35   1  41   1  42   1
M  END
>  <CHROM.1>
-175.16369508,-65.40972271,136.29139017,-173.43551964,-57.41829859,-68.36495638
179.94295553,-64.79931213,170.75525802,167.67992740,108.76411415,51.91942640
-56.81330827,58.64890239,-60.89701808,46.23718717,-55.58967630,-56.80918846
32.65416001,-142.83829864,-170.05956387,175.96503448,-7.12167760,4.51403929
0.02190336,0.49181203,1.35888131,-1.07952370

>  <Name>


>  <RI>
0

>  <Rbt.Current_Directory>
/home/itssahil/PROJECTS/Mol_Feturizer/New_Systems/rnas/1ei2

>  <Rbt.Executable>
rbdock ($Id: //depot/dev/client3/rdock/2013.1/src/exe/rbdock.cxx#4 $)

>  <Rbt.Library>
libRbt.so (2013.1, Build901 2013/11/27)

>  <Rbt.Parameter_File>
/export/apps/rDock/src/rDock_2013.1_src/data/scripts/dock_solv.prm

>  <Rbt.Receptor>
prm/pocket_docking_6.prm

>  <SCORE>
-50.8589

>  <SCORE.INTER>
-27.3496

>  <SCORE.INTER.CONST>
1

>  <SCORE.INTER.POLAR>
-5.50586

>  <SCORE.INTER.ROT>
9

>  <SCORE.INTER.SOLV>
29.6505

>  <SCORE.INTER.VDW>
-19.3637

>  <SCORE.INTER.norm>
-0.651181

>  <SCORE.INTRA>
-23.5262

>  <SCORE.INTRA.DIHEDRAL>
-20.8354

>  <SCORE.INTRA.DIHEDRAL.0>
40.8761

>  <SCORE.INTRA.POLAR>
-1.54636

>  <SCORE.INTRA.POLAR.0>
-0.0268208

>  <SCORE.INTRA.REPUL>
-0.641615

>  <SCORE.INTRA.REPUL.0>
0.641615

>  <SCORE.INTRA.SOLV>
-12.1134

>  <SCORE.INTRA.SOLV.lig_0>
-162.567

>  <SCORE.INTRA.VDW>
1.41396

>  <SCORE.INTRA.VDW.0>
-4.80338

>  <SCORE.INTRA.norm>
-0.560147

>  <SCORE.RESTR>
0.0168736

>  <SCORE.RESTR.CAVITY>
0.0168736

>  <SCORE.RESTR.norm>
0.000401753

>  <SCORE.SYSTEM>
0

>  <SCORE.SYSTEM.CONST>
0

>  <SCORE.SYSTEM.DIHEDRAL>
0

>  <SCORE.SYSTEM.SOLV>
0

>  <SCORE.SYSTEM.norm>
0

>  <SCORE.heavy>
42

>  <SCORE.norm>
-1.21093

>  <RMSD>
7.723

$$$$

 OpenBabel11021811393D
libRbt.so/2013.1/901 2013/11/27
 42 45  0  0  0  0  0  0  0  0999 V2000
   -3.5287    2.0955   -1.9893 C   0  0  2  0  0  0  0  0  0  0  0  0
   -2.5856    2.6808   -2.9388 O   0  0  0  0  0  0  0  0  0  0  0  0
   -2.8920    0.9007   -1.2077 C   0  0  2  0  0  0  0  0  0  0  0  0
   -1.4183    0.8765   -1.3514 N   0  3  0  0  0  0  0  0  0  0  0  0
   -3.5090   -0.4526   -1.6735 C   0  0  1  0  0  0  0  0  0  0  0  0
   -2.9282   -1.5334   -0.9469 O   0  0  0  0  0  0  0  0  0  0  0  0
   -5.0465   -0.4879   -1.4629 C   0  0  2  0  0  0  0  0  0  0  0  0
   -5.5780   -1.6074   -2.1628 O   0  0  0  0  0  0  0  0  0  0  0  0
   -5.7188    0.8292   -1.9695 C   0  0  2  0  0  0  0  0  0  0  0  0
   -4.7412    1.6497   -2.6880 O   0  0  0  0  0  0  0  0  0  0  0  0
   -6.3029    1.7225   -0.8511 C   0  0  0  0  0  0  0  0  0  0  0  0
   -5.1771    2.6983   -6.3889 C   0  0  1  0  0  0  0  0  0  0  0  0
   -5.6852    2.7528   -7.7779 N   0  3  0  0  0  0  0  0  0  0  0  0
   -4.3815    1.3932   -6.1247 C   0  0  1  0  0  0  0  0  0  0  0  0
   -3.6917    1.3472   -4.7169 C   0  0  1  0  0  0  0  0  0  0  0  0
   -2.7328    0.2557   -4.7168 O   0  0  0  0  0  0  0  0  0  0  0  0
   -2.9101    2.6655   -4.3629 C   0  0  1  0  0  0  0  0  0  0  0  0
   -3.7492    3.9463   -4.6766 C   0  0  1  0  0  0  0  0  0  0  0  0
   -2.9649    5.1835   -4.4859 N   0  3  0  0  0  0  0  0  0  0  0  0
   -4.2950    3.9357   -6.1222 C   0  0  0  0  0  0  0  0  0  0  0  0
   -1.5780    0.3137   -5.6032 C   0  0  1  0  0  0  0  0  0  0  0  0
   -0.9874   -1.0861   -5.7232 C   0  0  1  0  0  0  0  0  0  0  0  0
   -1.9383   -1.6892   -6.7482 C   0  0  1  0  0  0  0  0  0  0  0  0
   -2.1189   -0.5214   -7.7285 C   0  0  2  0  0  0  0  0  0  0  0  0
   -1.9942    0.6791   -6.9292 O   0  0  0  0  0  0  0  0  0  0  0  0
   -3.4811   -0.5420   -8.4449 C   0  0  0  0  0  0  0  0  0  0  0  0
   -3.3117   -5.4136   -5.3061 C   0  0  1  0  0  0  0  0  0  0  0  0
   -2.9298   -5.5835   -6.8030 C   0  0  1  0  0  0  0  0  0  0  0  0
   -1.4250   -5.3302   -7.1073 C   0  0  2  0  0  0  0  0  0  0  0  0
   -0.9561   -3.9556   -6.5308 C   0  0  1  0  0  0  0  0  0  0  0  0
   -1.3558   -2.8561   -7.3971 O   0  0  0  0  0  0  0  0  0  0  0  0
   -2.1012   -4.8787   -4.4823 C   0  0  1  0  0  0  0  0  0  0  0  0
   -1.5054   -3.7325   -5.1735 O   0  0  0  0  0  0  0  0  0  0  0  0
   -2.5026   -4.4565   -3.0454 C   0  0  0  0  0  0  0  0  0  0  0  0
   -5.4572    1.8248    0.3513 N   0  3  0  0  0  0  0  0  0  0  0  0
    0.3454   -1.0063   -6.2291 O   0  0  0  0  0  0  0  0  0  0  0  0
   -3.2569   -6.9140   -7.2022 O   0  0  0  0  0  0  0  0  0  0  0  0
   -4.4079   -4.5003   -5.2204 O   0  0  0  0  0  0  0  0  0  0  0  0
   -3.5564    0.4866   -9.4170 O   0  0  0  0  0  0  0  0  0  0  0  0
   -5.2725    0.2832   -6.2313 O   0  0  0  0  0  0  0  0  0  0  0  0
   -2.8982   -3.0391   -2.9536 N   0  3  0  0  0  0  0  0  0  0  0  0
   -1.1339   -5.4713   -8.5556 N   0  3  0  0  0  0  0  0  0  0  0  0
  1  2  1  6  0  0  0
  1  3  1  0  0  0  0
  1 10  1  0  0  0  0
  3  4  1  6  0  0  0
  3  5  1  0  0  0  0
  5  6  1  1  0  0  0
  5  7  1  0  0  0  0
  7  8  1  6  0  0  0
  7  9  1  0  0  0  0
  9 10  1  0  0  0  0
  9 11  1  1  0  0  0
 11 35  1  0  0  0  0
 12 13  1  6  0  0  0
 12 14  1  0  0  0  0
 12 20  1  0  0  0  0
 14 15  1  0  0  0  0
 14 40  1  1  0  0  0
 15 16  1  6  0  0  0
 15 17  1  0  0  0  0
 17  2  1  1  0  0  0
 17 18  1  0  0  0  0
 18 19  1  6  0  0  0
 18 20  1  0  0  0  0
 21 16  1  1  0  0  0
 21 22  1  0  0  0  0
 21 25  1  0  0  0  0
 22 23  1  0  0  0  0
 22 36  1  6  0  0  0
 23 24  1  0  0  0  0
 23 31  1  6  0  0  0
 24 25  1  0  0  0  0
 24 26  1  1  0  0  0
 26 39  1  0  0  0  0
 27 28  1  0  0  0  0
 27 32  1  0  0  0  0
 27 38  1  6  0  0  0
 28 29  1  0  0  0  0
 28 37  1  1  0  0  0
 29 30  1  0  0  0  0
 29 42  1  6  0  0  0
 30 31  1  6  0  0  0
 30 33  1  0  0  0  0
 32 33  1  0  0  0  0
 32 34  1  1  0  0  0
 34 41  1  0  0  0  0
M  CHG  6   4   1  13   1  19   1  35   1  41   1  42   1
M  END
>  <CHROM.1>
118.75425991,-34.82835459,-57.23782346,138.25100018,-63.17805024,41.08060075
-55.05818859,55.70480918,-56.77509893,64.73776229,-163.03207829,76.22470147
70.32941157,58.16007292,-175.11976828,-172.91180427,-62.19424952,-77.10721294
162.63461282,134.74816386,-90.38804887,-137.49892229,-3.18515464,-0.63944100
-4.79275651,2.83896038,1.29420190,-0.77400823

>  <Name>


>  <RI>
0

>  <Rbt.Current_Directory>
/home/itssahil/PROJECTS/Mol_Feturizer/New_Systems/rnas/1ei2

>  <Rbt.Executable>
rbdock ($Id: //depot/dev/client3/rdock/2013.1/src/exe/rbdock.cxx#4 $)

>  <Rbt.Library>
libRbt.so (2013.1, Build901 2013/11/27)

>  <Rbt.Parameter_File>
/export/apps/rDock/src/rDock_2013.1_src/data/scripts/dock_solv.prm

>  <Rbt.Receptor>
prm/blind_docking_80.prm

>  <SCORE>
3.88706

>  <SCORE.INTER>
-12.4811

>  <SCORE.INTER.CONST>
1

>  <SCORE.INTER.POLAR>
-4.3425

>  <SCORE.INTER.ROT>
9

>  <SCORE.INTER.SOLV>
38.4413

>  <SCORE.INTER.VDW>
-16.2595

>  <SCORE.INTER.norm>
-0.297168

>  <SCORE.INTRA>
2.31858

>  <SCORE.INTRA.DIHEDRAL>
-6.32119

>  <SCORE.INTRA.DIHEDRAL.0>
40.8761

>  <SCORE.INTRA.POLAR>
-1.05096

>  <SCORE.INTRA.POLAR.0>
-0.0268208

>  <SCORE.INTRA.REPUL>
-0.563549

>  <SCORE.INTRA.REPUL.0>
0.641615

>  <SCORE.INTRA.SOLV>
5.60138

>  <SCORE.INTRA.SOLV.lig_0>
-162.567

>  <SCORE.INTRA.VDW>
9.06949

>  <SCORE.INTRA.VDW.0>
-4.80338

>  <SCORE.INTRA.norm>
0.0552042

>  <SCORE.RESTR>
14.0495

>  <SCORE.RESTR.CAVITY>
14.0495

>  <SCORE.RESTR.norm>
0.334513

>  <SCORE.SYSTEM>
0

>  <SCORE.SYSTEM.CONST>
0

>  <SCORE.SYSTEM.DIHEDRAL>
0

>  <SCORE.SYSTEM.SOLV>
0

>  <SCORE.SYSTEM.norm>
0

>  <SCORE.heavy>
42

>  <SCORE.norm>
0.092549

>  <RMSD>
7.724

$$$$

 OpenBabel11021811393D
libRbt.so/2013.1/901 2013/11/27
 42 45  0  0  0  0  0  0  0  0999 V2000
   -3.4403    3.4574    1.9711 C   0  0  2  0  0  0  0  0  0  0  0  0
   -2.8115    4.2288    0.9019 O   0  0  0  0  0  0  0  0  0  0  0  0
   -2.6714    3.6143    3.3231 C   0  0  2  0  0  0  0  0  0  0  0  0
   -1.7289    4.7561    3.2869 N   0  3  0  0  0  0  0  0  0  0  0  0
   -1.9211    2.2973    3.6855 C   0  0  1  0  0  0  0  0  0  0  0  0
   -1.2324    2.4492    4.9249 O   0  0  0  0  0  0  0  0  0  0  0  0
   -2.8945    1.0943    3.8076 C   0  0  2  0  0  0  0  0  0  0  0  0
   -2.1329   -0.1074    3.8485 O   0  0  0  0  0  0  0  0  0  0  0  0
   -3.8976    1.0524    2.6095 C   0  0  2  0  0  0  0  0  0  0  0  0
   -3.5145    2.0390    1.5970 O   0  0  0  0  0  0  0  0  0  0  0  0
   -5.3640    1.3613    2.9895 C   0  0  0  0  0  0  0  0  0  0  0  0
   -2.6747    4.6800   -3.3873 C   0  0  1  0  0  0  0  0  0  0  0  0
   -2.9402    4.5323   -4.8358 N   0  3  0  0  0  0  0  0  0  0  0  0
   -3.8658    5.3527   -2.6560 C   0  0  1  0  0  0  0  0  0  0  0  0
   -3.7051    5.3998   -1.0965 C   0  0  1  0  0  0  0  0  0  0  0  0
   -4.9931    5.7418   -0.5178 O   0  0  0  0  0  0  0  0  0  0  0  0
   -3.2551    4.0267   -0.4750 C   0  0  1  0  0  0  0  0  0  0  0  0
   -2.0728    3.3834   -1.2695 C   0  0  1  0  0  0  0  0  0  0  0  0
   -1.7479    2.0283   -0.7795 N   0  3  0  0  0  0  0  0  0  0  0  0
   -2.3789    3.2923   -2.7814 C   0  0  0  0  0  0  0  0  0  0  0  0
   -6.1121    4.8196   -0.6593 C   0  0  1  0  0  0  0  0  0  0  0  0
   -7.3462    5.4533   -0.0283 C   0  0  1  0  0  0  0  0  0  0  0  0
   -7.7717    6.3858   -1.1542 C   0  0  1  0  0  0  0  0  0  0  0  0
   -7.5403    5.5054   -2.3905 C   0  0  2  0  0  0  0  0  0  0  0  0
   -6.4296    4.6419   -2.0496 O   0  0  0  0  0  0  0  0  0  0  0  0
   -7.2108    6.3182   -3.6554 C   0  0  0  0  0  0  0  0  0  0  0  0
  -10.8035   10.2483   -1.2147 C   0  0  1  0  0  0  0  0  0  0  0  0
  -11.5657    8.9062   -1.0321 C   0  0  1  0  0  0  0  0  0  0  0  0
  -11.0115    8.0118    0.1141 C   0  0  2  0  0  0  0  0  0  0  0  0
   -9.4700    7.8003   -0.0299 C   0  0  1  0  0  0  0  0  0  0  0  0
   -9.1679    6.7803   -1.0237 O   0  0  0  0  0  0  0  0  0  0  0  0
   -9.5550   10.3080   -0.2831 C   0  0  1  0  0  0  0  0  0  0  0  0
   -8.7923    9.0629   -0.4045 O   0  0  0  0  0  0  0  0  0  0  0  0
   -8.6291   11.5081   -0.6095 C   0  0  0  0  0  0  0  0  0  0  0  0
   -5.5608    1.7427    4.3991 N   0  3  0  0  0  0  0  0  0  0  0  0
   -8.3309    4.4497    0.2204 O   0  0  0  0  0  0  0  0  0  0  0  0
  -12.9349    9.2005   -0.7579 O   0  0  0  0  0  0  0  0  0  0  0  0
  -10.4033   10.3582   -2.5824 O   0  0  0  0  0  0  0  0  0  0  0  0
   -7.2993    5.5074   -4.8145 O   0  0  0  0  0  0  0  0  0  0  0  0
   -4.0057    6.6884   -3.1396 O   0  0  0  0  0  0  0  0  0  0  0  0
   -7.5038   11.6376    0.3344 N   0  3  0  0  0  0  0  0  0  0  0  0
  -11.7568    6.7322    0.2116 N   0  3  0  0  0  0  0  0  0  0  0  0
  1  2  1  6  0  0  0
  1  3  1  0  0  0  0
  1 10  1  0  0  0  0
  3  4  1  6  0  0  0
  3  5  1  0  0  0  0
  5  6  1  1  0  0  0
  5  7  1  0  0  0  0
  7  8  1  6  0  0  0
  7  9  1  0  0  0  0
  9 10  1  0  0  0  0
  9 11  1  1  0  0  0
 11 35  1  0  0  0  0
 12 13  1  6  0  0  0
 12 14  1  0  0  0  0
 12 20  1  0  0  0  0
 14 15  1  0  0  0  0
 14 40  1  6  0  0  0
 15 16  1  1  0  0  0
 15 17  1  0  0  0  0
 17  2  1  1  0  0  0
 17 18  1  0  0  0  0
 18 19  1  1  0  0  0
 18 20  1  0  0  0  0
 21 16  1  6  0  0  0
 21 22  1  0  0  0  0
 21 25  1  0  0  0  0
 22 23  1  0  0  0  0
 22 36  1  6  0  0  0
 23 24  1  0  0  0  0
 23 31  1  1  0  0  0
 24 25  1  0  0  0  0
 24 26  1  6  0  0  0
 26 39  1  0  0  0  0
 27 28  1  0  0  0  0
 27 32  1  0  0  0  0
 27 38  1  6  0  0  0
 28 29  1  0  0  0  0
 28 37  1  1  0  0  0
 29 30  1  0  0  0  0
 29 42  1  6  0  0  0
 30 31  1  6  0  0  0
 30 33  1  0  0  0  0
 32 33  1  0  0  0  0
 32 34  1  6  0  0  0
 34 41  1  0  0  0  0
M  CHG  6   4   1  13   1  19   1  35   1  41   1  42   1
M  END
>  <CHROM.1>
169.76453126,124.22599313,-161.51459846,66.58949327,59.14343277,4.31313073
-170.08424937,-126.56401466,62.56412360,65.07266471,-177.11693001,11.23741642
-58.71280308,77.27584047,-166.98105504,-61.19921167,-58.15260025,175.41818899
-64.11514184,-173.71574045,175.33492631,-38.55749720,-5.91836091,5.39403031
-0.12404945,0.54626467,-0.59765658,1.93628226

>  <Name>


>  <RI>
0

>  <Rbt.Current_Directory>
/home/itssahil/PROJECTS/Mol_Feturizer/New_Systems/rnas/1ei2

>  <Rbt.Executable>
rbdock ($Id: //depot/dev/client3/rdock/2013.1/src/exe/rbdock.cxx#4 $)

>  <Rbt.Library>
libRbt.so (2013.1, Build901 2013/11/27)

>  <Rbt.Parameter_File>
/export/apps/rDock/src/rDock_2013.1_src/data/scripts/dock_solv.prm

>  <Rbt.Receptor>
prm/pocket_docking_6.prm

>  <SCORE>
-54.2236

>  <SCORE.INTER>
-36.6415

>  <SCORE.INTER.CONST>
1

>  <SCORE.INTER.POLAR>
-5.75386

>  <SCORE.INTER.ROT>
9

>  <SCORE.INTER.SOLV>
25.6202

>  <SCORE.INTER.VDW>
-23.3882

>  <SCORE.INTER.norm>
-0.872416

>  <SCORE.INTRA>
-17.5822

>  <SCORE.INTRA.DIHEDRAL>
-15.4193

>  <SCORE.INTRA.DIHEDRAL.0>
40.8761

>  <SCORE.INTRA.POLAR>
-1.23035

>  <SCORE.INTRA.POLAR.0>
-0.0268208

>  <SCORE.INTRA.REPUL>
-0.641615

>  <SCORE.INTRA.REPUL.0>
0.641615

>  <SCORE.INTRA.SOLV>
-9.05592

>  <SCORE.INTRA.SOLV.lig_0>
-162.567

>  <SCORE.INTRA.VDW>
2.04669

>  <SCORE.INTRA.VDW.0>
-4.80338

>  <SCORE.INTRA.norm>
-0.418623

>  <SCORE.RESTR>
0

>  <SCORE.RESTR.CAVITY>
0

>  <SCORE.RESTR.norm>
0

>  <SCORE.SYSTEM>
0

>  <SCORE.SYSTEM.CONST>
0

>  <SCORE.SYSTEM.DIHEDRAL>
0

>  <SCORE.SYSTEM.SOLV>
0

>  <SCORE.SYSTEM.norm>
0

>  <SCORE.heavy>
42

>  <SCORE.norm>
-1.29104

>  <RMSD>
7.724

$$$$

 OpenBabel11021811393D
libRbt.so/2013.1/901 2013/11/27
 42 45  0  0  0  0  0  0  0  0999 V2000
   -3.4220    3.4396   -1.0425 C   0  0  2  0  0  0  0  0  0  0  0  0
   -3.5646    3.7254   -2.4678 O   0  0  0  0  0  0  0  0  0  0  0  0
   -3.6534    4.7180   -0.1730 C   0  0  2  0  0  0  0  0  0  0  0  0
   -4.2967    5.8004   -0.9524 N   0  3  0  0  0  0  0  0  0  0  0  0
   -2.3114    5.2130    0.4457 C   0  0  1  0  0  0  0  0  0  0  0  0
   -2.5366    6.3727    1.2443 O   0  0  0  0  0  0  0  0  0  0  0  0
   -1.6499    4.1249    1.3334 C   0  0  2  0  0  0  0  0  0  0  0  0
   -0.3146    4.5224    1.6246 O   0  0  0  0  0  0  0  0  0  0  0  0
   -1.6515    2.7335    0.6211 C   0  0  2  0  0  0  0  0  0  0  0  0
   -2.0924    2.8793   -0.7680 O   0  0  0  0  0  0  0  0  0  0  0  0
   -2.5826    1.6826    1.2682 C   0  0  0  0  0  0  0  0  0  0  0  0
   -3.1792    1.8013   -6.3109 C   0  0  1  0  0  0  0  0  0  0  0  0
   -3.1138    0.7862   -7.3859 N   0  3  0  0  0  0  0  0  0  0  0  0
   -4.6165    1.9380   -5.7438 C   0  0  1  0  0  0  0  0  0  0  0  0
   -4.7181    2.8895   -4.5011 C   0  0  1  0  0  0  0  0  0  0  0  0
   -6.0130    2.6823   -3.8756 O   0  0  0  0  0  0  0  0  0  0  0  0
   -3.6160    2.6133   -3.4134 C   0  0  1  0  0  0  0  0  0  0  0  0
   -2.1952    2.4564   -4.0456 C   0  0  1  0  0  0  0  0  0  0  0  0
   -1.1855    2.0505   -3.0467 N   0  3  0  0  0  0  0  0  0  0  0  0
   -2.1877    1.4201   -5.1919 C   0  0  0  0  0  0  0  0  0  0  0  0
   -7.2267    3.0196   -4.6076 C   0  0  1  0  0  0  0  0  0  0  0  0
   -8.4229    2.8101   -3.6867 C   0  0  1  0  0  0  0  0  0  0  0  0
   -8.3664    4.0999   -2.8793 C   0  0  1  0  0  0  0  0  0  0  0  0
   -8.0251    5.1306   -3.9649 C   0  0  2  0  0  0  0  0  0  0  0  0
   -7.2275    4.4176   -4.9401 O   0  0  0  0  0  0  0  0  0  0  0  0
   -7.2425    6.3399   -3.4222 C   0  0  0  0  0  0  0  0  0  0  0  0
  -11.0442    6.4333    0.6907 C   0  0  1  0  0  0  0  0  0  0  0  0
  -11.8633    5.4447   -0.1852 C   0  0  1  0  0  0  0  0  0  0  0  0
  -11.2117    4.0397   -0.3358 C   0  0  2  0  0  0  0  0  0  0  0  0
   -9.7261    4.1539   -0.8064 C   0  0  1  0  0  0  0  0  0  0  0  0
   -9.6435    4.3881   -2.2409 O   0  0  0  0  0  0  0  0  0  0  0  0
   -9.6723    5.8119    1.0931 C   0  0  1  0  0  0  0  0  0  0  0  0
   -9.0239    5.2450   -0.0922 O   0  0  0  0  0  0  0  0  0  0  0  0
   -8.7225    6.8470    1.7490 C   0  0  0  0  0  0  0  0  0  0  0  0
   -2.4367    1.5565    2.7291 N   0  3  0  0  0  0  0  0  0  0  0  0
   -9.6200    2.7292   -4.4607 O   0  0  0  0  0  0  0  0  0  0  0  0
  -13.1541    5.2869    0.4023 O   0  0  0  0  0  0  0  0  0  0  0  0
  -10.8405    7.6356   -0.0550 O   0  0  0  0  0  0  0  0  0  0  0  0
   -6.8055    7.1753   -4.4804 O   0  0  0  0  0  0  0  0  0  0  0  0
   -5.4696    2.4400   -6.7723 O   0  0  0  0  0  0  0  0  0  0  0  0
   -9.2379    7.3682    3.0284 N   0  3  0  0  0  0  0  0  0  0  0  0
  -12.0222    3.1577   -1.2118 N   0  3  0  0  0  0  0  0  0  0  0  0
  1  2  1  6  0  0  0
  1  3  1  0  0  0  0
  1 10  1  0  0  0  0
  3  4  1  6  0  0  0
  3  5  1  0  0  0  0
  5  6  1  1  0  0  0
  5  7  1  0  0  0  0
  7  8  1  6  0  0  0
  7  9  1  0  0  0  0
  9 10  1  0  0  0  0
  9 11  1  1  0  0  0
 11 35  1  0  0  0  0
 12 13  1  6  0  0  0
 12 14  1  0  0  0  0
 12 20  1  0  0  0  0
 14 15  1  0  0  0  0
 14 40  1  6  0  0  0
 15 16  1  1  0  0  0
 15 17  1  0  0  0  0
 17  2  1  1  0  0  0
 17 18  1  0  0  0  0
 18 19  1  1  0  0  0
 18 20  1  0  0  0  0
 21 16  1  1  0  0  0
 21 22  1  0  0  0  0
 21 25  1  0  0  0  0
 22 23  1  0  0  0  0
 22 36  1  6  0  0  0
 23 24  1  0  0  0  0
 23 31  1  6  0  0  0
 24 25  1  0  0  0  0
 24 26  1  1  0  0  0
 26 39  1  0  0  0  0
 27 28  1  0  0  0  0
 27 32  1  0  0  0  0
 27 38  1  6  0  0  0
 28 29  1  0  0  0  0
 28 37  1  1  0  0  0
 29 30  1  0  0  0  0
 29 42  1  6  0  0  0
 30 31  1  6  0  0  0
 30 33  1  0  0  0  0
 32 33  1  0  0  0  0
 32 34  1  6  0  0  0
 34 41  1  0  0  0  0
M  CHG  6   4   1  13   1  19   1  35   1  41   1  42   1
M  END
>  <CHROM.1>
-169.34283272,138.19735979,-171.89189359,-65.50917178,-55.95180992,-48.65429018
-57.84355607,36.18809559,-63.61572119,-64.35759692,-175.57489673,-48.52468576
66.79473048,105.26859250,172.60595312,-65.63361446,61.64807254,70.74796001
52.77684270,-161.22934634,63.99791863,-174.44430525,-6.10473485,4.05871000
-1.81779754,-0.35005233,-0.22580721,1.21317644

>  <Name>


>  <RI>
0

>  <Rbt.Current_Directory>
/home/itssahil/PROJECTS/Mol_Feturizer/New_Systems/rnas/1ei2

>  <Rbt.Executable>
rbdock ($Id: //depot/dev/client3/rdock/2013.1/src/exe/rbdock.cxx#4 $)

>  <Rbt.Library>
libRbt.so (2013.1, Build901 2013/11/27)

>  <Rbt.Parameter_File>
/export/apps/rDock/src/rDock_2013.1_src/data/scripts/dock_solv.prm

>  <Rbt.Receptor>
prm/pocket_docking_3.prm

>  <SCORE>
-58.9853

>  <SCORE.INTER>
-36.1505

>  <SCORE.INTER.CONST>
1

>  <SCORE.INTER.POLAR>
-6.65539

>  <SCORE.INTER.ROT>
9

>  <SCORE.INTER.SOLV>
27.5663

>  <SCORE.INTER.VDW>
-20.7044

>  <SCORE.INTER.norm>
-0.860725

>  <SCORE.INTRA>
-23.0433

>  <SCORE.INTRA.DIHEDRAL>
-22.1464

>  <SCORE.INTRA.DIHEDRAL.0>
40.8761

>  <SCORE.INTRA.POLAR>
-1.01202

>  <SCORE.INTRA.POLAR.0>
-0.0268208

>  <SCORE.INTRA.REPUL>
-0.641615

>  <SCORE.INTRA.REPUL.0>
0.641615

>  <SCORE.INTRA.SOLV>
-10.3291

>  <SCORE.INTRA.SOLV.lig_0>
-162.567

>  <SCORE.INTRA.VDW>
-0.156621

>  <SCORE.INTRA.VDW.0>
-4.80338

>  <SCORE.INTRA.norm>
-0.548651

>  <SCORE.RESTR>
0.208462

>  <SCORE.RESTR.CAVITY>
0.208462

>  <SCORE.RESTR.norm>
0.00496337

>  <SCORE.SYSTEM>
0

>  <SCORE.SYSTEM.CONST>
0

>  <SCORE.SYSTEM.DIHEDRAL>
0

>  <SCORE.SYSTEM.SOLV>
0

>  <SCORE.SYSTEM.norm>
0

>  <SCORE.heavy>
42

>  <SCORE.norm>
-1.40441

>  <RMSD>
7.732

$$$$

 OpenBabel11021811393D
libRbt.so/2013.1/901 2013/11/27
 42 45  0  0  0  0  0  0  0  0999 V2000
   -3.0660    4.5115   -0.1612 C   0  0  2  0  0  0  0  0  0  0  0  0
   -4.4169    5.0632   -0.0948 O   0  0  0  0  0  0  0  0  0  0  0  0
   -2.4823    4.5907   -1.6093 C   0  0  2  0  0  0  0  0  0  0  0  0
   -3.2707    5.5046   -2.4674 N   0  3  0  0  0  0  0  0  0  0  0  0
   -2.4036    3.1718   -2.2492 C   0  0  1  0  0  0  0  0  0  0  0  0
   -1.8605    3.2556   -3.5650 O   0  0  0  0  0  0  0  0  0  0  0  0
   -1.5184    2.2103   -1.4118 C   0  0  2  0  0  0  0  0  0  0  0  0
   -1.7201    0.8808   -1.8781 O   0  0  0  0  0  0  0  0  0  0  0  0
   -1.8633    2.3023    0.1101 C   0  0  2  0  0  0  0  0  0  0  0  0
   -3.0631    3.1191    0.3061 O   0  0  0  0  0  0  0  0  0  0  0  0
   -0.7548    2.9359    0.9819 C   0  0  0  0  0  0  0  0  0  0  0  0
   -5.4044    3.1956    3.6677 C   0  0  1  0  0  0  0  0  0  0  0  0
   -6.1042    2.7933    4.9083 N   0  3  0  0  0  0  0  0  0  0  0  0
   -6.1131    2.6347    2.4070 C   0  0  1  0  0  0  0  0  0  0  0  0
   -5.5045    3.1517    1.0571 C   0  0  1  0  0  0  0  0  0  0  0  0
   -6.4336    2.8292   -0.0124 O   0  0  0  0  0  0  0  0  0  0  0  0
   -5.2745    4.7075    1.0328 C   0  0  1  0  0  0  0  0  0  0  0  0
   -4.5844    5.2181    2.3390 C   0  0  1  0  0  0  0  0  0  0  0  0
   -4.5025    6.6923    2.3829 N   0  3  0  0  0  0  0  0  0  0  0  0
   -5.3248    4.7352    3.6065 C   0  0  0  0  0  0  0  0  0  0  0  0
   -7.8003    2.4447    0.3147 C   0  0  1  0  0  0  0  0  0  0  0  0
   -8.6517    3.7059    0.4015 C   0  0  1  0  0  0  0  0  0  0  0  0
   -8.9114    3.9540   -1.0781 C   0  0  1  0  0  0  0  0  0  0  0  0
   -9.1663    2.5297   -1.5915 C   0  0  2  0  0  0  0  0  0  0  0  0
   -8.3609    1.6656   -0.7547 O   0  0  0  0  0  0  0  0  0  0  0  0
   -8.7810    2.3448   -3.0702 C   0  0  0  0  0  0  0  0  0  0  0  0
  -11.5396    8.2886   -2.0049 C   0  0  1  0  0  0  0  0  0  0  0  0
  -12.3010    7.1145   -1.3289 C   0  0  1  0  0  0  0  0  0  0  0  0
  -11.5408    6.4680   -0.1350 C   0  0  2  0  0  0  0  0  0  0  0  0
  -10.0849    6.0714   -0.5411 C   0  0  1  0  0  0  0  0  0  0  0  0
  -10.0665    4.8180   -1.2813 O   0  0  0  0  0  0  0  0  0  0  0  0
  -10.1093    8.4410   -1.4039 C   0  0  1  0  0  0  0  0  0  0  0  0
   -9.4534    7.1316   -1.3602 O   0  0  0  0  0  0  0  0  0  0  0  0
   -9.2283    9.4269   -2.2137 C   0  0  0  0  0  0  0  0  0  0  0  0
   -0.7063    2.4333    2.3661 N   0  3  0  0  0  0  0  0  0  0  0  0
   -9.8617    3.4242    1.1053 O   0  0  0  0  0  0  0  0  0  0  0  0
  -13.5556    7.6045   -0.8573 O   0  0  0  0  0  0  0  0  0  0  0  0
  -11.4591    8.0267   -3.4077 O   0  0  0  0  0  0  0  0  0  0  0  0
   -8.9812    1.0030   -3.4806 O   0  0  0  0  0  0  0  0  0  0  0  0
   -6.0279    1.2101    2.4285 O   0  0  0  0  0  0  0  0  0  0  0  0
   -8.8575    8.9061   -3.5423 N   0  3  0  0  0  0  0  0  0  0  0  0
  -12.3024    5.3321    0.4412 N   0  3  0  0  0  0  0  0  0  0  0  0
  1  2  1  6  0  0  0
  1  3  1  0  0  0  0
  1 10  1  0  0  0  0
  3  4  1  6  0  0  0
  3  5  1  0  0  0  0
  5  6  1  6  0  0  0
  5  7  1  0  0  0  0
  7  8  1  6  0  0  0
  7  9  1  0  0  0  0
  9 10  1  0  0  0  0
  9 11  1  1  0  0  0
 11 35  1  0  0  0  0
 12 13  1  1  0  0  0
 12 14  1  0  0  0  0
 12 20  1  0  0  0  0
 14 15  1  0  0  0  0
 14 40  1  6  0  0  0
 15 16  1  6  0  0  0
 15 17  1  0  0  0  0
 17  2  1  6  0  0  0
 17 18  1  0  0  0  0
 18 19  1  6  0  0  0
 18 20  1  0  0  0  0
 21 16  1  6  0  0  0
 21 22  1  0  0  0  0
 21 25  1  0  0  0  0
 22 23  1  0  0  0  0
 22 36  1  1  0  0  0
 23 24  1  0  0  0  0
 23 31  1  1  0  0  0
 24 25  1  0  0  0  0
 24 26  1  6  0  0  0
 26 39  1  0  0  0  0
 27 28  1  0  0  0  0
 27 32  1  0  0  0  0
 27 38  1  6  0  0  0
 28 29  1  0  0  0  0
 28 37  1  1  0  0  0
 29 30  1  0  0  0  0
 29 42  1  6  0  0  0
 30 31  1  6  0  0  0
 30 33  1  0  0  0  0
 32 33  1  0  0  0  0
 32 34  1  6  0  0  0
 34 41  1  0  0  0  0
M  CHG  6   4   1  13   1  19   1  35   1  41   1  42   1
M  END
>  <CHROM.1>
160.87517863,-60.71439650,60.10951299,-62.12350261,-179.67084368,-149.75941899
-172.39345630,-101.52402891,149.88587406,15.01663669,88.23531115,82.25445949
91.04649267,51.51853573,177.53157745,-50.70280840,54.00332283,177.92681401
44.14429490,-145.99585844,-69.37936449,-64.25585580,-6.76335962,4.41288361
-0.29317101,-0.36927008,0.29207424,-1.08264177

>  <Name>


>  <RI>
0

>  <Rbt.Current_Directory>
/home/itssahil/PROJECTS/Mol_Feturizer/New_Systems/rnas/1ei2

>  <Rbt.Executable>
rbdock ($Id: //depot/dev/client3/rdock/2013.1/src/exe/rbdock.cxx#4 $)

>  <Rbt.Library>
libRbt.so (2013.1, Build901 2013/11/27)

>  <Rbt.Parameter_File>
/export/apps/rDock/src/rDock_2013.1_src/data/scripts/dock_solv.prm

>  <Rbt.Receptor>
prm/pocket_docking_5.prm

>  <SCORE>
-42.8016

>  <SCORE.INTER>
-30.3848

>  <SCORE.INTER.CONST>
1

>  <SCORE.INTER.POLAR>
-4.54206

>  <SCORE.INTER.ROT>
9

>  <SCORE.INTER.SOLV>
23.9325

>  <SCORE.INTER.VDW>
-22.6938

>  <SCORE.INTER.norm>
-0.723447

>  <SCORE.INTRA>
-12.4168

>  <SCORE.INTRA.DIHEDRAL>
-9.03504

>  <SCORE.INTRA.DIHEDRAL.0>
40.8761

>  <SCORE.INTRA.POLAR>
-1.2013

>  <SCORE.INTRA.POLAR.0>
-0.0268208

>  <SCORE.INTRA.REPUL>
-0.641615

>  <SCORE.INTRA.REPUL.0>
0.641615

>  <SCORE.INTRA.SOLV>
-9.98592

>  <SCORE.INTRA.SOLV.lig_0>
-162.567

>  <SCORE.INTRA.VDW>
4.38616

>  <SCORE.INTRA.VDW.0>
-4.80338

>  <SCORE.INTRA.norm>
-0.295639

>  <SCORE.RESTR>
0

>  <SCORE.RESTR.CAVITY>
0

>  <SCORE.RESTR.norm>
0

>  <SCORE.SYSTEM>
0

>  <SCORE.SYSTEM.CONST>
0

>  <SCORE.SYSTEM.DIHEDRAL>
0

>  <SCORE.SYSTEM.SOLV>
0

>  <SCORE.SYSTEM.norm>
0

>  <SCORE.heavy>
42

>  <SCORE.norm>
-1.01909

>  <RMSD>
7.736

$$$$

 OpenBabel11021811393D
libRbt.so/2013.1/901 2013/11/27
 42 45  0  0  0  0  0  0  0  0999 V2000
   -3.6703    2.8534   -2.0776 C   0  0  2  0  0  0  0  0  0  0  0  0
   -3.3933    2.0173   -0.9124 O   0  0  0  0  0  0  0  0  0  0  0  0
   -4.3538    2.0374   -3.2225 C   0  0  2  0  0  0  0  0  0  0  0  0
   -4.8695    0.7376   -2.7349 N   0  3  0  0  0  0  0  0  0  0  0  0
   -3.3674    1.8234   -4.4101 C   0  0  1  0  0  0  0  0  0  0  0  0
   -4.0049    1.0872   -5.4518 O   0  0  0  0  0  0  0  0  0  0  0  0
   -2.8682    3.1719   -4.9949 C   0  0  2  0  0  0  0  0  0  0  0  0
   -1.7697    2.9149   -5.8625 O   0  0  0  0  0  0  0  0  0  0  0  0
   -2.4361    4.1568   -3.8606 C   0  0  2  0  0  0  0  0  0  0  0  0
   -2.4291    3.4659   -2.5691 O   0  0  0  0  0  0  0  0  0  0  0  0
   -3.3573    5.3872   -3.6941 C   0  0  0  0  0  0  0  0  0  0  0  0
   -1.5498    2.0323    2.9890 C   0  0  1  0  0  0  0  0  0  0  0  0
   -0.7997    2.4366    4.1991 N   0  3  0  0  0  0  0  0  0  0  0  0
   -2.8673    2.8375    2.8404 C   0  0  1  0  0  0  0  0  0  0  0  0
   -3.6304    2.5594    1.4987 C   0  0  1  0  0  0  0  0  0  0  0  0
   -4.6441    3.5868    1.3319 O   0  0  0  0  0  0  0  0  0  0  0  0
   -2.6988    2.6016    0.2320 C   0  0  1  0  0  0  0  0  0  0  0  0
   -1.3760    1.7984    0.4505 C   0  0  1  0  0  0  0  0  0  0  0  0
   -0.4366    1.9594   -0.6780 N   0  3  0  0  0  0  0  0  0  0  0  0
   -0.6530    2.2241    1.7482 C   0  0  0  0  0  0  0  0  0  0  0  0
   -5.6919    3.7317    2.3337 C   0  0  1  0  0  0  0  0  0  0  0  0
   -6.0529    5.2079    2.4485 C   0  0  1  0  0  0  0  0  0  0  0  0
   -6.9716    5.3517    1.2427 C   0  0  1  0  0  0  0  0  0  0  0  0
   -7.7805    4.0486    1.3119 C   0  0  2  0  0  0  0  0  0  0  0  0
   -6.8881    3.0682    1.8932 O   0  0  0  0  0  0  0  0  0  0  0  0
   -8.2687    3.5692   -0.0669 C   0  0  0  0  0  0  0  0  0  0  0  0
  -11.5203    7.4942    0.9694 C   0  0  1  0  0  0  0  0  0  0  0  0
  -10.3551    8.4894    1.2285 C   0  0  1  0  0  0  0  0  0  0  0  0
   -9.1517    8.3256    0.2559 C   0  0  2  0  0  0  0  0  0  0  0  0
   -8.6618    6.8425    0.2086 C   0  0  1  0  0  0  0  0  0  0  0  0
   -7.8256    6.5262    1.3575 O   0  0  0  0  0  0  0  0  0  0  0  0
  -11.1313    6.4589   -0.1293 C   0  0  1  0  0  0  0  0  0  0  0  0
   -9.8074    5.9048    0.1655 O   0  0  0  0  0  0  0  0  0  0  0  0
  -12.1563    5.3009   -0.2417 C   0  0  0  0  0  0  0  0  0  0  0  0
   -2.8383    6.4173   -2.7771 N   0  3  0  0  0  0  0  0  0  0  0  0
   -6.7533    5.4403    3.6708 O   0  0  0  0  0  0  0  0  0  0  0  0
  -10.8624    9.8175    1.1049 O   0  0  0  0  0  0  0  0  0  0  0  0
  -11.8216    6.8224    2.1946 O   0  0  0  0  0  0  0  0  0  0  0  0
   -9.2729    2.5782    0.0690 O   0  0  0  0  0  0  0  0  0  0  0  0
   -3.7294    2.5115    3.9303 O   0  0  0  0  0  0  0  0  0  0  0  0
  -11.6340    4.1435   -0.9911 N   0  3  0  0  0  0  0  0  0  0  0  0
   -8.0602    9.2776    0.5792 N   0  3  0  0  0  0  0  0  0  0  0  0
  1  2  1  1  0  0  0
  1  3  1  0  0  0  0
  1 10  1  0  0  0  0
  3  4  1  1  0  0  0
  3  5  1  0  0  0  0
  5  6  1  6  0  0  0
  5  7  1  0  0  0  0
  7  8  1  6  0  0  0
  7  9  1  0  0  0  0
  9 10  1  0  0  0  0
  9 11  1  1  0  0  0
 11 35  1  0  0  0  0
 12 13  1  1  0  0  0
 12 14  1  0  0  0  0
 12 20  1  0  0  0  0
 14 15  1  0  0  0  0
 14 40  1  1  0  0  0
 15 16  1  6  0  0  0
 15 17  1  0  0  0  0
 17  2  1  6  0  0  0
 17 18  1  0  0  0  0
 18 19  1  6  0  0  0
 18 20  1  0  0  0  0
 21 16  1  6  0  0  0
 21 22  1  0  0  0  0
 21 25  1  0  0  0  0
 22 23  1  0  0  0  0
 22 36  1  1  0  0  0
 23 24  1  0  0  0  0
 23 31  1  1  0  0  0
 24 25  1  0  0  0  0
 24 26  1  6  0  0  0
 26 39  1  0  0  0  0
 27 28  1  0  0  0  0
 27 32  1  0  0  0  0
 27 38  1  1  0  0  0
 28 29  1  0  0  0  0
 28 37  1  6  0  0  0
 29 30  1  0  0  0  0
 29 42  1  1  0  0  0
 30 31  1  1  0  0  0
 30 33  1  0  0  0  0
 32 33  1  0  0  0  0
 32 34  1  1  0  0  0
 34 41  1  0  0  0  0
M  CHG  6   4   1  13   1  19   1  35   1  41   1  42   1
M  END
>  <CHROM.1>
177.19521897,117.59526720,67.28114062,-175.39878984,-60.76708230,-170.82951479
56.63565997,59.08779867,-58.95100173,-60.26042781,146.10611776,-66.62841493
-176.65384809,174.44500806,-165.26395597,-50.49506747,177.17472421,64.94078917
-158.38690009,-161.28725743,-164.22213686,59.92181924,-5.78325543,4.25860312
-0.10519348,0.28879903,0.49051145,-1.63030100

>  <Name>


>  <RI>
0

>  <Rbt.Current_Directory>
/home/itssahil/PROJECTS/Mol_Feturizer/New_Systems/rnas/1ei2

>  <Rbt.Executable>
rbdock ($Id: //depot/dev/client3/rdock/2013.1/src/exe/rbdock.cxx#4 $)

>  <Rbt.Library>
libRbt.so (2013.1, Build901 2013/11/27)

>  <Rbt.Parameter_File>
/export/apps/rDock/src/rDock_2013.1_src/data/scripts/dock_solv.prm

>  <Rbt.Receptor>
prm/pocket_docking_4.prm

>  <SCORE>
-51.2171

>  <SCORE.INTER>
-27.7584

>  <SCORE.INTER.CONST>
1

>  <SCORE.INTER.POLAR>
-3.83048

>  <SCORE.INTER.ROT>
9

>  <SCORE.INTER.SOLV>
31.0202

>  <SCORE.INTER.VDW>
-25.6774

>  <SCORE.INTER.norm>
-0.660914

>  <SCORE.INTRA>
-23.5889

>  <SCORE.INTRA.DIHEDRAL>
-22.732

>  <SCORE.INTRA.DIHEDRAL.0>
40.8761

>  <SCORE.INTRA.POLAR>
-1.21467

>  <SCORE.INTRA.POLAR.0>
-0.0268208

>  <SCORE.INTRA.REPUL>
-0.641615

>  <SCORE.INTRA.REPUL.0>
0.641615

>  <SCORE.INTRA.SOLV>
-10.6739

>  <SCORE.INTRA.SOLV.lig_0>
-162.567

>  <SCORE.INTRA.VDW>
0.452073

>  <SCORE.INTRA.VDW.0>
-4.80338

>  <SCORE.INTRA.norm>
-0.56164

>  <SCORE.RESTR>
0.130113

>  <SCORE.RESTR.CAVITY>
0.130113

>  <SCORE.RESTR.norm>
0.00309793

>  <SCORE.SYSTEM>
0

>  <SCORE.SYSTEM.CONST>
0

>  <SCORE.SYSTEM.DIHEDRAL>
0

>  <SCORE.SYSTEM.SOLV>
0

>  <SCORE.SYSTEM.norm>
0

>  <SCORE.heavy>
42

>  <SCORE.norm>
-1.21946

>  <RMSD>
7.743

$$$$

 OpenBabel11021811393D
libRbt.so/2013.1/901 2013/11/27
 42 45  0  0  0  0  0  0  0  0999 V2000
   -3.1384    1.1321   -3.6970 C   0  0  2  0  0  0  0  0  0  0  0  0
   -3.3518    1.1437   -2.2520 O   0  0  0  0  0  0  0  0  0  0  0  0
   -1.9580    2.0693   -4.1122 C   0  0  2  0  0  0  0  0  0  0  0  0
   -1.1301    2.4551   -2.9466 N   0  3  0  0  0  0  0  0  0  0  0  0
   -2.4930    3.3358   -4.8461 C   0  0  1  0  0  0  0  0  0  0  0  0
   -1.4073    4.1774   -5.2287 O   0  0  0  0  0  0  0  0  0  0  0  0
   -3.3014    2.9662   -6.1187 C   0  0  2  0  0  0  0  0  0  0  0  0
   -3.9960    4.1233   -6.5709 O   0  0  0  0  0  0  0  0  0  0  0  0
   -4.3147    1.8112   -5.8315 C   0  0  2  0  0  0  0  0  0  0  0  0
   -4.3673    1.5329   -4.3945 O   0  0  0  0  0  0  0  0  0  0  0  0
   -3.9742    0.4719   -6.5249 C   0  0  0  0  0  0  0  0  0  0  0  0
   -7.0234   -1.1213   -2.3426 C   0  0  1  0  0  0  0  0  0  0  0  0
   -8.1700   -1.9756   -1.9603 N   0  3  0  0  0  0  0  0  0  0  0  0
   -7.0726    0.2524   -1.6239 C   0  0  1  0  0  0  0  0  0  0  0  0
   -5.8054    1.1423   -1.8736 C   0  0  1  0  0  0  0  0  0  0  0  0
   -5.8186    2.2308   -0.9114 O   0  0  0  0  0  0  0  0  0  0  0  0
   -4.4513    0.3633   -1.6903 C   0  0  1  0  0  0  0  0  0  0  0  0
   -4.4711   -1.0236   -2.4109 C   0  0  1  0  0  0  0  0  0  0  0  0
   -3.2612   -1.8184   -2.1171 N   0  3  0  0  0  0  0  0  0  0  0  0
   -5.7089   -1.8594   -2.0144 C   0  0  0  0  0  0  0  0  0  0  0  0
   -6.8027    3.2967   -1.0458 C   0  0  1  0  0  0  0  0  0  0  0  0
   -6.8032    4.1214    0.2359 C   0  0  1  0  0  0  0  0  0  0  0  0
   -5.5867    5.0023   -0.0139 C   0  0  1  0  0  0  0  0  0  0  0  0
   -5.7521    5.3451   -1.5014 C   0  0  2  0  0  0  0  0  0  0  0  0
   -6.4098    4.1991   -2.0929 O   0  0  0  0  0  0  0  0  0  0  0  0
   -4.4122    5.6116   -2.2105 C   0  0  0  0  0  0  0  0  0  0  0  0
   -4.9378    8.6809    3.6699 C   0  0  1  0  0  0  0  0  0  0  0  0
   -6.3032    7.9981    3.3787 C   0  0  1  0  0  0  0  0  0  0  0  0
   -6.2202    6.4520    3.2244 C   0  0  2  0  0  0  0  0  0  0  0  0
   -5.1242    6.0462    2.1872 C   0  0  1  0  0  0  0  0  0  0  0  0
   -5.6084    6.1948    0.8224 O   0  0  0  0  0  0  0  0  0  0  0  0
   -3.7731    7.6477    3.5908 C   0  0  1  0  0  0  0  0  0  0  0  0
   -3.8989    6.8598    2.3619 O   0  0  0  0  0  0  0  0  0  0  0  0
   -2.3782    8.3236    3.6237 C   0  0  0  0  0  0  0  0  0  0  0  0
   -3.6413    0.5936   -7.9551 N   0  3  0  0  0  0  0  0  0  0  0  0
   -8.0017    4.8936    0.3130 O   0  0  0  0  0  0  0  0  0  0  0  0
   -7.1950    8.3010    4.4508 O   0  0  0  0  0  0  0  0  0  0  0  0
   -4.7392    9.7214    2.7103 O   0  0  0  0  0  0  0  0  0  0  0  0
   -4.6238    6.1197   -3.5165 O   0  0  0  0  0  0  0  0  0  0  0  0
   -8.2247    0.9647   -2.0742 O   0  0  0  0  0  0  0  0  0  0  0  0
   -2.0916    8.9852    4.9098 N   0  3  0  0  0  0  0  0  0  0  0  0
   -7.5474    5.8666    2.9113 N   0  3  0  0  0  0  0  0  0  0  0  0
  1  2  1  1  0  0  0
  1  3  1  0  0  0  0
  1 10  1  0  0  0  0
  3  4  1  1  0  0  0
  3  5  1  0  0  0  0
  5  6  1  6  0  0  0
  5  7  1  0  0  0  0
  7  8  1  1  0  0  0
  7  9  1  0  0  0  0
  9 10  1  0  0  0  0
  9 11  1  6  0  0  0
 11 35  1  0  0  0  0
 12 13  1  1  0  0  0
 12 14  1  0  0  0  0
 12 20  1  0  0  0  0
 14 15  1  0  0  0  0
 14 40  1  6  0  0  0
 15 16  1  1  0  0  0
 15 17  1  0  0  0  0
 17  2  1  6  0  0  0
 17 18  1  0  0  0  0
 18 19  1  1  0  0  0
 18 20  1  0  0  0  0
 21 16  1  1  0  0  0
 21 22  1  0  0  0  0
 21 25  1  0  0  0  0
 22 23  1  0  0  0  0
 22 36  1  6  0  0  0
 23 24  1  0  0  0  0
 23 31  1  1  0  0  0
 24 25  1  0  0  0  0
 24 26  1  6  0  0  0
 26 39  1  0  0  0  0
 27 28  1  0  0  0  0
 27 32  1  0  0  0  0
 27 38  1  6  0  0  0
 28 29  1  0  0  0  0
 28 37  1  1  0  0  0
 29 30  1  0  0  0  0
 29 42  1  6  0  0  0
 30 31  1  6  0  0  0
 30 33  1  0  0  0  0
 32 33  1  0  0  0  0
 32 34  1  6  0  0  0
 34 41  1  0  0  0  0
M  CHG  6   4   1  13   1  19   1  35   1  41   1  42   1
M  END
>  <CHROM.1>
177.62633741,-79.47571868,128.34399767,-176.69824404,-52.61311571,-47.71891654
66.32421598,144.02275393,160.99962193,-70.93349780,167.55762945,64.70837093
58.89404876,82.22306287,-171.06095136,-54.01493070,-65.04593881,-56.27602813
-152.98004371,-122.00530781,66.08362475,38.17486776,-4.88942994,3.66426910
-1.23024267,-1.47051171,0.78641920,0.74573355

>  <Name>


>  <RI>
0

>  <Rbt.Current_Directory>
/home/itssahil/PROJECTS/Mol_Feturizer/New_Systems/rnas/1ei2

>  <Rbt.Executable>
rbdock ($Id: //depot/dev/client3/rdock/2013.1/src/exe/rbdock.cxx#4 $)

>  <Rbt.Library>
libRbt.so (2013.1, Build901 2013/11/27)

>  <Rbt.Parameter_File>
/export/apps/rDock/src/rDock_2013.1_src/data/scripts/dock_solv.prm

>  <Rbt.Receptor>
prm/pocket_docking_7.prm

>  <SCORE>
-57.0285

>  <SCORE.INTER>
-37.2473

>  <SCORE.INTER.CONST>
1

>  <SCORE.INTER.POLAR>
-5.81448

>  <SCORE.INTER.ROT>
9

>  <SCORE.INTER.SOLV>
30.9866

>  <SCORE.INTER.VDW>
-25.3788

>  <SCORE.INTER.norm>
-0.88684

>  <SCORE.INTRA>
-19.8462

>  <SCORE.INTRA.DIHEDRAL>
-16.1222

>  <SCORE.INTRA.DIHEDRAL.0>
40.8761

>  <SCORE.INTRA.POLAR>
-1.43099

>  <SCORE.INTRA.POLAR.0>
-0.0268208

>  <SCORE.INTRA.REPUL>
-0.601538

>  <SCORE.INTRA.REPUL.0>
0.641615

>  <SCORE.INTRA.SOLV>
-9.60904

>  <SCORE.INTRA.SOLV.lig_0>
-162.567

>  <SCORE.INTRA.VDW>
0.892439

>  <SCORE.INTRA.VDW.0>
-4.80338

>  <SCORE.INTRA.norm>
-0.472529

>  <SCORE.RESTR>
0.0650235

>  <SCORE.RESTR.CAVITY>
0.0650235

>  <SCORE.RESTR.norm>
0.00154818

>  <SCORE.SYSTEM>
0

>  <SCORE.SYSTEM.CONST>
0

>  <SCORE.SYSTEM.DIHEDRAL>
0

>  <SCORE.SYSTEM.SOLV>
0

>  <SCORE.SYSTEM.norm>
0

>  <SCORE.heavy>
42

>  <SCORE.norm>
-1.35782

>  <RMSD>
7.744

$$$$

 OpenBabel11021811393D
libRbt.so/2013.1/901 2013/11/27
 42 45  0  0  0  0  0  0  0  0999 V2000
   -4.9198    1.9205   -4.6425 C   0  0  2  0  0  0  0  0  0  0  0  0
   -5.5061    2.1231   -3.3201 O   0  0  0  0  0  0  0  0  0  0  0  0
   -4.0356    0.6322   -4.6891 C   0  0  2  0  0  0  0  0  0  0  0  0
   -4.2845   -0.2444   -3.5217 N   0  3  0  0  0  0  0  0  0  0  0  0
   -2.5250    1.0046   -4.7810 C   0  0  1  0  0  0  0  0  0  0  0  0
   -1.7297   -0.1778   -4.8331 O   0  0  0  0  0  0  0  0  0  0  0  0
   -2.2178    1.8602   -6.0391 C   0  0  2  0  0  0  0  0  0  0  0  0
   -0.9083    2.4035   -5.9138 O   0  0  0  0  0  0  0  0  0  0  0  0
   -3.2612    3.0114   -6.2109 C   0  0  2  0  0  0  0  0  0  0  0  0
   -4.1220    3.0917   -5.0285 O   0  0  0  0  0  0  0  0  0  0  0  0
   -4.2017    2.8486   -7.4271 C   0  0  0  0  0  0  0  0  0  0  0  0
   -6.7147    6.1985   -4.0621 C   0  0  1  0  0  0  0  0  0  0  0  0
   -7.3465    7.5317   -3.9447 N   0  3  0  0  0  0  0  0  0  0  0  0
   -5.6344    5.9824   -2.9700 C   0  0  1  0  0  0  0  0  0  0  0  0
   -5.0362    4.5327   -2.9505 C   0  0  1  0  0  0  0  0  0  0  0  0
   -4.2992    4.3626   -1.7100 O   0  0  0  0  0  0  0  0  0  0  0  0
   -6.1320    3.4058   -3.0098 C   0  0  1  0  0  0  0  0  0  0  0  0
   -7.2076    3.6917   -4.1072 C   0  0  1  0  0  0  0  0  0  0  0  0
   -8.3158    2.7159   -4.0651 N   0  3  0  0  0  0  0  0  0  0  0  0
   -7.8047    5.1104   -3.9707 C   0  0  0  0  0  0  0  0  0  0  0  0
   -3.1209    3.5060   -1.6860 C   0  0  1  0  0  0  0  0  0  0  0  0
   -2.4400    3.6551   -0.3306 C   0  0  1  0  0  0  0  0  0  0  0  0
   -3.3158    2.7359    0.5098 C   0  0  1  0  0  0  0  0  0  0  0  0
   -3.5360    1.5562   -0.4479 C   0  0  2  0  0  0  0  0  0  0  0  0
   -3.5139    2.1269   -1.7781 O   0  0  0  0  0  0  0  0  0  0  0  0
   -4.8691    0.8255   -0.2067 C   0  0  0  0  0  0  0  0  0  0  0  0
   -6.0391    3.0191    3.3745 C   0  0  1  0  0  0  0  0  0  0  0  0
   -5.1938    1.7304    3.5748 C   0  0  1  0  0  0  0  0  0  0  0  0
   -3.7098    1.9976    3.9590 C   0  0  2  0  0  0  0  0  0  0  0  0
   -3.0387    2.9945    2.9602 C   0  0  1  0  0  0  0  0  0  0  0  0
   -2.6398    2.3225    1.7320 O   0  0  0  0  0  0  0  0  0  0  0  0
   -5.1420    4.2907    3.4664 C   0  0  1  0  0  0  0  0  0  0  0  0
   -3.9520    4.1130    2.6304 O   0  0  0  0  0  0  0  0  0  0  0  0
   -5.8888    5.5759    3.0255 C   0  0  0  0  0  0  0  0  0  0  0  0
   -4.9343    4.0718   -7.7990 N   0  3  0  0  0  0  0  0  0  0  0  0
   -1.0984    3.1727   -0.4084 O   0  0  0  0  0  0  0  0  0  0  0  0
   -5.7980    0.9524    4.6073 O   0  0  0  0  0  0  0  0  0  0  0  0
   -6.6684    2.9519    2.0929 O   0  0  0  0  0  0  0  0  0  0  0  0
   -4.7948    0.0064    0.9474 O   0  0  0  0  0  0  0  0  0  0  0  0
   -4.5716    6.9104   -3.1863 O   0  0  0  0  0  0  0  0  0  0  0  0
   -5.0808    6.7969    3.1992 N   0  3  0  0  0  0  0  0  0  0  0  0
   -2.9497    0.7307    4.0986 N   0  3  0  0  0  0  0  0  0  0  0  0
  1  2  1  1  0  0  0
  1  3  1  0  0  0  0
  1 10  1  0  0  0  0
  3  4  1  1  0  0  0
  3  5  1  0  0  0  0
  5  6  1  6  0  0  0
  5  7  1  0  0  0  0
  7  8  1  1  0  0  0
  7  9  1  0  0  0  0
  9 10  1  0  0  0  0
  9 11  1  6  0  0  0
 11 35  1  0  0  0  0
 12 13  1  1  0  0  0
 12 14  1  0  0  0  0
 12 20  1  0  0  0  0
 14 15  1  0  0  0  0
 14 40  1  6  0  0  0
 15 16  1  1  0  0  0
 15 17  1  0  0  0  0
 17  2  1  6  0  0  0
 17 18  1  0  0  0  0
 18 19  1  1  0  0  0
 18 20  1  0  0  0  0
 21 16  1  1  0  0  0
 21 22  1  0  0  0  0
 21 25  1  0  0  0  0
 22 23  1  0  0  0  0
 22 36  1  6  0  0  0
 23 24  1  0  0  0  0
 23 31  1  1  0  0  0
 24 25  1  0  0  0  0
 24 26  1  1  0  0  0
 26 39  1  0  0  0  0
 27 28  1  0  0  0  0
 27 32  1  0  0  0  0
 27 38  1  6  0  0  0
 28 29  1  0  0  0  0
 28 37  1  1  0  0  0
 29 30  1  0  0  0  0
 29 42  1  6  0  0  0
 30 31  1  6  0  0  0
 30 33  1  0  0  0  0
 32 33  1  0  0  0  0
 32 34  1  6  0  0  0
 34 41  1  0  0  0  0
M  CHG  6   4   1  13   1  19   1  35   1  41   1  42   1
M  END
>  <CHROM.1>
167.57025521,-67.79601982,-57.49381109,62.43682567,-59.09111057,-164.78345423
101.39600495,22.05905347,-56.30476894,-147.63606432,172.39568082,-55.82810064
-54.49955453,102.46788315,-75.80239138,61.34186030,170.79334078,-69.53852338
-70.24739877,115.24459572,175.92052435,179.44611922,-4.48491931,3.04206027
-1.48728013,-1.54869334,-0.91660100,1.62565679

>  <Name>


>  <RI>
0

>  <Rbt.Current_Directory>
/home/itssahil/PROJECTS/Mol_Feturizer/New_Systems/rnas/1ei2

>  <Rbt.Executable>
rbdock ($Id: //depot/dev/client3/rdock/2013.1/src/exe/rbdock.cxx#4 $)

>  <Rbt.Library>
libRbt.so (2013.1, Build901 2013/11/27)

>  <Rbt.Parameter_File>
/export/apps/rDock/src/rDock_2013.1_src/data/scripts/dock_solv.prm

>  <Rbt.Receptor>
prm/pocket_docking_5.prm

>  <SCORE>
-41.7737

>  <SCORE.INTER>
-23.854

>  <SCORE.INTER.CONST>
1

>  <SCORE.INTER.POLAR>
-3.51554

>  <SCORE.INTER.ROT>
9

>  <SCORE.INTER.SOLV>
25.5599

>  <SCORE.INTER.VDW>
-22.3042

>  <SCORE.INTER.norm>
-0.567952

>  <SCORE.INTRA>
-17.9197

>  <SCORE.INTRA.DIHEDRAL>
-13.6046

>  <SCORE.INTRA.DIHEDRAL.0>
40.8761

>  <SCORE.INTRA.POLAR>
-1.07545

>  <SCORE.INTRA.POLAR.0>
-0.0268208

>  <SCORE.INTRA.REPUL>
-0.614666

>  <SCORE.INTRA.REPUL.0>
0.641615

>  <SCORE.INTRA.SOLV>
-9.60299

>  <SCORE.INTRA.SOLV.lig_0>
-162.567

>  <SCORE.INTRA.VDW>
0.413933

>  <SCORE.INTRA.VDW.0>
-4.80338

>  <SCORE.INTRA.norm>
-0.42666

>  <SCORE.RESTR>
0

>  <SCORE.RESTR.CAVITY>
0

>  <SCORE.RESTR.norm>
0

>  <SCORE.SYSTEM>
0

>  <SCORE.SYSTEM.CONST>
0

>  <SCORE.SYSTEM.DIHEDRAL>
0

>  <SCORE.SYSTEM.SOLV>
0

>  <SCORE.SYSTEM.norm>
0

>  <SCORE.heavy>
42

>  <SCORE.norm>
-0.994611

>  <RMSD>
7.772

$$$$

 OpenBabel11021811393D
libRbt.so/2013.1/901 2013/11/27
 42 45  0  0  0  0  0  0  0  0999 V2000
   -4.7616    2.4450   -7.6247 C   0  0  2  0  0  0  0  0  0  0  0  0
   -3.4214    2.3494   -7.0518 O   0  0  0  0  0  0  0  0  0  0  0  0
   -4.8657    3.6176   -8.6534 C   0  0  2  0  0  0  0  0  0  0  0  0
   -3.5291    4.1098   -9.0586 N   0  3  0  0  0  0  0  0  0  0  0  0
   -5.7250    4.7822   -8.0751 C   0  0  1  0  0  0  0  0  0  0  0  0
   -5.8212    5.8407   -9.0257 O   0  0  0  0  0  0  0  0  0  0  0  0
   -7.1600    4.3146   -7.7123 C   0  0  2  0  0  0  0  0  0  0  0  0
   -7.7875    5.3274   -6.9338 O   0  0  0  0  0  0  0  0  0  0  0  0
   -7.1342    2.9680   -6.9189 C   0  0  2  0  0  0  0  0  0  0  0  0
   -5.7573    2.6214   -6.5594 O   0  0  0  0  0  0  0  0  0  0  0  0
   -7.7031    1.7565   -7.6928 C   0  0  0  0  0  0  0  0  0  0  0  0
   -4.0000   -1.5863   -5.3800 C   0  0  1  0  0  0  0  0  0  0  0  0
   -3.7658   -2.9114   -4.7638 N   0  3  0  0  0  0  0  0  0  0  0  0
   -3.7373   -0.4360   -4.3731 C   0  0  1  0  0  0  0  0  0  0  0  0
   -3.8236    0.9944   -5.0108 C   0  0  1  0  0  0  0  0  0  0  0  0
   -3.2495    1.9445   -4.0734 O   0  0  0  0  0  0  0  0  0  0  0  0
   -3.0296    1.1226   -6.3626 C   0  0  1  0  0  0  0  0  0  0  0  0
   -3.3113   -0.0774   -7.3236 C   0  0  1  0  0  0  0  0  0  0  0  0
   -2.4562   -0.0363   -8.5273 N   0  3  0  0  0  0  0  0  0  0  0  0
   -3.0972   -1.4376   -6.6223 C   0  0  0  0  0  0  0  0  0  0  0  0
   -2.1106    1.5482   -3.2557 C   0  0  1  0  0  0  0  0  0  0  0  0
   -1.5230    2.7949   -2.6051 C   0  0  1  0  0  0  0  0  0  0  0  0
   -2.4923    2.9713   -1.4442 C   0  0  1  0  0  0  0  0  0  0  0  0
   -2.6898    1.5207   -0.9817 C   0  0  2  0  0  0  0  0  0  0  0  0
   -2.5502    0.7110   -2.1736 O   0  0  0  0  0  0  0  0  0  0  0  0
   -4.0645    1.2772   -0.3336 C   0  0  0  0  0  0  0  0  0  0  0  0
   -3.2361    3.6680    3.2123 C   0  0  1  0  0  0  0  0  0  0  0  0
   -1.9360    4.3883    2.7581 C   0  0  1  0  0  0  0  0  0  0  0  0
   -2.1312    5.3493    1.5501 C   0  0  2  0  0  0  0  0  0  0  0  0
   -2.8511    4.6281    0.3655 C   0  0  1  0  0  0  0  0  0  0  0  0
   -1.9222    3.8024   -0.3924 O   0  0  0  0  0  0  0  0  0  0  0  0
   -4.4119    3.9787    2.2369 C   0  0  1  0  0  0  0  0  0  0  0  0
   -3.9666    3.7853    0.8546 O   0  0  0  0  0  0  0  0  0  0  0  0
   -5.6533    3.0887    2.5029 C   0  0  0  0  0  0  0  0  0  0  0  0
   -7.8253    0.5252   -6.8927 N   0  3  0  0  0  0  0  0  0  0  0  0
   -0.1994    2.5214   -2.1448 O   0  0  0  0  0  0  0  0  0  0  0  0
   -1.4301    5.1402    3.8604 O   0  0  0  0  0  0  0  0  0  0  0  0
   -2.9845    2.2615    3.2482 O   0  0  0  0  0  0  0  0  0  0  0  0
   -4.0400    0.1196    0.4837 O   0  0  0  0  0  0  0  0  0  0  0  0
   -4.6949   -0.5223   -3.3181 O   0  0  0  0  0  0  0  0  0  0  0  0
   -6.6032    3.0776    1.3753 N   0  3  0  0  0  0  0  0  0  0  0  0
   -0.8487    5.9752    1.1429 N   0  3  0  0  0  0  0  0  0  0  0  0
  1  2  1  1  0  0  0
  1  3  1  0  0  0  0
  1 10  1  0  0  0  0
  3  4  1  1  0  0  0
  3  5  1  0  0  0  0
  5  6  1  6  0  0  0
  5  7  1  0  0  0  0
  7  8  1  1  0  0  0
  7  9  1  0  0  0  0
  9 10  1  0  0  0  0
  9 11  1  6  0  0  0
 11 35  1  0  0  0  0
 12 13  1  1  0  0  0
 12 14  1  0  0  0  0
 12 20  1  0  0  0  0
 14 15  1  0  0  0  0
 14 40  1  1  0  0  0
 15 16  1  1  0  0  0
 15 17  1  0  0  0  0
 17  2  1  6  0  0  0
 17 18  1  0  0  0  0
 18 19  1  6  0  0  0
 18 20  1  0  0  0  0
 21 16  1  6  0  0  0
 21 22  1  0  0  0  0
 21 25  1  0  0  0  0
 22 23  1  0  0  0  0
 22 36  1  1  0  0  0
 23 24  1  0  0  0  0
 23 31  1  1  0  0  0
 24 25  1  0  0  0  0
 24 26  1  6  0  0  0
 26 39  1  0  0  0  0
 27 28  1  0  0  0  0
 27 32  1  0  0  0  0
 27 38  1  6  0  0  0
 28 29  1  0  0  0  0
 28 37  1  1  0  0  0
 29 30  1  0  0  0  0
 29 42  1  6  0  0  0
 30 31  1  1  0  0  0
 30 33  1  0  0  0  0
 32 33  1  0  0  0  0
 32 34  1  1  0  0  0
 34 41  1  0  0  0  0
M  CHG  6   4   1  13   1  19   1  35   1  41   1  42   1
M  END
>  <CHROM.1>
-163.56758757,-69.69606150,2.04921650,-68.16071318,65.84672707,-173.15603691
58.36664048,42.53027433,-54.82622503,35.45302455,167.66134914,-153.44596977
58.48227754,147.88993506,-159.18785887,-55.12675226,167.84461653,-57.93312117
177.27360358,174.08891566,-163.02902397,-79.88895851,-3.91251095,2.38599369
-3.26727456,2.18721465,1.15702082,-2.30142762

>  <Name>


>  <RI>
0

>  <Rbt.Current_Directory>
/home/itssahil/PROJECTS/Mol_Feturizer/New_Systems/rnas/1ei2

>  <Rbt.Executable>
rbdock ($Id: //depot/dev/client3/rdock/2013.1/src/exe/rbdock.cxx#4 $)

>  <Rbt.Library>
libRbt.so (2013.1, Build901 2013/11/27)

>  <Rbt.Parameter_File>
/export/apps/rDock/src/rDock_2013.1_src/data/scripts/dock_solv.prm

>  <Rbt.Receptor>
prm/pocket_docking_5.prm

>  <SCORE>
-63.3437

>  <SCORE.INTER>
-45.3357

>  <SCORE.INTER.CONST>
1

>  <SCORE.INTER.POLAR>
-8.21567

>  <SCORE.INTER.ROT>
9

>  <SCORE.INTER.SOLV>
33.1216

>  <SCORE.INTER.VDW>
-23.4788

>  <SCORE.INTER.norm>
-1.07942

>  <SCORE.INTRA>
-18.2086

>  <SCORE.INTRA.DIHEDRAL>
-20.4323

>  <SCORE.INTRA.DIHEDRAL.0>
40.8761

>  <SCORE.INTRA.POLAR>
-0.453403

>  <SCORE.INTRA.POLAR.0>
-0.0268208

>  <SCORE.INTRA.REPUL>
-0.637375

>  <SCORE.INTRA.REPUL.0>
0.641615

>  <SCORE.INTRA.SOLV>
-10.0631

>  <SCORE.INTRA.SOLV.lig_0>
-162.567

>  <SCORE.INTRA.VDW>
1.76756

>  <SCORE.INTRA.VDW.0>
-4.80338

>  <SCORE.INTRA.norm>
-0.433538

>  <SCORE.RESTR>
0.200644

>  <SCORE.RESTR.CAVITY>
0.200644

>  <SCORE.RESTR.norm>
0.00477725

>  <SCORE.SYSTEM>
0

>  <SCORE.SYSTEM.CONST>
0

>  <SCORE.SYSTEM.DIHEDRAL>
0

>  <SCORE.SYSTEM.SOLV>
0

>  <SCORE.SYSTEM.norm>
0

>  <SCORE.heavy>
42

>  <SCORE.norm>
-1.50818

>  <RMSD>
7.776

$$$$

 OpenBabel11021811393D
libRbt.so/2013.1/901 2013/11/27
 42 45  0  0  0  0  0  0  0  0999 V2000
   -5.8141    2.5684   -6.0939 C   0  0  2  0  0  0  0  0  0  0  0  0
   -7.1256    2.3915   -5.4754 O   0  0  0  0  0  0  0  0  0  0  0  0
   -5.6418    1.6538   -7.3500 C   0  0  2  0  0  0  0  0  0  0  0  0
   -6.9391    1.1087   -7.8116 N   0  3  0  0  0  0  0  0  0  0  0  0
   -4.6371    0.4992   -7.0563 C   0  0  1  0  0  0  0  0  0  0  0  0
   -4.4805   -0.3218   -8.2117 O   0  0  0  0  0  0  0  0  0  0  0  0
   -3.2418    1.0402   -6.6441 C   0  0  2  0  0  0  0  0  0  0  0  0
   -2.4727   -0.0346   -6.1160 O   0  0  0  0  0  0  0  0  0  0  0  0
   -3.3666    2.1815   -5.5833 C   0  0  2  0  0  0  0  0  0  0  0  0
   -4.7517    2.2886   -5.1192 O   0  0  0  0  0  0  0  0  0  0  0  0
   -2.9679    3.5833   -6.0994 C   0  0  0  0  0  0  0  0  0  0  0  0
   -7.5688    6.5231   -4.3124 C   0  0  1  0  0  0  0  0  0  0  0  0
   -8.1039    7.7917   -3.7693 N   0  3  0  0  0  0  0  0  0  0  0  0
   -7.2360    5.5152   -3.1812 C   0  0  1  0  0  0  0  0  0  0  0  0
   -6.8069    4.0994   -3.7020 C   0  0  1  0  0  0  0  0  0  0  0  0
   -6.8416    3.1743   -2.5822 O   0  0  0  0  0  0  0  0  0  0  0  0
   -7.7596    3.5307   -4.8170 C   0  0  1  0  0  0  0  0  0  0  0  0
   -8.0822    4.5981   -5.9122 C   0  0  1  0  0  0  0  0  0  0  0  0
   -9.0916    4.1154   -6.8766 N   0  3  0  0  0  0  0  0  0  0  0  0
   -8.5940    5.9188   -5.2943 C   0  0  0  0  0  0  0  0  0  0  0  0
   -6.4572    1.7839   -2.7867 C   0  0  1  0  0  0  0  0  0  0  0  0
   -5.4195    1.4076   -1.7358 C   0  0  1  0  0  0  0  0  0  0  0  0
   -6.3307    1.1420   -0.5451 C   0  0  1  0  0  0  0  0  0  0  0  0
   -7.4963    0.3936   -1.2073 C   0  0  2  0  0  0  0  0  0  0  0  0
   -7.5836    0.9230   -2.5518 O   0  0  0  0  0  0  0  0  0  0  0  0
   -8.8340    0.5911   -0.4720 C   0  0  0  0  0  0  0  0  0  0  0  0
   -3.8395    3.6830    0.0932 C   0  0  1  0  0  0  0  0  0  0  0  0
   -5.0119    3.4047    1.0747 C   0  0  1  0  0  0  0  0  0  0  0  0
   -4.8168    2.1358    1.9538 C   0  0  2  0  0  0  0  0  0  0  0  0
   -4.4724    0.8890    1.0770 C   0  0  1  0  0  0  0  0  0  0  0  0
   -5.6681    0.3279    0.4649 O   0  0  0  0  0  0  0  0  0  0  0  0
   -2.8011    2.5207    0.1260 C   0  0  1  0  0  0  0  0  0  0  0  0
   -3.4983    1.2367    0.0168 O   0  0  0  0  0  0  0  0  0  0  0  0
   -1.7524    2.6308   -1.0107 C   0  0  0  0  0  0  0  0  0  0  0  0
   -2.1966    4.3901   -5.1374 N   0  3  0  0  0  0  0  0  0  0  0  0
   -4.7291    0.2252   -2.1405 O   0  0  0  0  0  0  0  0  0  0  0  0
   -5.1571    4.5351    1.9335 O   0  0  0  0  0  0  0  0  0  0  0  0
   -4.3769    3.8263   -1.2235 O   0  0  0  0  0  0  0  0  0  0  0  0
   -9.2260    1.9529   -0.4932 O   0  0  0  0  0  0  0  0  0  0  0  0
   -6.1758    6.0490   -2.3884 O   0  0  0  0  0  0  0  0  0  0  0  0
   -2.1965    1.9944   -2.2644 N   0  3  0  0  0  0  0  0  0  0  0  0
   -5.9846    1.9057    2.8400 N   0  3  0  0  0  0  0  0  0  0  0  0
  1  2  1  1  0  0  0
  1  3  1  0  0  0  0
  1 10  1  0  0  0  0
  3  4  1  1  0  0  0
  3  5  1  0  0  0  0
  5  6  1  6  0  0  0
  5  7  1  0  0  0  0
  7  8  1  1  0  0  0
  7  9  1  0  0  0  0
  9 10  1  0  0  0  0
  9 11  1  6  0  0  0
 11 35  1  0  0  0  0
 12 13  1  1  0  0  0
 12 14  1  0  0  0  0
 12 20  1  0  0  0  0
 14 15  1  0  0  0  0
 14 40  1  6  0  0  0
 15 16  1  1  0  0  0
 15 17  1  0  0  0  0
 17  2  1  6  0  0  0
 17 18  1  0  0  0  0
 18 19  1  6  0  0  0
 18 20  1  0  0  0  0
 21 16  1  1  0  0  0
 21 22  1  0  0  0  0
 21 25  1  0  0  0  0
 22 23  1  0  0  0  0
 22 36  1  6  0  0  0
 23 24  1  0  0  0  0
 23 31  1  1  0  0  0
 24 25  1  0  0  0  0
 24 26  1  1  0  0  0
 26 39  1  0  0  0  0
 27 28  1  0  0  0  0
 27 32  1  0  0  0  0
 27 38  1  6  0  0  0
 28 29  1  0  0  0  0
 28 37  1  1  0  0  0
 29 30  1  0  0  0  0
 29 42  1  6  0  0  0
 30 31  1  6  0  0  0
 30 33  1  0  0  0  0
 32 33  1  0  0  0  0
 32 34  1  6  0  0  0
 34 41  1  0  0  0  0
M  CHG  6   4   1  13   1  19   1  35   1  41   1  42   1
M  END
>  <CHROM.1>
-147.77671184,-56.65232052,86.78488460,57.44055169,171.28639240,-139.45046766
59.56540330,60.28739968,59.76485742,-178.74009828,128.67693330,-61.36487930
-59.04685037,61.58847966,62.91626995,60.19230531,160.30359259,63.26067731
69.36412549,67.38676926,-86.94650025,-28.50126201,-5.60863571,2.62764362
-3.01755466,-1.68128389,-0.69086967,1.54979376

>  <Name>


>  <RI>
0

>  <Rbt.Current_Directory>
/home/itssahil/PROJECTS/Mol_Feturizer/New_Systems/rnas/1ei2

>  <Rbt.Executable>
rbdock ($Id: //depot/dev/client3/rdock/2013.1/src/exe/rbdock.cxx#4 $)

>  <Rbt.Library>
libRbt.so (2013.1, Build901 2013/11/27)

>  <Rbt.Parameter_File>
/export/apps/rDock/src/rDock_2013.1_src/data/scripts/dock_solv.prm

>  <Rbt.Receptor>
prm/pocket_docking_4.prm

>  <SCORE>
-38.5317

>  <SCORE.INTER>
-21.6293

>  <SCORE.INTER.CONST>
1

>  <SCORE.INTER.POLAR>
-3.66564

>  <SCORE.INTER.ROT>
9

>  <SCORE.INTER.SOLV>
22.0144

>  <SCORE.INTER.VDW>
-19.1388

>  <SCORE.INTER.norm>
-0.514983

>  <SCORE.INTRA>
-17.4991

>  <SCORE.INTRA.DIHEDRAL>
-16.4526

>  <SCORE.INTRA.DIHEDRAL.0>
40.8761

>  <SCORE.INTRA.POLAR>
-1.65128

>  <SCORE.INTRA.POLAR.0>
-0.0268208

>  <SCORE.INTRA.REPUL>
-0.531202

>  <SCORE.INTRA.REPUL.0>
0.641615

>  <SCORE.INTRA.SOLV>
1.65313

>  <SCORE.INTRA.SOLV.lig_0>
-162.567

>  <SCORE.INTRA.VDW>
-1.82898

>  <SCORE.INTRA.VDW.0>
-4.80338

>  <SCORE.INTRA.norm>
-0.416645

>  <SCORE.RESTR>
0.596621

>  <SCORE.RESTR.CAVITY>
0.596621

>  <SCORE.RESTR.norm>
0.0142053

>  <SCORE.SYSTEM>
0

>  <SCORE.SYSTEM.CONST>
0

>  <SCORE.SYSTEM.DIHEDRAL>
0

>  <SCORE.SYSTEM.SOLV>
0

>  <SCORE.SYSTEM.norm>
0

>  <SCORE.heavy>
42

>  <SCORE.norm>
-0.917422

>  <RMSD>
7.778

$$$$

 OpenBabel11021811393D
libRbt.so/2013.1/901 2013/11/27
 42 45  0  0  0  0  0  0  0  0999 V2000
   -2.9385    1.7220   -3.4505 C   0  0  2  0  0  0  0  0  0  0  0  0
   -2.2449    1.2835   -2.2421 O   0  0  0  0  0  0  0  0  0  0  0  0
   -3.9156    0.6245   -3.9839 C   0  0  2  0  0  0  0  0  0  0  0  0
   -4.1671   -0.4239   -2.9687 N   0  3  0  0  0  0  0  0  0  0  0  0
   -3.3678   -0.0078   -5.2989 C   0  0  1  0  0  0  0  0  0  0  0  0
   -4.2719   -0.9996   -5.7810 O   0  0  0  0  0  0  0  0  0  0  0  0
   -3.1667    1.0569   -6.4103 C   0  0  2  0  0  0  0  0  0  0  0  0
   -2.4049    0.4789   -7.4644 O   0  0  0  0  0  0  0  0  0  0  0  0
   -2.4393    2.3248   -5.8564 C   0  0  2  0  0  0  0  0  0  0  0  0
   -1.9664    2.0785   -4.4922 O   0  0  0  0  0  0  0  0  0  0  0  0
   -3.3208    3.5933   -5.7921 C   0  0  0  0  0  0  0  0  0  0  0  0
   -3.2361    1.1729    1.9562 C   0  0  1  0  0  0  0  0  0  0  0  0
   -3.5687    1.5672    3.3434 N   0  3  0  0  0  0  0  0  0  0  0  0
   -4.3940    1.5019    0.9778 C   0  0  1  0  0  0  0  0  0  0  0  0
   -4.0411    1.2448   -0.5287 C   0  0  1  0  0  0  0  0  0  0  0  0
   -5.0563    1.8842   -1.3480 O   0  0  0  0  0  0  0  0  0  0  0  0
   -2.6470    1.8377   -0.9519 C   0  0  1  0  0  0  0  0  0  0  0  0
   -1.5273    1.4990    0.0847 C   0  0  1  0  0  0  0  0  0  0  0  0
   -0.2543    2.1778   -0.2326 N   0  3  0  0  0  0  0  0  0  0  0  0
   -1.9390    1.8872    1.5226 C   0  0  0  0  0  0  0  0  0  0  0  0
   -5.1050    3.3382   -1.4271 C   0  0  1  0  0  0  0  0  0  0  0  0
   -6.4639    3.7489   -1.9817 C   0  0  1  0  0  0  0  0  0  0  0  0
   -7.3111    3.6347   -0.7217 C   0  0  1  0  0  0  0  0  0  0  0  0
   -6.3708    4.2246    0.3390 C   0  0  2  0  0  0  0  0  0  0  0  0
   -5.0317    3.9047   -0.1085 O   0  0  0  0  0  0  0  0  0  0  0  0
   -6.6117    3.6470    1.7453 C   0  0  0  0  0  0  0  0  0  0  0  0
  -11.1467    6.4923    1.0594 C   0  0  1  0  0  0  0  0  0  0  0  0
  -11.3273    5.9225   -0.3752 C   0  0  1  0  0  0  0  0  0  0  0  0
  -11.0152    4.4032   -0.4992 C   0  0  2  0  0  0  0  0  0  0  0  0
   -9.6115    4.0645    0.0981 C   0  0  1  0  0  0  0  0  0  0  0  0
   -8.5461    4.3987   -0.8359 O   0  0  0  0  0  0  0  0  0  0  0  0
  -10.5455    5.4149    2.0123 C   0  0  1  0  0  0  0  0  0  0  0  0
   -9.3876    4.7853    1.3725 O   0  0  0  0  0  0  0  0  0  0  0  0
  -10.1149    6.0068    3.3792 C   0  0  0  0  0  0  0  0  0  0  0  0
   -2.7205    4.7155   -5.0495 N   0  3  0  0  0  0  0  0  0  0  0  0
   -6.4062    5.0954   -2.4533 O   0  0  0  0  0  0  0  0  0  0  0  0
  -12.6776    6.1440   -0.7803 O   0  0  0  0  0  0  0  0  0  0  0  0
  -10.2799    7.6266    0.9893 O   0  0  0  0  0  0  0  0  0  0  0  0
   -5.4729    3.8304    2.5689 O   0  0  0  0  0  0  0  0  0  0  0  0
   -5.5263    0.7042    1.3225 O   0  0  0  0  0  0  0  0  0  0  0  0
   -8.7839    6.6397    3.3363 N   0  3  0  0  0  0  0  0  0  0  0  0
  -11.1700    3.9305   -1.8974 N   0  3  0  0  0  0  0  0  0  0  0  0
  1  2  1  1  0  0  0
  1  3  1  0  0  0  0
  1 10  1  0  0  0  0
  3  4  1  1  0  0  0
  3  5  1  0  0  0  0
  5  6  1  6  0  0  0
  5  7  1  0  0  0  0
  7  8  1  6  0  0  0
  7  9  1  0  0  0  0
  9 10  1  0  0  0  0
  9 11  1  1  0  0  0
 11 35  1  0  0  0  0
 12 13  1  1  0  0  0
 12 14  1  0  0  0  0
 12 20  1  0  0  0  0
 14 15  1  0  0  0  0
 14 40  1  1  0  0  0
 15 16  1  6  0  0  0
 15 17  1  0  0  0  0
 17  2  1  6  0  0  0
 17 18  1  0  0  0  0
 18 19  1  6  0  0  0
 18 20  1  0  0  0  0
 21 16  1  1  0  0  0
 21 22  1  0  0  0  0
 21 25  1  0  0  0  0
 22 23  1  0  0  0  0
 22 36  1  1  0  0  0
 23 24  1  0  0  0  0
 23 31  1  6  0  0  0
 24 25  1  0  0  0  0
 24 26  1  1  0  0  0
 26 39  1  0  0  0  0
 27 28  1  0  0  0  0
 27 32  1  0  0  0  0
 27 38  1  6  0  0  0
 28 29  1  0  0  0  0
 28 37  1  1  0  0  0
 29 30  1  0  0  0  0
 29 42  1  6  0  0  0
 30 31  1  6  0  0  0
 30 33  1  0  0  0  0
 32 33  1  0  0  0  0
 32 34  1  1  0  0  0
 34 41  1  0  0  0  0
M  CHG  6   4   1  13   1  19   1  35   1  41   1  42   1
M  END
>  <CHROM.1>
-105.46989215,72.32255750,74.68799680,-177.77136618,72.79947359,169.41306784
-155.73642974,72.79968341,-67.13989747,70.71043585,-163.27990886,95.50571276
-54.67538772,162.02541248,159.20082048,-34.87762844,158.28773113,163.21274054
58.84745084,-153.07529764,-82.23899670,178.12748479,-5.77264179,3.08911378
-1.11548113,0.57301660,0.47233982,-1.67539536

>  <Name>


>  <RI>
0

>  <Rbt.Current_Directory>
/home/itssahil/PROJECTS/Mol_Feturizer/New_Systems/rnas/1ei2

>  <Rbt.Executable>
rbdock ($Id: //depot/dev/client3/rdock/2013.1/src/exe/rbdock.cxx#4 $)

>  <Rbt.Library>
libRbt.so (2013.1, Build901 2013/11/27)

>  <Rbt.Parameter_File>
/export/apps/rDock/src/rDock_2013.1_src/data/scripts/dock_solv.prm

>  <Rbt.Receptor>
prm/pocket_docking_3.prm

>  <SCORE>
-41.5327

>  <SCORE.INTER>
-24.4927

>  <SCORE.INTER.CONST>
1

>  <SCORE.INTER.POLAR>
-3.61716

>  <SCORE.INTER.ROT>
9

>  <SCORE.INTER.SOLV>
30.2434

>  <SCORE.INTER.VDW>
-23.9524

>  <SCORE.INTER.norm>
-0.583159

>  <SCORE.INTRA>
-17.1041

>  <SCORE.INTRA.DIHEDRAL>
-11.3147

>  <SCORE.INTRA.DIHEDRAL.0>
40.8761

>  <SCORE.INTRA.POLAR>
-2.17807

>  <SCORE.INTRA.POLAR.0>
-0.0268208

>  <SCORE.INTRA.REPUL>
-0.641615

>  <SCORE.INTRA.REPUL.0>
0.641615

>  <SCORE.INTRA.SOLV>
-3.00908

>  <SCORE.INTRA.SOLV.lig_0>
-162.567

>  <SCORE.INTRA.VDW>
0.671251

>  <SCORE.INTRA.VDW.0>
-4.80338

>  <SCORE.INTRA.norm>
-0.407241

>  <SCORE.RESTR>
0.0641285

>  <SCORE.RESTR.CAVITY>
0.0641285

>  <SCORE.RESTR.norm>
0.00152687

>  <SCORE.SYSTEM>
0

>  <SCORE.SYSTEM.CONST>
0

>  <SCORE.SYSTEM.DIHEDRAL>
0

>  <SCORE.SYSTEM.SOLV>
0

>  <SCORE.SYSTEM.norm>
0

>  <SCORE.heavy>
42

>  <SCORE.norm>
-0.988874

>  <RMSD>
7.779

$$$$

 OpenBabel11021811393D
libRbt.so/2013.1/901 2013/11/27
 42 45  0  0  0  0  0  0  0  0999 V2000
   -4.2986    1.7550   -7.5895 C   0  0  2  0  0  0  0  0  0  0  0  0
   -3.4320    2.1694   -6.4890 O   0  0  0  0  0  0  0  0  0  0  0  0
   -4.7156    2.9686   -8.4824 C   0  0  2  0  0  0  0  0  0  0  0  0
   -3.8694    4.1556   -8.2215 N   0  3  0  0  0  0  0  0  0  0  0  0
   -6.2210    3.3136   -8.2736 C   0  0  1  0  0  0  0  0  0  0  0  0
   -6.5920    4.4148   -9.1001 O   0  0  0  0  0  0  0  0  0  0  0  0
   -7.1407    2.1106   -8.6144 C   0  0  2  0  0  0  0  0  0  0  0  0
   -8.4515    2.3867   -8.1333 O   0  0  0  0  0  0  0  0  0  0  0  0
   -6.6040    0.7878   -7.9776 C   0  0  2  0  0  0  0  0  0  0  0  0
   -5.4945    1.0810   -7.0674 O   0  0  0  0  0  0  0  0  0  0  0  0
   -6.0725   -0.2456   -8.9973 C   0  0  0  0  0  0  0  0  0  0  0  0
   -3.7162   -1.5526   -4.3243 C   0  0  1  0  0  0  0  0  0  0  0  0
   -3.4546   -2.6719   -3.3920 N   0  3  0  0  0  0  0  0  0  0  0  0
   -4.1605   -0.2735   -3.5675 C   0  0  1  0  0  0  0  0  0  0  0  0
   -4.3069    0.9874   -4.4887 C   0  0  1  0  0  0  0  0  0  0  0  0
   -4.4014    2.1619   -3.6387 O   0  0  0  0  0  0  0  0  0  0  0  0
   -3.0838    1.1982   -5.4551 C   0  0  1  0  0  0  0  0  0  0  0  0
   -2.6636   -0.1286   -6.1663 C   0  0  1  0  0  0  0  0  0  0  0  0
   -1.4267    0.0339   -6.9573 N   0  3  0  0  0  0  0  0  0  0  0  0
   -2.4463   -1.2779   -5.1565 C   0  0  0  0  0  0  0  0  0  0  0  0
   -3.4712    3.2663   -3.8331 C   0  0  1  0  0  0  0  0  0  0  0  0
   -3.8939    4.4212   -2.9328 C   0  0  1  0  0  0  0  0  0  0  0  0
   -3.3052    3.9552   -1.6082 C   0  0  1  0  0  0  0  0  0  0  0  0
   -1.9476    3.3927   -2.0527 C   0  0  2  0  0  0  0  0  0  0  0  0
   -2.1575    2.8857   -3.3923 O   0  0  0  0  0  0  0  0  0  0  0  0
   -1.4318    2.2693   -1.1356 C   0  0  0  0  0  0  0  0  0  0  0  0
   -2.6769    7.1294    2.5270 C   0  0  1  0  0  0  0  0  0  0  0  0
   -4.0408    6.6197    1.9837 C   0  0  1  0  0  0  0  0  0  0  0  0
   -4.0631    5.1005    1.6480 C   0  0  2  0  0  0  0  0  0  0  0  0
   -2.8727    4.7113    0.7135 C   0  0  1  0  0  0  0  0  0  0  0  0
   -3.1532    5.0606   -0.6716 O   0  0  0  0  0  0  0  0  0  0  0  0
   -1.5998    6.0041    2.4651 C   0  0  1  0  0  0  0  0  0  0  0  0
   -1.6207    5.3773    1.1410 O   0  0  0  0  0  0  0  0  0  0  0  0
   -0.1721    6.5337    2.7571 C   0  0  0  0  0  0  0  0  0  0  0  0
   -5.4049   -1.4113   -8.3920 N   0  3  0  0  0  0  0  0  0  0  0  0
   -3.2826    5.6313   -3.3805 O   0  0  0  0  0  0  0  0  0  0  0  0
   -5.0426    6.8833    2.9651 O   0  0  0  0  0  0  0  0  0  0  0  0
   -2.2660    8.2484    1.7382 O   0  0  0  0  0  0  0  0  0  0  0  0
   -2.3307    1.1736   -1.1240 O   0  0  0  0  0  0  0  0  0  0  0  0
   -5.4167   -0.5257   -2.9385 O   0  0  0  0  0  0  0  0  0  0  0  0
    0.8756    5.5275    2.5046 N   0  3  0  0  0  0  0  0  0  0  0  0
   -5.3784    4.6858    1.1001 N   0  3  0  0  0  0  0  0  0  0  0  0
  1  2  1  1  0  0  0
  1  3  1  0  0  0  0
  1 10  1  0  0  0  0
  3  4  1  1  0  0  0
  3  5  1  0  0  0  0
  5  6  1  6  0  0  0
  5  7  1  0  0  0  0
  7  8  1  1  0  0  0
  7  9  1  0  0  0  0
  9 10  1  0  0  0  0
  9 11  1  6  0  0  0
 11 35  1  0  0  0  0
 12 13  1  1  0  0  0
 12 14  1  0  0  0  0
 12 20  1  0  0  0  0
 14 15  1  0  0  0  0
 14 40  1  6  0  0  0
 15 16  1  1  0  0  0
 15 17  1  0  0  0  0
 17  2  1  6  0  0  0
 17 18  1  0  0  0  0
 18 19  1  1  0  0  0
 18 20  1  0  0  0  0
 21 16  1  1  0  0  0
 21 22  1  0  0  0  0
 21 25  1  0  0  0  0
 22 23  1  0  0  0  0
 22 36  1  6  0  0  0
 23 24  1  0  0  0  0
 23 31  1  1  0  0  0
 24 25  1  0  0  0  0
 24 26  1  1  0  0  0
 26 39  1  0  0  0  0
 27 28  1  0  0  0  0
 27 32  1  0  0  0  0
 27 38  1  6  0  0  0
 28 29  1  0  0  0  0
 28 37  1  1  0  0  0
 29 30  1  0  0  0  0
 29 42  1  6  0  0  0
 30 31  1  6  0  0  0
 30 33  1  0  0  0  0
 32 33  1  0  0  0  0
 32 34  1  6  0  0  0
 34 41  1  0  0  0  0
M  CHG  6   4   1  13   1  19   1  35   1  41   1  42   1
M  END
>  <CHROM.1>
172.22800150,-75.84716085,-68.89104955,58.58742199,60.03971285,172.26604510
175.15479239,175.07856029,-68.47914837,125.01205530,173.35686182,-58.99657024
-56.48842118,167.32869203,60.80328499,61.23305167,26.78160310,-65.97396265
-176.17114619,-113.42902512,-171.38794919,52.71377713,-3.74375592,2.87036474
-3.37862627,2.06278665,0.99421703,-2.48789476

>  <Name>


>  <RI>
0

>  <Rbt.Current_Directory>
/home/itssahil/PROJECTS/Mol_Feturizer/New_Systems/rnas/1ei2

>  <Rbt.Executable>
rbdock ($Id: //depot/dev/client3/rdock/2013.1/src/exe/rbdock.cxx#4 $)

>  <Rbt.Library>
libRbt.so (2013.1, Build901 2013/11/27)

>  <Rbt.Parameter_File>
/export/apps/rDock/src/rDock_2013.1_src/data/scripts/dock_solv.prm

>  <Rbt.Receptor>
prm/pocket_docking_7.prm

>  <SCORE>
-47.93

>  <SCORE.INTER>
-32.8038

>  <SCORE.INTER.CONST>
1

>  <SCORE.INTER.POLAR>
-5.34229

>  <SCORE.INTER.ROT>
9

>  <SCORE.INTER.SOLV>
30.0111

>  <SCORE.INTER.VDW>
-23.6653

>  <SCORE.INTER.norm>
-0.781043

>  <SCORE.INTRA>
-15.1261

>  <SCORE.INTRA.DIHEDRAL>
-17.9031

>  <SCORE.INTRA.DIHEDRAL.0>
40.8761

>  <SCORE.INTRA.POLAR>
0.00828355

>  <SCORE.INTRA.POLAR.0>
-0.0268208

>  <SCORE.INTRA.REPUL>
-0.641615

>  <SCORE.INTRA.REPUL.0>
0.641615

>  <SCORE.INTRA.SOLV>
-10.9013

>  <SCORE.INTRA.SOLV.lig_0>
-162.567

>  <SCORE.INTRA.VDW>
2.45594

>  <SCORE.INTRA.VDW.0>
-4.80338

>  <SCORE.INTRA.norm>
-0.360146

>  <SCORE.RESTR>
0

>  <SCORE.RESTR.CAVITY>
0

>  <SCORE.RESTR.norm>
0

>  <SCORE.SYSTEM>
0

>  <SCORE.SYSTEM.CONST>
0

>  <SCORE.SYSTEM.DIHEDRAL>
0

>  <SCORE.SYSTEM.SOLV>
0

>  <SCORE.SYSTEM.norm>
0

>  <SCORE.heavy>
42

>  <SCORE.norm>
-1.14119

>  <RMSD>
7.783

$$$$

 OpenBabel11021811393D
libRbt.so/2013.1/901 2013/11/27
 42 45  0  0  0  0  0  0  0  0999 V2000
   -4.0022    3.5255   -3.4451 C   0  0  2  0  0  0  0  0  0  0  0  0
   -2.7514    3.1538   -2.7886 O   0  0  0  0  0  0  0  0  0  0  0  0
   -3.9527    4.9892   -3.9918 C   0  0  2  0  0  0  0  0  0  0  0  0
   -2.5675    5.5114   -4.0321 N   0  3  0  0  0  0  0  0  0  0  0  0
   -4.8652    5.9249   -3.1427 C   0  0  1  0  0  0  0  0  0  0  0  0
   -4.8198    7.2542   -3.6568 O   0  0  0  0  0  0  0  0  0  0  0  0
   -6.3419    5.4466   -3.1447 C   0  0  2  0  0  0  0  0  0  0  0  0
   -7.0533    6.1561   -2.1366 O   0  0  0  0  0  0  0  0  0  0  0  0
   -6.4402    3.9079   -2.8874 C   0  0  2  0  0  0  0  0  0  0  0  0
   -5.1280    3.3748   -2.5140 O   0  0  0  0  0  0  0  0  0  0  0  0
   -6.9177    3.0832   -4.1048 C   0  0  0  0  0  0  0  0  0  0  0  0
   -3.6185   -1.0703   -2.6318 C   0  0  1  0  0  0  0  0  0  0  0  0
   -3.5274   -2.5261   -2.3813 N   0  3  0  0  0  0  0  0  0  0  0  0
   -3.7955   -0.2756   -1.3114 C   0  0  1  0  0  0  0  0  0  0  0  0
   -3.7475    1.2808   -1.4990 C   0  0  1  0  0  0  0  0  0  0  0  0
   -3.5960    1.8912   -0.1892 O   0  0  0  0  0  0  0  0  0  0  0  0
   -2.5444    1.7641   -2.3897 C   0  0  1  0  0  0  0  0  0  0  0  0
   -2.3979    0.9094   -3.6901 C   0  0  1  0  0  0  0  0  0  0  0  0
   -1.1833    1.2635   -4.4525 N   0  3  0  0  0  0  0  0  0  0  0  0
   -2.3528   -0.6040   -3.3809 C   0  0  0  0  0  0  0  0  0  0  0  0
   -3.1423    1.0806    0.9331 C   0  0  1  0  0  0  0  0  0  0  0  0
   -2.3630    1.9725    1.8923 C   0  0  1  0  0  0  0  0  0  0  0  0
   -3.5152    2.6342    2.6360 C   0  0  1  0  0  0  0  0  0  0  0  0
   -4.4809    1.4555    2.8238 C   0  0  2  0  0  0  0  0  0  0  0  0
   -4.2718    0.5961    1.6777 O   0  0  0  0  0  0  0  0  0  0  0  0
   -5.9554    1.8910    2.8976 C   0  0  0  0  0  0  0  0  0  0  0  0
   -4.0524    4.3101    7.4523 C   0  0  1  0  0  0  0  0  0  0  0  0
   -2.7347    4.6900    6.7210 C   0  0  1  0  0  0  0  0  0  0  0  0
   -2.9449    5.2602    5.2886 C   0  0  2  0  0  0  0  0  0  0  0  0
   -3.8445    4.3135    4.4304 C   0  0  1  0  0  0  0  0  0  0  0  0
   -3.0813    3.1876    3.9117 O   0  0  0  0  0  0  0  0  0  0  0  0
   -5.2778    4.4594    6.5003 C   0  0  1  0  0  0  0  0  0  0  0  0
   -4.9885    3.8049    5.2218 O   0  0  0  0  0  0  0  0  0  0  0  0
   -6.5727    3.8552    7.1020 C   0  0  0  0  0  0  0  0  0  0  0  0
   -8.2881    3.3916   -4.5500 N   0  3  0  0  0  0  0  0  0  0  0  0
   -1.5706    1.1669    2.7651 O   0  0  0  0  0  0  0  0  0  0  0  0
   -2.0518    5.6680    7.5042 O   0  0  0  0  0  0  0  0  0  0  0  0
   -3.9436    2.9593    7.9068 O   0  0  0  0  0  0  0  0  0  0  0  0
   -6.3935    2.4053    1.6517 O   0  0  0  0  0  0  0  0  0  0  0  0
   -5.0515   -0.6253   -0.7305 O   0  0  0  0  0  0  0  0  0  0  0  0
   -7.0995    4.6396    8.2339 N   0  3  0  0  0  0  0  0  0  0  0  0
   -1.6499    5.5672    4.6321 N   0  3  0  0  0  0  0  0  0  0  0  0
  1  2  1  1  0  0  0
  1  3  1  0  0  0  0
  1 10  1  0  0  0  0
  3  4  1  1  0  0  0
  3  5  1  0  0  0  0
  5  6  1  6  0  0  0
  5  7  1  0  0  0  0
  7  8  1  1  0  0  0
  7  9  1  0  0  0  0
  9 10  1  0  0  0  0
  9 11  1  6  0  0  0
 11 35  1  0  0  0  0
 12 13  1  1  0  0  0
 12 14  1  0  0  0  0
 12 20  1  0  0  0  0
 14 15  1  0  0  0  0
 14 40  1  6  0  0  0
 15 16  1  1  0  0  0
 15 17  1  0  0  0  0
 17  2  1  6  0  0  0
 17 18  1  0  0  0  0
 18 19  1  1  0  0  0
 18 20  1  0  0  0  0
 21 16  1  6  0  0  0
 21 22  1  0  0  0  0
 21 25  1  0  0  0  0
 22 23  1  0  0  0  0
 22 36  1  1  0  0  0
 23 24  1  0  0  0  0
 23 31  1  1  0  0  0
 24 25  1  0  0  0  0
 24 26  1  6  0  0  0
 26 39  1  0  0  0  0
 27 28  1  0  0  0  0
 27 32  1  0  0  0  0
 27 38  1  6  0  0  0
 28 29  1  0  0  0  0
 28 37  1  1  0  0  0
 29 30  1  0  0  0  0
 29 42  1  6  0  0  0
 30 31  1  1  0  0  0
 30 33  1  0  0  0  0
 32 33  1  0  0  0  0
 32 34  1  1  0  0  0
 34 41  1  0  0  0  0
M  CHG  6   4   1  13   1  19   1  35   1  41   1  42   1
M  END
>  <CHROM.1>
-171.19730160,-53.69198720,132.65421412,52.55981437,52.82838877,-63.55915708
63.60539923,170.96229465,175.64278005,17.37467156,149.34920396,54.64020344
-79.37709262,153.22105426,67.34997158,171.52789452,67.67351004,65.64427592
58.69493904,-149.81471481,70.39412647,166.88156834,-4.17217572,2.96167537
0.71250347,1.60868834,1.14159542,-1.75283724

>  <Name>


>  <RI>
0

>  <Rbt.Current_Directory>
/home/itssahil/PROJECTS/Mol_Feturizer/New_Systems/rnas/1ei2

>  <Rbt.Executable>
rbdock ($Id: //depot/dev/client3/rdock/2013.1/src/exe/rbdock.cxx#4 $)

>  <Rbt.Library>
libRbt.so (2013.1, Build901 2013/11/27)

>  <Rbt.Parameter_File>
/export/apps/rDock/src/rDock_2013.1_src/data/scripts/dock_solv.prm

>  <Rbt.Receptor>
prm/pocket_docking_7.prm

>  <SCORE>
-49.5815

>  <SCORE.INTER>
-29.934

>  <SCORE.INTER.CONST>
1

>  <SCORE.INTER.POLAR>
-5.29821

>  <SCORE.INTER.ROT>
9

>  <SCORE.INTER.SOLV>
27.3094

>  <SCORE.INTER.VDW>
-20.9984

>  <SCORE.INTER.norm>
-0.712714

>  <SCORE.INTRA>
-19.7186

>  <SCORE.INTRA.DIHEDRAL>
-16.2033

>  <SCORE.INTRA.DIHEDRAL.0>
40.8761

>  <SCORE.INTRA.POLAR>
-1.24613

>  <SCORE.INTRA.POLAR.0>
-0.0268208

>  <SCORE.INTRA.REPUL>
-0.641615

>  <SCORE.INTRA.REPUL.0>
0.641615

>  <SCORE.INTRA.SOLV>
-13.2006

>  <SCORE.INTRA.SOLV.lig_0>
-162.567

>  <SCORE.INTRA.VDW>
2.4283

>  <SCORE.INTRA.VDW.0>
-4.80338

>  <SCORE.INTRA.norm>
-0.46949

>  <SCORE.RESTR>
0.0710421

>  <SCORE.RESTR.CAVITY>
0.0710421

>  <SCORE.RESTR.norm>
0.00169148

>  <SCORE.SYSTEM>
0

>  <SCORE.SYSTEM.CONST>
0

>  <SCORE.SYSTEM.DIHEDRAL>
0

>  <SCORE.SYSTEM.SOLV>
0

>  <SCORE.SYSTEM.norm>
0

>  <SCORE.heavy>
42

>  <SCORE.norm>
-1.18051

>  <RMSD>
7.783

$$$$

 OpenBabel11021811393D
libRbt.so/2013.1/901 2013/11/27
 42 45  0  0  0  0  0  0  0  0999 V2000
   -3.0731    3.5379   -4.0774 C   0  0  2  0  0  0  0  0  0  0  0  0
   -4.1886    4.3484   -4.5594 O   0  0  0  0  0  0  0  0  0  0  0  0
   -2.2228    2.9679   -5.2589 C   0  0  2  0  0  0  0  0  0  0  0  0
   -2.5262    3.6580   -6.5336 N   0  3  0  0  0  0  0  0  0  0  0  0
   -2.4415    1.4316   -5.4033 C   0  0  1  0  0  0  0  0  0  0  0  0
   -1.6535    0.9218   -6.4769 O   0  0  0  0  0  0  0  0  0  0  0  0
   -2.0575    0.6703   -4.1062 C   0  0  2  0  0  0  0  0  0  0  0  0
   -2.5462   -0.6633   -4.1974 O   0  0  0  0  0  0  0  0  0  0  0  0
   -2.6484    1.3721   -2.8406 C   0  0  2  0  0  0  0  0  0  0  0  0
   -3.5698    2.4384   -3.2398 O   0  0  0  0  0  0  0  0  0  0  0  0
   -1.5937    2.0267   -1.9189 C   0  0  0  0  0  0  0  0  0  0  0  0
   -8.4541    4.8677   -4.1645 C   0  0  1  0  0  0  0  0  0  0  0  0
   -9.8945    4.6226   -3.9293 N   0  3  0  0  0  0  0  0  0  0  0  0
   -7.6398    4.7840   -2.8469 C   0  0  1  0  0  0  0  0  0  0  0  0
   -6.0886    4.8863   -3.0547 C   0  0  1  0  0  0  0  0  0  0  0  0
   -5.4376    4.4740   -1.8229 O   0  0  0  0  0  0  0  0  0  0  0  0
   -5.5522    3.9606   -4.2077 C   0  0  1  0  0  0  0  0  0  0  0  0
   -6.4277    4.0653   -5.4982 C   0  0  1  0  0  0  0  0  0  0  0  0
   -6.0162    3.0896   -6.5281 N   0  3  0  0  0  0  0  0  0  0  0  0
   -7.9271    3.8471   -5.1946 C   0  0  0  0  0  0  0  0  0  0  0  0
   -5.5358    3.0870   -1.3878 C   0  0  1  0  0  0  0  0  0  0  0  0
   -4.9007    2.9652   -0.0077 C   0  0  1  0  0  0  0  0  0  0  0  0
   -6.0433    3.4794    0.8575 C   0  0  1  0  0  0  0  0  0  0  0  0
   -7.2598    2.8291    0.1834 C   0  0  2  0  0  0  0  0  0  0  0  0
   -6.9153    2.7216   -1.2186 O   0  0  0  0  0  0  0  0  0  0  0  0
   -8.5510    3.6501    0.3504 C   0  0  0  0  0  0  0  0  0  0  0  0
   -3.5524    6.0083    1.5379 C   0  0  1  0  0  0  0  0  0  0  0  0
   -5.0310    6.1283    2.0014 C   0  0  1  0  0  0  0  0  0  0  0  0
   -5.3760    5.2703    3.2528 C   0  0  2  0  0  0  0  0  0  0  0  0
   -4.9378    3.7833    3.0561 C   0  0  1  0  0  0  0  0  0  0  0  0
   -5.8994    3.0531    2.2429 O   0  0  0  0  0  0  0  0  0  0  0  0
   -2.7975    4.9254    2.3671 C   0  0  1  0  0  0  0  0  0  0  0  0
   -3.6012    3.7017    2.4231 O   0  0  0  0  0  0  0  0  0  0  0  0
   -1.4023    4.5937    1.7777 C   0  0  0  0  0  0  0  0  0  0  0  0
   -0.4564    1.1540   -1.5783 N   0  3  0  0  0  0  0  0  0  0  0  0
   -4.6090    1.5955    0.2705 O   0  0  0  0  0  0  0  0  0  0  0  0
   -5.2985    7.4976    2.3009 O   0  0  0  0  0  0  0  0  0  0  0  0
   -3.5403    5.6636    0.1508 O   0  0  0  0  0  0  0  0  0  0  0  0
   -9.6720    2.9340   -0.1388 O   0  0  0  0  0  0  0  0  0  0  0  0
   -8.0541    5.8426   -1.9836 O   0  0  0  0  0  0  0  0  0  0  0  0
   -0.6869    3.5579    2.5452 N   0  3  0  0  0  0  0  0  0  0  0  0
   -6.8078    5.3998    3.6207 N   0  3  0  0  0  0  0  0  0  0  0  0
  1  2  1  6  0  0  0
  1  3  1  0  0  0  0
  1 10  1  0  0  0  0
  3  4  1  6  0  0  0
  3  5  1  0  0  0  0
  5  6  1  6  0  0  0
  5  7  1  0  0  0  0
  7  8  1  6  0  0  0
  7  9  1  0  0  0  0
  9 10  1  0  0  0  0
  9 11  1  6  0  0  0
 11 35  1  0  0  0  0
 12 13  1  1  0  0  0
 12 14  1  0  0  0  0
 12 20  1  0  0  0  0
 14 15  1  0  0  0  0
 14 40  1  1  0  0  0
 15 16  1  1  0  0  0
 15 17  1  0  0  0  0
 17  2  1  6  0  0  0
 17 18  1  0  0  0  0
 18 19  1  6  0  0  0
 18 20  1  0  0  0  0
 21 16  1  1  0  0  0
 21 22  1  0  0  0  0
 21 25  1  0  0  0  0
 22 23  1  0  0  0  0
 22 36  1  1  0  0  0
 23 24  1  0  0  0  0
 23 31  1  1  0  0  0
 24 25  1  0  0  0  0
 24 26  1  6  0  0  0
 26 39  1  0  0  0  0
 27 28  1  0  0  0  0
 27 32  1  0  0  0  0
 27 38  1  6  0  0  0
 28 29  1  0  0  0  0
 28 37  1  1  0  0  0
 29 30  1  0  0  0  0
 29 42  1  6  0  0  0
 30 31  1  6  0  0  0
 30 33  1  0  0  0  0
 32 33  1  0  0  0  0
 32 34  1  6  0  0  0
 34 41  1  0  0  0  0
M  CHG  6   4   1  13   1  19   1  35   1  41   1  42   1
M  END
>  <CHROM.1>
120.62968583,102.67936139,175.71340495,-56.71461738,-173.50576182,-49.13099310
69.31684404,174.06363604,179.69644059,67.04421622,-173.92735833,139.86587226
-60.58301479,77.90062529,-172.65266738,-61.55785313,60.42621399,60.73275695
-95.48646646,65.17646040,-179.27079218,-165.76058527,-4.82918676,3.58270869
-1.51155462,-1.36287952,-0.33373196,1.32165594

>  <Name>


>  <RI>
0

>  <Rbt.Current_Directory>
/home/itssahil/PROJECTS/Mol_Feturizer/New_Systems/rnas/1ei2

>  <Rbt.Executable>
rbdock ($Id: //depot/dev/client3/rdock/2013.1/src/exe/rbdock.cxx#4 $)

>  <Rbt.Library>
libRbt.so (2013.1, Build901 2013/11/27)

>  <Rbt.Parameter_File>
/export/apps/rDock/src/rDock_2013.1_src/data/scripts/dock_solv.prm

>  <Rbt.Receptor>
prm/pocket_docking_3.prm

>  <SCORE>
-56.2234

>  <SCORE.INTER>
-40.2827

>  <SCORE.INTER.CONST>
1

>  <SCORE.INTER.POLAR>
-7.16558

>  <SCORE.INTER.ROT>
9

>  <SCORE.INTER.SOLV>
28.9806

>  <SCORE.INTER.VDW>
-22.2301

>  <SCORE.INTER.norm>
-0.959112

>  <SCORE.INTRA>
-16.1744

>  <SCORE.INTRA.DIHEDRAL>
-18.5125

>  <SCORE.INTRA.DIHEDRAL.0>
40.8761

>  <SCORE.INTRA.POLAR>
0.0268208

>  <SCORE.INTRA.POLAR.0>
-0.0268208

>  <SCORE.INTRA.REPUL>
-0.635314

>  <SCORE.INTRA.REPUL.0>
0.641615

>  <SCORE.INTRA.SOLV>
-5.19366

>  <SCORE.INTRA.SOLV.lig_0>
-162.567

>  <SCORE.INTRA.VDW>
-1.23592

>  <SCORE.INTRA.VDW.0>
-4.80338

>  <SCORE.INTRA.norm>
-0.385104

>  <SCORE.RESTR>
0.233646

>  <SCORE.RESTR.CAVITY>
0.233646

>  <SCORE.RESTR.norm>
0.00556301

>  <SCORE.SYSTEM>
0

>  <SCORE.SYSTEM.CONST>
0

>  <SCORE.SYSTEM.DIHEDRAL>
0

>  <SCORE.SYSTEM.SOLV>
0

>  <SCORE.SYSTEM.norm>
0

>  <SCORE.heavy>
42

>  <SCORE.norm>
-1.33865

>  <RMSD>
7.813

$$$$

 OpenBabel11021811393D
libRbt.so/2013.1/901 2013/11/27
 42 45  0  0  0  0  0  0  0  0999 V2000
   -4.2589    1.2458   -6.8998 C   0  0  2  0  0  0  0  0  0  0  0  0
   -3.4399    1.2879   -5.6910 O   0  0  0  0  0  0  0  0  0  0  0  0
   -4.4814    2.6744   -7.4945 C   0  0  2  0  0  0  0  0  0  0  0  0
   -3.5405    3.6605   -6.9154 N   0  3  0  0  0  0  0  0  0  0  0  0
   -5.9551    3.1350   -7.2828 C   0  0  1  0  0  0  0  0  0  0  0  0
   -6.1484    4.4342   -7.8381 O   0  0  0  0  0  0  0  0  0  0  0  0
   -6.9646    2.1608   -7.9470 C   0  0  2  0  0  0  0  0  0  0  0  0
   -8.2728    2.4687   -7.4783 O   0  0  0  0  0  0  0  0  0  0  0  0
   -6.6152    0.6725   -7.6208 C   0  0  2  0  0  0  0  0  0  0  0  0
   -5.5533    0.6135   -6.6138 O   0  0  0  0  0  0  0  0  0  0  0  0
   -6.1168   -0.1496   -8.8316 C   0  0  0  0  0  0  0  0  0  0  0  0
   -3.0017   -2.9914   -5.3515 C   0  0  1  0  0  0  0  0  0  0  0  0
   -2.5211   -4.3403   -4.9773 N   0  3  0  0  0  0  0  0  0  0  0  0
   -3.6459   -2.2614   -4.1440 C   0  0  1  0  0  0  0  0  0  0  0  0
   -4.0380   -0.7721   -4.4413 C   0  0  1  0  0  0  0  0  0  0  0  0
   -4.3171   -0.1151   -3.1758 O   0  0  0  0  0  0  0  0  0  0  0  0
   -2.8976    0.0413   -5.1569 C   0  0  1  0  0  0  0  0  0  0  0  0
   -2.2675   -0.7548   -6.3453 C   0  0  1  0  0  0  0  0  0  0  0  0
   -1.1004   -0.0575   -6.9228 N   0  3  0  0  0  0  0  0  0  0  0  0
   -1.8231   -2.1713   -5.9164 C   0  0  0  0  0  0  0  0  0  0  0  0
   -3.3514   -0.2094   -2.0890 C   0  0  1  0  0  0  0  0  0  0  0  0
   -2.8531    1.1928   -1.7595 C   0  0  1  0  0  0  0  0  0  0  0  0
   -4.0064    1.6895   -0.8983 C   0  0  1  0  0  0  0  0  0  0  0  0
   -4.3223    0.4456   -0.0555 C   0  0  2  0  0  0  0  0  0  0  0  0
   -3.9976   -0.6863   -0.8974 O   0  0  0  0  0  0  0  0  0  0  0  0
   -5.7959    0.3742    0.3835 C   0  0  0  0  0  0  0  0  0  0  0  0
   -5.6054    5.9792    0.8018 C   0  0  1  0  0  0  0  0  0  0  0  0
   -4.2064    5.6169    1.3735 C   0  0  1  0  0  0  0  0  0  0  0  0
   -3.1547    5.2429    0.2894 C   0  0  2  0  0  0  0  0  0  0  0  0
   -3.7030    4.1401   -0.6724 C   0  0  1  0  0  0  0  0  0  0  0  0
   -3.6075    2.8187   -0.0690 O   0  0  0  0  0  0  0  0  0  0  0  0
   -5.6561    5.7342   -0.7369 C   0  0  1  0  0  0  0  0  0  0  0  0
   -5.1124    4.4081   -1.0407 O   0  0  0  0  0  0  0  0  0  0  0  0
   -7.0943    5.8394   -1.3065 C   0  0  0  0  0  0  0  0  0  0  0  0
   -6.2200   -1.6095   -8.6609 N   0  3  0  0  0  0  0  0  0  0  0  0
   -1.6393    1.1109   -1.0122 O   0  0  0  0  0  0  0  0  0  0  0  0
   -3.7192    6.7361    2.1127 O   0  0  0  0  0  0  0  0  0  0  0  0
   -6.5852    5.1742    1.4613 O   0  0  0  0  0  0  0  0  0  0  0  0
   -6.6480    0.1927   -0.7344 O   0  0  0  0  0  0  0  0  0  0  0  0
   -4.8204   -2.9716   -3.7520 O   0  0  0  0  0  0  0  0  0  0  0  0
   -7.1290    6.3677   -2.6826 N   0  3  0  0  0  0  0  0  0  0  0  0
   -1.8544    4.8721    0.9010 N   0  3  0  0  0  0  0  0  0  0  0  0
  1  2  1  1  0  0  0
  1  3  1  0  0  0  0
  1 10  1  0  0  0  0
  3  4  1  1  0  0  0
  3  5  1  0  0  0  0
  5  6  1  6  0  0  0
  5  7  1  0  0  0  0
  7  8  1  1  0  0  0
  7  9  1  0  0  0  0
  9 10  1  0  0  0  0
  9 11  1  6  0  0  0
 11 35  1  0  0  0  0
 12 13  1  1  0  0  0
 12 14  1  0  0  0  0
 12 20  1  0  0  0  0
 14 15  1  0  0  0  0
 14 40  1  6  0  0  0
 15 16  1  1  0  0  0
 15 17  1  0  0  0  0
 17  2  1  6  0  0  0
 17 18  1  0  0  0  0
 18 19  1  1  0  0  0
 18 20  1  0  0  0  0
 21 16  1  6  0  0  0
 21 22  1  0  0  0  0
 21 25  1  0  0  0  0
 22 23  1  0  0  0  0
 22 36  1  1  0  0  0
 23 24  1  0  0  0  0
 23 31  1  1  0  0  0
 24 25  1  0  0  0  0
 24 26  1  6  0  0  0
 26 39  1  0  0  0  0
 27 28  1  0  0  0  0
 27 32  1  0  0  0  0
 27 38  1  1  0  0  0
 28 29  1  0  0  0  0
 28 37  1  6  0  0  0
 29 30  1  0  0  0  0
 29 42  1  1  0  0  0
 30 31  1  1  0  0  0
 30 33  1  0  0  0  0
 32 33  1  0  0  0  0
 32 34  1  1  0  0  0
 34 41  1  0  0  0  0
M  CHG  6   4   1  13   1  19   1  35   1  41   1  42   1
M  END
>  <CHROM.1>
-167.38505886,-75.23956176,80.11121895,60.24414471,65.32582045,-160.36887354
-159.51225329,62.62299220,71.48141058,50.78149784,117.79126691,53.61903931
33.83947454,86.27724981,66.34335966,-62.42694579,-179.53042302,64.21272343
-178.05570684,-176.13941040,147.37636038,-64.70548177,-4.48748254,1.70761897
-3.47580893,1.51479225,1.06615800,-2.16043656

>  <Name>


>  <RI>
0

>  <Rbt.Current_Directory>
/home/itssahil/PROJECTS/Mol_Feturizer/New_Systems/rnas/1ei2

>  <Rbt.Executable>
rbdock ($Id: //depot/dev/client3/rdock/2013.1/src/exe/rbdock.cxx#4 $)

>  <Rbt.Library>
libRbt.so (2013.1, Build901 2013/11/27)

>  <Rbt.Parameter_File>
/export/apps/rDock/src/rDock_2013.1_src/data/scripts/dock_solv.prm

>  <Rbt.Receptor>
prm/pocket_docking_6.prm

>  <SCORE>
-57.3985

>  <SCORE.INTER>
-39.153

>  <SCORE.INTER.CONST>
1

>  <SCORE.INTER.POLAR>
-5.97067

>  <SCORE.INTER.ROT>
9

>  <SCORE.INTER.SOLV>
32.4497

>  <SCORE.INTER.VDW>
-26.6164

>  <SCORE.INTER.norm>
-0.932215

>  <SCORE.INTRA>
-18.4857

>  <SCORE.INTRA.DIHEDRAL>
-17.6313

>  <SCORE.INTRA.DIHEDRAL.0>
40.8761

>  <SCORE.INTRA.POLAR>
-0.0847589

>  <SCORE.INTRA.POLAR.0>
-0.0268208

>  <SCORE.INTRA.REPUL>
-0.641615

>  <SCORE.INTRA.REPUL.0>
0.641615

>  <SCORE.INTRA.SOLV>
-14.7384

>  <SCORE.INTRA.SOLV.lig_0>
-162.567

>  <SCORE.INTRA.VDW>
1.19541

>  <SCORE.INTRA.VDW.0>
-4.80338

>  <SCORE.INTRA.norm>
-0.440136

>  <SCORE.RESTR>
0.240261

>  <SCORE.RESTR.CAVITY>
0.240261

>  <SCORE.RESTR.norm>
0.00572051

>  <SCORE.SYSTEM>
0

>  <SCORE.SYSTEM.CONST>
0

>  <SCORE.SYSTEM.DIHEDRAL>
0

>  <SCORE.SYSTEM.SOLV>
0

>  <SCORE.SYSTEM.norm>
0

>  <SCORE.heavy>
42

>  <SCORE.norm>
-1.36663

>  <RMSD>
7.842

$$$$

 OpenBabel11021811393D
libRbt.so/2013.1/901 2013/11/27
 42 45  0  0  0  0  0  0  0  0999 V2000
   -2.2187    4.4523    1.2541 C   0  0  2  0  0  0  0  0  0  0  0  0
   -1.5701    4.0031    0.0248 O   0  0  0  0  0  0  0  0  0  0  0  0
   -1.3248    5.4664    2.0393 C   0  0  2  0  0  0  0  0  0  0  0  0
   -0.2245    5.9906    1.1982 N   0  3  0  0  0  0  0  0  0  0  0  0
   -0.7582    4.8118    3.3352 C   0  0  1  0  0  0  0  0  0  0  0  0
    0.0466    5.7490    4.0476 O   0  0  0  0  0  0  0  0  0  0  0  0
   -1.8913    4.3209    4.2758 C   0  0  2  0  0  0  0  0  0  0  0  0
   -1.3227    3.4881    5.2802 O   0  0  0  0  0  0  0  0  0  0  0  0
   -2.9852    3.5342    3.4836 C   0  0  2  0  0  0  0  0  0  0  0  0
   -2.5409    3.3011    2.1075 O   0  0  0  0  0  0  0  0  0  0  0  0
   -4.3499    4.2543    3.3872 C   0  0  0  0  0  0  0  0  0  0  0  0
   -2.8436    4.1437   -4.0957 C   0  0  1  0  0  0  0  0  0  0  0  0
   -3.5316    3.8622   -5.3755 N   0  3  0  0  0  0  0  0  0  0  0  0
   -3.8155    4.7465   -3.0476 C   0  0  1  0  0  0  0  0  0  0  0  0
   -3.1793    4.9259   -1.6252 C   0  0  1  0  0  0  0  0  0  0  0  0
   -4.2510    5.1795   -0.6776 O   0  0  0  0  0  0  0  0  0  0  0  0
   -2.3969    3.6552   -1.1280 C   0  0  1  0  0  0  0  0  0  0  0  0
   -1.4568    3.0759   -2.2341 C   0  0  1  0  0  0  0  0  0  0  0  0
   -0.8357    1.8007   -1.8219 N   0  3  0  0  0  0  0  0  0  0  0  0
   -2.2097    2.8418   -3.5631 C   0  0  0  0  0  0  0  0  0  0  0  0
   -5.2737    4.1646   -0.4610 C   0  0  1  0  0  0  0  0  0  0  0  0
   -6.2086    4.6454    0.6424 C   0  0  1  0  0  0  0  0  0  0  0  0
   -7.0966    5.5914   -0.1545 C   0  0  1  0  0  0  0  0  0  0  0  0
   -7.3012    4.8025   -1.4557 C   0  0  2  0  0  0  0  0  0  0  0  0
   -6.0898    4.0308   -1.6362 O   0  0  0  0  0  0  0  0  0  0  0  0
   -7.5399    5.7078   -2.6775 C   0  0  0  0  0  0  0  0  0  0  0  0
  -10.1700    9.1750    1.1342 C   0  0  1  0  0  0  0  0  0  0  0  0
  -10.7175    7.7729    1.5211 C   0  0  1  0  0  0  0  0  0  0  0  0
   -9.7156    6.9013    2.3320 C   0  0  2  0  0  0  0  0  0  0  0  0
   -8.3307    6.8165    1.6131 C   0  0  1  0  0  0  0  0  0  0  0  0
   -8.3576    5.8452    0.5291 O   0  0  0  0  0  0  0  0  0  0  0  0
   -8.6698    9.3143    1.5345 C   0  0  1  0  0  0  0  0  0  0  0  0
   -7.9283    8.1368    1.0758 O   0  0  0  0  0  0  0  0  0  0  0  0
   -8.0157   10.5910    0.9462 C   0  0  0  0  0  0  0  0  0  0  0  0
   -5.0288    4.4492    4.6804 N   0  3  0  0  0  0  0  0  0  0  0  0
   -6.9518    3.5419    1.1606 O   0  0  0  0  0  0  0  0  0  0  0  0
  -11.8995    7.9512    2.3005 O   0  0  0  0  0  0  0  0  0  0  0  0
  -10.3211    9.3454   -0.2769 O   0  0  0  0  0  0  0  0  0  0  0  0
   -8.1511    6.9269   -2.2914 O   0  0  0  0  0  0  0  0  0  0  0  0
   -4.2580    6.0215   -3.5123 O   0  0  0  0  0  0  0  0  0  0  0  0
   -8.1360   10.6731   -0.5210 N   0  3  0  0  0  0  0  0  0  0  0  0
  -10.2835    5.5647    2.6369 N   0  3  0  0  0  0  0  0  0  0  0  0
  1  2  1  6  0  0  0
  1  3  1  0  0  0  0
  1 10  1  0  0  0  0
  3  4  1  6  0  0  0
  3  5  1  0  0  0  0
  5  6  1  1  0  0  0
  5  7  1  0  0  0  0
  7  8  1  1  0  0  0
  7  9  1  0  0  0  0
  9 10  1  0  0  0  0
  9 11  1  6  0  0  0
 11 35  1  0  0  0  0
 12 13  1  6  0  0  0
 12 14  1  0  0  0  0
 12 20  1  0  0  0  0
 14 15  1  0  0  0  0
 14 40  1  6  0  0  0
 15 16  1  1  0  0  0
 15 17  1  0  0  0  0
 17  2  1  1  0  0  0
 17 18  1  0  0  0  0
 18 19  1  1  0  0  0
 18 20  1  0  0  0  0
 21 16  1  6  0  0  0
 21 22  1  0  0  0  0
 21 25  1  0  0  0  0
 22 23  1  0  0  0  0
 22 36  1  6  0  0  0
 23 24  1  0  0  0  0
 23 31  1  1  0  0  0
 24 25  1  0  0  0  0
 24 26  1  6  0  0  0
 26 39  1  0  0  0  0
 27 28  1  0  0  0  0
 27 32  1  0  0  0  0
 27 38  1  6  0  0  0
 28 29  1  0  0  0  0
 28 37  1  1  0  0  0
 29 30  1  0  0  0  0
 29 42  1  6  0  0  0
 30 31  1  6  0  0  0
 30 33  1  0  0  0  0
 32 33  1  0  0  0  0
 32 34  1  6  0  0  0
 34 41  1  0  0  0  0
M  CHG  6   4   1  13   1  19   1  35   1  41   1  42   1
M  END
>  <CHROM.1>
-148.87687631,63.42851533,-176.74695394,-67.08497216,179.19528668,-64.20164754
176.38997860,179.67300916,54.37146347,62.34394821,176.08956770,-162.34581080
175.07740363,79.51161005,-28.61938832,71.33495115,-47.83384554,-58.68487936
55.05273174,-175.22831107,-55.86631710,174.15425353,-5.25667970,5.52515263
0.38676436,-0.09681798,-0.47252936,1.46304640

>  <Name>


>  <RI>
0

>  <Rbt.Current_Directory>
/home/itssahil/PROJECTS/Mol_Feturizer/New_Systems/rnas/1ei2

>  <Rbt.Executable>
rbdock ($Id: //depot/dev/client3/rdock/2013.1/src/exe/rbdock.cxx#4 $)

>  <Rbt.Library>
libRbt.so (2013.1, Build901 2013/11/27)

>  <Rbt.Parameter_File>
/export/apps/rDock/src/rDock_2013.1_src/data/scripts/dock_solv.prm

>  <Rbt.Receptor>
prm/pocket_docking_6.prm

>  <SCORE>
-60.9366

>  <SCORE.INTER>
-37.2997

>  <SCORE.INTER.CONST>
1

>  <SCORE.INTER.POLAR>
-7.14216

>  <SCORE.INTER.ROT>
9

>  <SCORE.INTER.SOLV>
24.5352

>  <SCORE.INTER.VDW>
-18.8376

>  <SCORE.INTER.norm>
-0.888088

>  <SCORE.INTRA>
-23.637

>  <SCORE.INTRA.DIHEDRAL>
-28.4663

>  <SCORE.INTRA.DIHEDRAL.0>
40.8761

>  <SCORE.INTRA.POLAR>
-0.55416

>  <SCORE.INTRA.POLAR.0>
-0.0268208

>  <SCORE.INTRA.REPUL>
-0.6123

>  <SCORE.INTRA.REPUL.0>
0.641615

>  <SCORE.INTRA.SOLV>
-8.02706

>  <SCORE.INTRA.SOLV.lig_0>
-162.567

>  <SCORE.INTRA.VDW>
-0.444644

>  <SCORE.INTRA.VDW.0>
-4.80338

>  <SCORE.INTRA.norm>
-0.562785

>  <SCORE.RESTR>
0

>  <SCORE.RESTR.CAVITY>
0

>  <SCORE.RESTR.norm>
0

>  <SCORE.SYSTEM>
0

>  <SCORE.SYSTEM.CONST>
0

>  <SCORE.SYSTEM.DIHEDRAL>
0

>  <SCORE.SYSTEM.SOLV>
0

>  <SCORE.SYSTEM.norm>
0

>  <SCORE.heavy>
42

>  <SCORE.norm>
-1.45087

>  <RMSD>
7.844

$$$$

 OpenBabel11021811393D
libRbt.so/2013.1/901 2013/11/27
 42 45  0  0  0  0  0  0  0  0999 V2000
   -3.4060    1.0072   -2.7445 C   0  0  2  0  0  0  0  0  0  0  0  0
   -2.9130    0.5444   -1.4498 O   0  0  0  0  0  0  0  0  0  0  0  0
   -3.5093   -0.1649   -3.7738 C   0  0  2  0  0  0  0  0  0  0  0  0
   -3.4292   -1.4855   -3.1084 N   0  3  0  0  0  0  0  0  0  0  0  0
   -2.4062   -0.0357   -4.8672 C   0  0  1  0  0  0  0  0  0  0  0  0
   -2.5168   -1.1039   -5.8053 O   0  0  0  0  0  0  0  0  0  0  0  0
   -2.5121    1.3081   -5.6368 C   0  0  2  0  0  0  0  0  0  0  0  0
   -1.3266    1.4906   -6.4029 O   0  0  0  0  0  0  0  0  0  0  0  0
   -2.7065    2.5097   -4.6561 C   0  0  2  0  0  0  0  0  0  0  0  0
   -2.5323    2.0634   -3.2719 O   0  0  0  0  0  0  0  0  0  0  0  0
   -4.0985    3.1784   -4.7288 C   0  0  0  0  0  0  0  0  0  0  0  0
   -1.5668    1.9014    2.4188 C   0  0  1  0  0  0  0  0  0  0  0  0
   -1.1461    2.7549    3.5524 N   0  3  0  0  0  0  0  0  0  0  0  0
   -3.0784    2.0665    2.1125 C   0  0  1  0  0  0  0  0  0  0  0  0
   -3.5503    1.3013    0.8272 C   0  0  1  0  0  0  0  0  0  0  0  0
   -4.8718    1.7875    0.4692 O   0  0  0  0  0  0  0  0  0  0  0  0
   -2.6094    1.5273   -0.4129 C   0  0  1  0  0  0  0  0  0  0  0  0
   -1.0995    1.3769   -0.0379 C   0  0  1  0  0  0  0  0  0  0  0  0
   -0.2107    1.7340   -1.1623 N   0  3  0  0  0  0  0  0  0  0  0  0
   -0.7196    2.2518    1.1778 C   0  0  0  0  0  0  0  0  0  0  0  0
   -5.0016    3.0322   -0.2769 C   0  0  1  0  0  0  0  0  0  0  0  0
   -6.3024    2.9893   -1.0699 C   0  0  1  0  0  0  0  0  0  0  0  0
   -7.2936    3.3614    0.0243 C   0  0  1  0  0  0  0  0  0  0  0  0
   -6.5344    4.4705    0.7665 C   0  0  2  0  0  0  0  0  0  0  0  0
   -5.1320    4.1382    0.6313 O   0  0  0  0  0  0  0  0  0  0  0  0
   -6.9148    4.5683    2.2549 C   0  0  0  0  0  0  0  0  0  0  0  0
  -11.2182    6.4306    0.4315 C   0  0  1  0  0  0  0  0  0  0  0  0
  -11.2889    5.4861   -0.8007 C   0  0  1  0  0  0  0  0  0  0  0  0
  -11.0369    3.9872   -0.4675 C   0  0  2  0  0  0  0  0  0  0  0  0
   -9.7128    3.8037    0.3418 C   0  0  1  0  0  0  0  0  0  0  0  0
   -8.5499    3.8444   -0.5330 O   0  0  0  0  0  0  0  0  0  0  0  0
  -10.7597    5.6516    1.7016 C   0  0  1  0  0  0  0  0  0  0  0  0
   -9.5769    4.8476    1.3837 O   0  0  0  0  0  0  0  0  0  0  0  0
  -10.4329    6.5939    2.8887 C   0  0  0  0  0  0  0  0  0  0  0  0
   -4.4125    3.7918   -6.0313 N   0  3  0  0  0  0  0  0  0  0  0  0
   -6.2704    3.9734   -2.1039 O   0  0  0  0  0  0  0  0  0  0  0  0
  -12.5834    5.6099   -1.3884 O   0  0  0  0  0  0  0  0  0  0  0  0
  -10.2973    7.4843    0.1408 O   0  0  0  0  0  0  0  0  0  0  0  0
   -6.0619    5.4723    2.9361 O   0  0  0  0  0  0  0  0  0  0  0  0
   -3.8277    1.5865    3.2285 O   0  0  0  0  0  0  0  0  0  0  0  0
  -11.5520    7.4892    3.2352 N   0  3  0  0  0  0  0  0  0  0  0  0
  -11.0809    3.1457   -1.6890 N   0  3  0  0  0  0  0  0  0  0  0  0
  1  2  1  1  0  0  0
  1  3  1  0  0  0  0
  1 10  1  0  0  0  0
  3  4  1  1  0  0  0
  3  5  1  0  0  0  0
  5  6  1  6  0  0  0
  5  7  1  0  0  0  0
  7  8  1  1  0  0  0
  7  9  1  0  0  0  0
  9 10  1  0  0  0  0
  9 11  1  1  0  0  0
 11 35  1  0  0  0  0
 12 13  1  1  0  0  0
 12 14  1  0  0  0  0
 12 20  1  0  0  0  0
 14 15  1  0  0  0  0
 14 40  1  1  0  0  0
 15 16  1  6  0  0  0
 15 17  1  0  0  0  0
 17  2  1  6  0  0  0
 17 18  1  0  0  0  0
 18 19  1  6  0  0  0
 18 20  1  0  0  0  0
 21 16  1  1  0  0  0
 21 22  1  0  0  0  0
 21 25  1  0  0  0  0
 22 23  1  0  0  0  0
 22 36  1  6  0  0  0
 23 24  1  0  0  0  0
 23 31  1  6  0  0  0
 24 25  1  0  0  0  0
 24 26  1  1  0  0  0
 26 39  1  0  0  0  0
 27 28  1  0  0  0  0
 27 32  1  0  0  0  0
 27 38  1  6  0  0  0
 28 29  1  0  0  0  0
 28 37  1  1  0  0  0
 29 30  1  0  0  0  0
 29 42  1  6  0  0  0
 30 31  1  6  0  0  0
 30 33  1  0  0  0  0
 32 33  1  0  0  0  0
 32 34  1  1  0  0  0
 34 41  1  0  0  0  0
M  CHG  6   4   1  13   1  19   1  35   1  41   1  42   1
M  END
>  <CHROM.1>
173.12917950,117.35704066,88.59490178,58.29152358,167.50899272,-62.72165276
147.14846683,178.75134436,-64.64721118,81.34677143,153.50676951,50.92258949
63.49158415,159.84021664,171.87380582,-176.22460042,171.36850874,59.69576456
-168.61249316,-165.20085957,55.36839600,-59.16574616,-5.63043755,3.06220634
-0.77557140,0.48959295,0.41737265,-1.79911301

>  <Name>


>  <RI>
0

>  <Rbt.Current_Directory>
/home/itssahil/PROJECTS/Mol_Feturizer/New_Systems/rnas/1ei2

>  <Rbt.Executable>
rbdock ($Id: //depot/dev/client3/rdock/2013.1/src/exe/rbdock.cxx#4 $)

>  <Rbt.Library>
libRbt.so (2013.1, Build901 2013/11/27)

>  <Rbt.Parameter_File>
/export/apps/rDock/src/rDock_2013.1_src/data/scripts/dock_solv.prm

>  <Rbt.Receptor>
prm/pocket_docking_3.prm

>  <SCORE>
-42.3729

>  <SCORE.INTER>
-23.0343

>  <SCORE.INTER.CONST>
1

>  <SCORE.INTER.POLAR>
-3.603

>  <SCORE.INTER.ROT>
9

>  <SCORE.INTER.SOLV>
26.8083

>  <SCORE.INTER.VDW>
-21.8823

>  <SCORE.INTER.norm>
-0.548436

>  <SCORE.INTRA>
-19.8097

>  <SCORE.INTRA.DIHEDRAL>
-18.939

>  <SCORE.INTRA.DIHEDRAL.0>
40.8761

>  <SCORE.INTRA.POLAR>
-0.230536

>  <SCORE.INTRA.POLAR.0>
-0.0268208

>  <SCORE.INTRA.REPUL>
-0.641615

>  <SCORE.INTRA.REPUL.0>
0.641615

>  <SCORE.INTRA.SOLV>
-12.2635

>  <SCORE.INTRA.SOLV.lig_0>
-162.567

>  <SCORE.INTRA.VDW>
-0.216501

>  <SCORE.INTRA.VDW.0>
-4.80338

>  <SCORE.INTRA.norm>
-0.471659

>  <SCORE.RESTR>
0.471136

>  <SCORE.RESTR.CAVITY>
0.471136

>  <SCORE.RESTR.norm>
0.0112175

>  <SCORE.SYSTEM>
0

>  <SCORE.SYSTEM.CONST>
0

>  <SCORE.SYSTEM.DIHEDRAL>
0

>  <SCORE.SYSTEM.SOLV>
0

>  <SCORE.SYSTEM.norm>
0

>  <SCORE.heavy>
42

>  <SCORE.norm>
-1.00888

>  <RMSD>
7.845

$$$$

 OpenBabel11021811393D
libRbt.so/2013.1/901 2013/11/27
 42 45  0  0  0  0  0  0  0  0999 V2000
   -4.2947    0.6164   -3.5215 C   0  0  2  0  0  0  0  0  0  0  0  0
   -5.3049    1.0749   -2.5712 O   0  0  0  0  0  0  0  0  0  0  0  0
   -2.9532    0.2540   -2.8055 C   0  0  2  0  0  0  0  0  0  0  0  0
   -3.1331    0.1215   -1.3416 N   0  3  0  0  0  0  0  0  0  0  0  0
   -1.8543    1.3112   -3.1279 C   0  0  1  0  0  0  0  0  0  0  0  0
   -0.6333    0.9646   -2.4780 O   0  0  0  0  0  0  0  0  0  0  0  0
   -1.5870    1.4179   -4.6532 C   0  0  2  0  0  0  0  0  0  0  0  0
   -0.8042    2.5807   -4.8997 O   0  0  0  0  0  0  0  0  0  0  0  0
   -2.9240    1.4912   -5.4597 C   0  0  2  0  0  0  0  0  0  0  0  0
   -4.0569    1.6436   -4.5440 O   0  0  0  0  0  0  0  0  0  0  0  0
   -3.2224    0.2430   -6.3218 C   0  0  0  0  0  0  0  0  0  0  0  0
   -4.7035    5.2709   -3.3783 C   0  0  1  0  0  0  0  0  0  0  0  0
   -4.8527    6.7431   -3.4059 N   0  3  0  0  0  0  0  0  0  0  0  0
   -4.2855    4.7675   -1.9719 C   0  0  1  0  0  0  0  0  0  0  0  0
   -4.2579    3.2046   -1.8423 C   0  0  1  0  0  0  0  0  0  0  0  0
   -4.1778    2.8677   -0.4312 O   0  0  0  0  0  0  0  0  0  0  0  0
   -5.5427    2.5085   -2.4242 C   0  0  1  0  0  0  0  0  0  0  0  0
   -5.9316    3.0758   -3.8278 C   0  0  1  0  0  0  0  0  0  0  0  0
   -7.2178    2.5317   -4.3088 N   0  3  0  0  0  0  0  0  0  0  0  0
   -6.0308    4.6179   -3.8168 C   0  0  0  0  0  0  0  0  0  0  0  0
   -4.0527    3.9323    0.5556 C   0  0  1  0  0  0  0  0  0  0  0  0
   -5.3662    4.7037    0.6065 C   0  0  1  0  0  0  0  0  0  0  0  0
   -6.1878    3.7726    1.4876 C   0  0  1  0  0  0  0  0  0  0  0  0
   -5.1557    3.3551    2.5449 C   0  0  2  0  0  0  0  0  0  0  0  0
   -3.8772    3.3694    1.8661 O   0  0  0  0  0  0  0  0  0  0  0  0
   -5.4277    1.9591    3.1335 C   0  0  0  0  0  0  0  0  0  0  0  0
  -10.5569    3.8515    0.1045 C   0  0  1  0  0  0  0  0  0  0  0  0
  -10.4862    4.3439    1.5768 C   0  0  1  0  0  0  0  0  0  0  0  0
   -9.5422    5.5615    1.7948 C   0  0  2  0  0  0  0  0  0  0  0  0
   -8.1252    5.2920    1.1938 C   0  0  1  0  0  0  0  0  0  0  0  0
   -7.3241    4.4630    2.0827 O   0  0  0  0  0  0  0  0  0  0  0  0
   -9.5341    4.6195   -0.7868 C   0  0  1  0  0  0  0  0  0  0  0  0
   -8.2248    4.6343   -0.1296 O   0  0  0  0  0  0  0  0  0  0  0  0
   -9.3904    3.9933   -2.1979 C   0  0  0  0  0  0  0  0  0  0  0  0
   -4.4628    0.3308   -7.1124 N   0  3  0  0  0  0  0  0  0  0  0  0
   -5.1588    5.9697    1.2333 O   0  0  0  0  0  0  0  0  0  0  0  0
  -11.8018    4.7082    1.9927 O   0  0  0  0  0  0  0  0  0  0  0  0
  -10.2747    2.4505    0.0826 O   0  0  0  0  0  0  0  0  0  0  0  0
   -4.3592    1.5454    3.9676 O   0  0  0  0  0  0  0  0  0  0  0  0
   -2.9843    5.2720   -1.6721 O   0  0  0  0  0  0  0  0  0  0  0  0
  -10.3321    4.5651   -3.1777 N   0  3  0  0  0  0  0  0  0  0  0  0
   -9.4904    5.9580    3.2239 N   0  3  0  0  0  0  0  0  0  0  0  0
  1  2  1  1  0  0  0
  1  3  1  0  0  0  0
  1 10  1  0  0  0  0
  3  4  1  1  0  0  0
  3  5  1  0  0  0  0
  5  6  1  1  0  0  0
  5  7  1  0  0  0  0
  7  8  1  1  0  0  0
  7  9  1  0  0  0  0
  9 10  1  0  0  0  0
  9 11  1  1  0  0  0
 11 35  1  0  0  0  0
 12 13  1  1  0  0  0
 12 14  1  0  0  0  0
 12 20  1  0  0  0  0
 14 15  1  0  0  0  0
 14 40  1  6  0  0  0
 15 16  1  1  0  0  0
 15 17  1  0  0  0  0
 17  2  1  6  0  0  0
 17 18  1  0  0  0  0
 18 19  1  1  0  0  0
 18 20  1  0  0  0  0
 21 16  1  6  0  0  0
 21 22  1  0  0  0  0
 21 25  1  0  0  0  0
 22 23  1  0  0  0  0
 22 36  1  1  0  0  0
 23 24  1  0  0  0  0
 23 31  1  1  0  0  0
 24 25  1  0  0  0  0
 24 26  1  6  0  0  0
 26 39  1  0  0  0  0
 27 28  1  0  0  0  0
 27 32  1  0  0  0  0
 27 38  1  1  0  0  0
 28 29  1  0  0  0  0
 28 37  1  6  0  0  0
 29 30  1  0  0  0  0
 29 42  1  1  0  0  0
 30 31  1  1  0  0  0
 30 33  1  0  0  0  0
 32 33  1  0  0  0  0
 32 34  1  6  0  0  0
 34 41  1  0  0  0  0
M  CHG  6   4   1  13   1  19   1  35   1  41   1  42   1
M  END
>  <CHROM.1>
100.07611810,-64.81350960,-66.63419424,168.75212317,-176.57515572,-178.25875302
-65.18362805,169.93837296,69.99837892,-3.89900617,69.45223230,178.76040104
76.16386202,46.67898406,172.24678837,64.04989953,-43.93047628,172.24744132
-69.27715849,160.20393323,90.22556301,-85.54266076,-5.71630170,3.24427902
-1.29563264,0.76554974,0.31519462,-1.74286477

>  <Name>


>  <RI>
0

>  <Rbt.Current_Directory>
/home/itssahil/PROJECTS/Mol_Feturizer/New_Systems/rnas/1ei2

>  <Rbt.Executable>
rbdock ($Id: //depot/dev/client3/rdock/2013.1/src/exe/rbdock.cxx#4 $)

>  <Rbt.Library>
libRbt.so (2013.1, Build901 2013/11/27)

>  <Rbt.Parameter_File>
/export/apps/rDock/src/rDock_2013.1_src/data/scripts/dock_solv.prm

>  <Rbt.Receptor>
prm/pocket_docking_2.prm

>  <SCORE>
-47.6266

>  <SCORE.INTER>
-36.9574

>  <SCORE.INTER.CONST>
1

>  <SCORE.INTER.POLAR>
-5.73046

>  <SCORE.INTER.ROT>
9

>  <SCORE.INTER.SOLV>
27.5153

>  <SCORE.INTER.VDW>
-24.3085

>  <SCORE.INTER.norm>
-0.879938

>  <SCORE.INTRA>
-13.0191

>  <SCORE.INTRA.DIHEDRAL>
-15.9362

>  <SCORE.INTRA.DIHEDRAL.0>
40.8761

>  <SCORE.INTRA.POLAR>
-1.15791

>  <SCORE.INTRA.POLAR.0>
-0.0268208

>  <SCORE.INTRA.REPUL>
-0.641615

>  <SCORE.INTRA.REPUL.0>
0.641615

>  <SCORE.INTRA.SOLV>
-7.28673

>  <SCORE.INTRA.SOLV.lig_0>
-162.567

>  <SCORE.INTRA.VDW>
5.73735

>  <SCORE.INTRA.VDW.0>
-4.80338

>  <SCORE.INTRA.norm>
-0.309979

>  <SCORE.RESTR>
2.34988

>  <SCORE.RESTR.CAVITY>
2.34988

>  <SCORE.RESTR.norm>
0.0559495

>  <SCORE.SYSTEM>
0

>  <SCORE.SYSTEM.CONST>
0

>  <SCORE.SYSTEM.DIHEDRAL>
0

>  <SCORE.SYSTEM.SOLV>
0

>  <SCORE.SYSTEM.norm>
0

>  <SCORE.heavy>
42

>  <SCORE.norm>
-1.13397

>  <RMSD>
7.862

$$$$

 OpenBabel11021811393D
libRbt.so/2013.1/901 2013/11/27
 42 45  0  0  0  0  0  0  0  0999 V2000
   -5.2223    2.6889   -6.2587 C   0  0  2  0  0  0  0  0  0  0  0  0
   -6.1741    3.7952   -6.1969 O   0  0  0  0  0  0  0  0  0  0  0  0
   -4.2744    2.8134   -7.4956 C   0  0  2  0  0  0  0  0  0  0  0  0
   -4.3265    4.1687   -8.0903 N   0  3  0  0  0  0  0  0  0  0  0  0
   -4.6202    1.7335   -8.5647 C   0  0  1  0  0  0  0  0  0  0  0  0
   -3.7429    1.8504   -9.6828 O   0  0  0  0  0  0  0  0  0  0  0  0
   -4.4988    0.2958   -7.9921 C   0  0  2  0  0  0  0  0  0  0  0  0
   -5.0982   -0.6132   -8.9086 O   0  0  0  0  0  0  0  0  0  0  0  0
   -5.1900    0.1816   -6.5947 C   0  0  2  0  0  0  0  0  0  0  0  0
   -5.9371    1.4065   -6.3006 O   0  0  0  0  0  0  0  0  0  0  0  0
   -4.2163   -0.0320   -5.4130 C   0  0  0  0  0  0  0  0  0  0  0  0
   -9.3150    5.5124   -3.7873 C   0  0  1  0  0  0  0  0  0  0  0  0
  -10.3738    5.7094   -2.7721 N   0  3  0  0  0  0  0  0  0  0  0  0
   -7.9108    5.4204   -3.1348 C   0  0  1  0  0  0  0  0  0  0  0  0
   -6.7662    5.0620   -4.1455 C   0  0  1  0  0  0  0  0  0  0  0  0
   -5.5874    4.6890   -3.3824 O   0  0  0  0  0  0  0  0  0  0  0  0
   -7.1231    3.8544   -5.0881 C   0  0  1  0  0  0  0  0  0  0  0  0
   -8.5583    3.9873   -5.6926 C   0  0  1  0  0  0  0  0  0  0  0  0
   -8.9516    2.7858   -6.4566 N   0  3  0  0  0  0  0  0  0  0  0  0
   -9.6214    4.2368   -4.5993 C   0  0  0  0  0  0  0  0  0  0  0  0
   -4.4013    5.5336   -3.4339 C   0  0  1  0  0  0  0  0  0  0  0  0
   -3.8756    5.7190   -2.0154 C   0  0  1  0  0  0  0  0  0  0  0  0
   -3.1232    4.4074   -1.8367 C   0  0  1  0  0  0  0  0  0  0  0  0
   -2.4531    4.2448   -3.2085 C   0  0  2  0  0  0  0  0  0  0  0  0
   -3.3537    4.8660   -4.1564 O   0  0  0  0  0  0  0  0  0  0  0  0
   -2.2138    2.7732   -3.5910 C   0  0  0  0  0  0  0  0  0  0  0  0
   -1.8524    2.6219    2.5767 C   0  0  1  0  0  0  0  0  0  0  0  0
   -0.8423    3.6794    2.0506 C   0  0  1  0  0  0  0  0  0  0  0  0
   -1.5002    5.0118    1.5891 C   0  0  2  0  0  0  0  0  0  0  0  0
   -2.6597    4.7474    0.5753 C   0  0  1  0  0  0  0  0  0  0  0  0
   -2.1436    4.4943   -0.7621 O   0  0  0  0  0  0  0  0  0  0  0  0
   -3.3197    3.1079    2.3744 C   0  0  1  0  0  0  0  0  0  0  0  0
   -3.4896    3.5980    1.0041 O   0  0  0  0  0  0  0  0  0  0  0  0
   -4.3576    1.9893    2.6492 C   0  0  0  0  0  0  0  0  0  0  0  0
   -3.7223   -1.4132   -5.2724 N   0  3  0  0  0  0  0  0  0  0  0  0
   -2.9920    6.8396   -1.9704 O   0  0  0  0  0  0  0  0  0  0  0  0
    0.0889    3.9691    3.0925 O   0  0  0  0  0  0  0  0  0  0  0  0
   -1.6364    1.3993    1.8685 O   0  0  0  0  0  0  0  0  0  0  0  0
   -1.6556    2.6730   -4.8899 O   0  0  0  0  0  0  0  0  0  0  0  0
   -7.6045    6.6749   -2.5266 O   0  0  0  0  0  0  0  0  0  0  0  0
   -4.6042    1.7765    4.0872 N   0  3  0  0  0  0  0  0  0  0  0  0
   -0.4887    5.9624    1.0644 N   0  3  0  0  0  0  0  0  0  0  0  0
  1  2  1  6  0  0  0
  1  3  1  0  0  0  0
  1 10  1  0  0  0  0
  3  4  1  6  0  0  0
  3  5  1  0  0  0  0
  5  6  1  6  0  0  0
  5  7  1  0  0  0  0
  7  8  1  6  0  0  0
  7  9  1  0  0  0  0
  9 10  1  0  0  0  0
  9 11  1  1  0  0  0
 11 35  1  0  0  0  0
 12 13  1  1  0  0  0
 12 14  1  0  0  0  0
 12 20  1  0  0  0  0
 14 15  1  0  0  0  0
 14 40  1  6  0  0  0
 15 16  1  1  0  0  0
 15 17  1  0  0  0  0
 17  2  1  6  0  0  0
 17 18  1  0  0  0  0
 18 19  1  1  0  0  0
 18 20  1  0  0  0  0
 21 16  1  1  0  0  0
 21 22  1  0  0  0  0
 21 25  1  0  0  0  0
 22 23  1  0  0  0  0
 22 36  1  6  0  0  0
 23 24  1  0  0  0  0
 23 31  1  1  0  0  0
 24 25  1  0  0  0  0
 24 26  1  6  0  0  0
 26 39  1  0  0  0  0
 27 28  1  0  0  0  0
 27 32  1  0  0  0  0
 27 38  1  6  0  0  0
 28 29  1  0  0  0  0
 28 37  1  1  0  0  0
 29 30  1  0  0  0  0
 29 42  1  6  0  0  0
 30 31  1  6  0  0  0
 30 33  1  0  0  0  0
 32 33  1  0  0  0  0
 32 34  1  6  0  0  0
 34 41  1  0  0  0  0
M  CHG  6   4   1  13   1  19   1  35   1  41   1  42   1
M  END
>  <CHROM.1>
-178.84619262,110.97854418,19.67036070,57.90373135,64.59767169,-78.44068388
-169.32088694,-71.19235708,86.93000594,-113.56440445,134.72814846,175.75894435
158.63152038,62.58972200,177.10612092,-52.05807159,55.37589047,94.72325894
143.96348516,-172.14823185,78.97531301,66.16100784,-4.49219606,3.41778015
-3.12534521,-2.03465687,-0.50744524,1.16835759

>  <Name>


>  <RI>
0

>  <Rbt.Current_Directory>
/home/itssahil/PROJECTS/Mol_Feturizer/New_Systems/rnas/1ei2

>  <Rbt.Executable>
rbdock ($Id: //depot/dev/client3/rdock/2013.1/src/exe/rbdock.cxx#4 $)

>  <Rbt.Library>
libRbt.so (2013.1, Build901 2013/11/27)

>  <Rbt.Parameter_File>
/export/apps/rDock/src/rDock_2013.1_src/data/scripts/dock_solv.prm

>  <Rbt.Receptor>
prm/pocket_docking_8.prm

>  <SCORE>
-53.1304

>  <SCORE.INTER>
-39.6318

>  <SCORE.INTER.CONST>
1

>  <SCORE.INTER.POLAR>
-6.22356

>  <SCORE.INTER.ROT>
9

>  <SCORE.INTER.SOLV>
31.1856

>  <SCORE.INTER.VDW>
-25.6712

>  <SCORE.INTER.norm>
-0.943615

>  <SCORE.INTRA>
-13.4986

>  <SCORE.INTRA.DIHEDRAL>
-2.18767

>  <SCORE.INTRA.DIHEDRAL.0>
40.8761

>  <SCORE.INTRA.POLAR>
-0.213552

>  <SCORE.INTRA.POLAR.0>
-0.0268208

>  <SCORE.INTRA.REPUL>
-0.641615

>  <SCORE.INTRA.REPUL.0>
0.641615

>  <SCORE.INTRA.SOLV>
-12.9785

>  <SCORE.INTRA.SOLV.lig_0>
-162.567

>  <SCORE.INTRA.VDW>
-1.98138

>  <SCORE.INTRA.VDW.0>
-4.80338

>  <SCORE.INTRA.norm>
-0.321395

>  <SCORE.RESTR>
0

>  <SCORE.RESTR.CAVITY>
0

>  <SCORE.RESTR.norm>
0

>  <SCORE.SYSTEM>
0

>  <SCORE.SYSTEM.CONST>
0

>  <SCORE.SYSTEM.DIHEDRAL>
0

>  <SCORE.SYSTEM.SOLV>
0

>  <SCORE.SYSTEM.norm>
0

>  <SCORE.heavy>
42

>  <SCORE.norm>
-1.26501

>  <RMSD>
7.870

$$$$

 OpenBabel11021811393D
libRbt.so/2013.1/901 2013/11/27
 42 45  0  0  0  0  0  0  0  0999 V2000
   -4.0229    3.3596   -4.1861 C   0  0  2  0  0  0  0  0  0  0  0  0
   -4.8470    4.2749   -3.4007 O   0  0  0  0  0  0  0  0  0  0  0  0
   -4.6883    3.0201   -5.5594 C   0  0  2  0  0  0  0  0  0  0  0  0
   -5.7875    3.9588   -5.8813 N   0  3  0  0  0  0  0  0  0  0  0  0
   -5.2037    1.5494   -5.5725 C   0  0  1  0  0  0  0  0  0  0  0  0
   -5.7990    1.2485   -6.8329 O   0  0  0  0  0  0  0  0  0  0  0  0
   -4.0577    0.5347   -5.3147 C   0  0  2  0  0  0  0  0  0  0  0  0
   -4.6286   -0.7423   -5.0518 O   0  0  0  0  0  0  0  0  0  0  0  0
   -3.1653    0.9806   -4.1113 C   0  0  2  0  0  0  0  0  0  0  0  0
   -3.7738    2.1254   -3.4299 O   0  0  0  0  0  0  0  0  0  0  0  0
   -1.7330    1.4132   -4.5006 C   0  0  0  0  0  0  0  0  0  0  0  0
   -2.0012    4.6897   -0.1837 C   0  0  1  0  0  0  0  0  0  0  0  0
   -1.2864    5.1650    1.0220 N   0  3  0  0  0  0  0  0  0  0  0  0
   -3.3718    4.0599    0.1785 C   0  0  1  0  0  0  0  0  0  0  0  0
   -4.2400    3.6745   -1.0695 C   0  0  1  0  0  0  0  0  0  0  0  0
   -5.5946    3.4098   -0.6156 O   0  0  0  0  0  0  0  0  0  0  0  0
   -4.3161    4.8138   -2.1512 C   0  0  1  0  0  0  0  0  0  0  0  0
   -2.9116    5.4293   -2.4537 C   0  0  1  0  0  0  0  0  0  0  0  0
   -3.0000    6.5959   -3.3555 N   0  3  0  0  0  0  0  0  0  0  0  0
   -2.1865    5.8685   -1.1617 C   0  0  0  0  0  0  0  0  0  0  0  0
   -6.4517    2.5227   -1.3909 C   0  0  1  0  0  0  0  0  0  0  0  0
   -7.8449    2.5315   -0.7730 C   0  0  1  0  0  0  0  0  0  0  0  0
   -8.3893    3.8256   -1.3623 C   0  0  1  0  0  0  0  0  0  0  0  0
   -7.8632    3.7559   -2.8030 C   0  0  2  0  0  0  0  0  0  0  0  0
   -6.6106    3.0345   -2.7243 O   0  0  0  0  0  0  0  0  0  0  0  0
   -7.6372    5.1437   -3.4293 C   0  0  0  0  0  0  0  0  0  0  0  0
  -11.4773    6.6468    0.7615 C   0  0  1  0  0  0  0  0  0  0  0  0
  -12.2110    5.7601   -0.2829 C   0  0  1  0  0  0  0  0  0  0  0  0
  -11.9825    4.2328   -0.0921 C   0  0  2  0  0  0  0  0  0  0  0  0
  -10.4592    3.8972    0.0011 C   0  0  1  0  0  0  0  0  0  0  0  0
   -9.8448    3.8632   -1.3182 O   0  0  0  0  0  0  0  0  0  0  0  0
  -10.5567    5.7814    1.6746 C   0  0  1  0  0  0  0  0  0  0  0  0
   -9.7476    4.8840    0.8459 O   0  0  0  0  0  0  0  0  0  0  0  0
   -9.6195    6.6439    2.5588 C   0  0  0  0  0  0  0  0  0  0  0  0
   -0.9527    2.0005   -3.3971 N   0  3  0  0  0  0  0  0  0  0  0  0
   -8.5828    1.3975   -1.2292 O   0  0  0  0  0  0  0  0  0  0  0  0
  -13.6104    6.0252   -0.1938 O   0  0  0  0  0  0  0  0  0  0  0  0
  -10.7007    7.6211    0.0611 O   0  0  0  0  0  0  0  0  0  0  0  0
   -8.8217    5.9202   -3.3782 O   0  0  0  0  0  0  0  0  0  0  0  0
   -3.1453    2.8844    0.9559 O   0  0  0  0  0  0  0  0  0  0  0  0
  -10.3528    7.4737    3.5322 N   0  3  0  0  0  0  0  0  0  0  0  0
  -12.6776    3.4457   -1.1406 N   0  3  0  0  0  0  0  0  0  0  0  0
  1  2  1  1  0  0  0
  1  3  1  0  0  0  0
  1 10  1  0  0  0  0
  3  4  1  1  0  0  0
  3  5  1  0  0  0  0
  5  6  1  6  0  0  0
  5  7  1  0  0  0  0
  7  8  1  1  0  0  0
  7  9  1  0  0  0  0
  9 10  1  0  0  0  0
  9 11  1  6  0  0  0
 11 35  1  0  0  0  0
 12 13  1  1  0  0  0
 12 14  1  0  0  0  0
 12 20  1  0  0  0  0
 14 15  1  0  0  0  0
 14 40  1  6  0  0  0
 15 16  1  1  0  0  0
 15 17  1  0  0  0  0
 17  2  1  6  0  0  0
 17 18  1  0  0  0  0
 18 19  1  6  0  0  0
 18 20  1  0  0  0  0
 21 16  1  1  0  0  0
 21 22  1  0  0  0  0
 21 25  1  0  0  0  0
 22 23  1  0  0  0  0
 22 36  1  6  0  0  0
 23 24  1  0  0  0  0
 23 31  1  6  0  0  0
 24 25  1  0  0  0  0
 24 26  1  1  0  0  0
 26 39  1  0  0  0  0
 27 28  1  0  0  0  0
 27 32  1  0  0  0  0
 27 38  1  6  0  0  0
 28 29  1  0  0  0  0
 28 37  1  1  0  0  0
 29 30  1  0  0  0  0
 29 42  1  6  0  0  0
 30 31  1  6  0  0  0
 30 33  1  0  0  0  0
 32 33  1  0  0  0  0
 32 34  1  6  0  0  0
 34 41  1  0  0  0  0
M  CHG  6   4   1  13   1  19   1  35   1  41   1  42   1
M  END
>  <CHROM.1>
-173.49694944,-70.38629688,46.81665265,-174.19293264,174.51772607,172.28750186
165.69129028,18.16564793,75.87655419,-154.30751434,-174.45426639,68.37649092
64.76091718,65.44035555,-55.69992409,-178.08675078,178.82535011,65.83596533
-78.04946728,168.18922426,64.38095430,50.16170295,-6.59483479,3.93535684
-1.82871155,0.56917047,0.01936842,-2.17737372

>  <Name>


>  <RI>
0

>  <Rbt.Current_Directory>
/home/itssahil/PROJECTS/Mol_Feturizer/New_Systems/rnas/1ei2

>  <Rbt.Executable>
rbdock ($Id: //depot/dev/client3/rdock/2013.1/src/exe/rbdock.cxx#4 $)

>  <Rbt.Library>
libRbt.so (2013.1, Build901 2013/11/27)

>  <Rbt.Parameter_File>
/export/apps/rDock/src/rDock_2013.1_src/data/scripts/dock_solv.prm

>  <Rbt.Receptor>
prm/pocket_docking_3.prm

>  <SCORE>
-46.8792

>  <SCORE.INTER>
-26.8637

>  <SCORE.INTER.CONST>
1

>  <SCORE.INTER.POLAR>
-5.73565

>  <SCORE.INTER.ROT>
9

>  <SCORE.INTER.SOLV>
35.5942

>  <SCORE.INTER.VDW>
-20.255

>  <SCORE.INTER.norm>
-0.639612

>  <SCORE.INTRA>
-20.2113

>  <SCORE.INTRA.DIHEDRAL>
-28.8647

>  <SCORE.INTRA.DIHEDRAL.0>
40.8761

>  <SCORE.INTRA.POLAR>
0.0268208

>  <SCORE.INTRA.POLAR.0>
-0.0268208

>  <SCORE.INTRA.REPUL>
-0.608425

>  <SCORE.INTRA.REPUL.0>
0.641615

>  <SCORE.INTRA.SOLV>
-8.64762

>  <SCORE.INTRA.SOLV.lig_0>
-162.567

>  <SCORE.INTRA.VDW>
1.49579

>  <SCORE.INTRA.VDW.0>
-4.80338

>  <SCORE.INTRA.norm>
-0.481222

>  <SCORE.RESTR>
0.195777

>  <SCORE.RESTR.CAVITY>
0.195777

>  <SCORE.RESTR.norm>
0.00466135

>  <SCORE.SYSTEM>
0

>  <SCORE.SYSTEM.CONST>
0

>  <SCORE.SYSTEM.DIHEDRAL>
0

>  <SCORE.SYSTEM.SOLV>
0

>  <SCORE.SYSTEM.norm>
0

>  <SCORE.heavy>
42

>  <SCORE.norm>
-1.11617

>  <RMSD>
7.889

$$$$

 OpenBabel11021811393D
libRbt.so/2013.1/901 2013/11/27
 42 45  0  0  0  0  0  0  0  0999 V2000
   -4.7126    0.7666   -4.1864 C   0  0  2  0  0  0  0  0  0  0  0  0
   -5.0977    1.1880   -2.8418 O   0  0  0  0  0  0  0  0  0  0  0  0
   -4.3566   -0.7549   -4.2330 C   0  0  2  0  0  0  0  0  0  0  0  0
   -4.8263   -1.4638   -3.0207 N   0  3  0  0  0  0  0  0  0  0  0  0
   -2.8229   -0.9555   -4.4239 C   0  0  1  0  0  0  0  0  0  0  0  0
   -2.5118   -2.3462   -4.4751 O   0  0  0  0  0  0  0  0  0  0  0  0
   -2.3124   -0.2885   -5.7293 C   0  0  2  0  0  0  0  0  0  0  0  0
   -0.8899   -0.2538   -5.6986 O   0  0  0  0  0  0  0  0  0  0  0  0
   -2.8804    1.1593   -5.8862 C   0  0  2  0  0  0  0  0  0  0  0  0
   -3.5741    1.5638   -4.6613 O   0  0  0  0  0  0  0  0  0  0  0  0
   -3.8948    1.3288   -7.0405 C   0  0  0  0  0  0  0  0  0  0  0  0
   -5.5323    5.3575   -3.8647 C   0  0  1  0  0  0  0  0  0  0  0  0
   -5.8492    6.8023   -3.8140 N   0  3  0  0  0  0  0  0  0  0  0  0
   -4.3693    4.9958   -2.9042 C   0  0  1  0  0  0  0  0  0  0  0  0
   -4.0886    3.4560   -2.8029 C   0  0  1  0  0  0  0  0  0  0  0  0
   -3.2256    3.2265   -1.6568 O   0  0  0  0  0  0  0  0  0  0  0  0
   -5.3904    2.5978   -2.5961 C   0  0  1  0  0  0  0  0  0  0  0  0
   -6.5353    3.0260   -3.5703 C   0  0  1  0  0  0  0  0  0  0  0  0
   -7.8025    2.3254   -3.2785 N   0  3  0  0  0  0  0  0  0  0  0  0
   -6.7980    4.5477   -3.5144 C   0  0  0  0  0  0  0  0  0  0  0  0
   -2.4574    1.9914   -1.5717 C   0  0  1  0  0  0  0  0  0  0  0  0
   -1.5915    2.0438   -0.3186 C   0  0  1  0  0  0  0  0  0  0  0  0
   -2.6220    1.6571    0.7334 C   0  0  1  0  0  0  0  0  0  0  0  0
   -3.3925    0.5390    0.0167 C   0  0  2  0  0  0  0  0  0  0  0  0
   -3.3424    0.8738   -1.3908 O   0  0  0  0  0  0  0  0  0  0  0  0
   -4.8550    0.4219    0.4819 C   0  0  0  0  0  0  0  0  0  0  0  0
   -2.9264    4.4857    3.6674 C   0  0  1  0  0  0  0  0  0  0  0  0
   -3.0323    3.0777    4.3167 C   0  0  1  0  0  0  0  0  0  0  0  0
   -1.7349    2.2264    4.2027 C   0  0  2  0  0  0  0  0  0  0  0  0
   -1.2321    2.1586    2.7247 C   0  0  1  0  0  0  0  0  0  0  0  0
   -1.9872    1.1806    1.9549 O   0  0  0  0  0  0  0  0  0  0  0  0
   -1.5690    4.6504    2.9186 C   0  0  1  0  0  0  0  0  0  0  0  0
   -1.3337    3.4817    2.0668 O   0  0  0  0  0  0  0  0  0  0  0  0
   -1.5236    5.9335    2.0495 C   0  0  0  0  0  0  0  0  0  0  0  0
   -3.9822    2.6976   -7.5789 N   0  3  0  0  0  0  0  0  0  0  0  0
   -0.5485    1.0731   -0.4113 O   0  0  0  0  0  0  0  0  0  0  0  0
   -3.3483    3.2424    5.6985 O   0  0  0  0  0  0  0  0  0  0  0  0
   -4.0148    4.6455    2.7548 O   0  0  0  0  0  0  0  0  0  0  0  0
   -4.9226    0.0723    1.8538 O   0  0  0  0  0  0  0  0  0  0  0  0
   -3.1818    5.6460   -3.3564 O   0  0  0  0  0  0  0  0  0  0  0  0
   -0.1854    6.2009    1.4911 N   0  3  0  0  0  0  0  0  0  0  0  0
   -1.9133    0.8829    4.8073 N   0  3  0  0  0  0  0  0  0  0  0  0
  1  2  1  1  0  0  0
  1  3  1  0  0  0  0
  1 10  1  0  0  0  0
  3  4  1  1  0  0  0
  3  5  1  0  0  0  0
  5  6  1  6  0  0  0
  5  7  1  0  0  0  0
  7  8  1  1  0  0  0
  7  9  1  0  0  0  0
  9 10  1  0  0  0  0
  9 11  1  6  0  0  0
 11 35  1  0  0  0  0
 12 13  1  1  0  0  0
 12 14  1  0  0  0  0
 12 20  1  0  0  0  0
 14 15  1  0  0  0  0
 14 40  1  6  0  0  0
 15 16  1  1  0  0  0
 15 17  1  0  0  0  0
 17  2  1  6  0  0  0
 17 18  1  0  0  0  0
 18 19  1  1  0  0  0
 18 20  1  0  0  0  0
 21 16  1  1  0  0  0
 21 22  1  0  0  0  0
 21 25  1  0  0  0  0
 22 23  1  0  0  0  0
 22 36  1  6  0  0  0
 23 24  1  0  0  0  0
 23 31  1  1  0  0  0
 24 25  1  0  0  0  0
 24 26  1  1  0  0  0
 26 39  1  0  0  0  0
 27 28  1  0  0  0  0
 27 32  1  0  0  0  0
 27 38  1  6  0  0  0
 28 29  1  0  0  0  0
 28 37  1  1  0  0  0
 29 30  1  0  0  0  0
 29 42  1  6  0  0  0
 30 31  1  6  0  0  0
 30 33  1  0  0  0  0
 32 33  1  0  0  0  0
 32 34  1  6  0  0  0
 34 41  1  0  0  0  0
M  CHG  6   4   1  13   1  19   1  35   1  41   1  42   1
M  END
>  <CHROM.1>
176.54008067,-65.08765966,-50.00213350,-61.94368779,68.78181430,-154.40168825
-178.79921632,-40.10506156,68.39817457,-159.94767489,177.05854638,178.25067944
86.65133362,67.22398065,-63.19249154,174.98713353,68.72763419,172.07199935
51.21937829,124.85154527,171.81013129,-69.25090391,-3.40636498,2.26696785
-1.25116412,-2.14768858,-1.17586263,0.81748419

>  <Name>


>  <RI>
0

>  <Rbt.Current_Directory>
/home/itssahil/PROJECTS/Mol_Feturizer/New_Systems/rnas/1ei2

>  <Rbt.Executable>
rbdock ($Id: //depot/dev/client3/rdock/2013.1/src/exe/rbdock.cxx#4 $)

>  <Rbt.Library>
libRbt.so (2013.1, Build901 2013/11/27)

>  <Rbt.Parameter_File>
/export/apps/rDock/src/rDock_2013.1_src/data/scripts/dock_solv.prm

>  <Rbt.Receptor>
prm/pocket_docking_7.prm

>  <SCORE>
-61.6427

>  <SCORE.INTER>
-41.8018

>  <SCORE.INTER.CONST>
1

>  <SCORE.INTER.POLAR>
-7.07581

>  <SCORE.INTER.ROT>
9

>  <SCORE.INTER.SOLV>
31.1151

>  <SCORE.INTER.VDW>
-24.2536

>  <SCORE.INTER.norm>
-0.995282

>  <SCORE.INTRA>
-19.8409

>  <SCORE.INTRA.DIHEDRAL>
-22.4461

>  <SCORE.INTRA.DIHEDRAL.0>
40.8761

>  <SCORE.INTRA.POLAR>
-0.499025

>  <SCORE.INTRA.POLAR.0>
-0.0268208

>  <SCORE.INTRA.REPUL>
-0.504825

>  <SCORE.INTRA.REPUL.0>
0.641615

>  <SCORE.INTRA.SOLV>
-11.4325

>  <SCORE.INTRA.SOLV.lig_0>
-162.567

>  <SCORE.INTRA.VDW>
1.31926

>  <SCORE.INTRA.VDW.0>
-4.80338

>  <SCORE.INTRA.norm>
-0.472402

>  <SCORE.RESTR>
0

>  <SCORE.RESTR.CAVITY>
0

>  <SCORE.RESTR.norm>
0

>  <SCORE.SYSTEM>
0

>  <SCORE.SYSTEM.CONST>
0

>  <SCORE.SYSTEM.DIHEDRAL>
0

>  <SCORE.SYSTEM.SOLV>
0

>  <SCORE.SYSTEM.norm>
0

>  <SCORE.heavy>
42

>  <SCORE.norm>
-1.46768

>  <RMSD>
7.895

$$$$

 OpenBabel11021811393D
libRbt.so/2013.1/901 2013/11/27
 42 45  0  0  0  0  0  0  0  0999 V2000
   -2.6801    3.2461   -5.6452 C   0  0  2  0  0  0  0  0  0  0  0  0
   -1.6235    2.4882   -4.9796 O   0  0  0  0  0  0  0  0  0  0  0  0
   -3.5580    4.0333   -4.6188 C   0  0  2  0  0  0  0  0  0  0  0  0
   -2.9095    4.1095   -3.2896 N   0  3  0  0  0  0  0  0  0  0  0  0
   -4.9738    3.3928   -4.5005 C   0  0  1  0  0  0  0  0  0  0  0  0
   -5.7682    4.1250   -3.5698 O   0  0  0  0  0  0  0  0  0  0  0  0
   -5.7117    3.3693   -5.8659 C   0  0  2  0  0  0  0  0  0  0  0  0
   -6.8527    2.5258   -5.7542 O   0  0  0  0  0  0  0  0  0  0  0  0
   -4.7758    2.8560   -7.0078 C   0  0  2  0  0  0  0  0  0  0  0  0
   -3.5242    2.3467   -6.4426 O   0  0  0  0  0  0  0  0  0  0  0  0
   -4.3818    3.9314   -8.0463 C   0  0  0  0  0  0  0  0  0  0  0  0
   -3.6736   -1.3056   -5.1334 C   0  0  1  0  0  0  0  0  0  0  0  0
   -4.0232   -2.7340   -4.9661 N   0  3  0  0  0  0  0  0  0  0  0  0
   -3.7181   -0.5466   -3.7813 C   0  0  1  0  0  0  0  0  0  0  0  0
   -3.2118    0.9351   -3.8711 C   0  0  1  0  0  0  0  0  0  0  0  0
   -2.9946    1.4230   -2.5199 O   0  0  0  0  0  0  0  0  0  0  0  0
   -1.8551    1.0835   -4.6531 C   0  0  1  0  0  0  0  0  0  0  0  0
   -1.8586    0.2752   -5.9909 C   0  0  1  0  0  0  0  0  0  0  0  0
   -0.5378    0.2918   -6.6521 N   0  3  0  0  0  0  0  0  0  0  0  0
   -2.2731   -1.1971   -5.7715 C   0  0  0  0  0  0  0  0  0  0  0  0
   -2.1984    0.6329   -1.5901 C   0  0  1  0  0  0  0  0  0  0  0  0
   -1.1214    1.5292   -0.9902 C   0  0  1  0  0  0  0  0  0  0  0  0
   -1.9366    2.2474    0.0766 C   0  0  1  0  0  0  0  0  0  0  0  0
   -2.8007    1.1045    0.6284 C   0  0  2  0  0  0  0  0  0  0  0  0
   -3.0128    0.2054   -0.4860 O   0  0  0  0  0  0  0  0  0  0  0  0
   -4.1524    1.5865    1.1852 C   0  0  0  0  0  0  0  0  0  0  0  0
   -0.0197    3.2275    4.7720 C   0  0  1  0  0  0  0  0  0  0  0  0
    0.2421    4.2639    3.6439 C   0  0  1  0  0  0  0  0  0  0  0  0
   -1.0223    4.6353    2.8166 C   0  0  2  0  0  0  0  0  0  0  0  0
   -1.7461    3.3559    2.2864 C   0  0  1  0  0  0  0  0  0  0  0  0
   -1.0817    2.8253    1.1047 O   0  0  0  0  0  0  0  0  0  0  0  0
   -1.4826    2.6930    4.7054 C   0  0  1  0  0  0  0  0  0  0  0  0
   -1.8010    2.3051    3.3289 O   0  0  0  0  0  0  0  0  0  0  0  0
   -1.7140    1.4810    5.6442 C   0  0  0  0  0  0  0  0  0  0  0  0
   -3.7735    3.3961   -9.2770 N   0  3  0  0  0  0  0  0  0  0  0  0
   -0.0927    0.7264   -0.4107 O   0  0  0  0  0  0  0  0  0  0  0  0
    0.7627    5.4527    4.2374 O   0  0  0  0  0  0  0  0  0  0  0  0
    0.9060    2.1493    4.6188 O   0  0  0  0  0  0  0  0  0  0  0  0
   -4.8937    0.5035    1.7202 O   0  0  0  0  0  0  0  0  0  0  0  0
   -5.0630   -0.5398   -3.3032 O   0  0  0  0  0  0  0  0  0  0  0  0
   -1.6268    1.8369    7.0724 N   0  3  0  0  0  0  0  0  0  0  0  0
   -0.6984    5.5979    1.7345 N   0  3  0  0  0  0  0  0  0  0  0  0
  1  2  1  1  0  0  0
  1  3  1  0  0  0  0
  1 10  1  0  0  0  0
  3  4  1  1  0  0  0
  3  5  1  0  0  0  0
  5  6  1  1  0  0  0
  5  7  1  0  0  0  0
  7  8  1  1  0  0  0
  7  9  1  0  0  0  0
  9 10  1  0  0  0  0
  9 11  1  6  0  0  0
 11 35  1  0  0  0  0
 12 13  1  1  0  0  0
 12 14  1  0  0  0  0
 12 20  1  0  0  0  0
 14 15  1  0  0  0  0
 14 40  1  6  0  0  0
 15 16  1  1  0  0  0
 15 17  1  0  0  0  0
 17  2  1  6  0  0  0
 17 18  1  0  0  0  0
 18 19  1  1  0  0  0
 18 20  1  0  0  0  0
 21 16  1  6  0  0  0
 21 22  1  0  0  0  0
 21 25  1  0  0  0  0
 22 23  1  0  0  0  0
 22 36  1  1  0  0  0
 23 24  1  0  0  0  0
 23 31  1  1  0  0  0
 24 25  1  0  0  0  0
 24 26  1  6  0  0  0
 26 39  1  0  0  0  0
 27 28  1  0  0  0  0
 27 32  1  0  0  0  0
 27 38  1  6  0  0  0
 28 29  1  0  0  0  0
 28 37  1  1  0  0  0
 29 30  1  0  0  0  0
 29 42  1  6  0  0  0
 30 31  1  6  0  0  0
 30 33  1  0  0  0  0
 32 33  1  0  0  0  0
 32 34  1  1  0  0  0
 34 41  1  0  0  0  0
M  CHG  6   4   1  13   1  19   1  35   1  41   1  42   1
M  END
>  <CHROM.1>
94.90394566,-51.40026644,-174.66591953,174.91187110,-61.64168590,-166.35430952
57.71769036,131.88848651,172.66088803,50.43258350,128.38838207,160.44765072
173.38072023,-170.67274521,-178.14022657,179.51924104,171.04735786,-70.15347649
-50.44693962,-143.95970876,67.31994053,60.45952992,-2.60051799,2.04216757
-1.62830106,-2.83944423,1.28257121,2.71241598

>  <Name>


>  <RI>
0

>  <Rbt.Current_Directory>
/home/itssahil/PROJECTS/Mol_Feturizer/New_Systems/rnas/1ei2

>  <Rbt.Executable>
rbdock ($Id: //depot/dev/client3/rdock/2013.1/src/exe/rbdock.cxx#4 $)

>  <Rbt.Library>
libRbt.so (2013.1, Build901 2013/11/27)

>  <Rbt.Parameter_File>
/export/apps/rDock/src/rDock_2013.1_src/data/scripts/dock_solv.prm

>  <Rbt.Receptor>
prm/pocket_docking_7.prm

>  <SCORE>
-64.6958

>  <SCORE.INTER>
-45.0806

>  <SCORE.INTER.CONST>
1

>  <SCORE.INTER.POLAR>
-7.44456

>  <SCORE.INTER.ROT>
9

>  <SCORE.INTER.SOLV>
34.2583

>  <SCORE.INTER.VDW>
-26.258

>  <SCORE.INTER.norm>
-1.07335

>  <SCORE.INTRA>
-19.6152

>  <SCORE.INTRA.DIHEDRAL>
-16.1707

>  <SCORE.INTRA.DIHEDRAL.0>
40.8761

>  <SCORE.INTRA.POLAR>
-1.15615

>  <SCORE.INTRA.POLAR.0>
-0.0268208

>  <SCORE.INTRA.REPUL>
-0.641615

>  <SCORE.INTRA.REPUL.0>
0.641615

>  <SCORE.INTRA.SOLV>
-10.4324

>  <SCORE.INTRA.SOLV.lig_0>
-162.567

>  <SCORE.INTRA.VDW>
0.82533

>  <SCORE.INTRA.VDW.0>
-4.80338

>  <SCORE.INTRA.norm>
-0.467029

>  <SCORE.RESTR>
0

>  <SCORE.RESTR.CAVITY>
0

>  <SCORE.RESTR.norm>
0

>  <SCORE.SYSTEM>
0

>  <SCORE.SYSTEM.CONST>
0

>  <SCORE.SYSTEM.DIHEDRAL>
0

>  <SCORE.SYSTEM.SOLV>
0

>  <SCORE.SYSTEM.norm>
0

>  <SCORE.heavy>
42

>  <SCORE.norm>
-1.54038

>  <RMSD>
7.895

$$$$

 OpenBabel11021811393D
libRbt.so/2013.1/901 2013/11/27
 42 45  0  0  0  0  0  0  0  0999 V2000
   -3.4422   -0.4160   -1.5141 C   0  0  2  0  0  0  0  0  0  0  0  0
   -2.5361   -0.4459   -2.6594 O   0  0  0  0  0  0  0  0  0  0  0  0
   -4.1954   -1.7747   -1.3402 C   0  0  2  0  0  0  0  0  0  0  0  0
   -3.5654   -2.8547   -2.1339 N   0  3  0  0  0  0  0  0  0  0  0  0
   -5.6992   -1.6228   -1.7203 C   0  0  1  0  0  0  0  0  0  0  0  0
   -6.3775   -2.8652   -1.5481 O   0  0  0  0  0  0  0  0  0  0  0  0
   -6.4081   -0.5503   -0.8505 C   0  0  2  0  0  0  0  0  0  0  0  0
   -7.6740   -0.2555   -1.4302 O   0  0  0  0  0  0  0  0  0  0  0  0
   -5.5505    0.7524   -0.7455 C   0  0  2  0  0  0  0  0  0  0  0  0
   -4.4095    0.6795   -1.6609 O   0  0  0  0  0  0  0  0  0  0  0  0
   -4.9676    1.0251    0.6602 C   0  0  0  0  0  0  0  0  0  0  0  0
   -2.9376    3.7491   -3.5875 C   0  0  1  0  0  0  0  0  0  0  0  0
   -2.7167    5.1048   -4.1385 N   0  3  0  0  0  0  0  0  0  0  0  0
   -3.3693    2.7491   -4.6920 C   0  0  1  0  0  0  0  0  0  0  0  0
   -3.4724    1.2648   -4.1958 C   0  0  1  0  0  0  0  0  0  0  0  0
   -3.5584    0.4017   -5.3614 O   0  0  0  0  0  0  0  0  0  0  0  0
   -2.2274    0.8018   -3.3533 C   0  0  1  0  0  0  0  0  0  0  0  0
   -1.8216    1.8604   -2.2774 C   0  0  1  0  0  0  0  0  0  0  0  0
   -0.5671    1.4969   -1.5875 N   0  3  0  0  0  0  0  0  0  0  0  0
   -1.6470    3.2671   -2.8927 C   0  0  0  0  0  0  0  0  0  0  0  0
   -2.4373   -0.4663   -5.6970 C   0  0  1  0  0  0  0  0  0  0  0  0
   -2.9565   -1.8905   -5.8548 C   0  0  1  0  0  0  0  0  0  0  0  0
   -3.5199   -1.8134   -7.2673 C   0  0  1  0  0  0  0  0  0  0  0  0
   -2.4446   -0.9857   -7.9855 C   0  0  2  0  0  0  0  0  0  0  0  0
   -1.8991   -0.1005   -6.9783 O   0  0  0  0  0  0  0  0  0  0  0  0
   -3.0020   -0.1676   -9.1642 C   0  0  0  0  0  0  0  0  0  0  0  0
   -3.2959   -6.9440   -8.1829 C   0  0  1  0  0  0  0  0  0  0  0  0
   -3.1751   -5.9279   -9.3526 C   0  0  1  0  0  0  0  0  0  0  0  0
   -2.2028   -4.7465   -9.0699 C   0  0  2  0  0  0  0  0  0  0  0  0
   -2.5423   -4.0480   -7.7139 C   0  0  1  0  0  0  0  0  0  0  0  0
   -3.6687   -3.1370   -7.8572 O   0  0  0  0  0  0  0  0  0  0  0  0
   -2.5106   -6.4454   -6.9319 C   0  0  1  0  0  0  0  0  0  0  0  0
   -2.8518   -5.0459   -6.6641 O   0  0  0  0  0  0  0  0  0  0  0  0
   -2.8074   -7.2942   -5.6688 C   0  0  0  0  0  0  0  0  0  0  0  0
   -5.8800    1.7399    1.5701 N   0  3  0  0  0  0  0  0  0  0  0  0
   -1.8693   -2.8125   -5.7746 O   0  0  0  0  0  0  0  0  0  0  0  0
   -2.7175   -6.6267  -10.5096 O   0  0  0  0  0  0  0  0  0  0  0  0
   -4.6801   -7.1035   -7.8641 O   0  0  0  0  0  0  0  0  0  0  0  0
   -3.4151    1.1188   -8.7361 O   0  0  0  0  0  0  0  0  0  0  0  0
   -4.6420    3.1484   -5.2002 O   0  0  0  0  0  0  0  0  0  0  0  0
   -1.7537   -7.1843   -4.6434 N   0  3  0  0  0  0  0  0  0  0  0  0
   -2.1611   -3.7948  -10.2078 N   0  3  0  0  0  0  0  0  0  0  0  0
  1  2  1  6  0  0  0
  1  3  1  0  0  0  0
  1 10  1  0  0  0  0
  3  4  1  6  0  0  0
  3  5  1  0  0  0  0
  5  6  1  1  0  0  0
  5  7  1  0  0  0  0
  7  8  1  6  0  0  0
  7  9  1  0  0  0  0
  9 10  1  0  0  0  0
  9 11  1  1  0  0  0
 11 35  1  0  0  0  0
 12 13  1  6  0  0  0
 12 14  1  0  0  0  0
 12 20  1  0  0  0  0
 14 15  1  0  0  0  0
 14 40  1  1  0  0  0
 15 16  1  6  0  0  0
 15 17  1  0  0  0  0
 17  2  1  1  0  0  0
 17 18  1  0  0  0  0
 18 19  1  6  0  0  0
 18 20  1  0  0  0  0
 21 16  1  6  0  0  0
 21 22  1  0  0  0  0
 21 25  1  0  0  0  0
 22 23  1  0  0  0  0
 22 36  1  6  0  0  0
 23 24  1  0  0  0  0
 23 31  1  6  0  0  0
 24 25  1  0  0  0  0
 24 26  1  6  0  0  0
 26 39  1  0  0  0  0
 27 28  1  0  0  0  0
 27 32  1  0  0  0  0
 27 38  1  1  0  0  0
 28 29  1  0  0  0  0
 28 37  1  6  0  0  0
 29 30  1  0  0  0  0
 29 42  1  6  0  0  0
 30 31  1  6  0  0  0
 30 33  1  0  0  0  0
 32 33  1  0  0  0  0
 32 34  1  1  0  0  0
 34 41  1  0  0  0  0
M  CHG  6   4   1  13   1  19   1  35   1  41   1  42   1
M  END
>  <CHROM.1>
152.10690290,-72.91110702,-21.16276673,168.63341959,174.58760864,-85.45925205
58.95202210,176.28651648,-46.23731671,110.27243546,127.43955797,-60.28891203
74.61408437,-46.23441273,90.29409896,179.80440993,-166.19590709,62.68705913
167.15205763,-133.44184819,158.72464471,53.92323772,-3.43359141,-1.39380718
-4.82782920,1.95658559,1.20998856,0.38650227

>  <Name>


>  <RI>
0

>  <Rbt.Current_Directory>
/home/itssahil/PROJECTS/Mol_Feturizer/New_Systems/rnas/1ei2

>  <Rbt.Executable>
rbdock ($Id: //depot/dev/client3/rdock/2013.1/src/exe/rbdock.cxx#4 $)

>  <Rbt.Library>
libRbt.so (2013.1, Build901 2013/11/27)

>  <Rbt.Parameter_File>
/export/apps/rDock/src/rDock_2013.1_src/data/scripts/dock_solv.prm

>  <Rbt.Receptor>
prm/blind_docking_60.prm

>  <SCORE>
-3.52371

>  <SCORE.INTER>
-16.0529

>  <SCORE.INTER.CONST>
1

>  <SCORE.INTER.POLAR>
-8.14437

>  <SCORE.INTER.ROT>
9

>  <SCORE.INTER.SOLV>
49.7374

>  <SCORE.INTER.VDW>
-9.73318

>  <SCORE.INTER.norm>
-0.382212

>  <SCORE.INTRA>
-2.71452

>  <SCORE.INTRA.DIHEDRAL>
-2.59561

>  <SCORE.INTRA.DIHEDRAL.0>
40.8761

>  <SCORE.INTRA.POLAR>
-0.403223

>  <SCORE.INTRA.POLAR.0>
-0.0268208

>  <SCORE.INTRA.REPUL>
-0.527914

>  <SCORE.INTRA.REPUL.0>
0.641615

>  <SCORE.INTRA.SOLV>
-11.407

>  <SCORE.INTRA.SOLV.lig_0>
-162.567

>  <SCORE.INTRA.VDW>
8.29728

>  <SCORE.INTRA.VDW.0>
-4.80338

>  <SCORE.INTRA.norm>
-0.0646315

>  <SCORE.RESTR>
15.2437

>  <SCORE.RESTR.CAVITY>
15.2437

>  <SCORE.RESTR.norm>
0.362946

>  <SCORE.SYSTEM>
0

>  <SCORE.SYSTEM.CONST>
0

>  <SCORE.SYSTEM.DIHEDRAL>
0

>  <SCORE.SYSTEM.SOLV>
0

>  <SCORE.SYSTEM.norm>
0

>  <SCORE.heavy>
42

>  <SCORE.norm>
-0.0838979

>  <RMSD>
7.903

$$$$

 OpenBabel11021811393D
libRbt.so/2013.1/901 2013/11/27
 42 45  0  0  0  0  0  0  0  0999 V2000
   -2.6380    2.6229   -1.7727 C   0  0  2  0  0  0  0  0  0  0  0  0
   -3.3247    1.6149   -2.5765 O   0  0  0  0  0  0  0  0  0  0  0  0
   -1.2513    2.1086   -1.2663 C   0  0  2  0  0  0  0  0  0  0  0  0
   -0.8177    0.8958   -1.9972 N   0  3  0  0  0  0  0  0  0  0  0  0
   -1.2919    1.8372    0.2679 C   0  0  1  0  0  0  0  0  0  0  0  0
   -0.0195    1.3787    0.7196 O   0  0  0  0  0  0  0  0  0  0  0  0
   -1.6684    3.1123    1.0690 C   0  0  2  0  0  0  0  0  0  0  0  0
   -1.9704    2.7378    2.4085 O   0  0  0  0  0  0  0  0  0  0  0  0
   -2.8923    3.8440    0.4284 C   0  0  2  0  0  0  0  0  0  0  0  0
   -3.4744    3.0181   -0.6319 O   0  0  0  0  0  0  0  0  0  0  0  0
   -2.5587    5.2102   -0.2137 C   0  0  0  0  0  0  0  0  0  0  0  0
   -5.2478    3.9590   -5.6468 C   0  0  1  0  0  0  0  0  0  0  0  0
   -6.2189    4.4641   -6.6430 N   0  3  0  0  0  0  0  0  0  0  0  0
   -5.7654    4.1543   -4.1976 C   0  0  1  0  0  0  0  0  0  0  0  0
   -4.8474    3.5031   -3.1052 C   0  0  1  0  0  0  0  0  0  0  0  0
   -5.5861    3.4667   -1.8547 O   0  0  0  0  0  0  0  0  0  0  0  0
   -4.4216    2.0282   -3.4480 C   0  0  1  0  0  0  0  0  0  0  0  0
   -3.9372    1.8869   -4.9273 C   0  0  1  0  0  0  0  0  0  0  0  0
   -3.6791    0.4796   -5.2942 N   0  3  0  0  0  0  0  0  0  0  0  0
   -4.9632    2.4685   -5.9258 C   0  0  0  0  0  0  0  0  0  0  0  0
   -6.6690    2.5064   -1.6875 C   0  0  1  0  0  0  0  0  0  0  0  0
   -7.2707    2.6902   -0.2993 C   0  0  1  0  0  0  0  0  0  0  0  0
   -8.1692    3.8925   -0.5558 C   0  0  1  0  0  0  0  0  0  0  0  0
   -8.7543    3.5541   -1.9344 C   0  0  2  0  0  0  0  0  0  0  0  0
   -7.7280    2.7935   -2.6155 O   0  0  0  0  0  0  0  0  0  0  0  0
   -9.1213    4.8030   -2.7557 C   0  0  0  0  0  0  0  0  0  0  0  0
   -9.2019    7.6189    1.7712 C   0  0  1  0  0  0  0  0  0  0  0  0
  -10.4041    6.6373    1.8519 C   0  0  1  0  0  0  0  0  0  0  0  0
  -10.0494    5.2465    2.4527 C   0  0  2  0  0  0  0  0  0  0  0  0
   -8.8190    4.6145    1.7256 C   0  0  1  0  0  0  0  0  0  0  0  0
   -9.2074    4.0110    0.4591 O   0  0  0  0  0  0  0  0  0  0  0  0
   -7.8773    6.9085    2.1848 C   0  0  1  0  0  0  0  0  0  0  0  0
   -7.7670    5.6281    1.4813 O   0  0  0  0  0  0  0  0  0  0  0  0
   -6.6237    7.7685    1.8801 C   0  0  0  0  0  0  0  0  0  0  0  0
   -3.6568    5.7977   -1.0012 N   0  3  0  0  0  0  0  0  0  0  0  0
   -8.0310    1.5346    0.0544 O   0  0  0  0  0  0  0  0  0  0  0  0
  -11.4194    7.2350    2.6571 O   0  0  0  0  0  0  0  0  0  0  0  0
   -9.1032    8.1031    0.4300 O   0  0  0  0  0  0  0  0  0  0  0  0
  -10.4834    5.1478   -2.5699 O   0  0  0  0  0  0  0  0  0  0  0  0
   -5.8673    5.5530   -3.9315 O   0  0  0  0  0  0  0  0  0  0  0  0
   -5.3628    7.0215    2.0413 N   0  3  0  0  0  0  0  0  0  0  0  0
  -11.2286    4.3457    2.4674 N   0  3  0  0  0  0  0  0  0  0  0  0
  1  2  1  1  0  0  0
  1  3  1  0  0  0  0
  1 10  1  0  0  0  0
  3  4  1  6  0  0  0
  3  5  1  0  0  0  0
  5  6  1  1  0  0  0
  5  7  1  0  0  0  0
  7  8  1  1  0  0  0
  7  9  1  0  0  0  0
  9 10  1  0  0  0  0
  9 11  1  6  0  0  0
 11 35  1  0  0  0  0
 12 13  1  6  0  0  0
 12 14  1  0  0  0  0
 12 20  1  0  0  0  0
 14 15  1  0  0  0  0
 14 40  1  1  0  0  0
 15 16  1  1  0  0  0
 15 17  1  0  0  0  0
 17  2  1  1  0  0  0
 17 18  1  0  0  0  0
 18 19  1  6  0  0  0
 18 20  1  0  0  0  0
 21 16  1  6  0  0  0
 21 22  1  0  0  0  0
 21 25  1  0  0  0  0
 22 23  1  0  0  0  0
 22 36  1  6  0  0  0
 23 24  1  0  0  0  0
 23 31  1  1  0  0  0
 24 25  1  0  0  0  0
 24 26  1  6  0  0  0
 26 39  1  0  0  0  0
 27 28  1  0  0  0  0
 27 32  1  0  0  0  0
 27 38  1  6  0  0  0
 28 29  1  0  0  0  0
 28 37  1  1  0  0  0
 29 30  1  0  0  0  0
 29 42  1  6  0  0  0
 30 31  1  6  0  0  0
 30 33  1  0  0  0  0
 32 33  1  0  0  0  0
 32 34  1  6  0  0  0
 34 41  1  0  0  0  0
M  CHG  6   4   1  13   1  19   1  35   1  41   1  42   1
M  END
>  <CHROM.1>
-162.17756243,-12.00304391,135.70402697,47.09947276,-57.38245056,170.70112863
-12.37977780,79.32254236,-38.01041284,73.44976427,-179.67325814,79.69323511
175.54238016,80.16469012,-93.69495469,66.00095965,-58.61757577,-55.15497230
-174.52060141,155.13564929,-169.80268967,161.61652138,-5.94837534,4.00839326
-0.95849458,-0.56811373,-0.35539968,1.26984636

>  <Name>


>  <RI>
0

>  <Rbt.Current_Directory>
/home/itssahil/PROJECTS/Mol_Feturizer/New_Systems/rnas/1ei2

>  <Rbt.Executable>
rbdock ($Id: //depot/dev/client3/rdock/2013.1/src/exe/rbdock.cxx#4 $)

>  <Rbt.Library>
libRbt.so (2013.1, Build901 2013/11/27)

>  <Rbt.Parameter_File>
/export/apps/rDock/src/rDock_2013.1_src/data/scripts/dock_solv.prm

>  <Rbt.Receptor>
prm/pocket_docking_2.prm

>  <SCORE>
-41.1633

>  <SCORE.INTER>
-32.0711

>  <SCORE.INTER.CONST>
1

>  <SCORE.INTER.POLAR>
-6.47034

>  <SCORE.INTER.ROT>
9

>  <SCORE.INTER.SOLV>
26.185

>  <SCORE.INTER.VDW>
-18.1412

>  <SCORE.INTER.norm>
-0.763597

>  <SCORE.INTRA>
-14.5167

>  <SCORE.INTRA.DIHEDRAL>
-10.7591

>  <SCORE.INTRA.DIHEDRAL.0>
40.8761

>  <SCORE.INTRA.POLAR>
-1.45959

>  <SCORE.INTRA.POLAR.0>
-0.0268208

>  <SCORE.INTRA.REPUL>
-0.589931

>  <SCORE.INTRA.REPUL.0>
0.641615

>  <SCORE.INTRA.SOLV>
-5.45642

>  <SCORE.INTRA.SOLV.lig_0>
-162.567

>  <SCORE.INTRA.VDW>
1.50328

>  <SCORE.INTRA.VDW.0>
-4.80338

>  <SCORE.INTRA.norm>
-0.345637

>  <SCORE.RESTR>
5.42447

>  <SCORE.RESTR.CAVITY>
5.42447

>  <SCORE.RESTR.norm>
0.129154

>  <SCORE.SYSTEM>
0

>  <SCORE.SYSTEM.CONST>
0

>  <SCORE.SYSTEM.DIHEDRAL>
0

>  <SCORE.SYSTEM.SOLV>
0

>  <SCORE.SYSTEM.norm>
0

>  <SCORE.heavy>
42

>  <SCORE.norm>
-0.980079

>  <RMSD>
7.920

$$$$

 OpenBabel11021811393D
libRbt.so/2013.1/901 2013/11/27
 42 45  0  0  0  0  0  0  0  0999 V2000
   -3.6017    4.3913    2.4928 C   0  0  2  0  0  0  0  0  0  0  0  0
   -3.8668    5.3990    1.4692 O   0  0  0  0  0  0  0  0  0  0  0  0
   -3.9810    2.9568    2.0004 C   0  0  2  0  0  0  0  0  0  0  0  0
   -4.1742    2.9158    0.5327 N   0  3  0  0  0  0  0  0  0  0  0  0
   -5.2561    2.4424    2.7343 C   0  0  1  0  0  0  0  0  0  0  0  0
   -5.5861    1.1301    2.2846 O   0  0  0  0  0  0  0  0  0  0  0  0
   -5.0577    2.4000    4.2732 C   0  0  2  0  0  0  0  0  0  0  0  0
   -6.3248    2.2073    4.8922 O   0  0  0  0  0  0  0  0  0  0  0  0
   -4.4005    3.7180    4.7971 C   0  0  2  0  0  0  0  0  0  0  0  0
   -4.3382    4.7114    3.7226 O   0  0  0  0  0  0  0  0  0  0  0  0
   -2.9562    3.5498    5.3223 C   0  0  0  0  0  0  0  0  0  0  0  0
   -2.2689    8.6969    3.7476 C   0  0  1  0  0  0  0  0  0  0  0  0
   -1.7338   10.0202    4.1385 N   0  3  0  0  0  0  0  0  0  0  0  0
   -3.7696    8.7805    3.3639 C   0  0  1  0  0  0  0  0  0  0  0  0
   -4.3530    7.4393    2.7975 C   0  0  1  0  0  0  0  0  0  0  0  0
   -5.6375    7.7271    2.1825 O   0  0  0  0  0  0  0  0  0  0  0  0
   -3.4400    6.7765    1.7015 C   0  0  1  0  0  0  0  0  0  0  0  0
   -1.9374    6.7463    2.1307 C   0  0  1  0  0  0  0  0  0  0  0  0
   -1.0603    6.2620    1.0453 N   0  3  0  0  0  0  0  0  0  0  0  0
   -1.4380    8.1402    2.5727 C   0  0  0  0  0  0  0  0  0  0  0  0
   -6.5608    8.6415    2.8415 C   0  0  1  0  0  0  0  0  0  0  0  0
   -7.6243    9.0659    1.8356 C   0  0  1  0  0  0  0  0  0  0  0  0
   -8.5427    7.8527    1.8915 C   0  0  1  0  0  0  0  0  0  0  0  0
   -8.5609    7.5464    3.3959 C   0  0  2  0  0  0  0  0  0  0  0  0
   -7.2643    7.9575    3.8914 O   0  0  0  0  0  0  0  0  0  0  0  0
   -8.7983    6.0572    3.7044 C   0  0  0  0  0  0  0  0  0  0  0  0
  -10.8978    6.8520   -2.0731 C   0  0  1  0  0  0  0  0  0  0  0  0
  -11.8684    7.4519   -1.0179 C   0  0  1  0  0  0  0  0  0  0  0  0
  -11.4186    8.8297   -0.4519 C   0  0  2  0  0  0  0  0  0  0  0  0
   -9.9452    8.7736    0.0658 C   0  0  1  0  0  0  0  0  0  0  0  0
   -9.8728    8.1644    1.3860 O   0  0  0  0  0  0  0  0  0  0  0  0
   -9.6122    7.7240   -2.2030 C   0  0  1  0  0  0  0  0  0  0  0  0
   -9.0811    8.0168   -0.8693 O   0  0  0  0  0  0  0  0  0  0  0  0
   -8.5120    7.0351   -3.0510 C   0  0  0  0  0  0  0  0  0  0  0  0
   -2.3719    4.7725    5.9010 N   0  3  0  0  0  0  0  0  0  0  0  0
   -8.2846   10.2440    2.2989 O   0  0  0  0  0  0  0  0  0  0  0  0
  -13.1514    7.6059   -1.6235 O   0  0  0  0  0  0  0  0  0  0  0  0
  -10.5540    5.5251   -1.6679 O   0  0  0  0  0  0  0  0  0  0  0  0
   -8.9786    5.8516    5.0950 O   0  0  0  0  0  0  0  0  0  0  0  0
   -4.5190    9.1499    4.5212 O   0  0  0  0  0  0  0  0  0  0  0  0
   -7.5306    6.3019   -2.2305 N   0  3  0  0  0  0  0  0  0  0  0  0
  -12.3661    9.3291    0.5752 N   0  3  0  0  0  0  0  0  0  0  0  0
  1  2  1  6  0  0  0
  1  3  1  0  0  0  0
  1 10  1  0  0  0  0
  3  4  1  6  0  0  0
  3  5  1  0  0  0  0
  5  6  1  6  0  0  0
  5  7  1  0  0  0  0
  7  8  1  1  0  0  0
  7  9  1  0  0  0  0
  9 10  1  0  0  0  0
  9 11  1  6  0  0  0
 11 35  1  0  0  0  0
 12 13  1  6  0  0  0
 12 14  1  0  0  0  0
 12 20  1  0  0  0  0
 14 15  1  0  0  0  0
 14 40  1  1  0  0  0
 15 16  1  6  0  0  0
 15 17  1  0  0  0  0
 17  2  1  1  0  0  0
 17 18  1  0  0  0  0
 18 19  1  6  0  0  0
 18 20  1  0  0  0  0
 21 16  1  6  0  0  0
 21 22  1  0  0  0  0
 21 25  1  0  0  0  0
 22 23  1  0  0  0  0
 22 36  1  1  0  0  0
 23 24  1  0  0  0  0
 23 31  1  1  0  0  0
 24 25  1  0  0  0  0
 24 26  1  6  0  0  0
 26 39  1  0  0  0  0
 27 28  1  0  0  0  0
 27 32  1  0  0  0  0
 27 38  1  1  0  0  0
 28 29  1  0  0  0  0
 28 37  1  6  0  0  0
 29 30  1  0  0  0  0
 29 42  1  1  0  0  0
 30 31  1  1  0  0  0
 30 33  1  0  0  0  0
 32 33  1  0  0  0  0
 32 34  1  6  0  0  0
 34 41  1  0  0  0  0
M  CHG  6   4   1  13   1  19   1  35   1  41   1  42   1
M  END
>  <CHROM.1>
-173.51147533,-71.79823219,-154.32169216,-149.24392478,173.65708873,-175.98642713
-70.96316369,-11.13951523,63.93995360,-41.57609917,164.42552285,-155.17504306
-178.14746623,52.82374611,-172.45554207,68.89261781,65.48040264,-62.68623741
48.42948694,170.31691844,-95.10709519,-69.22108372,-6.48203267,6.54151302
1.92329794,0.27176019,0.51470179,-3.11399024

>  <Name>


>  <RI>
0

>  <Rbt.Current_Directory>
/home/itssahil/PROJECTS/Mol_Feturizer/New_Systems/rnas/1ei2

>  <Rbt.Executable>
rbdock ($Id: //depot/dev/client3/rdock/2013.1/src/exe/rbdock.cxx#4 $)

>  <Rbt.Library>
libRbt.so (2013.1, Build901 2013/11/27)

>  <Rbt.Parameter_File>
/export/apps/rDock/src/rDock_2013.1_src/data/scripts/dock_solv.prm

>  <Rbt.Receptor>
prm/pocket_docking_8.prm

>  <SCORE>
-46.4141

>  <SCORE.INTER>
-28.5836

>  <SCORE.INTER.CONST>
1

>  <SCORE.INTER.POLAR>
-5.45735

>  <SCORE.INTER.ROT>
9

>  <SCORE.INTER.SOLV>
20.844

>  <SCORE.INTER.VDW>
-17.4126

>  <SCORE.INTER.norm>
-0.680561

>  <SCORE.INTRA>
-17.8305

>  <SCORE.INTRA.DIHEDRAL>
-20.6542

>  <SCORE.INTRA.DIHEDRAL.0>
40.8761

>  <SCORE.INTRA.POLAR>
-0.254235

>  <SCORE.INTRA.POLAR.0>
-0.0268208

>  <SCORE.INTRA.REPUL>
-0.641615

>  <SCORE.INTRA.REPUL.0>
0.641615

>  <SCORE.INTRA.SOLV>
-11.4148

>  <SCORE.INTRA.SOLV.lig_0>
-162.567

>  <SCORE.INTRA.VDW>
2.27648

>  <SCORE.INTRA.VDW.0>
-4.80338

>  <SCORE.INTRA.norm>
-0.424536

>  <SCORE.RESTR>
0

>  <SCORE.RESTR.CAVITY>
0

>  <SCORE.RESTR.norm>
0

>  <SCORE.SYSTEM>
0

>  <SCORE.SYSTEM.CONST>
0

>  <SCORE.SYSTEM.DIHEDRAL>
0

>  <SCORE.SYSTEM.SOLV>
0

>  <SCORE.SYSTEM.norm>
0

>  <SCORE.heavy>
42

>  <SCORE.norm>
-1.1051

>  <RMSD>
7.941

$$$$

 OpenBabel11021811393D
libRbt.so/2013.1/901 2013/11/27
 42 45  0  0  0  0  0  0  0  0999 V2000
   -5.9812    1.6855   -5.0064 C   0  0  2  0  0  0  0  0  0  0  0  0
   -4.8304    2.0143   -4.1690 O   0  0  0  0  0  0  0  0  0  0  0  0
   -5.7900    0.3161   -5.7358 C   0  0  2  0  0  0  0  0  0  0  0  0
   -4.6824   -0.4687   -5.1439 N   0  3  0  0  0  0  0  0  0  0  0  0
   -5.5522    0.5335   -7.2607 C   0  0  1  0  0  0  0  0  0  0  0  0
   -5.3894   -0.7223   -7.9165 O   0  0  0  0  0  0  0  0  0  0  0  0
   -6.7345    1.2870   -7.9268 C   0  0  2  0  0  0  0  0  0  0  0  0
   -6.3352    1.7053   -9.2272 O   0  0  0  0  0  0  0  0  0  0  0  0
   -7.1699    2.5242   -7.0763 C   0  0  2  0  0  0  0  0  0  0  0  0
   -6.2134    2.7508   -5.9905 O   0  0  0  0  0  0  0  0  0  0  0  0
   -8.5605    2.3900   -6.4141 C   0  0  0  0  0  0  0  0  0  0  0  0
   -3.3419    5.2637   -1.7512 C   0  0  1  0  0  0  0  0  0  0  0  0
   -2.9509    6.6082   -1.2717 N   0  3  0  0  0  0  0  0  0  0  0  0
   -4.8833    5.1200   -1.8483 C   0  0  1  0  0  0  0  0  0  0  0  0
   -5.3530    3.7693   -2.4926 C   0  0  1  0  0  0  0  0  0  0  0  0
   -6.7626    3.8904   -2.8233 O   0  0  0  0  0  0  0  0  0  0  0  0
   -4.5841    3.4104   -3.8170 C   0  0  1  0  0  0  0  0  0  0  0  0
   -3.0400    3.6014   -3.6681 C   0  0  1  0  0  0  0  0  0  0  0  0
   -2.3313    3.4092   -4.9498 N   0  3  0  0  0  0  0  0  0  0  0  0
   -2.6844    5.0027   -3.1224 C   0  0  0  0  0  0  0  0  0  0  0  0
   -7.6879    2.8396   -2.4203 C   0  0  1  0  0  0  0  0  0  0  0  0
   -7.9922    3.0039   -0.9359 C   0  0  1  0  0  0  0  0  0  0  0  0
   -9.0350    4.1116   -0.9991 C   0  0  1  0  0  0  0  0  0  0  0  0
   -9.8676    3.6849   -2.2164 C   0  0  2  0  0  0  0  0  0  0  0  0
   -8.9439    3.0040   -3.0989 O   0  0  0  0  0  0  0  0  0  0  0  0
  -10.5196    4.8730   -2.9463 C   0  0  0  0  0  0  0  0  0  0  0  0
   -8.6917    7.6400    1.3659 C   0  0  1  0  0  0  0  0  0  0  0  0
  -10.1087    7.0426    1.5914 C   0  0  1  0  0  0  0  0  0  0  0  0
  -10.1052    5.6188    2.2190 C   0  0  2  0  0  0  0  0  0  0  0  0
   -9.1771    4.6506    1.4171 C   0  0  1  0  0  0  0  0  0  0  0  0
   -9.8375    4.1611    0.2156 O   0  0  0  0  0  0  0  0  0  0  0  0
   -7.5882    6.5892    1.6948 C   0  0  1  0  0  0  0  0  0  0  0  0
   -7.9100    5.3185    1.0402 O   0  0  0  0  0  0  0  0  0  0  0  0
   -6.1775    7.0515    1.2471 C   0  0  0  0  0  0  0  0  0  0  0  0
   -9.0366    3.6126   -5.7434 N   0  3  0  0  0  0  0  0  0  0  0  0
   -8.5454    1.7932   -0.4194 O   0  0  0  0  0  0  0  0  0  0  0  0
  -10.8336    7.9182    2.4540 O   0  0  0  0  0  0  0  0  0  0  0  0
   -8.5874    8.0532    0.0016 O   0  0  0  0  0  0  0  0  0  0  0  0
   -9.5369    5.7864   -3.4031 O   0  0  0  0  0  0  0  0  0  0  0  0
   -5.4365    5.2146   -0.5359 O   0  0  0  0  0  0  0  0  0  0  0  0
   -5.6140    8.0990    2.1184 N   0  3  0  0  0  0  0  0  0  0  0  0
  -11.4837    5.0913    2.3733 N   0  3  0  0  0  0  0  0  0  0  0  0
  1  2  1  6  0  0  0
  1  3  1  0  0  0  0
  1 10  1  0  0  0  0
  3  4  1  1  0  0  0
  3  5  1  0  0  0  0
  5  6  1  6  0  0  0
  5  7  1  0  0  0  0
  7  8  1  6  0  0  0
  7  9  1  0  0  0  0
  9 10  1  0  0  0  0
  9 11  1  1  0  0  0
 11 35  1  0  0  0  0
 12 13  1  6  0  0  0
 12 14  1  0  0  0  0
 12 20  1  0  0  0  0
 14 15  1  0  0  0  0
 14 40  1  1  0  0  0
 15 16  1  6  0  0  0
 15 17  1  0  0  0  0
 17  2  1  1  0  0  0
 17 18  1  0  0  0  0
 18 19  1  6  0  0  0
 18 20  1  0  0  0  0
 21 16  1  6  0  0  0
 21 22  1  0  0  0  0
 21 25  1  0  0  0  0
 22 23  1  0  0  0  0
 22 36  1  6  0  0  0
 23 24  1  0  0  0  0
 23 31  1  1  0  0  0
 24 25  1  0  0  0  0
 24 26  1  6  0  0  0
 26 39  1  0  0  0  0
 27 28  1  0  0  0  0
 27 32  1  0  0  0  0
 27 38  1  6  0  0  0
 28 29  1  0  0  0  0
 28 37  1  1  0  0  0
 29 30  1  0  0  0  0
 29 42  1  6  0  0  0
 30 31  1  6  0  0  0
 30 33  1  0  0  0  0
 32 33  1  0  0  0  0
 32 34  1  6  0  0  0
 34 41  1  0  0  0  0
M  CHG  6   4   1  13   1  19   1  35   1  41   1  42   1
M  END
>  <CHROM.1>
157.38777420,88.90308532,160.18191560,39.38134114,174.78860098,-173.29027682
-90.63974934,-67.59446413,-178.54177542,-131.13126391,77.67817008,-60.08179022
76.21111444,71.35690864,59.29550431,47.75359669,-178.61194835,165.17388505
177.85891206,137.44338092,74.16445789,70.99901579,-7.05029081,4.04474019
-2.44454142,1.22514527,-0.14630442,-2.18717233

>  <Name>


>  <RI>
0

>  <Rbt.Current_Directory>
/home/itssahil/PROJECTS/Mol_Feturizer/New_Systems/rnas/1ei2

>  <Rbt.Executable>
rbdock ($Id: //depot/dev/client3/rdock/2013.1/src/exe/rbdock.cxx#4 $)

>  <Rbt.Library>
libRbt.so (2013.1, Build901 2013/11/27)

>  <Rbt.Parameter_File>
/export/apps/rDock/src/rDock_2013.1_src/data/scripts/dock_solv.prm

>  <Rbt.Receptor>
prm/pocket_docking_4.prm

>  <SCORE>
-44.1762

>  <SCORE.INTER>
-27.9354

>  <SCORE.INTER.CONST>
1

>  <SCORE.INTER.POLAR>
-5.58049

>  <SCORE.INTER.ROT>
9

>  <SCORE.INTER.SOLV>
28.6363

>  <SCORE.INTER.VDW>
-19.1674

>  <SCORE.INTER.norm>
-0.665129

>  <SCORE.INTRA>
-16.7675

>  <SCORE.INTRA.DIHEDRAL>
-11.2656

>  <SCORE.INTRA.DIHEDRAL.0>
40.8761

>  <SCORE.INTRA.POLAR>
-1.46613

>  <SCORE.INTRA.POLAR.0>
-0.0268208

>  <SCORE.INTRA.REPUL>
-0.616938

>  <SCORE.INTRA.REPUL.0>
0.641615

>  <SCORE.INTRA.SOLV>
-4.5653

>  <SCORE.INTRA.SOLV.lig_0>
-162.567

>  <SCORE.INTRA.VDW>
-0.782519

>  <SCORE.INTRA.VDW.0>
-4.80338

>  <SCORE.INTRA.norm>
-0.399226

>  <SCORE.RESTR>
0.526738

>  <SCORE.RESTR.CAVITY>
0.526738

>  <SCORE.RESTR.norm>
0.0125414

>  <SCORE.SYSTEM>
0

>  <SCORE.SYSTEM.CONST>
0

>  <SCORE.SYSTEM.DIHEDRAL>
0

>  <SCORE.SYSTEM.SOLV>
0

>  <SCORE.SYSTEM.norm>
0

>  <SCORE.heavy>
42

>  <SCORE.norm>
-1.05181

>  <RMSD>
7.951

$$$$

 OpenBabel11021811393D
libRbt.so/2013.1/901 2013/11/27
 42 45  0  0  0  0  0  0  0  0999 V2000
   -4.1564    1.0221   -2.0558 C   0  0  2  0  0  0  0  0  0  0  0  0
   -2.9073    1.3287   -2.7481 O   0  0  0  0  0  0  0  0  0  0  0  0
   -3.9481   -0.0552   -0.9423 C   0  0  2  0  0  0  0  0  0  0  0  0
   -2.5142   -0.2392   -0.6210 N   0  3  0  0  0  0  0  0  0  0  0  0
   -4.5930   -1.4109   -1.3607 C   0  0  1  0  0  0  0  0  0  0  0  0
   -4.4055   -2.3820   -0.3335 O   0  0  0  0  0  0  0  0  0  0  0  0
   -6.1150   -1.2664   -1.6296 C   0  0  2  0  0  0  0  0  0  0  0  0
   -6.5784   -2.4458   -2.2777 O   0  0  0  0  0  0  0  0  0  0  0  0
   -6.4183   -0.0143   -2.5147 C   0  0  2  0  0  0  0  0  0  0  0  0
   -5.1690    0.5631   -3.0157 O   0  0  0  0  0  0  0  0  0  0  0  0
   -7.1640    1.1243   -1.7813 C   0  0  0  0  0  0  0  0  0  0  0  0
   -4.6990    3.3059   -6.1394 C   0  0  1  0  0  0  0  0  0  0  0  0
   -4.9071    3.9505   -7.4553 N   0  3  0  0  0  0  0  0  0  0  0  0
   -4.4242    1.7864   -6.2869 C   0  0  1  0  0  0  0  0  0  0  0  0
   -4.0476    1.0782   -4.9391 C   0  0  1  0  0  0  0  0  0  0  0  0
   -3.5055   -0.2331   -5.2516 O   0  0  0  0  0  0  0  0  0  0  0  0
   -2.9608    1.8556   -4.1094 C   0  0  1  0  0  0  0  0  0  0  0  0
   -3.2750    3.3841   -4.0193 C   0  0  1  0  0  0  0  0  0  0  0  0
   -2.1826    4.1374   -3.3702 N   0  3  0  0  0  0  0  0  0  0  0  0
   -3.5290    4.0015   -5.4128 C   0  0  0  0  0  0  0  0  0  0  0  0
   -2.2041   -0.3370   -5.8982 C   0  0  1  0  0  0  0  0  0  0  0  0
   -1.9754   -1.7898   -6.2980 C   0  0  1  0  0  0  0  0  0  0  0  0
   -2.7906   -1.8437   -7.5829 C   0  0  1  0  0  0  0  0  0  0  0  0
   -2.4435   -0.4941   -8.2273 C   0  0  2  0  0  0  0  0  0  0  0  0
   -2.2033    0.4123   -7.1244 O   0  0  0  0  0  0  0  0  0  0  0  0
   -3.5681    0.0510   -9.1259 C   0  0  0  0  0  0  0  0  0  0  0  0
   -2.7439   -6.5845   -7.1958 C   0  0  1  0  0  0  0  0  0  0  0  0
   -2.4254   -6.1601   -8.6566 C   0  0  1  0  0  0  0  0  0  0  0  0
   -1.2488   -5.1497   -8.7823 C   0  0  2  0  0  0  0  0  0  0  0  0
   -1.4586   -3.9191   -7.8425 C   0  0  1  0  0  0  0  0  0  0  0  0
   -2.3911   -2.9642   -8.4237 O   0  0  0  0  0  0  0  0  0  0  0  0
   -1.8864   -5.7681   -6.1817 C   0  0  1  0  0  0  0  0  0  0  0  0
   -1.9582   -4.3430   -6.5141 O   0  0  0  0  0  0  0  0  0  0  0  0
   -2.3467   -5.9745   -4.7156 C   0  0  0  0  0  0  0  0  0  0  0  0
   -8.4301    0.7149   -1.1484 N   0  3  0  0  0  0  0  0  0  0  0  0
   -0.5871   -2.0089   -6.5494 O   0  0  0  0  0  0  0  0  0  0  0  0
   -2.1009   -7.3314   -9.4044 O   0  0  0  0  0  0  0  0  0  0  0  0
   -4.1353   -6.3636   -6.9543 O   0  0  0  0  0  0  0  0  0  0  0  0
   -3.7155    1.4505   -8.9583 O   0  0  0  0  0  0  0  0  0  0  0  0
   -5.5901    1.1591   -6.8204 O   0  0  0  0  0  0  0  0  0  0  0  0
   -2.3591   -4.7226   -3.9368 N   0  3  0  0  0  0  0  0  0  0  0  0
   -1.0204   -4.7570  -10.1950 N   0  3  0  0  0  0  0  0  0  0  0  0
  1  2  1  6  0  0  0
  1  3  1  0  0  0  0
  1 10  1  0  0  0  0
  3  4  1  6  0  0  0
  3  5  1  0  0  0  0
  5  6  1  1  0  0  0
  5  7  1  0  0  0  0
  7  8  1  6  0  0  0
  7  9  1  0  0  0  0
  9 10  1  0  0  0  0
  9 11  1  1  0  0  0
 11 35  1  0  0  0  0
 12 13  1  6  0  0  0
 12 14  1  0  0  0  0
 12 20  1  0  0  0  0
 14 15  1  0  0  0  0
 14 40  1  1  0  0  0
 15 16  1  6  0  0  0
 15 17  1  0  0  0  0
 17  2  1  1  0  0  0
 17 18  1  0  0  0  0
 18 19  1  6  0  0  0
 18 20  1  0  0  0  0
 21 16  1  6  0  0  0
 21 22  1  0  0  0  0
 21 25  1  0  0  0  0
 22 23  1  0  0  0  0
 22 36  1  6  0  0  0
 23 24  1  0  0  0  0
 23 31  1  6  0  0  0
 24 25  1  0  0  0  0
 24 26  1  1  0  0  0
 26 39  1  0  0  0  0
 27 28  1  0  0  0  0
 27 32  1  0  0  0  0
 27 38  1  1  0  0  0
 28 29  1  0  0  0  0
 28 37  1  6  0  0  0
 29 30  1  0  0  0  0
 29 42  1  6  0  0  0
 30 31  1  6  0  0  0
 30 33  1  0  0  0  0
 32 33  1  0  0  0  0
 32 34  1  1  0  0  0
 34 41  1  0  0  0  0
M  CHG  6   4   1  13   1  19   1  35   1  41   1  42   1
M  END
>  <CHROM.1>
155.32085469,-42.18821254,144.44381939,80.14813869,175.46812484,-55.38000815
-168.04321629,-148.13856333,-172.42838692,69.55247470,-171.53134780,82.54530115
-63.07133508,8.30948927,139.66683709,60.15388382,176.21165973,163.99242480
-29.19830897,173.29520195,-138.23499418,107.09505420,-3.51107607,-1.13512113
-5.30530183,2.57618081,1.18763284,-0.32680018

>  <Name>


>  <RI>
0

>  <Rbt.Current_Directory>
/home/itssahil/PROJECTS/Mol_Feturizer/New_Systems/rnas/1ei2

>  <Rbt.Executable>
rbdock ($Id: //depot/dev/client3/rdock/2013.1/src/exe/rbdock.cxx#4 $)

>  <Rbt.Library>
libRbt.so (2013.1, Build901 2013/11/27)

>  <Rbt.Parameter_File>
/export/apps/rDock/src/rDock_2013.1_src/data/scripts/dock_solv.prm

>  <Rbt.Receptor>
prm/blind_docking_80.prm

>  <SCORE>
3.24637

>  <SCORE.INTER>
-11.2113

>  <SCORE.INTER.CONST>
1

>  <SCORE.INTER.POLAR>
-4.31134

>  <SCORE.INTER.ROT>
9

>  <SCORE.INTER.SOLV>
39.0793

>  <SCORE.INTER.VDW>
-15.7295

>  <SCORE.INTER.norm>
-0.266937

>  <SCORE.INTRA>
2.5005

>  <SCORE.INTRA.DIHEDRAL>
-5.53986

>  <SCORE.INTRA.DIHEDRAL.0>
40.8761

>  <SCORE.INTRA.POLAR>
-1.32731

>  <SCORE.INTRA.POLAR.0>
-0.0268208

>  <SCORE.INTRA.REPUL>
-0.641615

>  <SCORE.INTRA.REPUL.0>
0.641615

>  <SCORE.INTRA.SOLV>
-7.66043

>  <SCORE.INTRA.SOLV.lig_0>
-162.567

>  <SCORE.INTRA.VDW>
16.8216

>  <SCORE.INTRA.VDW.0>
-4.80338

>  <SCORE.INTRA.norm>
0.0595358

>  <SCORE.RESTR>
11.9572

>  <SCORE.RESTR.CAVITY>
11.9572

>  <SCORE.RESTR.norm>
0.284695

>  <SCORE.SYSTEM>
0

>  <SCORE.SYSTEM.CONST>
0

>  <SCORE.SYSTEM.DIHEDRAL>
0

>  <SCORE.SYSTEM.SOLV>
0

>  <SCORE.SYSTEM.norm>
0

>  <SCORE.heavy>
42

>  <SCORE.norm>
0.0772944

>  <RMSD>
7.979

$$$$

 OpenBabel11021811393D
libRbt.so/2013.1/901 2013/11/27
 42 45  0  0  0  0  0  0  0  0999 V2000
   -2.4635    2.5977   -1.6505 C   0  0  2  0  0  0  0  0  0  0  0  0
   -2.5691    1.5412   -2.6536 O   0  0  0  0  0  0  0  0  0  0  0  0
   -1.1890    2.4230   -0.7623 C   0  0  2  0  0  0  0  0  0  0  0  0
   -0.2317    1.4653   -1.3619 N   0  3  0  0  0  0  0  0  0  0  0  0
   -1.5796    1.9758    0.6787 C   0  0  1  0  0  0  0  0  0  0  0  0
   -0.4104    1.8297    1.4818 O   0  0  0  0  0  0  0  0  0  0  0  0
   -2.5229    3.0003    1.3643 C   0  0  2  0  0  0  0  0  0  0  0  0
   -3.0672    2.4063    2.5376 O   0  0  0  0  0  0  0  0  0  0  0  0
   -3.6743    3.4423    0.4041 C   0  0  2  0  0  0  0  0  0  0  0  0
   -3.6653    2.6177   -0.8064 O   0  0  0  0  0  0  0  0  0  0  0  0
   -3.5882    4.9124   -0.0667 C   0  0  0  0  0  0  0  0  0  0  0  0
   -5.0607    2.0725   -6.1364 C   0  0  1  0  0  0  0  0  0  0  0  0
   -6.1812    1.9981   -7.1005 N   0  3  0  0  0  0  0  0  0  0  0  0
   -5.4490    2.8862   -4.8741 C   0  0  1  0  0  0  0  0  0  0  0  0
   -4.3537    2.8728   -3.7516 C   0  0  1  0  0  0  0  0  0  0  0  0
   -4.9525    3.3763   -2.5273 O   0  0  0  0  0  0  0  0  0  0  0  0
   -3.7902    1.4360   -3.4482 C   0  0  1  0  0  0  0  0  0  0  0  0
   -3.4442    0.6541   -4.7566 C   0  0  1  0  0  0  0  0  0  0  0  0
   -3.0568   -0.7444   -4.4808 N   0  3  0  0  0  0  0  0  0  0  0  0
   -4.6283    0.6429   -5.7494 C   0  0  0  0  0  0  0  0  0  0  0  0
   -6.2312    2.8401   -2.0796 C   0  0  1  0  0  0  0  0  0  0  0  0
   -6.4027    3.1654   -0.6005 C   0  0  1  0  0  0  0  0  0  0  0  0
   -6.8679    4.6119   -0.6983 C   0  0  1  0  0  0  0  0  0  0  0  0
   -7.8293    4.5485   -1.8937 C   0  0  2  0  0  0  0  0  0  0  0  0
   -7.3083    3.5089   -2.7560 O   0  0  0  0  0  0  0  0  0  0  0  0
   -7.9218    5.8783   -2.6633 C   0  0  0  0  0  0  0  0  0  0  0  0
  -10.8445    6.3320    1.9944 C   0  0  1  0  0  0  0  0  0  0  0  0
   -9.4715    6.3432    2.7225 C   0  0  1  0  0  0  0  0  0  0  0  0
   -8.3165    6.9718    1.8907 C   0  0  2  0  0  0  0  0  0  0  0  0
   -8.2266    6.3253    0.4709 C   0  0  1  0  0  0  0  0  0  0  0  0
   -7.5442    5.0402    0.5187 O   0  0  0  0  0  0  0  0  0  0  0  0
  -10.6968    6.8302    0.5247 C   0  0  1  0  0  0  0  0  0  0  0  0
   -9.5738    6.1413   -0.1163 O   0  0  0  0  0  0  0  0  0  0  0  0
  -11.9821    6.5992   -0.3112 C   0  0  0  0  0  0  0  0  0  0  0  0
   -3.5669    5.9017    1.0251 N   0  3  0  0  0  0  0  0  0  0  0  0
   -7.4119    2.3281   -0.0357 O   0  0  0  0  0  0  0  0  0  0  0  0
   -9.6120    7.0811    3.9358 O   0  0  0  0  0  0  0  0  0  0  0  0
  -11.3550    4.9971    2.0131 O   0  0  0  0  0  0  0  0  0  0  0  0
   -8.1809    5.6499   -4.0378 O   0  0  0  0  0  0  0  0  0  0  0  0
   -5.6913    4.2396   -5.2574 O   0  0  0  0  0  0  0  0  0  0  0  0
  -13.0708    7.5286    0.0421 N   0  3  0  0  0  0  0  0  0  0  0  0
   -7.0282    6.9181    2.6253 N   0  3  0  0  0  0  0  0  0  0  0  0
  1  2  1  6  0  0  0
  1  3  1  0  0  0  0
  1 10  1  0  0  0  0
  3  4  1  6  0  0  0
  3  5  1  0  0  0  0
  5  6  1  1  0  0  0
  5  7  1  0  0  0  0
  7  8  1  1  0  0  0
  7  9  1  0  0  0  0
  9 10  1  0  0  0  0
  9 11  1  6  0  0  0
 11 35  1  0  0  0  0
 12 13  1  6  0  0  0
 12 14  1  0  0  0  0
 12 20  1  0  0  0  0
 14 15  1  0  0  0  0
 14 40  1  6  0  0  0
 15 16  1  1  0  0  0
 15 17  1  0  0  0  0
 17  2  1  1  0  0  0
 17 18  1  0  0  0  0
 18 19  1  1  0  0  0
 18 20  1  0  0  0  0
 21 16  1  6  0  0  0
 21 22  1  0  0  0  0
 21 25  1  0  0  0  0
 22 23  1  0  0  0  0
 22 36  1  6  0  0  0
 23 24  1  0  0  0  0
 23 31  1  1  0  0  0
 24 25  1  0  0  0  0
 24 26  1  6  0  0  0
 26 39  1  0  0  0  0
 27 28  1  0  0  0  0
 27 32  1  0  0  0  0
 27 38  1  6  0  0  0
 28 29  1  0  0  0  0
 28 37  1  1  0  0  0
 29 30  1  0  0  0  0
 29 42  1  1  0  0  0
 30 31  1  1  0  0  0
 30 33  1  0  0  0  0
 32 33  1  0  0  0  0
 32 34  1  6  0  0  0
 34 41  1  0  0  0  0
M  CHG  6   4   1  13   1  19   1  35   1  41   1  42   1
M  END
>  <CHROM.1>
171.51075102,35.79039174,174.57100757,-68.84331044,-179.19596524,-57.29704570
60.14233247,-58.65543373,-62.39558579,48.85244598,161.28374758,-57.24650583
-62.65689183,-170.24652848,148.96658320,-59.89702411,175.68169207,63.08795661
60.34816353,-153.41849371,73.40840248,63.64242585,-5.99066882,3.88974676
-1.08283668,-0.58767296,-0.42578070,1.24543713

>  <Name>


>  <RI>
0

>  <Rbt.Current_Directory>
/home/itssahil/PROJECTS/Mol_Feturizer/New_Systems/rnas/1ei2

>  <Rbt.Executable>
rbdock ($Id: //depot/dev/client3/rdock/2013.1/src/exe/rbdock.cxx#4 $)

>  <Rbt.Library>
libRbt.so (2013.1, Build901 2013/11/27)

>  <Rbt.Parameter_File>
/export/apps/rDock/src/rDock_2013.1_src/data/scripts/dock_solv.prm

>  <Rbt.Receptor>
prm/pocket_docking_3.prm

>  <SCORE>
-39.167

>  <SCORE.INTER>
-17.5218

>  <SCORE.INTER.CONST>
1

>  <SCORE.INTER.POLAR>
-3.9779

>  <SCORE.INTER.ROT>
9

>  <SCORE.INTER.SOLV>
15.9952

>  <SCORE.INTER.VDW>
-13.3533

>  <SCORE.INTER.norm>
-0.417186

>  <SCORE.INTRA>
-21.6977

>  <SCORE.INTRA.DIHEDRAL>
-27.3151

>  <SCORE.INTRA.DIHEDRAL.0>
40.8761

>  <SCORE.INTRA.POLAR>
-0.965043

>  <SCORE.INTRA.POLAR.0>
-0.0268208

>  <SCORE.INTRA.REPUL>
-0.641615

>  <SCORE.INTRA.REPUL.0>
0.641615

>  <SCORE.INTRA.SOLV>
-9.72864

>  <SCORE.INTRA.SOLV.lig_0>
-162.567

>  <SCORE.INTRA.VDW>
3.31339

>  <SCORE.INTRA.VDW.0>
-4.80338

>  <SCORE.INTRA.norm>
-0.516612

>  <SCORE.RESTR>
0.0525438

>  <SCORE.RESTR.CAVITY>
0.0525438

>  <SCORE.RESTR.norm>
0.00125104

>  <SCORE.SYSTEM>
0

>  <SCORE.SYSTEM.CONST>
0

>  <SCORE.SYSTEM.DIHEDRAL>
0

>  <SCORE.SYSTEM.SOLV>
0

>  <SCORE.SYSTEM.norm>
0

>  <SCORE.heavy>
42

>  <SCORE.norm>
-0.932547

>  <RMSD>
7.992

$$$$

 OpenBabel11021811393D
libRbt.so/2013.1/901 2013/11/27
 42 45  0  0  0  0  0  0  0  0999 V2000
   -4.0483    1.1477   -1.0421 C   0  0  2  0  0  0  0  0  0  0  0  0
   -5.0517    1.5493   -2.0247 O   0  0  0  0  0  0  0  0  0  0  0  0
   -4.6663    0.2487    0.0776 C   0  0  2  0  0  0  0  0  0  0  0  0
   -6.0015   -0.2636   -0.3073 N   0  3  0  0  0  0  0  0  0  0  0  0
   -4.7468    1.0264    1.4258 C   0  0  1  0  0  0  0  0  0  0  0  0
   -5.3024    0.1933    2.4411 O   0  0  0  0  0  0  0  0  0  0  0  0
   -3.3491    1.5104    1.8964 C   0  0  2  0  0  0  0  0  0  0  0  0
   -3.5219    2.4453    2.9555 O   0  0  0  0  0  0  0  0  0  0  0  0
   -2.5529    2.1701    0.7241 C   0  0  2  0  0  0  0  0  0  0  0  0
   -3.4203    2.3335   -0.4448 O   0  0  0  0  0  0  0  0  0  0  0  0
   -1.3242    1.3614    0.2482 C   0  0  0  0  0  0  0  0  0  0  0  0
   -2.8935    5.0371   -3.3652 C   0  0  1  0  0  0  0  0  0  0  0  0
   -2.4574    6.2226   -4.1364 N   0  3  0  0  0  0  0  0  0  0  0  0
   -4.2456    5.2902   -2.6483 C   0  0  1  0  0  0  0  0  0  0  0  0
   -4.8321    4.0207   -1.9382 C   0  0  1  0  0  0  0  0  0  0  0  0
   -6.2179    4.2917   -1.5962 O   0  0  0  0  0  0  0  0  0  0  0  0
   -4.8095    2.7344   -2.8433 C   0  0  1  0  0  0  0  0  0  0  0  0
   -3.4338    2.5474   -3.5614 C   0  0  1  0  0  0  0  0  0  0  0  0
   -3.4586    1.4276   -4.5243 N   0  3  0  0  0  0  0  0  0  0  0  0
   -3.0003    3.8253   -4.3143 C   0  0  0  0  0  0  0  0  0  0  0  0
   -6.5543    4.7164   -0.2437 C   0  0  1  0  0  0  0  0  0  0  0  0
   -7.6344    5.7885   -0.3261 C   0  0  1  0  0  0  0  0  0  0  0  0
   -8.8643    4.9126   -0.5229 C   0  0  1  0  0  0  0  0  0  0  0  0
   -8.5813    3.7577    0.4484 C   0  0  2  0  0  0  0  0  0  0  0  0
   -7.1403    3.6239    0.4830 O   0  0  0  0  0  0  0  0  0  0  0  0
   -9.2265    2.4307    0.0103 C   0  0  0  0  0  0  0  0  0  0  0  0
  -10.8735    7.9237    2.7934 C   0  0  1  0  0  0  0  0  0  0  0  0
  -11.8465    7.6056    1.6240 C   0  0  1  0  0  0  0  0  0  0  0  0
  -12.0149    6.0864    1.3331 C   0  0  2  0  0  0  0  0  0  0  0  0
  -10.6281    5.3889    1.1535 C   0  0  1  0  0  0  0  0  0  0  0  0
  -10.0882    5.6231   -0.1780 O   0  0  0  0  0  0  0  0  0  0  0  0
  -10.1781    6.6256    3.3048 C   0  0  1  0  0  0  0  0  0  0  0  0
   -9.6573    5.8664    2.1651 O   0  0  0  0  0  0  0  0  0  0  0  0
   -9.0204    6.9232    4.2923 C   0  0  0  0  0  0  0  0  0  0  0  0
   -0.4656    2.0693   -0.7177 N   0  3  0  0  0  0  0  0  0  0  0  0
   -7.6959    6.5079    0.9056 O   0  0  0  0  0  0  0  0  0  0  0  0
  -13.1257    8.1523    1.9422 O   0  0  0  0  0  0  0  0  0  0  0  0
   -9.8952    8.8553    2.3265 O   0  0  0  0  0  0  0  0  0  0  0  0
   -8.6707    1.9780   -1.2124 O   0  0  0  0  0  0  0  0  0  0  0  0
   -4.0618    6.3142   -1.6709 O   0  0  0  0  0  0  0  0  0  0  0  0
   -8.0392    5.8257    4.3732 N   0  3  0  0  0  0  0  0  0  0  0  0
  -12.9249    5.8521    0.1845 N   0  3  0  0  0  0  0  0  0  0  0  0
  1  2  1  6  0  0  0
  1  3  1  0  0  0  0
  1 10  1  0  0  0  0
  3  4  1  6  0  0  0
  3  5  1  0  0  0  0
  5  6  1  1  0  0  0
  5  7  1  0  0  0  0
  7  8  1  1  0  0  0
  7  9  1  0  0  0  0
  9 10  1  0  0  0  0
  9 11  1  6  0  0  0
 11 35  1  0  0  0  0
 12 13  1  6  0  0  0
 12 14  1  0  0  0  0
 12 20  1  0  0  0  0
 14 15  1  0  0  0  0
 14 40  1  1  0  0  0
 15 16  1  6  0  0  0
 15 17  1  0  0  0  0
 17  2  1  1  0  0  0
 17 18  1  0  0  0  0
 18 19  1  6  0  0  0
 18 20  1  0  0  0  0
 21 16  1  6  0  0  0
 21 22  1  0  0  0  0
 21 25  1  0  0  0  0
 22 23  1  0  0  0  0
 22 36  1  1  0  0  0
 23 24  1  0  0  0  0
 23 31  1  1  0  0  0
 24 25  1  0  0  0  0
 24 26  1  6  0  0  0
 26 39  1  0  0  0  0
 27 28  1  0  0  0  0
 27 32  1  0  0  0  0
 27 38  1  6  0  0  0
 28 29  1  0  0  0  0
 28 37  1  1  0  0  0
 29 30  1  0  0  0  0
 29 42  1  6  0  0  0
 30 31  1  6  0  0  0
 30 33  1  0  0  0  0
 32 33  1  0  0  0  0
 32 34  1  1  0  0  0
 34 41  1  0  0  0  0
M  CHG  6   4   1  13   1  19   1  35   1  41   1  42   1
M  END
>  <CHROM.1>
158.24072095,-67.32120420,122.09106011,-89.47533554,171.63736739,-171.61574305
-68.64906994,-33.06733654,63.38880575,-98.11192295,140.61815244,-65.86523574
-177.22586434,-97.51389140,64.30472825,-53.00308421,173.26043823,165.40973813
171.73269931,-173.82327972,-157.42116569,-49.50411839,-6.58828643,4.10331933
-0.00808152,-0.01229133,-0.62867902,2.20775550

>  <Name>


>  <RI>
0

>  <Rbt.Current_Directory>
/home/itssahil/PROJECTS/Mol_Feturizer/New_Systems/rnas/1ei2

>  <Rbt.Executable>
rbdock ($Id: //depot/dev/client3/rdock/2013.1/src/exe/rbdock.cxx#4 $)

>  <Rbt.Library>
libRbt.so (2013.1, Build901 2013/11/27)

>  <Rbt.Parameter_File>
/export/apps/rDock/src/rDock_2013.1_src/data/scripts/dock_solv.prm

>  <Rbt.Receptor>
prm/pocket_docking_4.prm

>  <SCORE>
-43.1999

>  <SCORE.INTER>
-31.4381

>  <SCORE.INTER.CONST>
1

>  <SCORE.INTER.POLAR>
-5.73093

>  <SCORE.INTER.ROT>
9

>  <SCORE.INTER.SOLV>
33.141

>  <SCORE.INTER.VDW>
-22.5026

>  <SCORE.INTER.norm>
-0.748526

>  <SCORE.INTRA>
-11.7876

>  <SCORE.INTRA.DIHEDRAL>
-9.29314

>  <SCORE.INTRA.DIHEDRAL.0>
40.8761

>  <SCORE.INTRA.POLAR>
-0.339618

>  <SCORE.INTRA.POLAR.0>
-0.0268208

>  <SCORE.INTRA.REPUL>
-0.541974

>  <SCORE.INTRA.REPUL.0>
0.641615

>  <SCORE.INTRA.SOLV>
-8.31116

>  <SCORE.INTRA.SOLV.lig_0>
-162.567

>  <SCORE.INTRA.VDW>
0.879174

>  <SCORE.INTRA.VDW.0>
-4.80338

>  <SCORE.INTRA.norm>
-0.280656

>  <SCORE.RESTR>
0.0257393

>  <SCORE.RESTR.CAVITY>
0.0257393

>  <SCORE.RESTR.norm>
0.00061284

>  <SCORE.SYSTEM>
0

>  <SCORE.SYSTEM.CONST>
0

>  <SCORE.SYSTEM.DIHEDRAL>
0

>  <SCORE.SYSTEM.SOLV>
0

>  <SCORE.SYSTEM.norm>
0

>  <SCORE.heavy>
42

>  <SCORE.norm>
-1.02857

>  <RMSD>
7.994

$$$$

 OpenBabel11021811393D
libRbt.so/2013.1/901 2013/11/27
 42 45  0  0  0  0  0  0  0  0999 V2000
   -3.2547    1.4668   -2.8983 C   0  0  2  0  0  0  0  0  0  0  0  0
   -3.1742    0.9640   -1.5293 O   0  0  0  0  0  0  0  0  0  0  0  0
   -3.4853    0.3098   -3.9240 C   0  0  2  0  0  0  0  0  0  0  0  0
   -3.9143   -0.9386   -3.2527 N   0  3  0  0  0  0  0  0  0  0  0  0
   -2.2010    0.0616   -4.7713 C   0  0  1  0  0  0  0  0  0  0  0  0
   -2.4267   -0.9883   -5.7095 O   0  0  0  0  0  0  0  0  0  0  0  0
   -1.7694    1.3331   -5.5499 C   0  0  2  0  0  0  0  0  0  0  0  0
   -0.4559    1.1327   -6.0601 O   0  0  0  0  0  0  0  0  0  0  0  0
   -1.8005    2.5981   -4.6322 C   0  0  2  0  0  0  0  0  0  0  0  0
   -2.0319    2.2051   -3.2403 O   0  0  0  0  0  0  0  0  0  0  0  0
   -2.9035    3.6215   -4.9876 C   0  0  0  0  0  0  0  0  0  0  0  0
   -2.5685    2.2002    2.5604 C   0  0  1  0  0  0  0  0  0  0  0  0
   -2.3473    3.0166    3.7748 N   0  3  0  0  0  0  0  0  0  0  0  0
   -3.9818    2.4356    1.9658 C   0  0  1  0  0  0  0  0  0  0  0  0
   -4.2195    1.7120    0.5947 C   0  0  1  0  0  0  0  0  0  0  0  0
   -5.4236    2.2609   -0.0052 O   0  0  0  0  0  0  0  0  0  0  0  0
   -3.0434    1.9164   -0.4296 C   0  0  1  0  0  0  0  0  0  0  0  0
   -1.6449    1.6945    0.2323 C   0  0  1  0  0  0  0  0  0  0  0  0
   -0.5375    2.0302   -0.6858 N   0  3  0  0  0  0  0  0  0  0  0  0
   -1.4790    2.5328    1.5197 C   0  0  0  0  0  0  0  0  0  0  0  0
   -5.3771    3.5719   -0.6392 C   0  0  1  0  0  0  0  0  0  0  0  0
   -6.6447    3.7569   -1.4648 C   0  0  1  0  0  0  0  0  0  0  0  0
   -7.6225    4.1515   -0.3663 C   0  0  1  0  0  0  0  0  0  0  0  0
   -6.7630    5.0911    0.4913 C   0  0  2  0  0  0  0  0  0  0  0  0
   -5.4064    4.6029    0.3614 O   0  0  0  0  0  0  0  0  0  0  0  0
   -7.1815    5.1058    1.9725 C   0  0  0  0  0  0  0  0  0  0  0  0
  -11.8662    6.2767    0.8781 C   0  0  1  0  0  0  0  0  0  0  0  0
  -11.5888    6.3722   -0.6481 C   0  0  1  0  0  0  0  0  0  0  0  0
  -11.2431    5.0106   -1.3172 C   0  0  2  0  0  0  0  0  0  0  0  0
  -10.0918    4.2818   -0.5523 C   0  0  1  0  0  0  0  0  0  0  0  0
   -8.7914    4.8307   -0.9088 O   0  0  0  0  0  0  0  0  0  0  0  0
  -11.5829    4.8369    1.4043 C   0  0  1  0  0  0  0  0  0  0  0  0
  -10.2793    4.3828    0.9134 O   0  0  0  0  0  0  0  0  0  0  0  0
  -11.6017    4.7574    2.9526 C   0  0  0  0  0  0  0  0  0  0  0  0
   -2.6180    5.0005   -4.5536 N   0  3  0  0  0  0  0  0  0  0  0  0
   -6.4586    4.8154   -2.4048 O   0  0  0  0  0  0  0  0  0  0  0  0
  -12.7482    6.9096   -1.2830 O   0  0  0  0  0  0  0  0  0  0  0  0
  -11.0283    7.2202    1.5495 O   0  0  0  0  0  0  0  0  0  0  0  0
   -8.4082    5.7945    2.1443 O   0  0  0  0  0  0  0  0  0  0  0  0
   -4.9557    1.9712    2.9003 O   0  0  0  0  0  0  0  0  0  0  0  0
  -12.9607    4.8585    3.5156 N   0  3  0  0  0  0  0  0  0  0  0  0
  -10.9531    5.1756   -2.7632 N   0  3  0  0  0  0  0  0  0  0  0  0
  1  2  1  1  0  0  0
  1  3  1  0  0  0  0
  1 10  1  0  0  0  0
  3  4  1  1  0  0  0
  3  5  1  0  0  0  0
  5  6  1  6  0  0  0
  5  7  1  0  0  0  0
  7  8  1  1  0  0  0
  7  9  1  0  0  0  0
  9 10  1  0  0  0  0
  9 11  1  6  0  0  0
 11 35  1  0  0  0  0
 12 13  1  1  0  0  0
 12 14  1  0  0  0  0
 12 20  1  0  0  0  0
 14 15  1  0  0  0  0
 14 40  1  1  0  0  0
 15 16  1  6  0  0  0
 15 17  1  0  0  0  0
 17  2  1  6  0  0  0
 17 18  1  0  0  0  0
 18 19  1  6  0  0  0
 18 20  1  0  0  0  0
 21 16  1  1  0  0  0
 21 22  1  0  0  0  0
 21 25  1  0  0  0  0
 22 23  1  0  0  0  0
 22 36  1  6  0  0  0
 23 24  1  0  0  0  0
 23 31  1  6  0  0  0
 24 25  1  0  0  0  0
 24 26  1  1  0  0  0
 26 39  1  0  0  0  0
 27 28  1  0  0  0  0
 27 32  1  0  0  0  0
 27 38  1  1  0  0  0
 28 29  1  0  0  0  0
 28 37  1  6  0  0  0
 29 30  1  0  0  0  0
 29 42  1  6  0  0  0
 30 31  1  1  0  0  0
 30 33  1  0  0  0  0
 32 33  1  0  0  0  0
 32 34  1  1  0  0  0
 34 41  1  0  0  0  0
M  CHG  6   4   1  13   1  19   1  35   1  41   1  42   1
M  END
>  <CHROM.1>
-176.24881636,123.11471231,-178.85026369,-171.28460793,61.34543667,-155.66067127
76.74019673,-160.92724382,54.16581276,76.45369193,166.48089907,-159.23703772
-54.14537941,125.91838455,-72.47004402,60.82357020,-69.41692335,-155.67724550
-147.21657498,-174.08227412,72.88224470,58.94667112,-5.93699235,3.35898135
-0.83329503,0.41581677,0.40816960,-1.64387362

>  <Name>


>  <RI>
0

>  <Rbt.Current_Directory>
/home/itssahil/PROJECTS/Mol_Feturizer/New_Systems/rnas/1ei2

>  <Rbt.Executable>
rbdock ($Id: //depot/dev/client3/rdock/2013.1/src/exe/rbdock.cxx#4 $)

>  <Rbt.Library>
libRbt.so (2013.1, Build901 2013/11/27)

>  <Rbt.Parameter_File>
/export/apps/rDock/src/rDock_2013.1_src/data/scripts/dock_solv.prm

>  <Rbt.Receptor>
prm/pocket_docking_3.prm

>  <SCORE>
-58.0843

>  <SCORE.INTER>
-36.2484

>  <SCORE.INTER.CONST>
1

>  <SCORE.INTER.POLAR>
-5.20563

>  <SCORE.INTER.ROT>
9

>  <SCORE.INTER.SOLV>
30.0711

>  <SCORE.INTER.VDW>
-26.4372

>  <SCORE.INTER.norm>
-0.863057

>  <SCORE.INTRA>
-22.9342

>  <SCORE.INTRA.DIHEDRAL>
-12.2559

>  <SCORE.INTRA.DIHEDRAL.0>
40.8761

>  <SCORE.INTRA.POLAR>
-3.1101

>  <SCORE.INTRA.POLAR.0>
-0.0268208

>  <SCORE.INTRA.REPUL>
-0.641615

>  <SCORE.INTRA.REPUL.0>
0.641615

>  <SCORE.INTRA.SOLV>
-10.5815

>  <SCORE.INTRA.SOLV.lig_0>
-162.567

>  <SCORE.INTRA.VDW>
2.26687

>  <SCORE.INTRA.VDW.0>
-4.80338

>  <SCORE.INTRA.norm>
-0.546054

>  <SCORE.RESTR>
1.0983

>  <SCORE.RESTR.CAVITY>
1.0983

>  <SCORE.RESTR.norm>
0.0261501

>  <SCORE.SYSTEM>
0

>  <SCORE.SYSTEM.CONST>
0

>  <SCORE.SYSTEM.DIHEDRAL>
0

>  <SCORE.SYSTEM.SOLV>
0

>  <SCORE.SYSTEM.norm>
0

>  <SCORE.heavy>
42

>  <SCORE.norm>
-1.38296

>  <RMSD>
8.001

$$$$

 OpenBabel11021811393D
libRbt.so/2013.1/901 2013/11/27
 42 45  0  0  0  0  0  0  0  0999 V2000
   -4.4977    2.2799   -3.2279 C   0  0  2  0  0  0  0  0  0  0  0  0
   -5.5858    1.3129   -3.1065 O   0  0  0  0  0  0  0  0  0  0  0  0
   -4.4004    2.8582   -4.6770 C   0  0  2  0  0  0  0  0  0  0  0  0
   -5.6208    2.5688   -5.4643 N   0  3  0  0  0  0  0  0  0  0  0  0
   -3.1368    2.3085   -5.4051 C   0  0  1  0  0  0  0  0  0  0  0  0
   -3.0534    2.8506   -6.7214 O   0  0  0  0  0  0  0  0  0  0  0  0
   -1.8321    2.6637   -4.6429 C   0  0  2  0  0  0  0  0  0  0  0  0
   -0.7621    1.8998   -5.1879 O   0  0  0  0  0  0  0  0  0  0  0  0
   -1.9721    2.3743   -3.1131 C   0  0  2  0  0  0  0  0  0  0  0  0
   -3.2222    1.6585   -2.8482 O   0  0  0  0  0  0  0  0  0  0  0  0
   -1.9925    3.6366   -2.2207 C   0  0  0  0  0  0  0  0  0  0  0  0
   -3.0672   -2.1419   -2.5231 C   0  0  1  0  0  0  0  0  0  0  0  0
   -2.5855   -3.5320   -2.3621 N   0  3  0  0  0  0  0  0  0  0  0  0
   -3.5493   -1.8708   -3.9723 C   0  0  1  0  0  0  0  0  0  0  0  0
   -4.2100   -0.4615   -4.1656 C   0  0  1  0  0  0  0  0  0  0  0  0
   -4.8993   -0.4551   -5.4446 O   0  0  0  0  0  0  0  0  0  0  0  0
   -5.2673   -0.1116   -3.0549 C   0  0  1  0  0  0  0  0  0  0  0  0
   -4.7375   -0.4322   -1.6198 C   0  0  1  0  0  0  0  0  0  0  0  0
   -5.7793   -0.2453   -0.5895 N   0  3  0  0  0  0  0  0  0  0  0  0
   -4.2044   -1.8787   -1.5141 C   0  0  0  0  0  0  0  0  0  0  0  0
   -4.2226    0.0708   -6.6228 C   0  0  1  0  0  0  0  0  0  0  0  0
   -3.2200   -0.9682   -7.1110 C   0  0  1  0  0  0  0  0  0  0  0  0
   -4.1525   -1.9007   -7.8722 C   0  0  1  0  0  0  0  0  0  0  0  0
   -5.0812   -0.9025   -8.5780 C   0  0  2  0  0  0  0  0  0  0  0  0
   -5.1641    0.2417   -7.6949 O   0  0  0  0  0  0  0  0  0  0  0  0
   -6.4870   -1.4710   -8.8420 C   0  0  0  0  0  0  0  0  0  0  0  0
   -2.4914   -6.1311   -7.3112 C   0  0  1  0  0  0  0  0  0  0  0  0
   -2.5455   -5.8098   -8.8308 C   0  0  1  0  0  0  0  0  0  0  0  0
   -1.7555   -4.5328   -9.2385 C   0  0  2  0  0  0  0  0  0  0  0  0
   -2.1704   -3.3081   -8.3611 C   0  0  1  0  0  0  0  0  0  0  0  0
   -3.4227   -2.7277   -8.8237 O   0  0  0  0  0  0  0  0  0  0  0  0
   -1.7664   -4.9939   -6.5294 C   0  0  1  0  0  0  0  0  0  0  0  0
   -2.3078   -3.6953   -6.9381 O   0  0  0  0  0  0  0  0  0  0  0  0
   -1.9095   -5.1465   -4.9931 C   0  0  0  0  0  0  0  0  0  0  0  0
   -2.6558    4.8029   -2.8298 N   0  3  0  0  0  0  0  0  0  0  0  0
   -2.2710   -0.3519   -7.9816 O   0  0  0  0  0  0  0  0  0  0  0  0
   -2.0101   -6.9232   -9.5450 O   0  0  0  0  0  0  0  0  0  0  0  0
   -3.8300   -6.2814   -6.8332 O   0  0  0  0  0  0  0  0  0  0  0  0
   -6.4096   -2.7709   -9.4016 O   0  0  0  0  0  0  0  0  0  0  0  0
   -2.4319   -1.9744   -4.8544 O   0  0  0  0  0  0  0  0  0  0  0  0
   -2.0122   -6.5532   -4.5636 N   0  3  0  0  0  0  0  0  0  0  0  0
   -1.8776   -4.2612  -10.6923 N   0  3  0  0  0  0  0  0  0  0  0  0
  1  2  1  6  0  0  0
  1  3  1  0  0  0  0
  1 10  1  0  0  0  0
  3  4  1  6  0  0  0
  3  5  1  0  0  0  0
  5  6  1  6  0  0  0
  5  7  1  0  0  0  0
  7  8  1  6  0  0  0
  7  9  1  0  0  0  0
  9 10  1  0  0  0  0
  9 11  1  1  0  0  0
 11 35  1  0  0  0  0
 12 13  1  6  0  0  0
 12 14  1  0  0  0  0
 12 20  1  0  0  0  0
 14 15  1  0  0  0  0
 14 40  1  6  0  0  0
 15 16  1  6  0  0  0
 15 17  1  0  0  0  0
 17  2  1  1  0  0  0
 17 18  1  0  0  0  0
 18 19  1  1  0  0  0
 18 20  1  0  0  0  0
 21 16  1  1  0  0  0
 21 22  1  0  0  0  0
 21 25  1  0  0  0  0
 22 23  1  0  0  0  0
 22 36  1  6  0  0  0
 23 24  1  0  0  0  0
 23 31  1  6  0  0  0
 24 25  1  0  0  0  0
 24 26  1  1  0  0  0
 26 39  1  0  0  0  0
 27 28  1  0  0  0  0
 27 32  1  0  0  0  0
 27 38  1  1  0  0  0
 28 29  1  0  0  0  0
 28 37  1  6  0  0  0
 29 30  1  0  0  0  0
 29 42  1  6  0  0  0
 30 31  1  6  0  0  0
 30 33  1  0  0  0  0
 32 33  1  0  0  0  0
 32 34  1  1  0  0  0
 34 41  1  0  0  0  0
M  CHG  6   4   1  13   1  19   1  35   1  41   1  42   1
M  END
>  <CHROM.1>
104.31706502,-45.45663295,-54.11506809,-179.74164483,-167.60521579,34.54223281
61.19636216,-47.62949330,110.88830462,-95.16439278,76.66708637,112.78828022
67.99959427,43.07713288,-46.91378957,-178.86681976,61.53785982,-36.62551340
-168.73182897,159.90136353,30.83555339,177.35691134,-3.44108382,-1.21883451
-5.64966922,2.30163243,-1.41283865,1.31960473

>  <Name>


>  <RI>
0

>  <Rbt.Current_Directory>
/home/itssahil/PROJECTS/Mol_Feturizer/New_Systems/rnas/1ei2

>  <Rbt.Executable>
rbdock ($Id: //depot/dev/client3/rdock/2013.1/src/exe/rbdock.cxx#4 $)

>  <Rbt.Library>
libRbt.so (2013.1, Build901 2013/11/27)

>  <Rbt.Parameter_File>
/export/apps/rDock/src/rDock_2013.1_src/data/scripts/dock_solv.prm

>  <Rbt.Receptor>
prm/blind_docking_60.prm

>  <SCORE>
-26.6833

>  <SCORE.INTER>
-37.2036

>  <SCORE.INTER.CONST>
1

>  <SCORE.INTER.POLAR>
-5.85331

>  <SCORE.INTER.ROT>
9

>  <SCORE.INTER.SOLV>
36.7333

>  <SCORE.INTER.VDW>
-27.1358

>  <SCORE.INTER.norm>
-0.885799

>  <SCORE.INTRA>
-6.56634

>  <SCORE.INTRA.DIHEDRAL>
-4.45897

>  <SCORE.INTRA.DIHEDRAL.0>
40.8761

>  <SCORE.INTRA.POLAR>
-1.44559

>  <SCORE.INTRA.POLAR.0>
-0.0268208

>  <SCORE.INTRA.REPUL>
-0.620849

>  <SCORE.INTRA.REPUL.0>
0.641615

>  <SCORE.INTRA.SOLV>
1.41124

>  <SCORE.INTRA.SOLV.lig_0>
-162.567

>  <SCORE.INTRA.VDW>
2.97678

>  <SCORE.INTRA.VDW.0>
-4.80338

>  <SCORE.INTRA.norm>
-0.156341

>  <SCORE.RESTR>
17.0866

>  <SCORE.RESTR.CAVITY>
17.0866

>  <SCORE.RESTR.norm>
0.406824

>  <SCORE.SYSTEM>
0

>  <SCORE.SYSTEM.CONST>
0

>  <SCORE.SYSTEM.DIHEDRAL>
0

>  <SCORE.SYSTEM.SOLV>
0

>  <SCORE.SYSTEM.norm>
0

>  <SCORE.heavy>
42

>  <SCORE.norm>
-0.635317

>  <RMSD>
8.002

$$$$

 OpenBabel11021811393D
libRbt.so/2013.1/901 2013/11/27
 42 45  0  0  0  0  0  0  0  0999 V2000
   -5.2195    2.8287   -4.9142 C   0  0  2  0  0  0  0  0  0  0  0  0
   -5.5675    1.4167   -5.0513 O   0  0  0  0  0  0  0  0  0  0  0  0
   -4.7536    3.4416   -6.2747 C   0  0  2  0  0  0  0  0  0  0  0  0
   -5.1083    2.5691   -7.4176 N   0  3  0  0  0  0  0  0  0  0  0  0
   -3.2206    3.7218   -6.2559 C   0  0  1  0  0  0  0  0  0  0  0  0
   -2.8096    4.2898   -7.4976 O   0  0  0  0  0  0  0  0  0  0  0  0
   -2.8269    4.6970   -5.1142 C   0  0  2  0  0  0  0  0  0  0  0  0
   -1.4112    4.6823   -4.9685 O   0  0  0  0  0  0  0  0  0  0  0  0
   -3.5085    4.2965   -3.7657 C   0  0  2  0  0  0  0  0  0  0  0  0
   -4.1687    2.9961   -3.9017 O   0  0  0  0  0  0  0  0  0  0  0  0
   -4.5889    5.2869   -3.2739 C   0  0  0  0  0  0  0  0  0  0  0  0
   -3.4708    0.0828   -1.5236 C   0  0  1  0  0  0  0  0  0  0  0  0
   -2.8577   -0.7644   -0.4764 N   0  3  0  0  0  0  0  0  0  0  0  0
   -2.7104   -0.0372   -2.8703 C   0  0  1  0  0  0  0  0  0  0  0  0
   -3.4019    0.7208   -4.0566 C   0  0  1  0  0  0  0  0  0  0  0  0
   -2.7935    0.2726   -5.2976 O   0  0  0  0  0  0  0  0  0  0  0  0
   -4.9466    0.4423   -4.1577 C   0  0  1  0  0  0  0  0  0  0  0  0
   -5.6534    0.5490   -2.7677 C   0  0  1  0  0  0  0  0  0  0  0  0
   -7.0721    0.1431   -2.8344 N   0  3  0  0  0  0  0  0  0  0  0  0
   -4.9508   -0.3169   -1.6979 C   0  0  0  0  0  0  0  0  0  0  0  0
   -3.6396   -0.2293   -6.3723 C   0  0  1  0  0  0  0  0  0  0  0  0
   -2.7456   -0.7812   -7.4763 C   0  0  1  0  0  0  0  0  0  0  0  0
   -2.4129   -2.1471   -6.8915 C   0  0  1  0  0  0  0  0  0  0  0  0
   -3.7668   -2.5715   -6.3048 C   0  0  2  0  0  0  0  0  0  0  0  0
   -4.4189   -1.3425   -5.9050 O   0  0  0  0  0  0  0  0  0  0  0  0
   -3.6302   -3.5162   -5.0973 C   0  0  0  0  0  0  0  0  0  0  0  0
   -2.7538   -6.6996   -6.9501 C   0  0  1  0  0  0  0  0  0  0  0  0
   -2.4568   -6.2013   -8.3919 C   0  0  1  0  0  0  0  0  0  0  0  0
   -1.1564   -5.3560   -8.5166 C   0  0  2  0  0  0  0  0  0  0  0  0
   -1.1374   -4.1922   -7.4741 C   0  0  1  0  0  0  0  0  0  0  0  0
   -1.9538   -3.0720   -7.9190 O   0  0  0  0  0  0  0  0  0  0  0  0
   -1.7352   -6.0982   -5.9347 C   0  0  1  0  0  0  0  0  0  0  0  0
   -1.6204   -4.6538   -6.1523 O   0  0  0  0  0  0  0  0  0  0  0  0
   -2.1408   -6.3623   -4.4617 C   0  0  0  0  0  0  0  0  0  0  0  0
   -4.2550    6.7067   -3.4842 N   0  3  0  0  0  0  0  0  0  0  0  0
   -3.4912   -0.8983   -8.6883 O   0  0  0  0  0  0  0  0  0  0  0  0
   -2.3437   -7.3386   -9.2463 O   0  0  0  0  0  0  0  0  0  0  0  0
   -4.0843   -6.3099   -6.6024 O   0  0  0  0  0  0  0  0  0  0  0  0
   -4.8373   -3.5669   -4.3563 O   0  0  0  0  0  0  0  0  0  0  0  0
   -1.3933    0.4866   -2.7017 O   0  0  0  0  0  0  0  0  0  0  0  0
   -2.0935   -7.7912   -4.1012 N   0  3  0  0  0  0  0  0  0  0  0  0
   -0.9504   -4.8805   -9.9072 N   0  3  0  0  0  0  0  0  0  0  0  0
  1  2  1  6  0  0  0
  1  3  1  0  0  0  0
  1 10  1  0  0  0  0
  3  4  1  6  0  0  0
  3  5  1  0  0  0  0
  5  6  1  6  0  0  0
  5  7  1  0  0  0  0
  7  8  1  1  0  0  0
  7  9  1  0  0  0  0
  9 10  1  0  0  0  0
  9 11  1  6  0  0  0
 11 35  1  0  0  0  0
 12 13  1  1  0  0  0
 12 14  1  0  0  0  0
 12 20  1  0  0  0  0
 14 15  1  0  0  0  0
 14 40  1  1  0  0  0
 15 16  1  6  0  0  0
 15 17  1  0  0  0  0
 17  2  1  6  0  0  0
 17 18  1  0  0  0  0
 18 19  1  6  0  0  0
 18 20  1  0  0  0  0
 21 16  1  1  0  0  0
 21 22  1  0  0  0  0
 21 25  1  0  0  0  0
 22 23  1  0  0  0  0
 22 36  1  6  0  0  0
 23 24  1  0  0  0  0
 23 31  1  6  0  0  0
 24 25  1  0  0  0  0
 24 26  1  1  0  0  0
 26 39  1  0  0  0  0
 27 28  1  0  0  0  0
 27 32  1  0  0  0  0
 27 38  1  1  0  0  0
 28 29  1  0  0  0  0
 28 37  1  6  0  0  0
 29 30  1  0  0  0  0
 29 42  1  6  0  0  0
 30 31  1  6  0  0  0
 30 33  1  0  0  0  0
 32 33  1  0  0  0  0
 32 34  1  1  0  0  0
 34 41  1  0  0  0  0
M  CHG  6   4   1  13   1  19   1  35   1  41   1  42   1
M  END
>  <CHROM.1>
126.94840704,-45.55054785,85.58964260,-82.89837806,99.40019582,-39.37533891
60.91793310,38.59086390,-173.90343667,126.66008127,-173.29178328,75.21991668
71.18584993,157.05081573,162.76169770,-54.94343930,-100.07221059,-64.77333053
-140.58705508,158.90657100,66.28888012,62.86127514,-3.33502753,-0.85351967
-5.41923431,-2.24709762,-1.29495507,2.76779295

>  <Name>


>  <RI>
0

>  <Rbt.Current_Directory>
/home/itssahil/PROJECTS/Mol_Feturizer/New_Systems/rnas/1ei2

>  <Rbt.Executable>
rbdock ($Id: //depot/dev/client3/rdock/2013.1/src/exe/rbdock.cxx#4 $)

>  <Rbt.Library>
libRbt.so (2013.1, Build901 2013/11/27)

>  <Rbt.Parameter_File>
/export/apps/rDock/src/rDock_2013.1_src/data/scripts/dock_solv.prm

>  <Rbt.Receptor>
prm/blind_docking_60.prm

>  <SCORE>
4.78104

>  <SCORE.INTER>
-10.9398

>  <SCORE.INTER.CONST>
1

>  <SCORE.INTER.POLAR>
-7.01047

>  <SCORE.INTER.ROT>
9

>  <SCORE.INTER.SOLV>
60.2084

>  <SCORE.INTER.VDW>
-13.5945

>  <SCORE.INTER.norm>
-0.260472

>  <SCORE.INTRA>
3.73796

>  <SCORE.INTRA.DIHEDRAL>
1.52308

>  <SCORE.INTRA.DIHEDRAL.0>
40.8761

>  <SCORE.INTRA.POLAR>
-0.368485

>  <SCORE.INTRA.POLAR.0>
-0.0268208

>  <SCORE.INTRA.REPUL>
-0.641615

>  <SCORE.INTRA.REPUL.0>
0.641615

>  <SCORE.INTRA.SOLV>
-9.38218

>  <SCORE.INTRA.SOLV.lig_0>
-162.567

>  <SCORE.INTRA.VDW>
12.1284

>  <SCORE.INTRA.VDW.0>
-4.80338

>  <SCORE.INTRA.norm>
0.088999

>  <SCORE.RESTR>
11.9829

>  <SCORE.RESTR.CAVITY>
11.9829

>  <SCORE.RESTR.norm>
0.285307

>  <SCORE.SYSTEM>
0

>  <SCORE.SYSTEM.CONST>
0

>  <SCORE.SYSTEM.DIHEDRAL>
0

>  <SCORE.SYSTEM.SOLV>
0

>  <SCORE.SYSTEM.norm>
0

>  <SCORE.heavy>
42

>  <SCORE.norm>
0.113834

>  <RMSD>
8.016

$$$$

 OpenBabel11021811393D
libRbt.so/2013.1/901 2013/11/27
 42 45  0  0  0  0  0  0  0  0999 V2000
   -1.0021    3.3142    4.4970 C   0  0  2  0  0  0  0  0  0  0  0  0
   -1.9607    2.9588    5.5403 O   0  0  0  0  0  0  0  0  0  0  0  0
    0.3349    2.5183    4.6481 C   0  0  2  0  0  0  0  0  0  0  0  0
    0.1850    1.3672    5.5678 N   0  3  0  0  0  0  0  0  0  0  0  0
    1.4825    3.4566    5.1292 C   0  0  1  0  0  0  0  0  0  0  0  0
    2.6983    2.7220    5.2535 O   0  0  0  0  0  0  0  0  0  0  0  0
    1.7166    4.6327    4.1436 C   0  0  2  0  0  0  0  0  0  0  0  0
    2.5566    5.5948    4.7717 O   0  0  0  0  0  0  0  0  0  0  0  0
    0.3658    5.2958    3.7205 C   0  0  2  0  0  0  0  0  0  0  0  0
   -0.7333    4.7579    4.5255 O   0  0  0  0  0  0  0  0  0  0  0  0
   -0.0236    5.0709    2.2414 C   0  0  0  0  0  0  0  0  0  0  0  0
   -5.5675    4.2827    7.5044 C   0  0  1  0  0  0  0  0  0  0  0  0
   -6.6936    5.1125    7.9879 N   0  3  0  0  0  0  0  0  0  0  0  0
   -5.6613    4.0306    5.9767 C   0  0  1  0  0  0  0  0  0  0  0  0
   -4.4168    3.2842    5.3816 C   0  0  1  0  0  0  0  0  0  0  0  0
   -4.4690    3.3979    3.9340 O   0  0  0  0  0  0  0  0  0  0  0  0
   -3.0435    3.8870    5.8557 C   0  0  1  0  0  0  0  0  0  0  0  0
   -3.0183    4.1462    7.3968 C   0  0  1  0  0  0  0  0  0  0  0  0
   -1.7898    4.8481    7.8211 N   0  3  0  0  0  0  0  0  0  0  0  0
   -4.2363    4.9770    7.8597 C   0  0  0  0  0  0  0  0  0  0  0  0
   -4.1906    4.6816    3.3037 C   0  0  1  0  0  0  0  0  0  0  0  0
   -4.3751    4.5331    1.7981 C   0  0  1  0  0  0  0  0  0  0  0  0
   -5.8911    4.6407    1.7039 C   0  0  1  0  0  0  0  0  0  0  0  0
   -6.1852    5.7647    2.7076 C   0  0  2  0  0  0  0  0  0  0  0  0
   -5.1598    5.6558    3.7237 O   0  0  0  0  0  0  0  0  0  0  0  0
   -7.5802    5.6501    3.3481 C   0  0  0  0  0  0  0  0  0  0  0  0
   -8.3235    4.6867   -2.9040 C   0  0  1  0  0  0  0  0  0  0  0  0
   -7.6905    3.4994   -2.1262 C   0  0  1  0  0  0  0  0  0  0  0  0
   -8.0427    3.4728   -0.6108 C   0  0  2  0  0  0  0  0  0  0  0  0
   -7.7390    4.8493    0.0637 C   0  0  1  0  0  0  0  0  0  0  0  0
   -6.3201    4.9915    0.3567 O   0  0  0  0  0  0  0  0  0  0  0  0
   -9.0520    5.6620   -1.9302 C   0  0  1  0  0  0  0  0  0  0  0  0
   -8.1744    5.9720   -0.7987 O   0  0  0  0  0  0  0  0  0  0  0  0
   -9.4783    6.9821   -2.6227 C   0  0  0  0  0  0  0  0  0  0  0  0
   -0.9184    6.1001    1.6835 N   0  3  0  0  0  0  0  0  0  0  0  0
   -3.7308    5.6140    1.1236 O   0  0  0  0  0  0  0  0  0  0  0  0
   -8.1411    2.2822   -2.7193 O   0  0  0  0  0  0  0  0  0  0  0  0
   -7.2837    5.3743   -3.6033 O   0  0  0  0  0  0  0  0  0  0  0  0
   -7.8617    6.7827    4.1521 O   0  0  0  0  0  0  0  0  0  0  0  0
   -6.8283    3.2528    5.7109 O   0  0  0  0  0  0  0  0  0  0  0  0
  -10.3707    6.7627   -3.7757 N   0  3  0  0  0  0  0  0  0  0  0  0
   -7.3789    2.3395    0.0801 N   0  3  0  0  0  0  0  0  0  0  0  0
  1  2  1  1  0  0  0
  1  3  1  0  0  0  0
  1 10  1  0  0  0  0
  3  4  1  1  0  0  0
  3  5  1  0  0  0  0
  5  6  1  6  0  0  0
  5  7  1  0  0  0  0
  7  8  1  1  0  0  0
  7  9  1  0  0  0  0
  9 10  1  0  0  0  0
  9 11  1  6  0  0  0
 11 35  1  0  0  0  0
 12 13  1  6  0  0  0
 12 14  1  0  0  0  0
 12 20  1  0  0  0  0
 14 15  1  0  0  0  0
 14 40  1  1  0  0  0
 15 16  1  6  0  0  0
 15 17  1  0  0  0  0
 17  2  1  1  0  0  0
 17 18  1  0  0  0  0
 18 19  1  6  0  0  0
 18 20  1  0  0  0  0
 21 16  1  1  0  0  0
 21 22  1  0  0  0  0
 21 25  1  0  0  0  0
 22 23  1  0  0  0  0
 22 36  1  6  0  0  0
 23 24  1  0  0  0  0
 23 31  1  6  0  0  0
 24 25  1  0  0  0  0
 24 26  1  1  0  0  0
 26 39  1  0  0  0  0
 27 28  1  0  0  0  0
 27 32  1  0  0  0  0
 27 38  1  1  0  0  0
 28 29  1  0  0  0  0
 28 37  1  6  0  0  0
 29 30  1  0  0  0  0
 29 42  1  1  0  0  0
 30 31  1  6  0  0  0
 30 33  1  0  0  0  0
 32 33  1  0  0  0  0
 32 34  1  6  0  0  0
 34 41  1  0  0  0  0
M  CHG  6   4   1  13   1  19   1  35   1  41   1  42   1
M  END
>  <CHROM.1>
158.82803247,110.37500403,-143.04740640,64.20033284,59.59637960,-155.19148343
-92.02926409,166.56591718,-61.52798715,71.84874685,-177.49031119,-60.64937570
-66.04234895,167.38271671,-173.62108272,63.23436097,-58.00208379,-59.65770355
67.30708609,-95.60554536,58.30110822,64.81642898,-4.38145569,4.51361647,2.80488378
-0.73573298,0.10215965,-1.52478354

>  <Name>


>  <RI>
0

>  <Rbt.Current_Directory>
/home/itssahil/PROJECTS/Mol_Feturizer/New_Systems/rnas/1ei2

>  <Rbt.Executable>
rbdock ($Id: //depot/dev/client3/rdock/2013.1/src/exe/rbdock.cxx#4 $)

>  <Rbt.Library>
libRbt.so (2013.1, Build901 2013/11/27)

>  <Rbt.Parameter_File>
/export/apps/rDock/src/rDock_2013.1_src/data/scripts/dock_solv.prm

>  <Rbt.Receptor>
prm/pocket_docking_7.prm

>  <SCORE>
-41.335

>  <SCORE.INTER>
-19.3533

>  <SCORE.INTER.CONST>
1

>  <SCORE.INTER.POLAR>
-3.78968

>  <SCORE.INTER.ROT>
9

>  <SCORE.INTER.SOLV>
14.8177

>  <SCORE.INTER.VDW>
-14.8092

>  <SCORE.INTER.norm>
-0.460793

>  <SCORE.INTRA>
-21.9817

>  <SCORE.INTRA.DIHEDRAL>
-17.7418

>  <SCORE.INTRA.DIHEDRAL.0>
40.8761

>  <SCORE.INTRA.POLAR>
-1.51452

>  <SCORE.INTRA.POLAR.0>
-0.0268208

>  <SCORE.INTRA.REPUL>
-0.641615

>  <SCORE.INTRA.REPUL.0>
0.641615

>  <SCORE.INTRA.SOLV>
-8.4668

>  <SCORE.INTRA.SOLV.lig_0>
-162.567

>  <SCORE.INTRA.VDW>
-0.519943

>  <SCORE.INTRA.VDW.0>
-4.80338

>  <SCORE.INTRA.norm>
-0.523374

>  <SCORE.RESTR>
0

>  <SCORE.RESTR.CAVITY>
0

>  <SCORE.RESTR.norm>
0

>  <SCORE.SYSTEM>
0

>  <SCORE.SYSTEM.CONST>
0

>  <SCORE.SYSTEM.DIHEDRAL>
0

>  <SCORE.SYSTEM.SOLV>
0

>  <SCORE.SYSTEM.norm>
0

>  <SCORE.heavy>
42

>  <SCORE.norm>
-0.984167

>  <RMSD>
8.020

$$$$

 OpenBabel11021811393D
libRbt.so/2013.1/901 2013/11/27
 42 45  0  0  0  0  0  0  0  0999 V2000
   -5.1371    1.6973   -5.0442 C   0  0  2  0  0  0  0  0  0  0  0  0
   -5.3072    0.2679   -4.7962 O   0  0  0  0  0  0  0  0  0  0  0  0
   -6.3843    2.3098   -5.7605 C   0  0  2  0  0  0  0  0  0  0  0  0
   -7.5527    1.4022   -5.6955 N   0  3  0  0  0  0  0  0  0  0  0  0
   -6.0495    2.6649   -7.2406 C   0  0  1  0  0  0  0  0  0  0  0  0
   -7.1910    3.2318   -7.8802 O   0  0  0  0  0  0  0  0  0  0  0  0
   -4.8767    3.6769   -7.3395 C   0  0  2  0  0  0  0  0  0  0  0  0
   -4.4350    3.7339   -8.6912 O   0  0  0  0  0  0  0  0  0  0  0  0
   -3.6924    3.2657   -6.4057 C   0  0  2  0  0  0  0  0  0  0  0  0
   -3.9303    1.9326   -5.8478 O   0  0  0  0  0  0  0  0  0  0  0  0
   -3.4663    4.2102   -5.2027 C   0  0  0  0  0  0  0  0  0  0  0  0
   -3.1413   -3.3460   -3.8640 C   0  0  1  0  0  0  0  0  0  0  0  0
   -2.0631   -4.3077   -3.5433 N   0  3  0  0  0  0  0  0  0  0  0  0
   -3.4014   -2.3693   -2.6873 C   0  0  1  0  0  0  0  0  0  0  0  0
   -4.4284   -1.2327   -3.0243 C   0  0  1  0  0  0  0  0  0  0  0  0
   -4.3403   -0.2193   -1.9869 O   0  0  0  0  0  0  0  0  0  0  0  0
   -4.1472   -0.5274   -4.4018 C   0  0  1  0  0  0  0  0  0  0  0  0
   -3.8642   -1.5591   -5.5413 C   0  0  1  0  0  0  0  0  0  0  0  0
   -3.4544   -0.8991   -6.7977 N   0  3  0  0  0  0  0  0  0  0  0  0
   -2.7643   -2.5685   -5.1422 C   0  0  0  0  0  0  0  0  0  0  0  0
   -5.4483    0.7061   -1.7906 C   0  0  1  0  0  0  0  0  0  0  0  0
   -5.9831    0.5295   -0.3744 C   0  0  1  0  0  0  0  0  0  0  0  0
   -4.9595    1.3480    0.4007 C   0  0  1  0  0  0  0  0  0  0  0  0
   -4.7681    2.5598   -0.5224 C   0  0  2  0  0  0  0  0  0  0  0  0
   -4.9759    2.0612   -1.8655 O   0  0  0  0  0  0  0  0  0  0  0  0
   -3.3702    3.1931   -0.4026 C   0  0  0  0  0  0  0  0  0  0  0  0
   -5.7600    4.8827    3.8925 C   0  0  1  0  0  0  0  0  0  0  0  0
   -6.1335    3.4421    4.3403 C   0  0  1  0  0  0  0  0  0  0  0  0
   -5.0222    2.3860    4.0743 C   0  0  2  0  0  0  0  0  0  0  0  0
   -4.5396    2.4361    2.5889 C   0  0  1  0  0  0  0  0  0  0  0  0
   -5.4664    1.7386    1.7093 O   0  0  0  0  0  0  0  0  0  0  0  0
   -4.3951    4.8929    3.1394 C   0  0  1  0  0  0  0  0  0  0  0  0
   -4.3860    3.8347    2.1262 O   0  0  0  0  0  0  0  0  0  0  0  0
   -4.1046    6.2550    2.4580 C   0  0  0  0  0  0  0  0  0  0  0  0
   -2.3064    3.8612   -4.3636 N   0  3  0  0  0  0  0  0  0  0  0  0
   -7.2895    1.0974   -0.2770 O   0  0  0  0  0  0  0  0  0  0  0  0
   -6.4141    3.4647    5.7393 O   0  0  0  0  0  0  0  0  0  0  0  0
   -6.7967    5.3740    3.0400 O   0  0  0  0  0  0  0  0  0  0  0  0
   -3.1966    4.2201   -1.3638 O   0  0  0  0  0  0  0  0  0  0  0  0
   -3.8954   -3.1135   -1.5740 O   0  0  0  0  0  0  0  0  0  0  0  0
   -4.0875    7.3806    3.4102 N   0  3  0  0  0  0  0  0  0  0  0  0
   -5.4545    1.0283    4.4889 N   0  3  0  0  0  0  0  0  0  0  0  0
  1  2  1  6  0  0  0
  1  3  1  0  0  0  0
  1 10  1  0  0  0  0
  3  4  1  6  0  0  0
  3  5  1  0  0  0  0
  5  6  1  1  0  0  0
  5  7  1  0  0  0  0
  7  8  1  6  0  0  0
  7  9  1  0  0  0  0
  9 10  1  0  0  0  0
  9 11  1  1  0  0  0
 11 35  1  0  0  0  0
 12 13  1  1  0  0  0
 12 14  1  0  0  0  0
 12 20  1  0  0  0  0
 14 15  1  0  0  0  0
 14 40  1  1  0  0  0
 15 16  1  1  0  0  0
 15 17  1  0  0  0  0
 17  2  1  6  0  0  0
 17 18  1  0  0  0  0
 18 19  1  6  0  0  0
 18 20  1  0  0  0  0
 21 16  1  1  0  0  0
 21 22  1  0  0  0  0
 21 25  1  0  0  0  0
 22 23  1  0  0  0  0
 22 36  1  6  0  0  0
 23 24  1  0  0  0  0
 23 31  1  1  0  0  0
 24 25  1  0  0  0  0
 24 26  1  6  0  0  0
 26 39  1  0  0  0  0
 27 28  1  0  0  0  0
 27 32  1  0  0  0  0
 27 38  1  6  0  0  0
 28 29  1  0  0  0  0
 28 37  1  1  0  0  0
 29 30  1  0  0  0  0
 29 42  1  6  0  0  0
 30 31  1  6  0  0  0
 30 33  1  0  0  0  0
 32 33  1  0  0  0  0
 32 34  1  6  0  0  0
 34 41  1  0  0  0  0
M  CHG  6   4   1  13   1  19   1  35   1  41   1  42   1
M  END
>  <CHROM.1>
166.98534240,122.66007583,-45.78928097,179.60423495,179.01897422,-176.95848923
-33.06957188,-145.72248799,77.41864988,-159.73908258,119.35895290,131.74503163
173.70903250,175.28611822,174.23210578,176.62826687,-58.71743808,-165.45147718
32.01111494,-161.58810359,58.43986585,62.91748511,-4.72803624,1.80316573
-1.85073759,1.02647438,1.40327670,-1.36965160

>  <Name>


>  <RI>
0

>  <Rbt.Current_Directory>
/home/itssahil/PROJECTS/Mol_Feturizer/New_Systems/rnas/1ei2

>  <Rbt.Executable>
rbdock ($Id: //depot/dev/client3/rdock/2013.1/src/exe/rbdock.cxx#4 $)

>  <Rbt.Library>
libRbt.so (2013.1, Build901 2013/11/27)

>  <Rbt.Parameter_File>
/export/apps/rDock/src/rDock_2013.1_src/data/scripts/dock_solv.prm

>  <Rbt.Receptor>
prm/pocket_docking_7.prm

>  <SCORE>
-52.813

>  <SCORE.INTER>
-33.0761

>  <SCORE.INTER.CONST>
1

>  <SCORE.INTER.POLAR>
-4.69616

>  <SCORE.INTER.ROT>
9

>  <SCORE.INTER.SOLV>
31.2413

>  <SCORE.INTER.VDW>
-26.4106

>  <SCORE.INTER.norm>
-0.787527

>  <SCORE.INTRA>
-19.7369

>  <SCORE.INTRA.DIHEDRAL>
-9.56336

>  <SCORE.INTRA.DIHEDRAL.0>
40.8761

>  <SCORE.INTRA.POLAR>
-2.23053

>  <SCORE.INTRA.POLAR.0>
-0.0268208

>  <SCORE.INTRA.REPUL>
-0.641615

>  <SCORE.INTRA.REPUL.0>
0.641615

>  <SCORE.INTRA.SOLV>
-9.00524

>  <SCORE.INTRA.SOLV.lig_0>
-162.567

>  <SCORE.INTRA.VDW>
0.33926

>  <SCORE.INTRA.VDW.0>
-4.80338

>  <SCORE.INTRA.norm>
-0.469926

>  <SCORE.RESTR>
0

>  <SCORE.RESTR.CAVITY>
0

>  <SCORE.RESTR.norm>
0

>  <SCORE.SYSTEM>
0

>  <SCORE.SYSTEM.CONST>
0

>  <SCORE.SYSTEM.DIHEDRAL>
0

>  <SCORE.SYSTEM.SOLV>
0

>  <SCORE.SYSTEM.norm>
0

>  <SCORE.heavy>
42

>  <SCORE.norm>
-1.25745

>  <RMSD>
8.068

$$$$

 OpenBabel11021811393D
libRbt.so/2013.1/901 2013/11/27
 42 45  0  0  0  0  0  0  0  0999 V2000
   -6.7867    1.4199   -2.1137 C   0  0  2  0  0  0  0  0  0  0  0  0
   -7.0754    2.3208   -1.0007 O   0  0  0  0  0  0  0  0  0  0  0  0
   -7.7265    0.1707   -2.1019 C   0  0  2  0  0  0  0  0  0  0  0  0
   -8.8879    0.3686   -1.2047 N   0  3  0  0  0  0  0  0  0  0  0  0
   -6.9350   -1.1095   -1.6973 C   0  0  1  0  0  0  0  0  0  0  0  0
   -7.7999   -2.2433   -1.7000 O   0  0  0  0  0  0  0  0  0  0  0  0
   -5.7553   -1.3882   -2.6668 C   0  0  2  0  0  0  0  0  0  0  0  0
   -4.9126   -2.3787   -2.0883 O   0  0  0  0  0  0  0  0  0  0  0  0
   -4.9359   -0.0878   -2.9518 C   0  0  2  0  0  0  0  0  0  0  0  0
   -5.3822    0.9924   -2.0691 O   0  0  0  0  0  0  0  0  0  0  0  0
   -5.0631    0.4467   -4.3969 C   0  0  0  0  0  0  0  0  0  0  0  0
   -3.9618    5.1436   -1.9793 C   0  0  1  0  0  0  0  0  0  0  0  0
   -3.0757    6.3290   -1.9841 N   0  3  0  0  0  0  0  0  0  0  0  0
   -3.7343    4.2680   -0.7192 C   0  0  1  0  0  0  0  0  0  0  0  0
   -4.7485    3.0792   -0.5839 C   0  0  1  0  0  0  0  0  0  0  0  0
   -4.6470    2.5476    0.7645 O   0  0  0  0  0  0  0  0  0  0  0  0
   -6.2444    3.5074   -0.8138 C   0  0  1  0  0  0  0  0  0  0  0  0
   -6.4075    4.4104   -2.0792 C   0  0  1  0  0  0  0  0  0  0  0  0
   -7.7819    4.9347   -2.2129 N   0  3  0  0  0  0  0  0  0  0  0  0
   -5.4310    5.6078   -2.0602 C   0  0  0  0  0  0  0  0  0  0  0  0
   -3.6812    1.4950    1.0509 C   0  0  1  0  0  0  0  0  0  0  0  0
   -2.4148    2.1362    1.6059 C   0  0  1  0  0  0  0  0  0  0  0  0
   -2.8386    2.3543    3.0520 C   0  0  1  0  0  0  0  0  0  0  0  0
   -3.5936    1.0519    3.3538 C   0  0  2  0  0  0  0  0  0  0  0  0
   -4.1791    0.6421    2.0949 O   0  0  0  0  0  0  0  0  0  0  0  0
   -4.6924    1.2256    4.4176 C   0  0  0  0  0  0  0  0  0  0  0  0
   -0.3317    3.2307    7.4494 C   0  0  1  0  0  0  0  0  0  0  0  0
    0.4792    3.3747    6.1314 C   0  0  1  0  0  0  0  0  0  0  0  0
   -0.2329    4.2205    5.0366 C   0  0  2  0  0  0  0  0  0  0  0  0
   -1.6863    3.7060    4.7822 C   0  0  1  0  0  0  0  0  0  0  0  0
   -1.6869    2.5281    3.9269 O   0  0  0  0  0  0  0  0  0  0  0  0
   -1.7507    3.8583    7.2987 C   0  0  1  0  0  0  0  0  0  0  0  0
   -2.3676    3.3840    6.0573 O   0  0  0  0  0  0  0  0  0  0  0  0
   -2.6790    3.5180    8.4930 C   0  0  0  0  0  0  0  0  0  0  0  0
   -4.4450   -0.4134   -5.4214 N   0  3  0  0  0  0  0  0  0  0  0  0
   -1.3268    1.2164    1.5123 O   0  0  0  0  0  0  0  0  0  0  0  0
    1.7304    3.9886    6.4382 O   0  0  0  0  0  0  0  0  0  0  0  0
   -0.4389    1.8407    7.7644 O   0  0  0  0  0  0  0  0  0  0  0  0
   -5.7832    1.9685    3.9009 O   0  0  0  0  0  0  0  0  0  0  0  0
   -2.4112    3.7344   -0.7643 O   0  0  0  0  0  0  0  0  0  0  0  0
   -3.0413    2.0898    8.5489 N   0  3  0  0  0  0  0  0  0  0  0  0
    0.5747    4.2881    3.7934 N   0  3  0  0  0  0  0  0  0  0  0  0
  1  2  1  1  0  0  0
  1  3  1  0  0  0  0
  1 10  1  0  0  0  0
  3  4  1  1  0  0  0
  3  5  1  0  0  0  0
  5  6  1  6  0  0  0
  5  7  1  0  0  0  0
  7  8  1  1  0  0  0
  7  9  1  0  0  0  0
  9 10  1  0  0  0  0
  9 11  1  6  0  0  0
 11 35  1  0  0  0  0
 12 13  1  1  0  0  0
 12 14  1  0  0  0  0
 12 20  1  0  0  0  0
 14 15  1  0  0  0  0
 14 40  1  6  0  0  0
 15 16  1  1  0  0  0
 15 17  1  0  0  0  0
 17  2  1  6  0  0  0
 17 18  1  0  0  0  0
 18 19  1  1  0  0  0
 18 20  1  0  0  0  0
 21 16  1  1  0  0  0
 21 22  1  0  0  0  0
 21 25  1  0  0  0  0
 22 23  1  0  0  0  0
 22 36  1  1  0  0  0
 23 24  1  0  0  0  0
 23 31  1  1  0  0  0
 24 25  1  0  0  0  0
 24 26  1  1  0  0  0
 26 39  1  0  0  0  0
 27 28  1  0  0  0  0
 27 32  1  0  0  0  0
 27 38  1  6  0  0  0
 28 29  1  0  0  0  0
 28 37  1  1  0  0  0
 29 30  1  0  0  0  0
 29 42  1  6  0  0  0
 30 31  1  6  0  0  0
 30 33  1  0  0  0  0
 32 33  1  0  0  0  0
 32 34  1  1  0  0  0
 34 41  1  0  0  0  0
M  CHG  6   4   1  13   1  19   1  35   1  41   1  42   1
M  END
>  <CHROM.1>
176.77008725,-60.16288839,-157.38557161,56.29247581,55.51423425,-67.98489413
-55.09987167,95.39327929,-62.64043922,-88.74467031,95.90917627,55.64833533
68.26071178,127.74919055,71.18935560,147.68644579,-53.67385266,66.18324133
-178.80483999,-148.45135321,-68.02234861,178.05171421,-3.90223547,2.20502130
1.30937874,2.54865212,-0.93948293,-0.93161134

>  <Name>


>  <RI>
0

>  <Rbt.Current_Directory>
/home/itssahil/PROJECTS/Mol_Feturizer/New_Systems/rnas/1ei2

>  <Rbt.Executable>
rbdock ($Id: //depot/dev/client3/rdock/2013.1/src/exe/rbdock.cxx#4 $)

>  <Rbt.Library>
libRbt.so (2013.1, Build901 2013/11/27)

>  <Rbt.Parameter_File>
/export/apps/rDock/src/rDock_2013.1_src/data/scripts/dock_solv.prm

>  <Rbt.Receptor>
prm/pocket_docking_8.prm

>  <SCORE>
-49.7233

>  <SCORE.INTER>
-35.0232

>  <SCORE.INTER.CONST>
1

>  <SCORE.INTER.POLAR>
-6.26417

>  <SCORE.INTER.ROT>
9

>  <SCORE.INTER.SOLV>
29.933

>  <SCORE.INTER.VDW>
-22.0459

>  <SCORE.INTER.norm>
-0.833885

>  <SCORE.INTRA>
-14.7001

>  <SCORE.INTRA.DIHEDRAL>
-11.8719

>  <SCORE.INTRA.DIHEDRAL.0>
40.8761

>  <SCORE.INTRA.POLAR>
-0.607573

>  <SCORE.INTRA.POLAR.0>
-0.0268208

>  <SCORE.INTRA.REPUL>
-0.351505

>  <SCORE.INTRA.REPUL.0>
0.641615

>  <SCORE.INTRA.SOLV>
-10.1987

>  <SCORE.INTRA.SOLV.lig_0>
-162.567

>  <SCORE.INTRA.VDW>
0.15847

>  <SCORE.INTRA.VDW.0>
-4.80338

>  <SCORE.INTRA.norm>
-0.350002

>  <SCORE.RESTR>
0

>  <SCORE.RESTR.CAVITY>
0

>  <SCORE.RESTR.norm>
0

>  <SCORE.SYSTEM>
0

>  <SCORE.SYSTEM.CONST>
0

>  <SCORE.SYSTEM.DIHEDRAL>
0

>  <SCORE.SYSTEM.SOLV>
0

>  <SCORE.SYSTEM.norm>
0

>  <SCORE.heavy>
42

>  <SCORE.norm>
-1.18389

>  <RMSD>
8.074

$$$$

 OpenBabel11021811393D
libRbt.so/2013.1/901 2013/11/27
 42 45  0  0  0  0  0  0  0  0999 V2000
   -3.3208    0.2540   -6.8380 C   0  0  2  0  0  0  0  0  0  0  0  0
   -2.3219    0.0238   -5.7974 O   0  0  0  0  0  0  0  0  0  0  0  0
   -3.5600    1.7800   -7.0789 C   0  0  2  0  0  0  0  0  0  0  0  0
   -2.4910    2.6040   -6.4696 N   0  3  0  0  0  0  0  0  0  0  0  0
   -4.9570    2.2100   -6.5382 C   0  0  1  0  0  0  0  0  0  0  0  0
   -5.1679    3.6007   -6.7726 O   0  0  0  0  0  0  0  0  0  0  0  0
   -6.1065    1.4168   -7.2157 C   0  0  2  0  0  0  0  0  0  0  0  0
   -7.3078    1.6400   -6.4859 O   0  0  0  0  0  0  0  0  0  0  0  0
   -5.7870   -0.1125   -7.2670 C   0  0  2  0  0  0  0  0  0  0  0  0
   -4.5853   -0.4026   -6.4816 O   0  0  0  0  0  0  0  0  0  0  0  0
   -5.5267   -0.6662   -8.6868 C   0  0  0  0  0  0  0  0  0  0  0  0
   -2.4062   -4.2851   -6.0114 C   0  0  1  0  0  0  0  0  0  0  0  0
   -2.1893   -5.7214   -5.7279 N   0  3  0  0  0  0  0  0  0  0  0  0
   -3.3162   -3.6250   -4.9425 C   0  0  1  0  0  0  0  0  0  0  0  0
   -3.4596   -2.0718   -5.1063 C   0  0  1  0  0  0  0  0  0  0  0  0
   -4.0476   -1.5396   -3.8890 O   0  0  0  0  0  0  0  0  0  0  0  0
   -2.0855   -1.3394   -5.3291 C   0  0  1  0  0  0  0  0  0  0  0  0
   -1.2009   -2.0649   -6.3941 C   0  0  1  0  0  0  0  0  0  0  0  0
    0.1458   -1.4668   -6.4966 N   0  3  0  0  0  0  0  0  0  0  0  0
   -1.0411   -3.5694   -6.0797 C   0  0  0  0  0  0  0  0  0  0  0  0
   -4.2771   -2.4252   -2.7551 C   0  0  1  0  0  0  0  0  0  0  0  0
   -3.8086   -1.7215   -1.4869 C   0  0  1  0  0  0  0  0  0  0  0  0
   -5.0077   -0.8207   -1.2240 C   0  0  1  0  0  0  0  0  0  0  0  0
   -6.1781   -1.7588   -1.5514 C   0  0  2  0  0  0  0  0  0  0  0  0
   -5.6863   -2.6478   -2.5826 O   0  0  0  0  0  0  0  0  0  0  0  0
   -7.4283   -1.0108   -2.0485 C   0  0  0  0  0  0  0  0  0  0  0  0
   -3.6091    2.4226   -2.0472 C   0  0  1  0  0  0  0  0  0  0  0  0
   -5.0942    2.3035   -1.6048 C   0  0  1  0  0  0  0  0  0  0  0  0
   -5.2866    2.0988   -0.0744 C   0  0  2  0  0  0  0  0  0  0  0  0
   -4.4174    0.9108    0.4500 C   0  0  1  0  0  0  0  0  0  0  0  0
   -5.0454   -0.3703    0.1608 O   0  0  0  0  0  0  0  0  0  0  0  0
   -2.6501    2.1574   -0.8471 C   0  0  1  0  0  0  0  0  0  0  0  0
   -3.0632    0.9372   -0.1493 O   0  0  0  0  0  0  0  0  0  0  0  0
   -1.1711    2.0165   -1.2906 C   0  0  0  0  0  0  0  0  0  0  0  0
   -5.2897   -2.1195   -8.7401 N   0  3  0  0  0  0  0  0  0  0  0  0
   -3.6326   -2.6773   -0.4410 O   0  0  0  0  0  0  0  0  0  0  0  0
   -5.7761    3.4953   -1.9935 O   0  0  0  0  0  0  0  0  0  0  0  0
   -3.3701    1.4724   -3.0879 O   0  0  0  0  0  0  0  0  0  0  0  0
   -7.1328   -0.2448   -3.2038 O   0  0  0  0  0  0  0  0  0  0  0  0
   -4.6147   -4.2126   -5.0195 O   0  0  0  0  0  0  0  0  0  0  0  0
   -0.3072    1.4546   -0.2361 N   0  3  0  0  0  0  0  0  0  0  0  0
   -6.7213    1.9553    0.2770 N   0  3  0  0  0  0  0  0  0  0  0  0
  1  2  1  1  0  0  0
  1  3  1  0  0  0  0
  1 10  1  0  0  0  0
  3  4  1  1  0  0  0
  3  5  1  0  0  0  0
  5  6  1  6  0  0  0
  5  7  1  0  0  0  0
  7  8  1  1  0  0  0
  7  9  1  0  0  0  0
  9 10  1  0  0  0  0
  9 11  1  6  0  0  0
 11 35  1  0  0  0  0
 12 13  1  1  0  0  0
 12 14  1  0  0  0  0
 12 20  1  0  0  0  0
 14 15  1  0  0  0  0
 14 40  1  6  0  0  0
 15 16  1  1  0  0  0
 15 17  1  0  0  0  0
 17  2  1  6  0  0  0
 17 18  1  0  0  0  0
 18 19  1  1  0  0  0
 18 20  1  0  0  0  0
 21 16  1  6  0  0  0
 21 22  1  0  0  0  0
 21 25  1  0  0  0  0
 22 23  1  0  0  0  0
 22 36  1  1  0  0  0
 23 24  1  0  0  0  0
 23 31  1  1  0  0  0
 24 25  1  0  0  0  0
 24 26  1  6  0  0  0
 26 39  1  0  0  0  0
 27 28  1  0  0  0  0
 27 32  1  0  0  0  0
 27 38  1  6  0  0  0
 28 29  1  0  0  0  0
 28 37  1  1  0  0  0
 29 30  1  0  0  0  0
 29 42  1  6  0  0  0
 30 31  1  6  0  0  0
 30 33  1  0  0  0  0
 32 33  1  0  0  0  0
 32 34  1  6  0  0  0
 34 41  1  0  0  0  0
M  CHG  6   4   1  13   1  19   1  35   1  41   1  42   1
M  END
>  <CHROM.1>
172.85552706,-44.38297950,-148.54119317,68.11235343,67.52228031,-177.20800935
38.00628755,55.94620732,-159.57735965,5.33937665,135.16707237,-96.59824082
67.09418445,93.44982262,58.06690299,5.86185530,-56.19125330,171.78278142
-55.63348859,73.77540737,-166.31795841,-171.15589663,-4.05991782,-0.28316964
-3.93141278,1.17399423,1.14729607,-1.65644959

>  <Name>


>  <RI>
0

>  <Rbt.Current_Directory>
/home/itssahil/PROJECTS/Mol_Feturizer/New_Systems/rnas/1ei2

>  <Rbt.Executable>
rbdock ($Id: //depot/dev/client3/rdock/2013.1/src/exe/rbdock.cxx#4 $)

>  <Rbt.Library>
libRbt.so (2013.1, Build901 2013/11/27)

>  <Rbt.Parameter_File>
/export/apps/rDock/src/rDock_2013.1_src/data/scripts/dock_solv.prm

>  <Rbt.Receptor>
prm/blind_docking_20.prm

>  <SCORE>
-11.9488

>  <SCORE.INTER>
-34.6333

>  <SCORE.INTER.CONST>
1

>  <SCORE.INTER.POLAR>
-8.76063

>  <SCORE.INTER.ROT>
9

>  <SCORE.INTER.SOLV>
53.4557

>  <SCORE.INTER.VDW>
-21.3053

>  <SCORE.INTER.norm>
-0.824603

>  <SCORE.INTRA>
-5.90739

>  <SCORE.INTRA.DIHEDRAL>
-4.1891

>  <SCORE.INTRA.DIHEDRAL.0>
40.8761

>  <SCORE.INTRA.POLAR>
-0.935787

>  <SCORE.INTRA.POLAR.0>
-0.0268208

>  <SCORE.INTRA.REPUL>
-0.276792

>  <SCORE.INTRA.REPUL.0>
0.641615

>  <SCORE.INTRA.SOLV>
-8.59535

>  <SCORE.INTRA.SOLV.lig_0>
-162.567

>  <SCORE.INTRA.VDW>
5.05047

>  <SCORE.INTRA.VDW.0>
-4.80338

>  <SCORE.INTRA.norm>
-0.140652

>  <SCORE.RESTR>
28.5919

>  <SCORE.RESTR.CAVITY>
28.5919

>  <SCORE.RESTR.norm>
0.680759

>  <SCORE.SYSTEM>
0

>  <SCORE.SYSTEM.CONST>
0

>  <SCORE.SYSTEM.DIHEDRAL>
0

>  <SCORE.SYSTEM.SOLV>
0

>  <SCORE.SYSTEM.norm>
0

>  <SCORE.heavy>
42

>  <SCORE.norm>
-0.284496

>  <RMSD>
8.079

$$$$

 OpenBabel11021811393D
libRbt.so/2013.1/901 2013/11/27
 42 45  0  0  0  0  0  0  0  0999 V2000
   -5.1176    0.1864   -7.6806 C   0  0  2  0  0  0  0  0  0  0  0  0
   -4.1849    0.3715   -6.5717 O   0  0  0  0  0  0  0  0  0  0  0  0
   -5.3549    1.5194   -8.4620 C   0  0  2  0  0  0  0  0  0  0  0  0
   -4.3344    2.5389   -8.1268 N   0  3  0  0  0  0  0  0  0  0  0  0
   -6.7874    2.0694   -8.1893 C   0  0  1  0  0  0  0  0  0  0  0  0
   -6.9956    3.2792   -8.9148 O   0  0  0  0  0  0  0  0  0  0  0  0
   -7.8840    1.0520   -8.6037 C   0  0  2  0  0  0  0  0  0  0  0  0
   -9.1314    1.4820   -8.0700 O   0  0  0  0  0  0  0  0  0  0  0  0
   -7.5480   -0.3852   -8.0891 C   0  0  2  0  0  0  0  0  0  0  0  0
   -6.3961   -0.3403   -7.1856 O   0  0  0  0  0  0  0  0  0  0  0  0
   -7.1928   -1.3982   -9.2018 C   0  0  0  0  0  0  0  0  0  0  0  0
   -3.6480   -3.7614   -5.4532 C   0  0  1  0  0  0  0  0  0  0  0  0
   -3.0525   -5.0451   -5.0199 N   0  3  0  0  0  0  0  0  0  0  0  0
   -3.6736   -2.7269   -4.2976 C   0  0  1  0  0  0  0  0  0  0  0  0
   -4.1553   -1.3003   -4.7366 C   0  0  1  0  0  0  0  0  0  0  0  0
   -3.8293   -0.3644   -3.6741 O   0  0  0  0  0  0  0  0  0  0  0  0
   -3.4617   -0.7859   -6.0514 C   0  0  1  0  0  0  0  0  0  0  0  0
   -3.4401   -1.8789   -7.1684 C   0  0  1  0  0  0  0  0  0  0  0  0
   -2.6603   -1.4511   -8.3478 N   0  3  0  0  0  0  0  0  0  0  0  0
   -2.8521   -3.2128   -6.6558 C   0  0  0  0  0  0  0  0  0  0  0  0
   -4.5345   -0.4478   -2.4019 C   0  0  1  0  0  0  0  0  0  0  0  0
   -3.6406    0.1330   -1.3126 C   0  0  1  0  0  0  0  0  0  0  0  0
   -3.8888    1.6196   -1.5292 C   0  0  1  0  0  0  0  0  0  0  0  0
   -5.4010    1.6464   -1.7933 C   0  0  2  0  0  0  0  0  0  0  0  0
   -5.7056    0.3843   -2.4337 O   0  0  0  0  0  0  0  0  0  0  0  0
   -5.8341    2.8163   -2.6949 C   0  0  0  0  0  0  0  0  0  0  0  0
   -1.1014    4.2632    1.9639 C   0  0  1  0  0  0  0  0  0  0  0  0
   -0.7688    2.9690    1.1703 C   0  0  1  0  0  0  0  0  0  0  0  0
   -1.1232    3.0432   -0.3430 C   0  0  2  0  0  0  0  0  0  0  0  0
   -2.6019    3.5019   -0.5547 C   0  0  1  0  0  0  0  0  0  0  0  0
   -3.5305    2.3992   -0.3520 O   0  0  0  0  0  0  0  0  0  0  0  0
   -1.8573    5.2870    1.0636 C   0  0  1  0  0  0  0  0  0  0  0  0
   -2.9520    4.6101    0.3634 O   0  0  0  0  0  0  0  0  0  0  0  0
   -2.4287    6.4794    1.8733 C   0  0  0  0  0  0  0  0  0  0  0  0
   -8.3235   -1.7714  -10.0698 N   0  3  0  0  0  0  0  0  0  0  0  0
   -4.1024   -0.2934   -0.0305 O   0  0  0  0  0  0  0  0  0  0  0  0
    0.6287    2.7100    1.2979 O   0  0  0  0  0  0  0  0  0  0  0  0
   -1.9074    3.9082    3.0897 O   0  0  0  0  0  0  0  0  0  0  0  0
   -5.4686    4.0593   -2.1204 O   0  0  0  0  0  0  0  0  0  0  0  0
   -4.5441   -3.2057   -3.2726 O   0  0  0  0  0  0  0  0  0  0  0  0
   -1.8030    7.7663    1.5179 N   0  3  0  0  0  0  0  0  0  0  0  0
   -0.8168    1.7664   -1.0345 N   0  3  0  0  0  0  0  0  0  0  0  0
  1  2  1  1  0  0  0
  1  3  1  0  0  0  0
  1 10  1  0  0  0  0
  3  4  1  1  0  0  0
  3  5  1  0  0  0  0
  5  6  1  6  0  0  0
  5  7  1  0  0  0  0
  7  8  1  1  0  0  0
  7  9  1  0  0  0  0
  9 10  1  0  0  0  0
  9 11  1  6  0  0  0
 11 35  1  0  0  0  0
 12 13  1  1  0  0  0
 12 14  1  0  0  0  0
 12 20  1  0  0  0  0
 14 15  1  0  0  0  0
 14 40  1  1  0  0  0
 15 16  1  1  0  0  0
 15 17  1  0  0  0  0
 17  2  1  6  0  0  0
 17 18  1  0  0  0  0
 18 19  1  6  0  0  0
 18 20  1  0  0  0  0
 21 16  1  6  0  0  0
 21 22  1  0  0  0  0
 21 25  1  0  0  0  0
 22 23  1  0  0  0  0
 22 36  1  1  0  0  0
 23 24  1  0  0  0  0
 23 31  1  1  0  0  0
 24 25  1  0  0  0  0
 24 26  1  6  0  0  0
 26 39  1  0  0  0  0
 27 28  1  0  0  0  0
 27 32  1  0  0  0  0
 27 38  1  1  0  0  0
 28 29  1  0  0  0  0
 28 37  1  6  0  0  0
 29 30  1  0  0  0  0
 29 42  1  1  0  0  0
 30 31  1  1  0  0  0
 30 33  1  0  0  0  0
 32 33  1  0  0  0  0
 32 34  1  1  0  0  0
 34 41  1  0  0  0  0
M  CHG  6   4   1  13   1  19   1  35   1  41   1  42   1
M  END
>  <CHROM.1>
-157.37214718,-100.29667108,178.93090645,-63.54319978,172.89969118,-68.95002289
46.02580533,30.76844483,67.85877258,-68.57697422,154.23172455,-41.76870863
174.89242213,126.15598981,-58.60446144,-58.77839078,177.11793372,55.20762422
57.19063174,-91.52390660,114.86900450,-115.21383301,-4.12906317,1.05528323
-3.75276580,2.25705339,0.95276965,-2.64766319

>  <Name>


>  <RI>
0

>  <Rbt.Current_Directory>
/home/itssahil/PROJECTS/Mol_Feturizer/New_Systems/rnas/1ei2

>  <Rbt.Executable>
rbdock ($Id: //depot/dev/client3/rdock/2013.1/src/exe/rbdock.cxx#4 $)

>  <Rbt.Library>
libRbt.so (2013.1, Build901 2013/11/27)

>  <Rbt.Parameter_File>
/export/apps/rDock/src/rDock_2013.1_src/data/scripts/dock_solv.prm

>  <Rbt.Receptor>
prm/pocket_docking_7.prm

>  <SCORE>
-49.8063

>  <SCORE.INTER>
-40.631

>  <SCORE.INTER.CONST>
1

>  <SCORE.INTER.POLAR>
-7.22899

>  <SCORE.INTER.ROT>
9

>  <SCORE.INTER.SOLV>
30.4425

>  <SCORE.INTER.VDW>
-22.7382

>  <SCORE.INTER.norm>
-0.967405

>  <SCORE.INTRA>
-9.36904

>  <SCORE.INTRA.DIHEDRAL>
-5.90434

>  <SCORE.INTRA.DIHEDRAL.0>
40.8761

>  <SCORE.INTRA.POLAR>
0.0268208

>  <SCORE.INTRA.POLAR.0>
-0.0268208

>  <SCORE.INTRA.REPUL>
-0.641615

>  <SCORE.INTRA.REPUL.0>
0.641615

>  <SCORE.INTRA.SOLV>
-10.9774

>  <SCORE.INTRA.SOLV.lig_0>
-162.567

>  <SCORE.INTRA.VDW>
2.18873

>  <SCORE.INTRA.VDW.0>
-4.80338

>  <SCORE.INTRA.norm>
-0.223072

>  <SCORE.RESTR>
0.193751

>  <SCORE.RESTR.CAVITY>
0.193751

>  <SCORE.RESTR.norm>
0.00461311

>  <SCORE.SYSTEM>
0

>  <SCORE.SYSTEM.CONST>
0

>  <SCORE.SYSTEM.DIHEDRAL>
0

>  <SCORE.SYSTEM.SOLV>
0

>  <SCORE.SYSTEM.norm>
0

>  <SCORE.heavy>
42

>  <SCORE.norm>
-1.18586

>  <RMSD>
8.079

$$$$

 OpenBabel11021811393D
libRbt.so/2013.1/901 2013/11/27
 42 45  0  0  0  0  0  0  0  0999 V2000
    1.1393    4.3495    4.9919 C   0  0  2  0  0  0  0  0  0  0  0  0
    1.4184    4.9090    3.6717 O   0  0  0  0  0  0  0  0  0  0  0  0
    2.4518    3.9197    5.7242 C   0  0  2  0  0  0  0  0  0  0  0  0
    3.6529    4.4948    5.0764 N   0  3  0  0  0  0  0  0  0  0  0  0
    2.5592    2.3665    5.7945 C   0  0  1  0  0  0  0  0  0  0  0  0
    3.7545    1.9868    6.4732 O   0  0  0  0  0  0  0  0  0  0  0  0
    1.3503    1.7381    6.5381 C   0  0  2  0  0  0  0  0  0  0  0  0
    1.3580    0.3322    6.3166 O   0  0  0  0  0  0  0  0  0  0  0  0
   -0.0003    2.3509    6.0443 C   0  0  2  0  0  0  0  0  0  0  0  0
    0.2304    3.2017    4.8746 O   0  0  0  0  0  0  0  0  0  0  0  0
   -0.7261    3.2296    7.0889 C   0  0  0  0  0  0  0  0  0  0  0  0
   -2.4890    6.6664    3.1584 C   0  0  1  0  0  0  0  0  0  0  0  0
   -3.6494    7.4027    2.6089 N   0  3  0  0  0  0  0  0  0  0  0  0
   -2.1940    5.3795    2.3440 C   0  0  1  0  0  0  0  0  0  0  0  0
   -0.8853    4.6372    2.7869 C   0  0  1  0  0  0  0  0  0  0  0  0
   -0.5488    3.6616    1.7642 O   0  0  0  0  0  0  0  0  0  0  0  0
    0.3499    5.5971    2.9518 C   0  0  1  0  0  0  0  0  0  0  0  0
   -0.0143    6.8879    3.7544 C   0  0  1  0  0  0  0  0  0  0  0  0
    1.1007    7.8564    3.7824 N   0  3  0  0  0  0  0  0  0  0  0  0
   -1.2576    7.5959    3.1706 C   0  0  0  0  0  0  0  0  0  0  0  0
   -0.6624    2.2400    2.0624 C   0  0  1  0  0  0  0  0  0  0  0  0
   -2.1390    1.8627    2.0728 C   0  0  1  0  0  0  0  0  0  0  0  0
   -2.3896    1.7269    0.5771 C   0  0  1  0  0  0  0  0  0  0  0  0
   -1.1113    1.0151    0.1118 C   0  0  2  0  0  0  0  0  0  0  0  0
   -0.0674    1.4674    1.0068 O   0  0  0  0  0  0  0  0  0  0  0  0
   -0.7376    1.3402   -1.3456 C   0  0  0  0  0  0  0  0  0  0  0  0
   -4.1299   -1.3702   -2.7170 C   0  0  1  0  0  0  0  0  0  0  0  0
   -5.0889   -1.2423   -1.5008 C   0  0  1  0  0  0  0  0  0  0  0  0
   -5.4766    0.2230   -1.1489 C   0  0  2  0  0  0  0  0  0  0  0  0
   -4.2075    1.1218   -0.9970 C   0  0  1  0  0  0  0  0  0  0  0  0
   -3.5810    0.9347    0.3037 O   0  0  0  0  0  0  0  0  0  0  0  0
   -3.6655    0.0349   -3.2072 C   0  0  1  0  0  0  0  0  0  0  0  0
   -3.2192    0.8314   -2.0613 O   0  0  0  0  0  0  0  0  0  0  0  0
   -2.5194   -0.0496   -4.2480 C   0  0  0  0  0  0  0  0  0  0  0  0
   -1.5997    2.4835    8.0115 N   0  3  0  0  0  0  0  0  0  0  0  0
   -2.3144    0.6169    2.7481 O   0  0  0  0  0  0  0  0  0  0  0  0
   -6.2812   -1.9713   -1.7897 O   0  0  0  0  0  0  0  0  0  0  0  0
   -3.0005   -2.1520   -2.3217 O   0  0  0  0  0  0  0  0  0  0  0  0
    0.2133    2.3897   -1.4014 O   0  0  0  0  0  0  0  0  0  0  0  0
   -3.2959    4.4836    2.4870 O   0  0  0  0  0  0  0  0  0  0  0  0
   -2.0969    1.2729   -4.7445 N   0  3  0  0  0  0  0  0  0  0  0  0
   -6.3615    0.2785    0.0411 N   0  3  0  0  0  0  0  0  0  0  0  0
  1  2  1  6  0  0  0
  1  3  1  0  0  0  0
  1 10  1  0  0  0  0
  3  4  1  6  0  0  0
  3  5  1  0  0  0  0
  5  6  1  1  0  0  0
  5  7  1  0  0  0  0
  7  8  1  6  0  0  0
  7  9  1  0  0  0  0
  9 10  1  0  0  0  0
  9 11  1  1  0  0  0
 11 35  1  0  0  0  0
 12 13  1  6  0  0  0
 12 14  1  0  0  0  0
 12 20  1  0  0  0  0
 14 15  1  0  0  0  0
 14 40  1  1  0  0  0
 15 16  1  6  0  0  0
 15 17  1  0  0  0  0
 17  2  1  1  0  0  0
 17 18  1  0  0  0  0
 18 19  1  6  0  0  0
 18 20  1  0  0  0  0
 21 16  1  6  0  0  0
 21 22  1  0  0  0  0
 21 25  1  0  0  0  0
 22 23  1  0  0  0  0
 22 36  1  1  0  0  0
 23 24  1  0  0  0  0
 23 31  1  1  0  0  0
 24 25  1  0  0  0  0
 24 26  1  6  0  0  0
 26 39  1  0  0  0  0
 27 28  1  0  0  0  0
 27 32  1  0  0  0  0
 27 38  1  1  0  0  0
 28 29  1  0  0  0  0
 28 37  1  6  0  0  0
 29 30  1  0  0  0  0
 29 42  1  1  0  0  0
 30 31  1  1  0  0  0
 30 33  1  0  0  0  0
 32 33  1  0  0  0  0
 32 34  1  6  0  0  0
 34 41  1  0  0  0  0
M  CHG  6   4   1  13   1  19   1  35   1  41   1  42   1
M  END
>  <CHROM.1>
-168.30397550,-56.51648705,-52.89718395,66.46417994,65.92633086,-86.14731186
49.07161734,-52.86090054,-54.24376697,-111.32673154,74.52853299,58.44747565
79.06677786,158.29400580,95.85729538,58.10983286,-58.33357001,155.13754401
69.57091507,-179.49041850,178.49093331,-178.96810735,-1.33102855,2.51079745
1.93474865,-0.52218425,0.96452067,-3.06240237

>  <Name>


>  <RI>
0

>  <Rbt.Current_Directory>
/home/itssahil/PROJECTS/Mol_Feturizer/New_Systems/rnas/1ei2

>  <Rbt.Executable>
rbdock ($Id: //depot/dev/client3/rdock/2013.1/src/exe/rbdock.cxx#4 $)

>  <Rbt.Library>
libRbt.so (2013.1, Build901 2013/11/27)

>  <Rbt.Parameter_File>
/export/apps/rDock/src/rDock_2013.1_src/data/scripts/dock_solv.prm

>  <Rbt.Receptor>
prm/pocket_docking_8.prm

>  <SCORE>
-54.0268

>  <SCORE.INTER>
-35.0607

>  <SCORE.INTER.CONST>
1

>  <SCORE.INTER.POLAR>
-5.03372

>  <SCORE.INTER.ROT>
9

>  <SCORE.INTER.SOLV>
24.9205

>  <SCORE.INTER.VDW>
-24.5015

>  <SCORE.INTER.norm>
-0.834778

>  <SCORE.INTRA>
-18.9661

>  <SCORE.INTRA.DIHEDRAL>
-18.389

>  <SCORE.INTRA.DIHEDRAL.0>
40.8761

>  <SCORE.INTRA.POLAR>
0.0242855

>  <SCORE.INTRA.POLAR.0>
-0.0268208

>  <SCORE.INTRA.REPUL>
-0.641615

>  <SCORE.INTRA.REPUL.0>
0.641615

>  <SCORE.INTRA.SOLV>
-12.8264

>  <SCORE.INTRA.SOLV.lig_0>
-162.567

>  <SCORE.INTRA.VDW>
-0.232959

>  <SCORE.INTRA.VDW.0>
-4.80338

>  <SCORE.INTRA.norm>
-0.451575

>  <SCORE.RESTR>
0

>  <SCORE.RESTR.CAVITY>
0

>  <SCORE.RESTR.norm>
0

>  <SCORE.SYSTEM>
0

>  <SCORE.SYSTEM.CONST>
0

>  <SCORE.SYSTEM.DIHEDRAL>
0

>  <SCORE.SYSTEM.SOLV>
0

>  <SCORE.SYSTEM.norm>
0

>  <SCORE.heavy>
42

>  <SCORE.norm>
-1.28635

>  <RMSD>
8.091

$$$$

 OpenBabel11021811393D
libRbt.so/2013.1/901 2013/11/27
 42 45  0  0  0  0  0  0  0  0999 V2000
   -2.4102    3.8387   -0.4342 C   0  0  2  0  0  0  0  0  0  0  0  0
   -2.4017    4.0901   -1.8730 O   0  0  0  0  0  0  0  0  0  0  0  0
   -2.2224    5.1587    0.3821 C   0  0  2  0  0  0  0  0  0  0  0  0
   -2.4353    6.3577   -0.4606 N   0  3  0  0  0  0  0  0  0  0  0  0
   -0.8126    5.1997    1.0452 C   0  0  1  0  0  0  0  0  0  0  0  0
   -0.6570    6.4027    1.7948 O   0  0  0  0  0  0  0  0  0  0  0  0
   -0.5880    3.9942    1.9970 C   0  0  2  0  0  0  0  0  0  0  0  0
    0.7928    3.9307    2.3359 O   0  0  0  0  0  0  0  0  0  0  0  0
   -1.0383    2.6538    1.3307 C   0  0  2  0  0  0  0  0  0  0  0  0
   -1.3588    2.8758   -0.0812 O   0  0  0  0  0  0  0  0  0  0  0  0
   -2.2908    2.0096    1.9682 C   0  0  0  0  0  0  0  0  0  0  0  0
   -3.4891    2.3622   -5.6746 C   0  0  1  0  0  0  0  0  0  0  0  0
   -4.0098    1.4524   -6.7193 N   0  3  0  0  0  0  0  0  0  0  0  0
   -4.6379    2.9919   -4.8440 C   0  0  1  0  0  0  0  0  0  0  0  0
   -4.1424    3.8475   -3.6265 C   0  0  1  0  0  0  0  0  0  0  0  0
   -5.2792    4.1024   -2.7584 O   0  0  0  0  0  0  0  0  0  0  0  0
   -3.0404    3.1268   -2.7660 C   0  0  1  0  0  0  0  0  0  0  0  0
   -1.9264    2.4879   -3.6569 C   0  0  1  0  0  0  0  0  0  0  0  0
   -0.9735    1.6857   -2.8629 N   0  3  0  0  0  0  0  0  0  0  0  0
   -2.5210    1.5835   -4.7598 C   0  0  0  0  0  0  0  0  0  0  0  0
   -5.8154    3.0221   -1.9409 C   0  0  1  0  0  0  0  0  0  0  0  0
   -6.2933    3.6066   -0.6169 C   0  0  1  0  0  0  0  0  0  0  0  0
   -7.6451    4.1624   -1.0438 C   0  0  1  0  0  0  0  0  0  0  0  0
   -8.1618    3.0479   -1.9648 C   0  0  2  0  0  0  0  0  0  0  0  0
   -6.9821    2.4643   -2.5675 O   0  0  0  0  0  0  0  0  0  0  0  0
   -9.1153    3.5636   -3.0576 C   0  0  0  0  0  0  0  0  0  0  0  0
  -10.5759    6.2802    2.7225 C   0  0  1  0  0  0  0  0  0  0  0  0
   -9.1049    6.5951    2.3321 C   0  0  1  0  0  0  0  0  0  0  0  0
   -8.8707    6.7371    0.8004 C   0  0  2  0  0  0  0  0  0  0  0  0
   -9.4358    5.5030    0.0261 C   0  0  1  0  0  0  0  0  0  0  0  0
   -8.5233    4.3711    0.0995 O   0  0  0  0  0  0  0  0  0  0  0  0
  -11.4463    6.0347    1.4527 C   0  0  1  0  0  0  0  0  0  0  0  0
  -10.7576    5.0999    0.5591 O   0  0  0  0  0  0  0  0  0  0  0  0
  -12.8501    5.4730    1.7960 C   0  0  0  0  0  0  0  0  0  0  0  0
   -2.1734    1.7495    3.4138 N   0  3  0  0  0  0  0  0  0  0  0  0
   -6.4371    2.5637    0.3476 O   0  0  0  0  0  0  0  0  0  0  0  0
   -8.7230    7.8154    2.9657 O   0  0  0  0  0  0  0  0  0  0  0  0
  -10.5834    5.1195    3.5567 O   0  0  0  0  0  0  0  0  0  0  0  0
  -10.3851    3.8789   -2.5128 O   0  0  0  0  0  0  0  0  0  0  0  0
   -5.4181    3.8267   -5.6994 O   0  0  0  0  0  0  0  0  0  0  0  0
  -13.7485    5.4216    0.6281 N   0  3  0  0  0  0  0  0  0  0  0  0
   -7.4430    6.9996    0.4926 N   0  3  0  0  0  0  0  0  0  0  0  0
  1  2  1  6  0  0  0
  1  3  1  0  0  0  0
  1 10  1  0  0  0  0
  3  4  1  6  0  0  0
  3  5  1  0  0  0  0
  5  6  1  1  0  0  0
  5  7  1  0  0  0  0
  7  8  1  6  0  0  0
  7  9  1  0  0  0  0
  9 10  1  0  0  0  0
  9 11  1  1  0  0  0
 11 35  1  0  0  0  0
 12 13  1  6  0  0  0
 12 14  1  0  0  0  0
 12 20  1  0  0  0  0
 14 15  1  0  0  0  0
 14 40  1  6  0  0  0
 15 16  1  1  0  0  0
 15 17  1  0  0  0  0
 17  2  1  1  0  0  0
 17 18  1  0  0  0  0
 18 19  1  1  0  0  0
 18 20  1  0  0  0  0
 21 16  1  6  0  0  0
 21 22  1  0  0  0  0
 21 25  1  0  0  0  0
 22 23  1  0  0  0  0
 22 36  1  1  0  0  0
 23 24  1  0  0  0  0
 23 31  1  1  0  0  0
 24 25  1  0  0  0  0
 24 26  1  6  0  0  0
 26 39  1  0  0  0  0
 27 28  1  0  0  0  0
 27 32  1  0  0  0  0
 27 38  1  1  0  0  0
 28 29  1  0  0  0  0
 28 37  1  1  0  0  0
 29 30  1  0  0  0  0
 29 42  1  1  0  0  0
 30 31  1  1  0  0  0
 30 33  1  0  0  0  0
 32 33  1  0  0  0  0
 32 34  1  1  0  0  0
 34 41  1  0  0  0  0
M  CHG  6   4   1  13   1  19   1  35   1  41   1  42   1
M  END
>  <CHROM.1>
-157.31306977,123.09707282,124.34073046,58.44035359,-179.74794744,-56.15547066
66.04888777,58.12196403,-61.63908497,73.17528002,144.88848015,89.19259407
62.97172340,146.06131672,-74.48498463,-167.91707057,64.17302013,63.44291007
85.63286243,-98.36525162,171.64328457,171.59551985,-5.62427105,4.13719793
-0.63869550,-0.32357206,-0.15727777,1.22152599

>  <Name>


>  <RI>
0

>  <Rbt.Current_Directory>
/home/itssahil/PROJECTS/Mol_Feturizer/New_Systems/rnas/1ei2

>  <Rbt.Executable>
rbdock ($Id: //depot/dev/client3/rdock/2013.1/src/exe/rbdock.cxx#4 $)

>  <Rbt.Library>
libRbt.so (2013.1, Build901 2013/11/27)

>  <Rbt.Parameter_File>
/export/apps/rDock/src/rDock_2013.1_src/data/scripts/dock_solv.prm

>  <Rbt.Receptor>
prm/pocket_docking_4.prm

>  <SCORE>
-57.3189

>  <SCORE.INTER>
-39.1735

>  <SCORE.INTER.CONST>
1

>  <SCORE.INTER.POLAR>
-6.87684

>  <SCORE.INTER.ROT>
9

>  <SCORE.INTER.SOLV>
29.9089

>  <SCORE.INTER.VDW>
-22.7625

>  <SCORE.INTER.norm>
-0.932703

>  <SCORE.INTRA>
-18.1454

>  <SCORE.INTRA.DIHEDRAL>
-7.07092

>  <SCORE.INTRA.DIHEDRAL.0>
40.8761

>  <SCORE.INTRA.POLAR>
-1.50685

>  <SCORE.INTRA.POLAR.0>
-0.0268208

>  <SCORE.INTRA.REPUL>
-0.641615

>  <SCORE.INTRA.REPUL.0>
0.641615

>  <SCORE.INTRA.SOLV>
-11.4706

>  <SCORE.INTRA.SOLV.lig_0>
-162.567

>  <SCORE.INTRA.VDW>
-0.543259

>  <SCORE.INTRA.VDW.0>
-4.80338

>  <SCORE.INTRA.norm>
-0.432033

>  <SCORE.RESTR>
0

>  <SCORE.RESTR.CAVITY>
0

>  <SCORE.RESTR.norm>
0

>  <SCORE.SYSTEM>
0

>  <SCORE.SYSTEM.CONST>
0

>  <SCORE.SYSTEM.DIHEDRAL>
0

>  <SCORE.SYSTEM.SOLV>
0

>  <SCORE.SYSTEM.norm>
0

>  <SCORE.heavy>
42

>  <SCORE.norm>
-1.36474

>  <RMSD>
8.098

$$$$

 OpenBabel11021811393D
libRbt.so/2013.1/901 2013/11/27
 42 45  0  0  0  0  0  0  0  0999 V2000
   -4.3807    0.8198   -7.3771 C   0  0  2  0  0  0  0  0  0  0  0  0
   -3.5777    0.9260   -6.1616 O   0  0  0  0  0  0  0  0  0  0  0  0
   -4.7150    2.2267   -7.9711 C   0  0  2  0  0  0  0  0  0  0  0  0
   -3.8629    3.2853   -7.3825 N   0  3  0  0  0  0  0  0  0  0  0  0
   -6.2232    2.5644   -7.7707 C   0  0  1  0  0  0  0  0  0  0  0  0
   -6.5180    3.8447   -8.3252 O   0  0  0  0  0  0  0  0  0  0  0  0
   -7.1440    1.5122   -8.4449 C   0  0  2  0  0  0  0  0  0  0  0  0
   -8.4767    1.7105   -7.9864 O   0  0  0  0  0  0  0  0  0  0  0  0
   -6.6762    0.0568   -8.1185 C   0  0  2  0  0  0  0  0  0  0  0  0
   -5.6211    0.0827   -7.1029 O   0  0  0  0  0  0  0  0  0  0  0  0
   -6.1023   -0.7186   -9.3266 C   0  0  0  0  0  0  0  0  0  0  0  0
   -1.7889   -2.9913   -6.4347 C   0  0  1  0  0  0  0  0  0  0  0  0
   -1.0385   -4.2297   -6.1285 N   0  3  0  0  0  0  0  0  0  0  0  0
   -3.0677   -2.8710   -5.5649 C   0  0  1  0  0  0  0  0  0  0  0  0
   -3.8238   -1.5077   -5.7376 C   0  0  1  0  0  0  0  0  0  0  0  0
   -4.7891   -1.3844   -4.6588 O   0  0  0  0  0  0  0  0  0  0  0  0
   -2.8740   -0.2557   -5.6699 C   0  0  1  0  0  0  0  0  0  0  0  0
   -1.5907   -0.4461   -6.5416 C   0  0  1  0  0  0  0  0  0  0  0  0
   -0.6298    0.6615   -6.3631 N   0  3  0  0  0  0  0  0  0  0  0  0
   -0.8677   -1.7728   -6.2176 C   0  0  0  0  0  0  0  0  0  0  0  0
   -4.4903   -1.9670   -3.3572 C   0  0  1  0  0  0  0  0  0  0  0  0
   -3.2255   -1.3143   -2.8122 C   0  0  1  0  0  0  0  0  0  0  0  0
   -3.8083   -0.0163   -2.2699 C   0  0  1  0  0  0  0  0  0  0  0  0
   -5.1150   -0.5065   -1.6299 C   0  0  2  0  0  0  0  0  0  0  0  0
   -5.5330   -1.6432   -2.4228 O   0  0  0  0  0  0  0  0  0  0  0  0
   -6.2189    0.5661   -1.6179 C   0  0  0  0  0  0  0  0  0  0  0  0
   -2.5365    3.4896    1.2070 C   0  0  1  0  0  0  0  0  0  0  0  0
   -1.3862    2.5641    0.7215 C   0  0  1  0  0  0  0  0  0  0  0  0
   -1.2923    2.4257   -0.8255 C   0  0  2  0  0  0  0  0  0  0  0  0
   -2.6717    2.0258   -1.4413 C   0  0  1  0  0  0  0  0  0  0  0  0
   -2.9233    0.5999   -1.2906 O   0  0  0  0  0  0  0  0  0  0  0  0
   -3.4233    3.9469    0.0093 C   0  0  1  0  0  0  0  0  0  0  0  0
   -3.7761    2.7857   -0.8115 O   0  0  0  0  0  0  0  0  0  0  0  0
   -4.7207    4.6594    0.4708 C   0  0  0  0  0  0  0  0  0  0  0  0
   -7.0877   -1.0234  -10.3789 N   0  3  0  0  0  0  0  0  0  0  0  0
   -2.6784   -2.1191   -1.7674 O   0  0  0  0  0  0  0  0  0  0  0  0
   -0.1513    3.0892    1.2069 O   0  0  0  0  0  0  0  0  0  0  0  0
   -3.3251    2.7697    2.1571 O   0  0  0  0  0  0  0  0  0  0  0  0
   -6.0707    1.4315   -0.5054 O   0  0  0  0  0  0  0  0  0  0  0  0
   -3.9582   -3.9320   -5.9094 O   0  0  0  0  0  0  0  0  0  0  0  0
   -4.4579    5.9126    1.2019 N   0  3  0  0  0  0  0  0  0  0  0  0
   -0.2007    1.5018   -1.2217 N   0  3  0  0  0  0  0  0  0  0  0  0
  1  2  1  1  0  0  0
  1  3  1  0  0  0  0
  1 10  1  0  0  0  0
  3  4  1  1  0  0  0
  3  5  1  0  0  0  0
  5  6  1  6  0  0  0
  5  7  1  0  0  0  0
  7  8  1  1  0  0  0
  7  9  1  0  0  0  0
  9 10  1  0  0  0  0
  9 11  1  6  0  0  0
 11 35  1  0  0  0  0
 12 13  1  1  0  0  0
 12 14  1  0  0  0  0
 12 20  1  0  0  0  0
 14 15  1  0  0  0  0
 14 40  1  6  0  0  0
 15 16  1  1  0  0  0
 15 17  1  0  0  0  0
 17  2  1  6  0  0  0
 17 18  1  0  0  0  0
 18 19  1  1  0  0  0
 18 20  1  0  0  0  0
 21 16  1  6  0  0  0
 21 22  1  0  0  0  0
 21 25  1  0  0  0  0
 22 23  1  0  0  0  0
 22 36  1  1  0  0  0
 23 24  1  0  0  0  0
 23 31  1  1  0  0  0
 24 25  1  0  0  0  0
 24 26  1  6  0  0  0
 26 39  1  0  0  0  0
 27 28  1  0  0  0  0
 27 32  1  0  0  0  0
 27 38  1  1  0  0  0
 28 29  1  0  0  0  0
 28 37  1  6  0  0  0
 29 30  1  0  0  0  0
 29 42  1  1  0  0  0
 30 31  1  1  0  0  0
 30 33  1  0  0  0  0
 32 33  1  0  0  0  0
 32 34  1  1  0  0  0
 34 41  1  0  0  0  0
M  CHG  6   4   1  13   1  19   1  35   1  41   1  42   1
M  END
>  <CHROM.1>
-163.74902706,-44.12492769,-179.49760268,-168.19689199,68.03357534,-66.65542952
61.26335013,71.15784658,69.72504530,32.27037569,60.46559846,-153.39973781
-53.26326140,133.01824058,-83.57287063,61.75264765,175.91010555,167.43895245
-151.89573640,-153.73644032,63.36353878,72.15416881,-3.87964903,0.65699454
-4.04154629,1.96328097,0.85641493,-2.22788263

>  <Name>


>  <RI>
0

>  <Rbt.Current_Directory>
/home/itssahil/PROJECTS/Mol_Feturizer/New_Systems/rnas/1ei2

>  <Rbt.Executable>
rbdock ($Id: //depot/dev/client3/rdock/2013.1/src/exe/rbdock.cxx#4 $)

>  <Rbt.Library>
libRbt.so (2013.1, Build901 2013/11/27)

>  <Rbt.Parameter_File>
/export/apps/rDock/src/rDock_2013.1_src/data/scripts/dock_solv.prm

>  <Rbt.Receptor>
prm/pocket_docking_7.prm

>  <SCORE>
-54.9702

>  <SCORE.INTER>
-37.5666

>  <SCORE.INTER.CONST>
1

>  <SCORE.INTER.POLAR>
-6.55751

>  <SCORE.INTER.ROT>
9

>  <SCORE.INTER.SOLV>
40.7996

>  <SCORE.INTER.VDW>
-26.3859

>  <SCORE.INTER.norm>
-0.894442

>  <SCORE.INTRA>
-17.4716

>  <SCORE.INTRA.DIHEDRAL>
-16.8495

>  <SCORE.INTRA.DIHEDRAL.0>
40.8761

>  <SCORE.INTRA.POLAR>
-1.03897

>  <SCORE.INTRA.POLAR.0>
-0.0268208

>  <SCORE.INTRA.REPUL>
-0.400686

>  <SCORE.INTRA.REPUL.0>
0.641615

>  <SCORE.INTRA.SOLV>
-11.1635

>  <SCORE.INTRA.SOLV.lig_0>
-162.567

>  <SCORE.INTRA.VDW>
2.07087

>  <SCORE.INTRA.VDW.0>
-4.80338

>  <SCORE.INTRA.norm>
-0.41599

>  <SCORE.RESTR>
0.0679121

>  <SCORE.RESTR.CAVITY>
0.0679121

>  <SCORE.RESTR.norm>
0.00161696

>  <SCORE.SYSTEM>
0

>  <SCORE.SYSTEM.CONST>
0

>  <SCORE.SYSTEM.DIHEDRAL>
0

>  <SCORE.SYSTEM.SOLV>
0

>  <SCORE.SYSTEM.norm>
0

>  <SCORE.heavy>
42

>  <SCORE.norm>
-1.30881

>  <RMSD>
8.128

$$$$

 OpenBabel11021811393D
libRbt.so/2013.1/901 2013/11/27
 42 45  0  0  0  0  0  0  0  0999 V2000
   -4.5050    0.6885   -7.3314 C   0  0  2  0  0  0  0  0  0  0  0  0
   -3.8499    0.7737   -6.0286 O   0  0  0  0  0  0  0  0  0  0  0  0
   -5.4475    1.9100   -7.5829 C   0  0  2  0  0  0  0  0  0  0  0  0
   -5.1849    3.0095   -6.6261 N   0  3  0  0  0  0  0  0  0  0  0  0
   -6.9424    1.4741   -7.5179 C   0  0  1  0  0  0  0  0  0  0  0  0
   -7.7917    2.5939   -7.7588 O   0  0  0  0  0  0  0  0  0  0  0  0
   -7.2683    0.3751   -8.5645 C   0  0  2  0  0  0  0  0  0  0  0  0
   -8.5449   -0.1779   -8.2641 O   0  0  0  0  0  0  0  0  0  0  0  0
   -6.1832   -0.7500   -8.5623 C   0  0  2  0  0  0  0  0  0  0  0  0
   -5.2662   -0.5633   -7.4356 O   0  0  0  0  0  0  0  0  0  0  0  0
   -5.3079   -0.7996   -9.8358 C   0  0  0  0  0  0  0  0  0  0  0  0
   -1.9413   -3.0860   -6.3110 C   0  0  1  0  0  0  0  0  0  0  0  0
   -1.1066   -4.2765   -6.0345 N   0  3  0  0  0  0  0  0  0  0  0  0
   -3.1083   -2.9610   -5.2968 C   0  0  1  0  0  0  0  0  0  0  0  0
   -3.9377   -1.6383   -5.4471 C   0  0  1  0  0  0  0  0  0  0  0  0
   -4.7684   -1.4868   -4.2648 O   0  0  0  0  0  0  0  0  0  0  0  0
   -3.0414   -0.3511   -5.5655 C   0  0  1  0  0  0  0  0  0  0  0  0
   -1.8671   -0.5460   -6.5785 C   0  0  1  0  0  0  0  0  0  0  0  0
   -0.9401    0.6040   -6.5806 N   0  3  0  0  0  0  0  0  0  0  0  0
   -1.0537   -1.8245   -6.2761 C   0  0  0  0  0  0  0  0  0  0  0  0
   -4.3928   -2.1648   -3.0311 C   0  0  1  0  0  0  0  0  0  0  0  0
   -3.0907   -1.5586   -2.5213 C   0  0  1  0  0  0  0  0  0  0  0  0
   -3.6272   -0.3020   -1.8493 C   0  0  1  0  0  0  0  0  0  0  0  0
   -4.8949   -0.8332   -1.1651 C   0  0  2  0  0  0  0  0  0  0  0  0
   -5.3716   -1.9069   -2.0110 O   0  0  0  0  0  0  0  0  0  0  0  0
   -5.9869    0.2396   -1.0044 C   0  0  0  0  0  0  0  0  0  0  0  0
   -2.3615    4.0382   -1.3227 C   0  0  1  0  0  0  0  0  0  0  0  0
   -1.9799    3.2484   -0.0398 C   0  0  1  0  0  0  0  0  0  0  0  0
   -1.0482    2.0292   -0.2981 C   0  0  2  0  0  0  0  0  0  0  0  0
   -1.6295    1.1004   -1.4121 C   0  0  1  0  0  0  0  0  0  0  0  0
   -2.6770    0.2372   -0.8859 O   0  0  0  0  0  0  0  0  0  0  0  0
   -1.8262    3.3178   -2.5973 C   0  0  1  0  0  0  0  0  0  0  0  0
   -2.1717    1.8952   -2.5383 O   0  0  0  0  0  0  0  0  0  0  0  0
   -2.3938    3.9275   -3.9050 C   0  0  0  0  0  0  0  0  0  0  0  0
   -6.0594   -1.0239  -11.0833 N   0  3  0  0  0  0  0  0  0  0  0  0
   -2.4854   -2.4402   -1.5752 O   0  0  0  0  0  0  0  0  0  0  0  0
   -1.3224    4.1410    0.8588 O   0  0  0  0  0  0  0  0  0  0  0  0
   -3.7856    4.1466   -1.3797 O   0  0  0  0  0  0  0  0  0  0  0  0
   -6.2407    0.8910   -2.2373 O   0  0  0  0  0  0  0  0  0  0  0  0
   -3.9878   -4.0718   -5.4703 O   0  0  0  0  0  0  0  0  0  0  0  0
   -2.0386    3.1457   -5.1036 N   0  3  0  0  0  0  0  0  0  0  0  0
   -0.7523    1.2975    0.9586 N   0  3  0  0  0  0  0  0  0  0  0  0
  1  2  1  1  0  0  0
  1  3  1  0  0  0  0
  1 10  1  0  0  0  0
  3  4  1  1  0  0  0
  3  5  1  0  0  0  0
  5  6  1  6  0  0  0
  5  7  1  0  0  0  0
  7  8  1  1  0  0  0
  7  9  1  0  0  0  0
  9 10  1  0  0  0  0
  9 11  1  6  0  0  0
 11 35  1  0  0  0  0
 12 13  1  1  0  0  0
 12 14  1  0  0  0  0
 12 20  1  0  0  0  0
 14 15  1  0  0  0  0
 14 40  1  6  0  0  0
 15 16  1  1  0  0  0
 15 17  1  0  0  0  0
 17  2  1  6  0  0  0
 17 18  1  0  0  0  0
 18 19  1  1  0  0  0
 18 20  1  0  0  0  0
 21 16  1  6  0  0  0
 21 22  1  0  0  0  0
 21 25  1  0  0  0  0
 22 23  1  0  0  0  0
 22 36  1  1  0  0  0
 23 24  1  0  0  0  0
 23 31  1  1  0  0  0
 24 25  1  0  0  0  0
 24 26  1  6  0  0  0
 26 39  1  0  0  0  0
 27 28  1  0  0  0  0
 27 32  1  0  0  0  0
 27 38  1  6  0  0  0
 28 29  1  0  0  0  0
 28 37  1  1  0  0  0
 29 30  1  0  0  0  0
 29 42  1  1  0  0  0
 30 31  1  1  0  0  0
 30 33  1  0  0  0  0
 32 33  1  0  0  0  0
 32 34  1  6  0  0  0
 34 41  1  0  0  0  0
M  CHG  6   4   1  13   1  19   1  35   1  41   1  42   1
M  END
>  <CHROM.1>
173.65170456,-60.83187495,52.00974939,64.15044391,175.42451982,-59.76001969
-178.15618380,74.24625784,60.45875721,22.43274835,66.27108354,179.98582609
52.85198365,83.85348527,51.24296604,-177.16908301,-60.83318623,-77.15082264
-176.58138590,157.89359912,-172.35979902,-50.17020240,-3.77830961,0.30237876
-4.46936056,2.39727740,0.99956801,-2.62311335

>  <Name>


>  <RI>
0

>  <Rbt.Current_Directory>
/home/itssahil/PROJECTS/Mol_Feturizer/New_Systems/rnas/1ei2

>  <Rbt.Executable>
rbdock ($Id: //depot/dev/client3/rdock/2013.1/src/exe/rbdock.cxx#4 $)

>  <Rbt.Library>
libRbt.so (2013.1, Build901 2013/11/27)

>  <Rbt.Parameter_File>
/export/apps/rDock/src/rDock_2013.1_src/data/scripts/dock_solv.prm

>  <Rbt.Receptor>
prm/pocket_docking_7.prm

>  <SCORE>
-45.1039

>  <SCORE.INTER>
-26.7195

>  <SCORE.INTER.CONST>
1

>  <SCORE.INTER.POLAR>
-3.23404

>  <SCORE.INTER.ROT>
9

>  <SCORE.INTER.SOLV>
36.6322

>  <SCORE.INTER.VDW>
-28.8436

>  <SCORE.INTER.norm>
-0.636178

>  <SCORE.INTRA>
-18.3844

>  <SCORE.INTRA.DIHEDRAL>
-26.7323

>  <SCORE.INTRA.DIHEDRAL.0>
40.8761

>  <SCORE.INTRA.POLAR>
-1.11175

>  <SCORE.INTRA.POLAR.0>
-0.0268208

>  <SCORE.INTRA.REPUL>
-0.213895

>  <SCORE.INTRA.REPUL.0>
0.641615

>  <SCORE.INTRA.SOLV>
-0.44186

>  <SCORE.INTRA.SOLV.lig_0>
-162.567

>  <SCORE.INTRA.VDW>
0.0520904

>  <SCORE.INTRA.VDW.0>
-4.80338

>  <SCORE.INTRA.norm>
-0.437725

>  <SCORE.RESTR>
0

>  <SCORE.RESTR.CAVITY>
0

>  <SCORE.RESTR.norm>
0

>  <SCORE.SYSTEM>
0

>  <SCORE.SYSTEM.CONST>
0

>  <SCORE.SYSTEM.DIHEDRAL>
0

>  <SCORE.SYSTEM.SOLV>
0

>  <SCORE.SYSTEM.norm>
0

>  <SCORE.heavy>
42

>  <SCORE.norm>
-1.0739

>  <RMSD>
8.133

$$$$

 OpenBabel11021811393D
libRbt.so/2013.1/901 2013/11/27
 42 45  0  0  0  0  0  0  0  0999 V2000
   -4.6442    2.8478   -4.6771 C   0  0  2  0  0  0  0  0  0  0  0  0
   -5.7401    1.9229   -4.3990 O   0  0  0  0  0  0  0  0  0  0  0  0
   -3.7557    2.3479   -5.8623 C   0  0  2  0  0  0  0  0  0  0  0  0
   -4.4244    1.2738   -6.6319 N   0  3  0  0  0  0  0  0  0  0  0  0
   -2.3672    1.8660   -5.3439 C   0  0  1  0  0  0  0  0  0  0  0  0
   -1.5626    1.4223   -6.4343 O   0  0  0  0  0  0  0  0  0  0  0  0
   -1.6066    2.9952   -4.5984 C   0  0  2  0  0  0  0  0  0  0  0  0
   -0.5003    2.4233   -3.9095 O   0  0  0  0  0  0  0  0  0  0  0  0
   -2.5408    3.7377   -3.5888 C   0  0  2  0  0  0  0  0  0  0  0  0
   -3.8205    3.0342   -3.4755 O   0  0  0  0  0  0  0  0  0  0  0  0
   -2.8757    5.1960   -3.9779 C   0  0  0  0  0  0  0  0  0  0  0  0
   -8.4876    0.6580   -1.3214 C   0  0  1  0  0  0  0  0  0  0  0  0
   -9.1450    0.4365   -0.0141 N   0  3  0  0  0  0  0  0  0  0  0  0
   -8.5650    2.1461   -1.7526 C   0  0  1  0  0  0  0  0  0  0  0  0
   -7.7557    2.4695   -3.0566 C   0  0  1  0  0  0  0  0  0  0  0  0
   -7.6357    3.9130   -3.1699 O   0  0  0  0  0  0  0  0  0  0  0  0
   -6.3010    1.8712   -3.0513 C   0  0  1  0  0  0  0  0  0  0  0  0
   -6.2822    0.3806   -2.5816 C   0  0  1  0  0  0  0  0  0  0  0  0
   -4.9066   -0.1367   -2.4334 N   0  3  0  0  0  0  0  0  0  0  0  0
   -7.0189    0.1928   -1.2364 C   0  0  0  0  0  0  0  0  0  0  0  0
   -8.8089    4.7070   -3.5103 C   0  0  1  0  0  0  0  0  0  0  0  0
   -9.2951    5.4181   -2.2530 C   0  0  1  0  0  0  0  0  0  0  0  0
   -8.3222    6.5887   -2.2162 C   0  0  1  0  0  0  0  0  0  0  0  0
   -8.2490    6.9780   -3.6996 C   0  0  2  0  0  0  0  0  0  0  0  0
   -8.4476    5.7465   -4.4342 O   0  0  0  0  0  0  0  0  0  0  0  0
   -6.9035    7.6163   -4.0889 C   0  0  0  0  0  0  0  0  0  0  0  0
   -7.5678    8.8630    2.0336 C   0  0  1  0  0  0  0  0  0  0  0  0
   -8.6829    9.5545    1.2007 C   0  0  1  0  0  0  0  0  0  0  0  0
   -9.8013    8.5895    0.7118 C   0  0  2  0  0  0  0  0  0  0  0  0
   -9.1964    7.3511   -0.0246 C   0  0  1  0  0  0  0  0  0  0  0  0
   -8.8281    7.6797   -1.3942 O   0  0  0  0  0  0  0  0  0  0  0  0
   -7.7686    7.3172    2.0538 C   0  0  1  0  0  0  0  0  0  0  0  0
   -8.0064    6.8355    0.6907 O   0  0  0  0  0  0  0  0  0  0  0  0
   -6.5505    6.5693    2.6547 C   0  0  0  0  0  0  0  0  0  0  0  0
   -3.4921    5.9883   -2.8993 N   0  3  0  0  0  0  0  0  0  0  0  0
  -10.6399    5.8608   -2.4379 O   0  0  0  0  0  0  0  0  0  0  0  0
   -9.2792   10.5717    2.0046 O   0  0  0  0  0  0  0  0  0  0  0  0
   -6.3028    9.1878    1.4528 O   0  0  0  0  0  0  0  0  0  0  0  0
   -6.9983    9.0304   -4.0961 O   0  0  0  0  0  0  0  0  0  0  0  0
   -9.9332    2.4903   -1.9690 O   0  0  0  0  0  0  0  0  0  0  0  0
   -5.4387    6.4222    1.6976 N   0  3  0  0  0  0  0  0  0  0  0  0
  -10.8128    9.3029   -0.1069 N   0  3  0  0  0  0  0  0  0  0  0  0
  1  2  1  1  0  0  0
  1  3  1  0  0  0  0
  1 10  1  0  0  0  0
  3  4  1  1  0  0  0
  3  5  1  0  0  0  0
  5  6  1  6  0  0  0
  5  7  1  0  0  0  0
  7  8  1  1  0  0  0
  7  9  1  0  0  0  0
  9 10  1  0  0  0  0
  9 11  1  6  0  0  0
 11 35  1  0  0  0  0
 12 13  1  1  0  0  0
 12 14  1  0  0  0  0
 12 20  1  0  0  0  0
 14 15  1  0  0  0  0
 14 40  1  6  0  0  0
 15 16  1  1  0  0  0
 15 17  1  0  0  0  0
 17  2  1  6  0  0  0
 17 18  1  0  0  0  0
 18 19  1  1  0  0  0
 18 20  1  0  0  0  0
 21 16  1  1  0  0  0
 21 22  1  0  0  0  0
 21 25  1  0  0  0  0
 22 23  1  0  0  0  0
 22 36  1  6  0  0  0
 23 24  1  0  0  0  0
 23 31  1  1  0  0  0
 24 25  1  0  0  0  0
 24 26  1  1  0  0  0
 26 39  1  0  0  0  0
 27 28  1  0  0  0  0
 27 32  1  0  0  0  0
 27 38  1  6  0  0  0
 28 29  1  0  0  0  0
 28 37  1  1  0  0  0
 29 30  1  0  0  0  0
 29 42  1  6  0  0  0
 30 31  1  6  0  0  0
 30 33  1  0  0  0  0
 32 33  1  0  0  0  0
 32 34  1  6  0  0  0
 34 41  1  0  0  0  0
M  CHG  6   4   1  13   1  19   1  35   1  41   1  42   1
M  END
>  <CHROM.1>
153.54561615,110.48888050,86.95569577,-175.55882299,175.36053791,-166.84541147
-80.78240237,170.50308082,-65.00450270,-71.45103706,105.17296537,-49.15759113
179.36883464,54.88992568,-97.69954972,-59.64077656,164.95522467,73.36854822
-66.77609447,-176.55621018,-79.49272601,46.06947490,-6.63518187,4.77439074
-2.14378240,-0.94773617,0.45958197,0.33928271

>  <Name>


>  <RI>
0

>  <Rbt.Current_Directory>
/home/itssahil/PROJECTS/Mol_Feturizer/New_Systems/rnas/1ei2

>  <Rbt.Executable>
rbdock ($Id: //depot/dev/client3/rdock/2013.1/src/exe/rbdock.cxx#4 $)

>  <Rbt.Library>
libRbt.so (2013.1, Build901 2013/11/27)

>  <Rbt.Parameter_File>
/export/apps/rDock/src/rDock_2013.1_src/data/scripts/dock_solv.prm

>  <Rbt.Receptor>
prm/pocket_docking_4.prm

>  <SCORE>
-30.2843

>  <SCORE.INTER>
-14.9364

>  <SCORE.INTER.CONST>
1

>  <SCORE.INTER.POLAR>
-1.96903

>  <SCORE.INTER.ROT>
9

>  <SCORE.INTER.SOLV>
21.4327

>  <SCORE.INTER.VDW>
-20.1384

>  <SCORE.INTER.norm>
-0.355629

>  <SCORE.INTRA>
-15.5

>  <SCORE.INTRA.DIHEDRAL>
-12.1962

>  <SCORE.INTRA.DIHEDRAL.0>
40.8761

>  <SCORE.INTRA.POLAR>
-0.362231

>  <SCORE.INTRA.POLAR.0>
-0.0268208

>  <SCORE.INTRA.REPUL>
-0.63049

>  <SCORE.INTRA.REPUL.0>
0.641615

>  <SCORE.INTRA.SOLV>
-9.50518

>  <SCORE.INTRA.SOLV.lig_0>
-162.567

>  <SCORE.INTRA.VDW>
-0.265244

>  <SCORE.INTRA.VDW.0>
-4.80338

>  <SCORE.INTRA.norm>
-0.369047

>  <SCORE.RESTR>
0.152072

>  <SCORE.RESTR.CAVITY>
0.152072

>  <SCORE.RESTR.norm>
0.00362075

>  <SCORE.SYSTEM>
0

>  <SCORE.SYSTEM.CONST>
0

>  <SCORE.SYSTEM.DIHEDRAL>
0

>  <SCORE.SYSTEM.SOLV>
0

>  <SCORE.SYSTEM.norm>
0

>  <SCORE.heavy>
42

>  <SCORE.norm>
-0.721055

>  <RMSD>
8.143

$$$$

 OpenBabel11021811393D
libRbt.so/2013.1/901 2013/11/27
 42 45  0  0  0  0  0  0  0  0999 V2000
   -7.9579   -5.7746    0.4836 C   0  0  2  0  0  0  0  0  0  0  0  0
   -7.7129   -4.7992   -0.5757 O   0  0  0  0  0  0  0  0  0  0  0  0
   -9.1637   -6.7080    0.1392 C   0  0  2  0  0  0  0  0  0  0  0  0
   -9.5315   -6.6203   -1.2927 N   0  3  0  0  0  0  0  0  0  0  0  0
  -10.3913   -6.3762    1.0402 C   0  0  1  0  0  0  0  0  0  0  0  0
  -11.4808   -7.2402    0.7240 O   0  0  0  0  0  0  0  0  0  0  0  0
  -10.0591   -6.5347    2.5482 C   0  0  2  0  0  0  0  0  0  0  0  0
  -11.1070   -5.9470    3.3112 O   0  0  0  0  0  0  0  0  0  0  0  0
   -8.6946   -5.8593    2.9025 C   0  0  2  0  0  0  0  0  0  0  0  0
   -8.2023   -5.0880    1.7588 O   0  0  0  0  0  0  0  0  0  0  0  0
   -7.5684   -6.8484    3.2812 C   0  0  0  0  0  0  0  0  0  0  0  0
   -9.0824   -0.7575   -1.2153 C   0  0  1  0  0  0  0  0  0  0  0  0
   -9.3829    0.6806   -1.0368 N   0  3  0  0  0  0  0  0  0  0  0  0
   -7.5586   -1.0062   -1.3652 C   0  0  1  0  0  0  0  0  0  0  0  0
   -7.1669   -2.5244   -1.4069 C   0  0  1  0  0  0  0  0  0  0  0  0
   -5.7297   -2.6275   -1.2202 O   0  0  0  0  0  0  0  0  0  0  0  0
   -7.8545   -3.3763   -0.2774 C   0  0  1  0  0  0  0  0  0  0  0  0
   -9.3807   -3.0626   -0.1540 C   0  0  1  0  0  0  0  0  0  0  0  0
   -9.9962   -3.7488    1.0002 N   0  3  0  0  0  0  0  0  0  0  0  0
   -9.6462   -1.5466   -0.0153 C   0  0  0  0  0  0  0  0  0  0  0  0
   -4.8867   -3.0270   -2.3393 C   0  0  1  0  0  0  0  0  0  0  0  0
   -5.1091   -2.0498   -3.4875 C   0  0  1  0  0  0  0  0  0  0  0  0
   -4.2242   -0.8976   -3.0316 C   0  0  1  0  0  0  0  0  0  0  0  0
   -2.9966   -1.6445   -2.4908 C   0  0  2  0  0  0  0  0  0  0  0  0
   -3.5010   -2.9015   -1.9799 O   0  0  0  0  0  0  0  0  0  0  0  0
   -2.2660   -0.8743   -1.3762 C   0  0  0  0  0  0  0  0  0  0  0  0
   -2.6271    3.4043   -5.3497 C   0  0  1  0  0  0  0  0  0  0  0  0
   -3.4052    2.3761   -6.2171 C   0  0  1  0  0  0  0  0  0  0  0  0
   -4.7144    1.8519   -5.5595 C   0  0  2  0  0  0  0  0  0  0  0  0
   -4.4471    1.3222   -4.1139 C   0  0  1  0  0  0  0  0  0  0  0  0
   -3.8782   -0.0176   -4.1396 O   0  0  0  0  0  0  0  0  0  0  0  0
   -3.2839    3.5534   -3.9437 C   0  0  1  0  0  0  0  0  0  0  0  0
   -3.5346    2.2261   -3.3762 O   0  0  0  0  0  0  0  0  0  0  0  0
   -2.4045    4.3707   -2.9626 C   0  0  0  0  0  0  0  0  0  0  0  0
   -7.7955   -7.5768    4.5418 N   0  3  0  0  0  0  0  0  0  0  0  0
   -4.6362   -2.6221   -4.7072 O   0  0  0  0  0  0  0  0  0  0  0  0
   -3.7367    2.9954   -7.4593 O   0  0  0  0  0  0  0  0  0  0  0  0
   -1.2770    2.9539   -5.2173 O   0  0  0  0  0  0  0  0  0  0  0  0
   -3.1762   -0.4460   -0.3777 O   0  0  0  0  0  0  0  0  0  0  0  0
   -7.1091   -0.3870   -2.5701 O   0  0  0  0  0  0  0  0  0  0  0  0
   -3.0264    5.6459   -2.5612 N   0  3  0  0  0  0  0  0  0  0  0  0
   -5.3888    0.8482   -6.4198 N   0  3  0  0  0  0  0  0  0  0  0  0
  1  2  1  6  0  0  0
  1  3  1  0  0  0  0
  1 10  1  0  0  0  0
  3  4  1  6  0  0  0
  3  5  1  0  0  0  0
  5  6  1  6  0  0  0
  5  7  1  0  0  0  0
  7  8  1  1  0  0  0
  7  9  1  0  0  0  0
  9 10  1  0  0  0  0
  9 11  1  6  0  0  0
 11 35  1  0  0  0  0
 12 13  1  1  0  0  0
 12 14  1  0  0  0  0
 12 20  1  0  0  0  0
 14 15  1  0  0  0  0
 14 40  1  6  0  0  0
 15 16  1  1  0  0  0
 15 17  1  0  0  0  0
 17  2  1  6  0  0  0
 17 18  1  0  0  0  0
 18 19  1  1  0  0  0
 18 20  1  0  0  0  0
 21 16  1  1  0  0  0
 21 22  1  0  0  0  0
 21 25  1  0  0  0  0
 22 23  1  0  0  0  0
 22 36  1  6  0  0  0
 23 24  1  0  0  0  0
 23 31  1  6  0  0  0
 24 25  1  0  0  0  0
 24 26  1  1  0  0  0
 26 39  1  0  0  0  0
 27 28  1  0  0  0  0
 27 32  1  0  0  0  0
 27 38  1  1  0  0  0
 28 29  1  0  0  0  0
 28 37  1  6  0  0  0
 29 30  1  0  0  0  0
 29 42  1  6  0  0  0
 30 31  1  6  0  0  0
 30 33  1  0  0  0  0
 32 33  1  0  0  0  0
 32 34  1  1  0  0  0
 34 41  1  0  0  0  0
M  CHG  6   4   1  13   1  19   1  35   1  41   1  42   1
M  END
>  <CHROM.1>
117.30947999,164.18286594,-173.02089454,-74.15723513,177.26090865,-66.84658807
-54.70352280,55.37860691,-55.16292549,-109.53602435,57.45338320,2.70264242
55.63683733,111.86091150,50.07506393,-178.81863263,-177.44976941,65.62888802
79.37018862,-147.85622209,114.81016974,-56.62252775,-6.31900339,-1.81683275
-1.58356398,-2.10155013,0.00460979,-0.63885887

>  <Name>


>  <RI>
0

>  <Rbt.Current_Directory>
/home/itssahil/PROJECTS/Mol_Feturizer/New_Systems/rnas/1ei2

>  <Rbt.Executable>
rbdock ($Id: //depot/dev/client3/rdock/2013.1/src/exe/rbdock.cxx#4 $)

>  <Rbt.Library>
libRbt.so (2013.1, Build901 2013/11/27)

>  <Rbt.Parameter_File>
/export/apps/rDock/src/rDock_2013.1_src/data/scripts/dock_solv.prm

>  <Rbt.Receptor>
prm/blind_docking_20.prm

>  <SCORE>
186.682

>  <SCORE.INTER>
172.618

>  <SCORE.INTER.CONST>
1

>  <SCORE.INTER.POLAR>
-3.43801

>  <SCORE.INTER.ROT>
9

>  <SCORE.INTER.SOLV>
53.8061

>  <SCORE.INTER.VDW>
99.0031

>  <SCORE.INTER.norm>
4.10994

>  <SCORE.INTRA>
5.7911

>  <SCORE.INTRA.DIHEDRAL>
-2.57232

>  <SCORE.INTRA.DIHEDRAL.0>
40.8761

>  <SCORE.INTRA.POLAR>
-0.285017

>  <SCORE.INTRA.POLAR.0>
-0.0268208

>  <SCORE.INTRA.REPUL>
-0.49714

>  <SCORE.INTRA.REPUL.0>
0.641615

>  <SCORE.INTRA.SOLV>
-2.54827

>  <SCORE.INTRA.SOLV.lig_0>
-162.567

>  <SCORE.INTRA.VDW>
11.8061

>  <SCORE.INTRA.VDW.0>
-4.80338

>  <SCORE.INTRA.norm>
0.137883

>  <SCORE.RESTR>
8.27324

>  <SCORE.RESTR.CAVITY>
8.27324

>  <SCORE.RESTR.norm>
0.196982

>  <SCORE.SYSTEM>
0

>  <SCORE.SYSTEM.CONST>
0

>  <SCORE.SYSTEM.DIHEDRAL>
0

>  <SCORE.SYSTEM.SOLV>
0

>  <SCORE.SYSTEM.norm>
0

>  <SCORE.heavy>
42

>  <SCORE.norm>
4.44481

>  <RMSD>
8.145

$$$$

 OpenBabel11021811393D
libRbt.so/2013.1/901 2013/11/27
 42 45  0  0  0  0  0  0  0  0999 V2000
   -8.6772   -5.5323    0.3178 C   0  0  2  0  0  0  0  0  0  0  0  0
   -8.7723   -4.5084   -0.7196 O   0  0  0  0  0  0  0  0  0  0  0  0
   -9.6478   -6.7258    0.0395 C   0  0  2  0  0  0  0  0  0  0  0  0
  -10.1541   -6.7058   -1.3520 N   0  3  0  0  0  0  0  0  0  0  0  0
  -10.8323   -6.7194    1.0525 C   0  0  1  0  0  0  0  0  0  0  0  0
  -11.7047   -7.8177    0.7953 O   0  0  0  0  0  0  0  0  0  0  0  0
  -10.3362   -6.8181    2.5200 C   0  0  2  0  0  0  0  0  0  0  0  0
  -11.4214   -6.5174    3.3904 O   0  0  0  0  0  0  0  0  0  0  0  0
   -9.1492   -5.8362    2.7848 C   0  0  2  0  0  0  0  0  0  0  0  0
   -8.9637   -4.9484    1.6347 O   0  0  0  0  0  0  0  0  0  0  0  0
   -7.7877   -6.5268    3.0291 C   0  0  0  0  0  0  0  0  0  0  0  0
   -9.8725   -0.3462   -0.4274 C   0  0  1  0  0  0  0  0  0  0  0  0
   -9.8938    1.0915   -0.0765 N   0  3  0  0  0  0  0  0  0  0  0  0
   -8.6833   -0.6860   -1.3636 C   0  0  1  0  0  0  0  0  0  0  0  0
   -8.5211   -2.2198   -1.6485 C   0  0  1  0  0  0  0  0  0  0  0  0
   -7.2157   -2.4343   -2.2490 O   0  0  0  0  0  0  0  0  0  0  0  0
   -8.5980   -3.1058   -0.3511 C   0  0  1  0  0  0  0  0  0  0  0  0
   -9.7966   -2.6992    0.5659 C   0  0  1  0  0  0  0  0  0  0  0  0
   -9.7834   -3.4271    1.8512 N   0  3  0  0  0  0  0  0  0  0  0  0
   -9.8015   -1.1835    0.8667 C   0  0  0  0  0  0  0  0  0  0  0  0
   -6.0236   -1.9408   -1.5720 C   0  0  1  0  0  0  0  0  0  0  0  0
   -4.7976   -2.3937   -2.3561 C   0  0  1  0  0  0  0  0  0  0  0  0
   -4.7894   -1.3490   -3.4639 C   0  0  1  0  0  0  0  0  0  0  0  0
   -5.1469   -0.0726   -2.6892 C   0  0  2  0  0  0  0  0  0  0  0  0
   -6.0003   -0.5043   -1.6025 O   0  0  0  0  0  0  0  0  0  0  0  0
   -5.8764    0.9717   -3.5532 C   0  0  0  0  0  0  0  0  0  0  0  0
   -1.1003    1.5806   -5.1248 C   0  0  1  0  0  0  0  0  0  0  0  0
   -0.8586    0.0673   -5.3837 C   0  0  1  0  0  0  0  0  0  0  0  0
   -2.0579   -0.6616   -6.0557 C   0  0  2  0  0  0  0  0  0  0  0  0
   -3.3863   -0.4009   -5.2752 C   0  0  1  0  0  0  0  0  0  0  0  0
   -3.4810   -1.2502   -4.0966 O   0  0  0  0  0  0  0  0  0  0  0  0
   -2.5670    1.9758   -5.4752 C   0  0  1  0  0  0  0  0  0  0  0  0
   -3.4924    1.0181   -4.8644 O   0  0  0  0  0  0  0  0  0  0  0  0
   -2.9249    3.4072   -4.9987 C   0  0  0  0  0  0  0  0  0  0  0  0
   -7.8231   -7.9964    2.9283 N   0  3  0  0  0  0  0  0  0  0  0  0
   -3.6346   -2.2940   -1.5340 O   0  0  0  0  0  0  0  0  0  0  0  0
    0.2855   -0.0677   -6.2258 O   0  0  0  0  0  0  0  0  0  0  0  0
   -0.8328    1.8517   -3.7472 O   0  0  0  0  0  0  0  0  0  0  0  0
   -6.8109    0.3486   -4.4175 O   0  0  0  0  0  0  0  0  0  0  0  0
   -8.8704   -0.0097   -2.6066 O   0  0  0  0  0  0  0  0  0  0  0  0
   -3.7607    4.1415   -5.9662 N   0  3  0  0  0  0  0  0  0  0  0  0
   -1.7785   -2.1072   -6.2408 N   0  3  0  0  0  0  0  0  0  0  0  0
  1  2  1  6  0  0  0
  1  3  1  0  0  0  0
  1 10  1  0  0  0  0
  3  4  1  6  0  0  0
  3  5  1  0  0  0  0
  5  6  1  6  0  0  0
  5  7  1  0  0  0  0
  7  8  1  1  0  0  0
  7  9  1  0  0  0  0
  9 10  1  0  0  0  0
  9 11  1  6  0  0  0
 11 35  1  0  0  0  0
 12 13  1  1  0  0  0
 12 14  1  0  0  0  0
 12 20  1  0  0  0  0
 14 15  1  0  0  0  0
 14 40  1  6  0  0  0
 15 16  1  1  0  0  0
 15 17  1  0  0  0  0
 17  2  1  6  0  0  0
 17 18  1  0  0  0  0
 18 19  1  1  0  0  0
 18 20  1  0  0  0  0
 21 16  1  6  0  0  0
 21 22  1  0  0  0  0
 21 25  1  0  0  0  0
 22 23  1  0  0  0  0
 22 36  1  1  0  0  0
 23 24  1  0  0  0  0
 23 31  1  1  0  0  0
 24 25  1  0  0  0  0
 24 26  1  6  0  0  0
 26 39  1  0  0  0  0
 27 28  1  0  0  0  0
 27 32  1  0  0  0  0
 27 38  1  1  0  0  0
 28 29  1  0  0  0  0
 28 37  1  6  0  0  0
 29 30  1  0  0  0  0
 29 42  1  1  0  0  0
 30 31  1  1  0  0  0
 30 33  1  0  0  0  0
 32 33  1  0  0  0  0
 32 34  1  1  0  0  0
 34 41  1  0  0  0  0
M  CHG  6   4   1  13   1  19   1  35   1  41   1  42   1
M  END
>  <CHROM.1>
145.93646988,171.32351914,178.76985921,-63.87655196,-170.12969679,1.91836160
-174.42576759,155.35185600,-55.43370859,54.06798784,175.59872426,-94.08075390
-157.86402847,172.90508329,39.95063016,-174.82879434,61.60394407,-38.44500054
166.41718807,-165.57540847,140.65957712,158.64435119,-6.55590939,-2.12993914
-1.76359802,-2.34594162,0.48246099,-0.34843356

>  <Name>


>  <RI>
0

>  <Rbt.Current_Directory>
/home/itssahil/PROJECTS/Mol_Feturizer/New_Systems/rnas/1ei2

>  <Rbt.Executable>
rbdock ($Id: //depot/dev/client3/rdock/2013.1/src/exe/rbdock.cxx#4 $)

>  <Rbt.Library>
libRbt.so (2013.1, Build901 2013/11/27)

>  <Rbt.Parameter_File>
/export/apps/rDock/src/rDock_2013.1_src/data/scripts/dock_solv.prm

>  <Rbt.Receptor>
prm/blind_docking_40.prm

>  <SCORE>
45.5438

>  <SCORE.INTER>
30.2461

>  <SCORE.INTER.CONST>
1

>  <SCORE.INTER.POLAR>
-8.21316

>  <SCORE.INTER.ROT>
9

>  <SCORE.INTER.SOLV>
64.4137

>  <SCORE.INTER.VDW>
16.47

>  <SCORE.INTER.norm>
0.720145

>  <SCORE.INTRA>
8.85683

>  <SCORE.INTRA.DIHEDRAL>
-13.9106

>  <SCORE.INTRA.DIHEDRAL.0>
40.8761

>  <SCORE.INTRA.POLAR>
-0.117849

>  <SCORE.INTRA.POLAR.0>
-0.0268208

>  <SCORE.INTRA.REPUL>
-0.641615

>  <SCORE.INTRA.REPUL.0>
0.641615

>  <SCORE.INTRA.SOLV>
-2.60447

>  <SCORE.INTRA.SOLV.lig_0>
-162.567

>  <SCORE.INTRA.VDW>
20.7231

>  <SCORE.INTRA.VDW.0>
-4.80338

>  <SCORE.INTRA.norm>
0.210877

>  <SCORE.RESTR>
6.44086

>  <SCORE.RESTR.CAVITY>
6.44086

>  <SCORE.RESTR.norm>
0.153354

>  <SCORE.SYSTEM>
0

>  <SCORE.SYSTEM.CONST>
0

>  <SCORE.SYSTEM.DIHEDRAL>
0

>  <SCORE.SYSTEM.SOLV>
0

>  <SCORE.SYSTEM.norm>
0

>  <SCORE.heavy>
42

>  <SCORE.norm>
1.08438

>  <RMSD>
8.158

$$$$

 OpenBabel11021811393D
libRbt.so/2013.1/901 2013/11/27
 42 45  0  0  0  0  0  0  0  0999 V2000
   -3.8692    2.6380   -3.5993 C   0  0  2  0  0  0  0  0  0  0  0  0
   -4.7749    3.5546   -2.9116 O   0  0  0  0  0  0  0  0  0  0  0  0
   -2.8898    3.4010   -4.5493 C   0  0  2  0  0  0  0  0  0  0  0  0
   -2.8720    4.8540   -4.2638 N   0  3  0  0  0  0  0  0  0  0  0  0
   -3.2569    3.1415   -6.0416 C   0  0  1  0  0  0  0  0  0  0  0  0
   -2.3510    3.8339   -6.8980 O   0  0  0  0  0  0  0  0  0  0  0  0
   -3.2084    1.6303   -6.3927 C   0  0  2  0  0  0  0  0  0  0  0  0
   -3.8250    1.4357   -7.6606 O   0  0  0  0  0  0  0  0  0  0  0  0
   -3.9345    0.7720   -5.3066 C   0  0  2  0  0  0  0  0  0  0  0  0
   -4.6360    1.6438   -4.3615 O   0  0  0  0  0  0  0  0  0  0  0  0
   -2.9969   -0.1230   -4.4638 C   0  0  0  0  0  0  0  0  0  0  0  0
   -5.1249    1.3287    0.7685 C   0  0  1  0  0  0  0  0  0  0  0  0
   -5.5861    0.8305    2.0836 N   0  3  0  0  0  0  0  0  0  0  0  0
   -6.1250    0.9658   -0.3603 C   0  0  1  0  0  0  0  0  0  0  0  0
   -5.7652    1.5962   -1.7507 C   0  0  1  0  0  0  0  0  0  0  0  0
   -6.9197    1.4615   -2.6224 O   0  0  0  0  0  0  0  0  0  0  0  0
   -5.4092    3.1261   -1.6675 C   0  0  1  0  0  0  0  0  0  0  0  0
   -4.4221    3.4351   -0.4957 C   0  0  1  0  0  0  0  0  0  0  0  0
   -4.2036    4.8857   -0.3227 N   0  3  0  0  0  0  0  0  0  0  0  0
   -4.9245    2.8565    0.8463 C   0  0  0  0  0  0  0  0  0  0  0  0
   -8.2440    1.2909   -2.0396 C   0  0  1  0  0  0  0  0  0  0  0  0
   -8.3733    2.2290   -0.8454 C   0  0  1  0  0  0  0  0  0  0  0  0
   -8.6884    3.5336   -1.5646 C   0  0  1  0  0  0  0  0  0  0  0  0
   -9.6577    3.0594   -2.6568 C   0  0  2  0  0  0  0  0  0  0  0  0
   -9.2507    1.7075   -2.9767 O   0  0  0  0  0  0  0  0  0  0  0  0
   -9.6177    3.9378   -3.9201 C   0  0  0  0  0  0  0  0  0  0  0  0
  -11.7907    6.3191    1.6275 C   0  0  1  0  0  0  0  0  0  0  0  0
  -11.6755    6.5247    0.0914 C   0  0  1  0  0  0  0  0  0  0  0  0
  -11.7008    5.2034   -0.7300 C   0  0  2  0  0  0  0  0  0  0  0  0
  -10.6476    4.1829   -0.1904 C   0  0  1  0  0  0  0  0  0  0  0  0
   -9.3106    4.5009   -0.6708 O   0  0  0  0  0  0  0  0  0  0  0  0
  -11.7564    4.8028    1.9882 C   0  0  1  0  0  0  0  0  0  0  0  0
  -10.6412    4.1577    1.2905 O   0  0  0  0  0  0  0  0  0  0  0  0
  -11.6145    4.5594    3.5128 C   0  0  0  0  0  0  0  0  0  0  0  0
   -2.3527   -1.2120   -5.2191 N   0  3  0  0  0  0  0  0  0  0  0  0
   -9.4599    1.8115   -0.0186 O   0  0  0  0  0  0  0  0  0  0  0  0
  -12.7617    7.3461   -0.3350 O   0  0  0  0  0  0  0  0  0  0  0  0
  -10.7030    6.9998    2.2573 O   0  0  0  0  0  0  0  0  0  0  0  0
   -8.3152    3.9612   -4.4784 O   0  0  0  0  0  0  0  0  0  0  0  0
   -6.1628   -0.4542   -0.5007 O   0  0  0  0  0  0  0  0  0  0  0  0
  -12.9080    4.5826    4.2201 N   0  3  0  0  0  0  0  0  0  0  0  0
  -11.5498    5.4655   -2.1829 N   0  3  0  0  0  0  0  0  0  0  0  0
  1  2  1  6  0  0  0
  1  3  1  0  0  0  0
  1 10  1  0  0  0  0
  3  4  1  1  0  0  0
  3  5  1  0  0  0  0
  5  6  1  6  0  0  0
  5  7  1  0  0  0  0
  7  8  1  6  0  0  0
  7  9  1  0  0  0  0
  9 10  1  0  0  0  0
  9 11  1  1  0  0  0
 11 35  1  0  0  0  0
 12 13  1  1  0  0  0
 12 14  1  0  0  0  0
 12 20  1  0  0  0  0
 14 15  1  0  0  0  0
 14 40  1  6  0  0  0
 15 16  1  6  0  0  0
 15 17  1  0  0  0  0
 17  2  1  6  0  0  0
 17 18  1  0  0  0  0
 18 19  1  1  0  0  0
 18 20  1  0  0  0  0
 21 16  1  6  0  0  0
 21 22  1  0  0  0  0
 21 25  1  0  0  0  0
 22 23  1  0  0  0  0
 22 36  1  1  0  0  0
 23 24  1  0  0  0  0
 23 31  1  1  0  0  0
 24 25  1  0  0  0  0
 24 26  1  6  0  0  0
 26 39  1  0  0  0  0
 27 28  1  0  0  0  0
 27 32  1  0  0  0  0
 27 38  1  1  0  0  0
 28 29  1  0  0  0  0
 28 37  1  6  0  0  0
 29 30  1  0  0  0  0
 29 42  1  6  0  0  0
 30 31  1  1  0  0  0
 30 33  1  0  0  0  0
 32 33  1  0  0  0  0
 32 34  1  1  0  0  0
 34 41  1  0  0  0  0
M  CHG  6   4   1  13   1  19   1  35   1  41   1  42   1
M  END
>  <CHROM.1>
-158.08526567,-36.67105493,40.38831260,-57.44270966,71.39258264,-66.90375001
-33.60076720,-170.71004439,68.60279416,22.37011482,41.58632250,26.96877577
-49.61496836,-67.47499728,58.86503266,-171.06037144,69.89061240,-58.95583644
-170.08301146,-114.61174517,85.13366132,178.11422079,-7.25081360,3.15459847
-1.75413268,-0.44057056,-0.58515710,1.93528170

>  <Name>


>  <RI>
0

>  <Rbt.Current_Directory>
/home/itssahil/PROJECTS/Mol_Feturizer/New_Systems/rnas/1ei2

>  <Rbt.Executable>
rbdock ($Id: //depot/dev/client3/rdock/2013.1/src/exe/rbdock.cxx#4 $)

>  <Rbt.Library>
libRbt.so (2013.1, Build901 2013/11/27)

>  <Rbt.Parameter_File>
/export/apps/rDock/src/rDock_2013.1_src/data/scripts/dock_solv.prm

>  <Rbt.Receptor>
prm/pocket_docking_4.prm

>  <SCORE>
-33.8459

>  <SCORE.INTER>
-31.3654

>  <SCORE.INTER.CONST>
1

>  <SCORE.INTER.POLAR>
-5.31902

>  <SCORE.INTER.ROT>
9

>  <SCORE.INTER.SOLV>
29.6767

>  <SCORE.INTER.VDW>
-22.6724

>  <SCORE.INTER.norm>
-0.746796

>  <SCORE.INTRA>
-2.56462

>  <SCORE.INTRA.DIHEDRAL>
-12.3813

>  <SCORE.INTRA.DIHEDRAL.0>
40.8761

>  <SCORE.INTRA.POLAR>
0.0256728

>  <SCORE.INTRA.POLAR.0>
-0.0268208

>  <SCORE.INTRA.REPUL>
0.0043506

>  <SCORE.INTRA.REPUL.0>
0.641615

>  <SCORE.INTRA.SOLV>
-7.47646

>  <SCORE.INTRA.SOLV.lig_0>
-162.567

>  <SCORE.INTRA.VDW>
7.25523

>  <SCORE.INTRA.VDW.0>
-4.80338

>  <SCORE.INTRA.norm>
-0.0610623

>  <SCORE.RESTR>
0.0841831

>  <SCORE.RESTR.CAVITY>
0.0841831

>  <SCORE.RESTR.norm>
0.00200436

>  <SCORE.SYSTEM>
0

>  <SCORE.SYSTEM.CONST>
0

>  <SCORE.SYSTEM.DIHEDRAL>
0

>  <SCORE.SYSTEM.SOLV>
0

>  <SCORE.SYSTEM.norm>
0

>  <SCORE.heavy>
42

>  <SCORE.norm>
-0.805854

>  <RMSD>
8.158

$$$$

 OpenBabel11021811393D
libRbt.so/2013.1/901 2013/11/27
 42 45  0  0  0  0  0  0  0  0999 V2000
   -8.6588   -5.4626    0.2046 C   0  0  2  0  0  0  0  0  0  0  0  0
   -8.8024   -4.4370   -0.8256 O   0  0  0  0  0  0  0  0  0  0  0  0
   -9.5087   -6.7325   -0.1248 C   0  0  2  0  0  0  0  0  0  0  0  0
   -9.9593   -6.7382   -1.5355 N   0  3  0  0  0  0  0  0  0  0  0  0
  -10.7284   -6.8436    0.8391 C   0  0  1  0  0  0  0  0  0  0  0  0
  -11.4898   -8.0104    0.5357 O   0  0  0  0  0  0  0  0  0  0  0  0
  -10.2841   -6.9182    2.3245 C   0  0  2  0  0  0  0  0  0  0  0  0
  -11.4253   -6.7255    3.1530 O   0  0  0  0  0  0  0  0  0  0  0  0
   -9.1995   -5.8398    2.6472 C   0  0  2  0  0  0  0  0  0  0  0  0
   -9.0475   -4.9237    1.5145 O   0  0  0  0  0  0  0  0  0  0  0  0
   -7.7933   -6.4118    2.9397 C   0  0  0  0  0  0  0  0  0  0  0  0
   -9.8045   -0.2470   -0.5818 C   0  0  1  0  0  0  0  0  0  0  0  0
   -9.7955    1.1936   -0.2429 N   0  3  0  0  0  0  0  0  0  0  0  0
   -8.6117   -0.6234   -1.4992 C   0  0  1  0  0  0  0  0  0  0  0  0
   -8.4832   -2.1630   -1.7694 C   0  0  1  0  0  0  0  0  0  0  0  0
   -7.1755   -2.4141   -2.3506 O   0  0  0  0  0  0  0  0  0  0  0  0
   -8.5989   -3.0360   -0.4661 C   0  0  1  0  0  0  0  0  0  0  0  0
   -9.7992   -2.5927    0.4314 C   0  0  1  0  0  0  0  0  0  0  0  0
   -9.8207   -3.3099    1.7226 N   0  3  0  0  0  0  0  0  0  0  0  0
   -9.7712   -1.0748    0.7198 C   0  0  0  0  0  0  0  0  0  0  0  0
   -5.9777   -2.0124   -1.6250 C   0  0  1  0  0  0  0  0  0  0  0  0
   -4.7575   -2.3824   -2.4599 C   0  0  1  0  0  0  0  0  0  0  0  0
   -4.7422   -1.2171   -3.4398 C   0  0  1  0  0  0  0  0  0  0  0  0
   -5.0866   -0.0355   -2.5221 C   0  0  2  0  0  0  0  0  0  0  0  0
   -5.9416   -0.5822   -1.4898 O   0  0  0  0  0  0  0  0  0  0  0  0
   -5.8085    1.1078   -3.2577 C   0  0  0  0  0  0  0  0  0  0  0  0
   -1.1900    1.7414   -5.4281 C   0  0  1  0  0  0  0  0  0  0  0  0
   -0.8895    0.2201   -5.5312 C   0  0  1  0  0  0  0  0  0  0  0  0
   -2.0675   -0.6231   -6.0990 C   0  0  2  0  0  0  0  0  0  0  0  0
   -3.3934   -0.3344   -5.3241 C   0  0  1  0  0  0  0  0  0  0  0  0
   -3.4343   -1.0573   -4.0611 O   0  0  0  0  0  0  0  0  0  0  0  0
   -2.6772    2.0385   -5.7890 C   0  0  1  0  0  0  0  0  0  0  0  0
   -3.5522    1.1148   -5.0626 O   0  0  0  0  0  0  0  0  0  0  0  0
   -3.0871    3.4969   -5.4585 C   0  0  0  0  0  0  0  0  0  0  0  0
   -7.7926   -7.6424    3.7502 N   0  3  0  0  0  0  0  0  0  0  0  0
   -3.5918   -2.3883   -1.6354 O   0  0  0  0  0  0  0  0  0  0  0  0
    0.2461    0.0424   -6.3770 O   0  0  0  0  0  0  0  0  0  0  0  0
   -0.9128    2.1672   -4.0922 O   0  0  0  0  0  0  0  0  0  0  0  0
   -6.5325    0.6142   -4.3717 O   0  0  0  0  0  0  0  0  0  0  0  0
   -8.7658    0.0468   -2.7500 O   0  0  0  0  0  0  0  0  0  0  0  0
   -4.5446    3.7110   -5.5206 N   0  3  0  0  0  0  0  0  0  0  0  0
   -1.7310   -2.0679   -6.1367 N   0  3  0  0  0  0  0  0  0  0  0  0
  1  2  1  6  0  0  0
  1  3  1  0  0  0  0
  1 10  1  0  0  0  0
  3  4  1  6  0  0  0
  3  5  1  0  0  0  0
  5  6  1  6  0  0  0
  5  7  1  0  0  0  0
  7  8  1  1  0  0  0
  7  9  1  0  0  0  0
  9 10  1  0  0  0  0
  9 11  1  6  0  0  0
 11 35  1  0  0  0  0
 12 13  1  1  0  0  0
 12 14  1  0  0  0  0
 12 20  1  0  0  0  0
 14 15  1  0  0  0  0
 14 40  1  6  0  0  0
 15 16  1  1  0  0  0
 15 17  1  0  0  0  0
 17  2  1  6  0  0  0
 17 18  1  0  0  0  0
 18 19  1  1  0  0  0
 18 20  1  0  0  0  0
 21 16  1  6  0  0  0
 21 22  1  0  0  0  0
 21 25  1  0  0  0  0
 22 23  1  0  0  0  0
 22 36  1  1  0  0  0
 23 24  1  0  0  0  0
 23 31  1  1  0  0  0
 24 25  1  0  0  0  0
 24 26  1  6  0  0  0
 26 39  1  0  0  0  0
 27 28  1  0  0  0  0
 27 32  1  0  0  0  0
 27 38  1  1  0  0  0
 28 29  1  0  0  0  0
 28 37  1  6  0  0  0
 29 30  1  0  0  0  0
 29 42  1  1  0  0  0
 30 31  1  1  0  0  0
 30 33  1  0  0  0  0
 32 33  1  0  0  0  0
 32 34  1  1  0  0  0
 34 41  1  0  0  0  0
M  CHG  6   4   1  13   1  19   1  35   1  41   1  42   1
M  END
>  <CHROM.1>
153.61096101,167.31751174,-173.98452078,-169.58721154,83.22725556,-40.07923411
-136.29781603,152.74239219,-49.47548118,57.57516664,-179.60314015,144.49882483
-161.49651680,158.59403444,27.48632772,72.88552139,67.62575761,-35.25431692
176.55833730,-161.63249954,-167.70568401,-35.01351053,-6.55150597,-2.08668060
-1.83431074,-2.33082825,0.48485753,-0.35297220

>  <Name>


>  <RI>
0

>  <Rbt.Current_Directory>
/home/itssahil/PROJECTS/Mol_Feturizer/New_Systems/rnas/1ei2

>  <Rbt.Executable>
rbdock ($Id: //depot/dev/client3/rdock/2013.1/src/exe/rbdock.cxx#4 $)

>  <Rbt.Library>
libRbt.so (2013.1, Build901 2013/11/27)

>  <Rbt.Parameter_File>
/export/apps/rDock/src/rDock_2013.1_src/data/scripts/dock_solv.prm

>  <Rbt.Receptor>
prm/blind_docking_80.prm

>  <SCORE>
33.1747

>  <SCORE.INTER>
20.811

>  <SCORE.INTER.CONST>
1

>  <SCORE.INTER.POLAR>
-8.02215

>  <SCORE.INTER.ROT>
9

>  <SCORE.INTER.SOLV>
59.6322

>  <SCORE.INTER.VDW>
11.1371

>  <SCORE.INTER.norm>
0.4955

>  <SCORE.INTRA>
3.83954

>  <SCORE.INTRA.DIHEDRAL>
-11.2281

>  <SCORE.INTRA.DIHEDRAL.0>
40.8761

>  <SCORE.INTRA.POLAR>
-1.08716

>  <SCORE.INTRA.POLAR.0>
-0.0268208

>  <SCORE.INTRA.REPUL>
-0.641615

>  <SCORE.INTRA.REPUL.0>
0.641615

>  <SCORE.INTRA.SOLV>
-2.76418

>  <SCORE.INTRA.SOLV.lig_0>
-162.567

>  <SCORE.INTRA.VDW>
17.7401

>  <SCORE.INTRA.VDW.0>
-4.80338

>  <SCORE.INTRA.norm>
0.0914176

>  <SCORE.RESTR>
8.52416

>  <SCORE.RESTR.CAVITY>
8.52416

>  <SCORE.RESTR.norm>
0.202956

>  <SCORE.SYSTEM>
0

>  <SCORE.SYSTEM.CONST>
0

>  <SCORE.SYSTEM.DIHEDRAL>
0

>  <SCORE.SYSTEM.SOLV>
0

>  <SCORE.SYSTEM.norm>
0

>  <SCORE.heavy>
42

>  <SCORE.norm>
0.789874

>  <RMSD>
8.168

$$$$

 OpenBabel11021811393D
libRbt.so/2013.1/901 2013/11/27
 42 45  0  0  0  0  0  0  0  0999 V2000
   -5.1188    0.6094   -2.9746 C   0  0  2  0  0  0  0  0  0  0  0  0
   -6.4828    1.0382   -2.6756 O   0  0  0  0  0  0  0  0  0  0  0  0
   -4.7605   -0.7238   -2.2412 C   0  0  2  0  0  0  0  0  0  0  0  0
   -5.9691   -1.4039   -1.7215 N   0  3  0  0  0  0  0  0  0  0  0  0
   -3.7428   -0.4623   -1.0901 C   0  0  1  0  0  0  0  0  0  0  0  0
   -3.4161   -1.6863   -0.4356 O   0  0  0  0  0  0  0  0  0  0  0  0
   -2.4312    0.1803   -1.6155 C   0  0  2  0  0  0  0  0  0  0  0  0
   -1.6779    0.6545   -0.5049 O   0  0  0  0  0  0  0  0  0  0  0  0
   -2.7306    1.3561   -2.6010 C   0  0  2  0  0  0  0  0  0  0  0  0
   -4.1633    1.6605   -2.6015 O   0  0  0  0  0  0  0  0  0  0  0  0
   -2.3418    1.0759   -4.0709 C   0  0  0  0  0  0  0  0  0  0  0  0
   -6.5744    4.3391   -5.4533 C   0  0  1  0  0  0  0  0  0  0  0  0
   -6.9739    5.5587   -6.1904 N   0  3  0  0  0  0  0  0  0  0  0  0
   -6.1475    4.6674   -3.9986 C   0  0  1  0  0  0  0  0  0  0  0  0
   -5.8572    3.3987   -3.1233 C   0  0  1  0  0  0  0  0  0  0  0  0
   -5.7917    3.8125   -1.7321 O   0  0  0  0  0  0  0  0  0  0  0  0
   -6.9716    2.2945   -3.2380 C   0  0  1  0  0  0  0  0  0  0  0  0
   -7.3810    2.0273   -4.7225 C   0  0  1  0  0  0  0  0  0  0  0  0
   -8.5280    1.1020   -4.8235 N   0  3  0  0  0  0  0  0  0  0  0  0
   -7.7452    3.3342   -5.4622 C   0  0  0  0  0  0  0  0  0  0  0  0
   -4.4947    4.0624   -1.1172 C   0  0  1  0  0  0  0  0  0  0  0  0
   -4.5277    5.4349   -0.4554 C   0  0  1  0  0  0  0  0  0  0  0  0
   -5.2484    5.0884    0.8403 C   0  0  1  0  0  0  0  0  0  0  0  0
   -4.6013    3.7449    1.2055 C   0  0  2  0  0  0  0  0  0  0  0  0
   -4.2642    3.1207   -0.0564 O   0  0  0  0  0  0  0  0  0  0  0  0
   -5.5340    2.8284    2.0176 C   0  0  0  0  0  0  0  0  0  0  0  0
   -4.9536    6.8611    5.6280 C   0  0  1  0  0  0  0  0  0  0  0  0
   -4.9688    7.9265    4.4966 C   0  0  1  0  0  0  0  0  0  0  0  0
   -6.0869    7.7110    3.4362 C   0  0  2  0  0  0  0  0  0  0  0  0
   -6.0583    6.2533    2.8739 C   0  0  1  0  0  0  0  0  0  0  0  0
   -5.0193    6.0967    1.8664 O   0  0  0  0  0  0  0  0  0  0  0  0
   -5.9893    5.7321    5.3404 C   0  0  1  0  0  0  0  0  0  0  0  0
   -5.8391    5.2688    3.9586 O   0  0  0  0  0  0  0  0  0  0  0  0
   -5.8343    4.5265    6.3031 C   0  0  0  0  0  0  0  0  0  0  0  0
   -1.1168    1.7617   -4.5186 N   0  3  0  0  0  0  0  0  0  0  0  0
   -3.1951    5.8844   -0.2090 O   0  0  0  0  0  0  0  0  0  0  0  0
   -5.1476    9.2113    5.0914 O   0  0  0  0  0  0  0  0  0  0  0  0
   -3.6369    6.3115    5.7134 O   0  0  0  0  0  0  0  0  0  0  0  0
   -6.3826    2.0839    1.1607 O   0  0  0  0  0  0  0  0  0  0  0  0
   -4.9698    5.4730   -4.0369 O   0  0  0  0  0  0  0  0  0  0  0  0
   -6.9310    3.5489    6.1791 N   0  3  0  0  0  0  0  0  0  0  0  0
   -6.0238    8.7372    2.3660 N   0  3  0  0  0  0  0  0  0  0  0  0
  1  2  1  1  0  0  0
  1  3  1  0  0  0  0
  1 10  1  0  0  0  0
  3  4  1  1  0  0  0
  3  5  1  0  0  0  0
  5  6  1  6  0  0  0
  5  7  1  0  0  0  0
  7  8  1  1  0  0  0
  7  9  1  0  0  0  0
  9 10  1  0  0  0  0
  9 11  1  6  0  0  0
 11 35  1  0  0  0  0
 12 13  1  1  0  0  0
 12 14  1  0  0  0  0
 12 20  1  0  0  0  0
 14 15  1  0  0  0  0
 14 40  1  6  0  0  0
 15 16  1  1  0  0  0
 15 17  1  0  0  0  0
 17  2  1  6  0  0  0
 17 18  1  0  0  0  0
 18 19  1  1  0  0  0
 18 20  1  0  0  0  0
 21 16  1  1  0  0  0
 21 22  1  0  0  0  0
 21 25  1  0  0  0  0
 22 23  1  0  0  0  0
 22 36  1  1  0  0  0
 23 24  1  0  0  0  0
 23 31  1  1  0  0  0
 24 25  1  0  0  0  0
 24 26  1  6  0  0  0
 26 39  1  0  0  0  0
 27 28  1  0  0  0  0
 27 32  1  0  0  0  0
 27 38  1  6  0  0  0
 28 29  1  0  0  0  0
 28 37  1  1  0  0  0
 29 30  1  0  0  0  0
 29 42  1  6  0  0  0
 30 31  1  6  0  0  0
 30 33  1  0  0  0  0
 32 33  1  0  0  0  0
 32 34  1  1  0  0  0
 34 41  1  0  0  0  0
M  CHG  6   4   1  13   1  19   1  35   1  41   1  42   1
M  END
>  <CHROM.1>
177.74945325,-42.61457902,-31.28953462,61.17440562,176.08314752,-104.74395527
-63.00259373,66.04174497,50.01816311,-97.48021817,128.57713617,69.85250605
166.83582754,152.53777843,84.93107979,-176.25136460,-56.01802844,177.40647249
-52.52526751,-151.74681063,171.19097764,-99.88031539,-5.12333799,3.58279204
-0.30368456,-1.49739810,-1.19090332,1.09814708

>  <Name>


>  <RI>
0

>  <Rbt.Current_Directory>
/home/itssahil/PROJECTS/Mol_Feturizer/New_Systems/rnas/1ei2

>  <Rbt.Executable>
rbdock ($Id: //depot/dev/client3/rdock/2013.1/src/exe/rbdock.cxx#4 $)

>  <Rbt.Library>
libRbt.so (2013.1, Build901 2013/11/27)

>  <Rbt.Parameter_File>
/export/apps/rDock/src/rDock_2013.1_src/data/scripts/dock_solv.prm

>  <Rbt.Receptor>
prm/pocket_docking_8.prm

>  <SCORE>
-52.744

>  <SCORE.INTER>
-39.953

>  <SCORE.INTER.CONST>
1

>  <SCORE.INTER.POLAR>
-7.69165

>  <SCORE.INTER.ROT>
9

>  <SCORE.INTER.SOLV>
34.5689

>  <SCORE.INTER.VDW>
-22.1195

>  <SCORE.INTER.norm>
-0.951262

>  <SCORE.INTRA>
-12.791

>  <SCORE.INTRA.DIHEDRAL>
-7.4905

>  <SCORE.INTRA.DIHEDRAL.0>
40.8761

>  <SCORE.INTRA.POLAR>
-0.252971

>  <SCORE.INTRA.POLAR.0>
-0.0268208

>  <SCORE.INTRA.REPUL>
-0.52221

>  <SCORE.INTRA.REPUL.0>
0.641615

>  <SCORE.INTRA.SOLV>
-13.8658

>  <SCORE.INTRA.SOLV.lig_0>
-162.567

>  <SCORE.INTRA.VDW>
1.35825

>  <SCORE.INTRA.VDW.0>
-4.80338

>  <SCORE.INTRA.norm>
-0.304548

>  <SCORE.RESTR>
0

>  <SCORE.RESTR.CAVITY>
0

>  <SCORE.RESTR.norm>
0

>  <SCORE.SYSTEM>
0

>  <SCORE.SYSTEM.CONST>
0

>  <SCORE.SYSTEM.DIHEDRAL>
0

>  <SCORE.SYSTEM.SOLV>
0

>  <SCORE.SYSTEM.norm>
0

>  <SCORE.heavy>
42

>  <SCORE.norm>
-1.25581

>  <RMSD>
8.177

$$$$

 OpenBabel11021811393D
libRbt.so/2013.1/901 2013/11/27
 42 45  0  0  0  0  0  0  0  0999 V2000
   -4.6983    2.0174   -3.7817 C   0  0  2  0  0  0  0  0  0  0  0  0
   -5.9947    1.8259   -4.4269 O   0  0  0  0  0  0  0  0  0  0  0  0
   -3.7589    2.9290   -4.6363 C   0  0  2  0  0  0  0  0  0  0  0  0
   -4.5086    3.6529   -5.6885 N   0  3  0  0  0  0  0  0  0  0  0  0
   -2.6038    2.0928   -5.2651 C   0  0  1  0  0  0  0  0  0  0  0  0
   -1.7484    2.9363   -6.0334 O   0  0  0  0  0  0  0  0  0  0  0  0
   -1.7499    1.3827   -4.1807 C   0  0  2  0  0  0  0  0  0  0  0  0
   -0.9130    0.4219   -4.8147 O   0  0  0  0  0  0  0  0  0  0  0  0
   -2.6543    0.6845   -3.1138 C   0  0  2  0  0  0  0  0  0  0  0  0
   -4.0550    0.7193   -3.5404 O   0  0  0  0  0  0  0  0  0  0  0  0
   -2.6075    1.3317   -1.7106 C   0  0  0  0  0  0  0  0  0  0  0  0
   -9.2894    4.4219   -3.4143 C   0  0  1  0  0  0  0  0  0  0  0  0
  -10.5448    4.9598   -2.8441 N   0  3  0  0  0  0  0  0  0  0  0  0
   -8.2128    4.2067   -2.3185 C   0  0  1  0  0  0  0  0  0  0  0  0
   -6.9138    3.4984   -2.8389 C   0  0  1  0  0  0  0  0  0  0  0  0
   -6.1403    3.0663   -1.6875 O   0  0  0  0  0  0  0  0  0  0  0  0
   -7.2070    2.2272   -3.7178 C   0  0  1  0  0  0  0  0  0  0  0  0
   -8.3185    2.4953   -4.7834 C   0  0  1  0  0  0  0  0  0  0  0  0
   -8.6999    1.2660   -5.5081 N   0  3  0  0  0  0  0  0  0  0  0  0
   -9.5911    3.0980   -4.1469 C   0  0  0  0  0  0  0  0  0  0  0  0
   -6.7100    2.0955   -0.7625 C   0  0  1  0  0  0  0  0  0  0  0  0
   -5.6909    1.8154    0.3357 C   0  0  1  0  0  0  0  0  0  0  0  0
   -5.9191    3.0292    1.2263 C   0  0  1  0  0  0  0  0  0  0  0  0
   -7.4494    3.1509    1.1988 C   0  0  2  0  0  0  0  0  0  0  0  0
   -7.8544    2.6595   -0.1013 O   0  0  0  0  0  0  0  0  0  0  0  0
   -7.9421    4.5957    1.3963 C   0  0  0  0  0  0  0  0  0  0  0  0
   -3.8705    5.2590    5.0900 C   0  0  1  0  0  0  0  0  0  0  0  0
   -4.1552    3.7557    5.3632 C   0  0  1  0  0  0  0  0  0  0  0  0
   -3.5951    2.7951    4.2748 C   0  0  2  0  0  0  0  0  0  0  0  0
   -4.0527    3.2324    2.8462 C   0  0  1  0  0  0  0  0  0  0  0  0
   -5.4177    2.8049    2.5755 O   0  0  0  0  0  0  0  0  0  0  0  0
   -3.2075    5.4527    3.6924 C   0  0  1  0  0  0  0  0  0  0  0  0
   -3.9599    4.7017    2.6842 O   0  0  0  0  0  0  0  0  0  0  0  0
   -3.1367    6.9433    3.2717 C   0  0  0  0  0  0  0  0  0  0  0  0
   -2.4197    0.3762   -0.6047 N   0  3  0  0  0  0  0  0  0  0  0  0
   -6.0272    0.6019    1.0086 O   0  0  0  0  0  0  0  0  0  0  0  0
   -3.5731    3.4090    6.6191 O   0  0  0  0  0  0  0  0  0  0  0  0
   -5.1080    5.9715    5.1511 O   0  0  0  0  0  0  0  0  0  0  0  0
   -9.3583    4.6497    1.4072 O   0  0  0  0  0  0  0  0  0  0  0  0
   -7.8521    5.4761   -1.7744 O   0  0  0  0  0  0  0  0  0  0  0  0
   -2.4011    7.1489    2.0106 N   0  3  0  0  0  0  0  0  0  0  0  0
   -3.9320    1.3813    4.5746 N   0  3  0  0  0  0  0  0  0  0  0  0
  1  2  1  6  0  0  0
  1  3  1  0  0  0  0
  1 10  1  0  0  0  0
  3  4  1  6  0  0  0
  3  5  1  0  0  0  0
  5  6  1  1  0  0  0
  5  7  1  0  0  0  0
  7  8  1  6  0  0  0
  7  9  1  0  0  0  0
  9 10  1  0  0  0  0
  9 11  1  1  0  0  0
 11 35  1  0  0  0  0
 12 13  1  1  0  0  0
 12 14  1  0  0  0  0
 12 20  1  0  0  0  0
 14 15  1  0  0  0  0
 14 40  1  6  0  0  0
 15 16  1  1  0  0  0
 15 17  1  0  0  0  0
 17  2  1  6  0  0  0
 17 18  1  0  0  0  0
 18 19  1  1  0  0  0
 18 20  1  0  0  0  0
 21 16  1  6  0  0  0
 21 22  1  0  0  0  0
 21 25  1  0  0  0  0
 22 23  1  0  0  0  0
 22 36  1  1  0  0  0
 23 24  1  0  0  0  0
 23 31  1  1  0  0  0
 24 25  1  0  0  0  0
 24 26  1  6  0  0  0
 26 39  1  0  0  0  0
 27 28  1  0  0  0  0
 27 32  1  0  0  0  0
 27 38  1  6  0  0  0
 28 29  1  0  0  0  0
 28 37  1  1  0  0  0
 29 30  1  0  0  0  0
 29 42  1  1  0  0  0
 30 31  1  1  0  0  0
 30 33  1  0  0  0  0
 32 33  1  0  0  0  0
 32 34  1  6  0  0  0
 34 41  1  0  0  0  0
M  CHG  6   4   1  13   1  19   1  35   1  41   1  42   1
M  END
>  <CHROM.1>
-121.53121218,33.86623684,145.75444099,59.01161356,55.66192621,-132.20881406
-70.36781370,-41.37443865,-59.02491637,62.03353165,179.54799152,-146.45555521
62.73848544,92.55462651,-178.07395057,-60.61019096,-55.16922839,167.77760398
-103.45570412,-173.87631192,174.69695215,-98.01094559,-5.32793087,3.10842484
-0.63690962,-1.71089254,-0.27620335,1.30954898

>  <Name>


>  <RI>
0

>  <Rbt.Current_Directory>
/home/itssahil/PROJECTS/Mol_Feturizer/New_Systems/rnas/1ei2

>  <Rbt.Executable>
rbdock ($Id: //depot/dev/client3/rdock/2013.1/src/exe/rbdock.cxx#4 $)

>  <Rbt.Library>
libRbt.so (2013.1, Build901 2013/11/27)

>  <Rbt.Parameter_File>
/export/apps/rDock/src/rDock_2013.1_src/data/scripts/dock_solv.prm

>  <Rbt.Receptor>
prm/pocket_docking_6.prm

>  <SCORE>
-46.935

>  <SCORE.INTER>
-33.9932

>  <SCORE.INTER.CONST>
1

>  <SCORE.INTER.POLAR>
-6.44927

>  <SCORE.INTER.ROT>
9

>  <SCORE.INTER.SOLV>
28.4126

>  <SCORE.INTER.VDW>
-20.2354

>  <SCORE.INTER.norm>
-0.809361

>  <SCORE.INTRA>
-12.9419

>  <SCORE.INTRA.DIHEDRAL>
-9.42547

>  <SCORE.INTRA.DIHEDRAL.0>
40.8761

>  <SCORE.INTRA.POLAR>
0.00490228

>  <SCORE.INTRA.POLAR.0>
-0.0268208

>  <SCORE.INTRA.REPUL>
-0.641615

>  <SCORE.INTRA.REPUL.0>
0.641615

>  <SCORE.INTRA.SOLV>
-12.0286

>  <SCORE.INTRA.SOLV.lig_0>
-162.567

>  <SCORE.INTRA.VDW>
0.976587

>  <SCORE.INTRA.VDW.0>
-4.80338

>  <SCORE.INTRA.norm>
-0.30814

>  <SCORE.RESTR>
0

>  <SCORE.RESTR.CAVITY>
0

>  <SCORE.RESTR.norm>
0

>  <SCORE.SYSTEM>
0

>  <SCORE.SYSTEM.CONST>
0

>  <SCORE.SYSTEM.DIHEDRAL>
0

>  <SCORE.SYSTEM.SOLV>
0

>  <SCORE.SYSTEM.norm>
0

>  <SCORE.heavy>
42

>  <SCORE.norm>
-1.1175

>  <RMSD>
8.189

$$$$

 OpenBabel11021811393D
libRbt.so/2013.1/901 2013/11/27
 42 45  0  0  0  0  0  0  0  0999 V2000
   -4.5025    0.6177   -5.8240 C   0  0  2  0  0  0  0  0  0  0  0  0
   -3.5873    1.2518   -4.8784 O   0  0  0  0  0  0  0  0  0  0  0  0
   -3.8567   -0.6368   -6.4971 C   0  0  2  0  0  0  0  0  0  0  0  0
   -2.6432   -1.0815   -5.7741 N   0  3  0  0  0  0  0  0  0  0  0  0
   -3.5276   -0.3502   -7.9933 C   0  0  1  0  0  0  0  0  0  0  0  0
   -2.9488   -1.5042   -8.5989 O   0  0  0  0  0  0  0  0  0  0  0  0
   -4.7956    0.0439   -8.7971 C   0  0  2  0  0  0  0  0  0  0  0  0
   -4.3930    0.5672  -10.0580 O   0  0  0  0  0  0  0  0  0  0  0  0
   -5.6500    1.1017   -8.0262 C   0  0  2  0  0  0  0  0  0  0  0  0
   -4.9181    1.5812   -6.8516 O   0  0  0  0  0  0  0  0  0  0  0  0
   -7.0094    0.5758   -7.5106 C   0  0  0  0  0  0  0  0  0  0  0  0
   -2.7878    4.9556   -2.8139 C   0  0  1  0  0  0  0  0  0  0  0  0
   -2.8697    6.3496   -2.3236 N   0  3  0  0  0  0  0  0  0  0  0  0
   -3.9483    4.0883   -2.2597 C   0  0  1  0  0  0  0  0  0  0  0  0
   -4.0001    2.6414   -2.8629 C   0  0  1  0  0  0  0  0  0  0  0  0
   -5.2861    2.0552   -2.5262 O   0  0  0  0  0  0  0  0  0  0  0  0
   -3.8619    2.6144   -4.4296 C   0  0  1  0  0  0  0  0  0  0  0  0
   -2.6966    3.5276   -4.9308 C   0  0  1  0  0  0  0  0  0  0  0  0
   -2.6596    3.6206   -6.4045 N   0  3  0  0  0  0  0  0  0  0  0  0
   -2.8005    4.9585   -4.3567 C   0  0  0  0  0  0  0  0  0  0  0  0
   -5.3323    0.8049   -1.7796 C   0  0  1  0  0  0  0  0  0  0  0  0
   -4.7508    1.0465   -0.3917 C   0  0  1  0  0  0  0  0  0  0  0  0
   -5.9534    1.6802    0.2942 C   0  0  1  0  0  0  0  0  0  0  0  0
   -7.1059    0.8197   -0.2430 C   0  0  2  0  0  0  0  0  0  0  0  0
   -6.6975    0.4082   -1.5694 O   0  0  0  0  0  0  0  0  0  0  0  0
   -8.4430    1.5791   -0.3119 C   0  0  0  0  0  0  0  0  0  0  0  0
   -3.8098    4.2252    3.6656 C   0  0  1  0  0  0  0  0  0  0  0  0
   -4.7816    3.1974    4.3095 C   0  0  1  0  0  0  0  0  0  0  0  0
   -4.5389    1.7270    3.8619 C   0  0  2  0  0  0  0  0  0  0  0  0
   -4.5029    1.6097    2.3041 C   0  0  1  0  0  0  0  0  0  0  0  0
   -5.8469    1.5986    1.7447 O   0  0  0  0  0  0  0  0  0  0  0  0
   -2.9057    3.5393    2.5968 C   0  0  1  0  0  0  0  0  0  0  0  0
   -3.7335    2.7240    1.7041 O   0  0  0  0  0  0  0  0  0  0  0  0
   -2.1023    4.5637    1.7547 C   0  0  0  0  0  0  0  0  0  0  0  0
   -7.8357   -0.0851   -8.5361 N   0  3  0  0  0  0  0  0  0  0  0  0
   -4.4021   -0.2006    0.2098 O   0  0  0  0  0  0  0  0  0  0  0  0
   -4.6385    3.2707    5.7274 O   0  0  0  0  0  0  0  0  0  0  0  0
   -4.5851    5.2632    3.0619 O   0  0  0  0  0  0  0  0  0  0  0  0
   -9.5366    0.6930   -0.1466 O   0  0  0  0  0  0  0  0  0  0  0  0
   -3.8084    3.9858   -0.8429 O   0  0  0  0  0  0  0  0  0  0  0  0
   -0.6463    4.4611    1.9631 N   0  3  0  0  0  0  0  0  0  0  0  0
   -5.5207    0.8028    4.4817 N   0  3  0  0  0  0  0  0  0  0  0  0
  1  2  1  1  0  0  0
  1  3  1  0  0  0  0
  1 10  1  0  0  0  0
  3  4  1  1  0  0  0
  3  5  1  0  0  0  0
  5  6  1  6  0  0  0
  5  7  1  0  0  0  0
  7  8  1  6  0  0  0
  7  9  1  0  0  0  0
  9 10  1  0  0  0  0
  9 11  1  1  0  0  0
 11 35  1  0  0  0  0
 12 13  1  1  0  0  0
 12 14  1  0  0  0  0
 12 20  1  0  0  0  0
 14 15  1  0  0  0  0
 14 40  1  1  0  0  0
 15 16  1  6  0  0  0
 15 17  1  0  0  0  0
 17  2  1  1  0  0  0
 17 18  1  0  0  0  0
 18 19  1  6  0  0  0
 18 20  1  0  0  0  0
 21 16  1  6  0  0  0
 21 22  1  0  0  0  0
 21 25  1  0  0  0  0
 22 23  1  0  0  0  0
 22 36  1  1  0  0  0
 23 24  1  0  0  0  0
 23 31  1  1  0  0  0
 24 25  1  0  0  0  0
 24 26  1  6  0  0  0
 26 39  1  0  0  0  0
 27 28  1  0  0  0  0
 27 32  1  0  0  0  0
 27 38  1  6  0  0  0
 28 29  1  0  0  0  0
 28 37  1  1  0  0  0
 29 30  1  0  0  0  0
 29 42  1  6  0  0  0
 30 31  1  6  0  0  0
 30 33  1  0  0  0  0
 32 33  1  0  0  0  0
 32 34  1  6  0  0  0
 34 41  1  0  0  0  0
M  CHG  6   4   1  13   1  19   1  35   1  41   1  42   1
M  END
>  <CHROM.1>
163.62753460,121.73569690,56.44681432,-83.92373028,68.31295802,-51.84099944
55.43338088,-162.03638429,62.29133800,-122.29821560,65.06218749,130.34074224
147.86472587,30.16568205,-150.63836181,69.31807990,-62.69229747,-178.33095388
-76.60166266,171.73282600,114.85122689,150.94668271,-4.52876508,2.00754106
-2.13538009,1.58349177,-0.73310729,-1.78690830

>  <Name>


>  <RI>
0

>  <Rbt.Current_Directory>
/home/itssahil/PROJECTS/Mol_Feturizer/New_Systems/rnas/1ei2

>  <Rbt.Executable>
rbdock ($Id: //depot/dev/client3/rdock/2013.1/src/exe/rbdock.cxx#4 $)

>  <Rbt.Library>
libRbt.so (2013.1, Build901 2013/11/27)

>  <Rbt.Parameter_File>
/export/apps/rDock/src/rDock_2013.1_src/data/scripts/dock_solv.prm

>  <Rbt.Receptor>
prm/pocket_docking_4.prm

>  <SCORE>
-48.3898

>  <SCORE.INTER>
-44.2705

>  <SCORE.INTER.CONST>
1

>  <SCORE.INTER.POLAR>
-7.35054

>  <SCORE.INTER.ROT>
9

>  <SCORE.INTER.SOLV>
34.9627

>  <SCORE.INTER.VDW>
-26.2661

>  <SCORE.INTER.norm>
-1.05406

>  <SCORE.INTRA>
-5.86102

>  <SCORE.INTRA.DIHEDRAL>
0.566472

>  <SCORE.INTRA.DIHEDRAL.0>
40.8761

>  <SCORE.INTRA.POLAR>
-1.10494

>  <SCORE.INTRA.POLAR.0>
-0.0268208

>  <SCORE.INTRA.REPUL>
0.358385

>  <SCORE.INTRA.REPUL.0>
0.641615

>  <SCORE.INTRA.SOLV>
-11.2102

>  <SCORE.INTRA.SOLV.lig_0>
-162.567

>  <SCORE.INTRA.VDW>
1.42569

>  <SCORE.INTRA.VDW.0>
-4.80338

>  <SCORE.INTRA.norm>
-0.139548

>  <SCORE.RESTR>
1.74169

>  <SCORE.RESTR.CAVITY>
1.74169

>  <SCORE.RESTR.norm>
0.0414689

>  <SCORE.SYSTEM>
0

>  <SCORE.SYSTEM.CONST>
0

>  <SCORE.SYSTEM.DIHEDRAL>
0

>  <SCORE.SYSTEM.SOLV>
0

>  <SCORE.SYSTEM.norm>
0

>  <SCORE.heavy>
42

>  <SCORE.norm>
-1.15214

>  <RMSD>
8.207

$$$$

 OpenBabel11021811393D
libRbt.so/2013.1/901 2013/11/27
 42 45  0  0  0  0  0  0  0  0999 V2000
   -3.9513    2.2930   -1.2056 C   0  0  2  0  0  0  0  0  0  0  0  0
   -5.0163    1.4916   -0.6079 O   0  0  0  0  0  0  0  0  0  0  0  0
   -2.5435    1.8655   -0.6773 C   0  0  2  0  0  0  0  0  0  0  0  0
   -2.5917    0.5532    0.0073 N   0  3  0  0  0  0  0  0  0  0  0  0
   -1.9570    2.9552    0.2700 C   0  0  1  0  0  0  0  0  0  0  0  0
   -0.6693    2.5590    0.7370 O   0  0  0  0  0  0  0  0  0  0  0  0
   -1.8211    4.3269   -0.4438 C   0  0  2  0  0  0  0  0  0  0  0  0
   -1.5631    5.3277    0.5348 O   0  0  0  0  0  0  0  0  0  0  0  0
   -3.1165    4.6810   -1.2437 C   0  0  2  0  0  0  0  0  0  0  0  0
   -4.1773    3.7190   -0.9360 O   0  0  0  0  0  0  0  0  0  0  0  0
   -2.9455    4.6679   -2.7801 C   0  0  0  0  0  0  0  0  0  0  0  0
   -7.7478    1.9682   -3.9142 C   0  0  1  0  0  0  0  0  0  0  0  0
   -8.9157    1.8455   -4.8150 N   0  3  0  0  0  0  0  0  0  0  0  0
   -8.1199    2.6957   -2.5957 C   0  0  1  0  0  0  0  0  0  0  0  0
   -6.9607    2.7224   -1.5395 C   0  0  1  0  0  0  0  0  0  0  0  0
   -7.5209    3.1259   -0.2611 O   0  0  0  0  0  0  0  0  0  0  0  0
   -6.2717    1.3232   -1.3353 C   0  0  1  0  0  0  0  0  0  0  0  0
   -5.9470    0.6259   -2.6959 C   0  0  1  0  0  0  0  0  0  0  0  0
   -5.4379   -0.7478   -2.5074 N   0  3  0  0  0  0  0  0  0  0  0  0
   -7.1848    0.5624   -3.6187 C   0  0  0  0  0  0  0  0  0  0  0  0
   -7.8391    4.5282   -0.0266 C   0  0  1  0  0  0  0  0  0  0  0  0
   -8.4220    4.6659    1.3749 C   0  0  1  0  0  0  0  0  0  0  0  0
   -7.1409    4.6589    2.1978 C   0  0  1  0  0  0  0  0  0  0  0  0
   -6.2153    5.5318    1.3384 C   0  0  2  0  0  0  0  0  0  0  0  0
   -6.6350    5.3125   -0.0296 O   0  0  0  0  0  0  0  0  0  0  0  0
   -4.7274    5.1726    1.5003 C   0  0  0  0  0  0  0  0  0  0  0  0
   -5.8772    8.0682    5.6462 C   0  0  1  0  0  0  0  0  0  0  0  0
   -6.9618    7.0619    6.1219 C   0  0  1  0  0  0  0  0  0  0  0  0
   -6.5975    5.5700    5.8716 C   0  0  2  0  0  0  0  0  0  0  0  0
   -6.1833    5.3319    4.3838 C   0  0  1  0  0  0  0  0  0  0  0  0
   -7.3512    5.2314    3.5207 O   0  0  0  0  0  0  0  0  0  0  0  0
   -4.7315    7.3314    4.8880 C   0  0  1  0  0  0  0  0  0  0  0  0
   -5.3068    6.4211    3.8946 O   0  0  0  0  0  0  0  0  0  0  0  0
   -3.7622    8.3131    4.1805 C   0  0  0  0  0  0  0  0  0  0  0  0
   -4.1470    5.0736   -3.5305 N   0  3  0  0  0  0  0  0  0  0  0  0
   -9.1118    5.9105    1.4911 O   0  0  0  0  0  0  0  0  0  0  0  0
   -7.1678    7.2512    7.5213 O   0  0  0  0  0  0  0  0  0  0  0  0
   -6.4973    9.0288    4.7884 O   0  0  0  0  0  0  0  0  0  0  0  0
   -3.9298    6.3421    1.5694 O   0  0  0  0  0  0  0  0  0  0  0  0
   -8.4877    4.0405   -2.9018 O   0  0  0  0  0  0  0  0  0  0  0  0
   -2.8253    8.9661    5.1131 N   0  3  0  0  0  0  0  0  0  0  0  0
   -7.6874    4.6647    6.3129 N   0  3  0  0  0  0  0  0  0  0  0  0
  1  2  1  1  0  0  0
  1  3  1  0  0  0  0
  1 10  1  0  0  0  0
  3  4  1  1  0  0  0
  3  5  1  0  0  0  0
  5  6  1  6  0  0  0
  5  7  1  0  0  0  0
  7  8  1  1  0  0  0
  7  9  1  0  0  0  0
  9 10  1  0  0  0  0
  9 11  1  6  0  0  0
 11 35  1  0  0  0  0
 12 13  1  6  0  0  0
 12 14  1  0  0  0  0
 12 20  1  0  0  0  0
 14 15  1  0  0  0  0
 14 40  1  6  0  0  0
 15 16  1  1  0  0  0
 15 17  1  0  0  0  0
 17  2  1  6  0  0  0
 17 18  1  0  0  0  0
 18 19  1  1  0  0  0
 18 20  1  0  0  0  0
 21 16  1  1  0  0  0
 21 22  1  0  0  0  0
 21 25  1  0  0  0  0
 22 23  1  0  0  0  0
 22 36  1  6  0  0  0
 23 24  1  0  0  0  0
 23 31  1  1  0  0  0
 24 25  1  0  0  0  0
 24 26  1  6  0  0  0
 26 39  1  0  0  0  0
 27 28  1  0  0  0  0
 27 32  1  0  0  0  0
 27 38  1  6  0  0  0
 28 29  1  0  0  0  0
 28 37  1  1  0  0  0
 29 30  1  0  0  0  0
 29 42  1  6  0  0  0
 30 31  1  6  0  0  0
 30 33  1  0  0  0  0
 32 33  1  0  0  0  0
 32 34  1  6  0  0  0
 34 41  1  0  0  0  0
M  CHG  6   4   1  13   1  19   1  35   1  41   1  42   1
M  END
>  <CHROM.1>
-154.24404779,-61.97254576,-129.53770274,62.73612387,-68.12364610,-176.81512587
39.58437037,167.10254420,-62.84744931,-76.66270719,179.33524275,61.52321755
-168.08435874,-177.50030213,-138.26990776,-48.35436784,173.77132337,71.06271204
-31.33905509,-163.90099424,76.50861576,25.45265790,-5.51715546,4.38374237
0.86398404,-1.55968874,0.01371771,0.97550812

>  <Name>


>  <RI>
0

>  <Rbt.Current_Directory>
/home/itssahil/PROJECTS/Mol_Feturizer/New_Systems/rnas/1ei2

>  <Rbt.Executable>
rbdock ($Id: //depot/dev/client3/rdock/2013.1/src/exe/rbdock.cxx#4 $)

>  <Rbt.Library>
libRbt.so (2013.1, Build901 2013/11/27)

>  <Rbt.Parameter_File>
/export/apps/rDock/src/rDock_2013.1_src/data/scripts/dock_solv.prm

>  <Rbt.Receptor>
prm/pocket_docking_7.prm

>  <SCORE>
-44.5641

>  <SCORE.INTER>
-23.7226

>  <SCORE.INTER.CONST>
1

>  <SCORE.INTER.POLAR>
-4.83329

>  <SCORE.INTER.ROT>
9

>  <SCORE.INTER.SOLV>
22.4887

>  <SCORE.INTER.VDW>
-16.8004

>  <SCORE.INTER.norm>
-0.564825

>  <SCORE.INTRA>
-20.8415

>  <SCORE.INTRA.DIHEDRAL>
-18.6793

>  <SCORE.INTRA.DIHEDRAL.0>
40.8761

>  <SCORE.INTRA.POLAR>
-1.13322

>  <SCORE.INTRA.POLAR.0>
-0.0268208

>  <SCORE.INTRA.REPUL>
-0.641615

>  <SCORE.INTRA.REPUL.0>
0.641615

>  <SCORE.INTRA.SOLV>
-8.87692

>  <SCORE.INTRA.SOLV.lig_0>
-162.567

>  <SCORE.INTRA.VDW>
-0.00235088

>  <SCORE.INTRA.VDW.0>
-4.80338

>  <SCORE.INTRA.norm>
-0.496225

>  <SCORE.RESTR>
0

>  <SCORE.RESTR.CAVITY>
0

>  <SCORE.RESTR.norm>
0

>  <SCORE.SYSTEM>
0

>  <SCORE.SYSTEM.CONST>
0

>  <SCORE.SYSTEM.DIHEDRAL>
0

>  <SCORE.SYSTEM.SOLV>
0

>  <SCORE.SYSTEM.norm>
0

>  <SCORE.heavy>
42

>  <SCORE.norm>
-1.06105

>  <RMSD>
8.216

$$$$

 OpenBabel11021811393D
libRbt.so/2013.1/901 2013/11/27
 42 45  0  0  0  0  0  0  0  0999 V2000
   -3.1325    3.6125   -1.5408 C   0  0  2  0  0  0  0  0  0  0  0  0
   -3.6438    3.0832   -0.2790 O   0  0  0  0  0  0  0  0  0  0  0  0
   -3.5517    5.1037   -1.7517 C   0  0  2  0  0  0  0  0  0  0  0  0
   -4.0457    5.7155   -0.4968 N   0  3  0  0  0  0  0  0  0  0  0  0
   -4.6246    5.2200   -2.8761 C   0  0  1  0  0  0  0  0  0  0  0  0
   -4.9913    6.5848   -3.0662 O   0  0  0  0  0  0  0  0  0  0  0  0
   -4.1074    4.6566   -4.2268 C   0  0  2  0  0  0  0  0  0  0  0  0
   -5.2088    4.5242   -5.1184 O   0  0  0  0  0  0  0  0  0  0  0  0
   -3.4057    3.2733   -4.0331 C   0  0  2  0  0  0  0  0  0  0  0  0
   -3.6073    2.7936   -2.6639 O   0  0  0  0  0  0  0  0  0  0  0  0
   -1.8782    3.2899   -4.2710 C   0  0  0  0  0  0  0  0  0  0  0  0
   -5.1643   -0.5731   -1.9935 C   0  0  1  0  0  0  0  0  0  0  0  0
   -5.7469   -1.9232   -2.1612 N   0  3  0  0  0  0  0  0  0  0  0  0
   -6.2172    0.4406   -1.4738 C   0  0  1  0  0  0  0  0  0  0  0  0
   -5.6226    1.8516   -1.1341 C   0  0  1  0  0  0  0  0  0  0  0  0
   -6.6123    2.5884   -0.3669 O   0  0  0  0  0  0  0  0  0  0  0  0
   -4.3088    1.7828   -0.2719 C   0  0  1  0  0  0  0  0  0  0  0  0
   -3.2993    0.7258   -0.8257 C   0  0  1  0  0  0  0  0  0  0  0  0
   -2.1331    0.5533    0.0642 N   0  3  0  0  0  0  0  0  0  0  0  0
   -3.9649   -0.6543   -1.0264 C   0  0  0  0  0  0  0  0  0  0  0  0
   -7.8764    2.9567   -0.9907 C   0  0  1  0  0  0  0  0  0  0  0  0
   -9.0103    2.6014   -0.0363 C   0  0  1  0  0  0  0  0  0  0  0  0
   -8.9494    3.7961    0.9058 C   0  0  1  0  0  0  0  0  0  0  0  0
   -8.7047    4.9521   -0.0745 C   0  0  2  0  0  0  0  0  0  0  0  0
   -7.9417    4.3817   -1.1645 O   0  0  0  0  0  0  0  0  0  0  0  0
   -7.9320    6.1239    0.5571 C   0  0  0  0  0  0  0  0  0  0  0  0
  -13.3349    6.1715    1.5336 C   0  0  1  0  0  0  0  0  0  0  0  0
  -13.0108    5.1266    2.6374 C   0  0  1  0  0  0  0  0  0  0  0  0
  -11.5856    5.2669    3.2461 C   0  0  2  0  0  0  0  0  0  0  0  0
  -10.4949    5.3018    2.1276 C   0  0  1  0  0  0  0  0  0  0  0  0
  -10.1965    3.9630    1.6399 O   0  0  0  0  0  0  0  0  0  0  0  0
  -12.0781    7.0299    1.1963 C   0  0  1  0  0  0  0  0  0  0  0  0
  -10.9239    6.1508    0.9923 O   0  0  0  0  0  0  0  0  0  0  0  0
  -12.2812    7.9075   -0.0656 C   0  0  0  0  0  0  0  0  0  0  0  0
   -1.1985    2.0211   -3.9558 N   0  3  0  0  0  0  0  0  0  0  0  0
  -10.2465    2.5596   -0.7493 O   0  0  0  0  0  0  0  0  0  0  0  0
  -13.9689    5.2679    3.6855 O   0  0  0  0  0  0  0  0  0  0  0  0
  -13.7822    5.4743    0.3688 O   0  0  0  0  0  0  0  0  0  0  0  0
   -6.6183    5.7292    0.9137 O   0  0  0  0  0  0  0  0  0  0  0  0
   -7.2294    0.6006   -2.4675 O   0  0  0  0  0  0  0  0  0  0  0  0
  -12.3989    7.1143   -1.3029 N   0  3  0  0  0  0  0  0  0  0  0  0
  -11.3259    4.2194    4.2646 N   0  3  0  0  0  0  0  0  0  0  0  0
  1  2  1  1  0  0  0
  1  3  1  0  0  0  0
  1 10  1  0  0  0  0
  3  4  1  1  0  0  0
  3  5  1  0  0  0  0
  5  6  1  6  0  0  0
  5  7  1  0  0  0  0
  7  8  1  6  0  0  0
  7  9  1  0  0  0  0
  9 10  1  0  0  0  0
  9 11  1  1  0  0  0
 11 35  1  0  0  0  0
 12 13  1  1  0  0  0
 12 14  1  0  0  0  0
 12 20  1  0  0  0  0
 14 15  1  0  0  0  0
 14 40  1  6  0  0  0
 15 16  1  1  0  0  0
 15 17  1  0  0  0  0
 17  2  1  6  0  0  0
 17 18  1  0  0  0  0
 18 19  1  1  0  0  0
 18 20  1  0  0  0  0
 21 16  1  1  0  0  0
 21 22  1  0  0  0  0
 21 25  1  0  0  0  0
 22 23  1  0  0  0  0
 22 36  1  6  0  0  0
 23 24  1  0  0  0  0
 23 31  1  6  0  0  0
 24 25  1  0  0  0  0
 24 26  1  1  0  0  0
 26 39  1  0  0  0  0
 27 28  1  0  0  0  0
 27 32  1  0  0  0  0
 27 38  1  6  0  0  0
 28 29  1  0  0  0  0
 28 37  1  1  0  0  0
 29 30  1  0  0  0  0
 29 42  1  1  0  0  0
 30 31  1  6  0  0  0
 30 33  1  0  0  0  0
 32 33  1  0  0  0  0
 32 34  1  6  0  0  0
 34 41  1  0  0  0  0
M  CHG  6   4   1  13   1  19   1  35   1  41   1  42   1
M  END
>  <CHROM.1>
132.49716203,-63.90994503,144.44142589,51.80392701,174.58491179,174.08864084
-174.12819137,179.29723016,62.08608309,-65.07949710,132.98087125,71.53626691
-171.27618595,-155.41649709,65.09031743,-52.00766793,-55.07487950,-58.14943912
58.04954549,-162.22462505,-67.36150933,171.62237012,-7.30888023,3.74325393
-0.62896415,-0.18877045,0.52436460,-0.33750065

>  <Name>


>  <RI>
0

>  <Rbt.Current_Directory>
/home/itssahil/PROJECTS/Mol_Feturizer/New_Systems/rnas/1ei2

>  <Rbt.Executable>
rbdock ($Id: //depot/dev/client3/rdock/2013.1/src/exe/rbdock.cxx#4 $)

>  <Rbt.Library>
libRbt.so (2013.1, Build901 2013/11/27)

>  <Rbt.Parameter_File>
/export/apps/rDock/src/rDock_2013.1_src/data/scripts/dock_solv.prm

>  <Rbt.Receptor>
prm/pocket_docking_5.prm

>  <SCORE>
-54.397

>  <SCORE.INTER>
-35.1964

>  <SCORE.INTER.CONST>
1

>  <SCORE.INTER.POLAR>
-5.5375

>  <SCORE.INTER.ROT>
9

>  <SCORE.INTER.SOLV>
36.3325

>  <SCORE.INTER.VDW>
-26.7168

>  <SCORE.INTER.norm>
-0.83801

>  <SCORE.INTRA>
-19.2006

>  <SCORE.INTRA.DIHEDRAL>
-18.5915

>  <SCORE.INTRA.DIHEDRAL.0>
40.8761

>  <SCORE.INTRA.POLAR>
-1.49597

>  <SCORE.INTRA.POLAR.0>
-0.0268208

>  <SCORE.INTRA.REPUL>
-0.641583

>  <SCORE.INTRA.REPUL.0>
0.641615

>  <SCORE.INTRA.SOLV>
-4.71985

>  <SCORE.INTRA.SOLV.lig_0>
-162.567

>  <SCORE.INTRA.VDW>
0.749329

>  <SCORE.INTRA.VDW.0>
-4.80338

>  <SCORE.INTRA.norm>
-0.457156

>  <SCORE.RESTR>
0

>  <SCORE.RESTR.CAVITY>
0

>  <SCORE.RESTR.norm>
0

>  <SCORE.SYSTEM>
0

>  <SCORE.SYSTEM.CONST>
0

>  <SCORE.SYSTEM.DIHEDRAL>
0

>  <SCORE.SYSTEM.SOLV>
0

>  <SCORE.SYSTEM.norm>
0

>  <SCORE.heavy>
42

>  <SCORE.norm>
-1.29517

>  <RMSD>
8.222

$$$$

 OpenBabel11021811393D
libRbt.so/2013.1/901 2013/11/27
 42 45  0  0  0  0  0  0  0  0999 V2000
   -4.2710    3.9166   -2.4846 C   0  0  2  0  0  0  0  0  0  0  0  0
   -5.0334    4.6147   -1.4526 O   0  0  0  0  0  0  0  0  0  0  0  0
   -5.0166    3.9289   -3.8587 C   0  0  2  0  0  0  0  0  0  0  0  0
   -6.1136    4.9235   -3.8767 N   0  3  0  0  0  0  0  0  0  0  0  0
   -5.5600    2.5092   -4.2025 C   0  0  1  0  0  0  0  0  0  0  0  0
   -6.2286    2.5308   -5.4618 O   0  0  0  0  0  0  0  0  0  0  0  0
   -4.4212    1.4564   -4.2679 C   0  0  2  0  0  0  0  0  0  0  0  0
   -5.0012    0.1570   -4.2939 O   0  0  0  0  0  0  0  0  0  0  0  0
   -3.4562    1.5879   -3.0453 C   0  0  2  0  0  0  0  0  0  0  0  0
   -4.0047    2.5330   -2.0699 O   0  0  0  0  0  0  0  0  0  0  0  0
   -2.0392    2.0957   -3.3982 C   0  0  0  0  0  0  0  0  0  0  0  0
   -2.3904    3.5876    1.8000 C   0  0  1  0  0  0  0  0  0  0  0  0
   -1.6738    3.5837    3.0949 N   0  3  0  0  0  0  0  0  0  0  0  0
   -3.8857    3.2141    1.9758 C   0  0  1  0  0  0  0  0  0  0  0  0
   -4.7296    3.3476    0.6606 C   0  0  1  0  0  0  0  0  0  0  0  0
   -6.1371    3.2929    1.0170 O   0  0  0  0  0  0  0  0  0  0  0  0
   -4.4853    4.7017   -0.1015 C   0  0  1  0  0  0  0  0  0  0  0  0
   -2.9641    5.0396   -0.2227 C   0  0  1  0  0  0  0  0  0  0  0  0
   -2.7381    6.3786   -0.8040 N   0  3  0  0  0  0  0  0  0  0  0  0
   -2.2511    4.9784    1.1468 C   0  0  0  0  0  0  0  0  0  0  0  0
   -7.1468    3.5464   -0.0023 C   0  0  1  0  0  0  0  0  0  0  0  0
   -8.4960    3.0694    0.5218 C   0  0  1  0  0  0  0  0  0  0  0  0
   -8.8705    4.2505    1.4068 C   0  0  1  0  0  0  0  0  0  0  0  0
   -8.4223    5.4388    0.5441 C   0  0  2  0  0  0  0  0  0  0  0  0
   -7.2861    4.9608   -0.2149 O   0  0  0  0  0  0  0  0  0  0  0  0
   -8.0233    6.6705    1.3765 C   0  0  0  0  0  0  0  0  0  0  0  0
  -13.2668    6.5883    0.8731 C   0  0  1  0  0  0  0  0  0  0  0  0
  -13.3346    5.3164    1.7638 C   0  0  1  0  0  0  0  0  0  0  0  0
  -12.2516    5.2640    2.8798 C   0  0  2  0  0  0  0  0  0  0  0  0
  -10.8229    5.4972    2.2914 C   0  0  1  0  0  0  0  0  0  0  0  0
  -10.3018    4.2854    1.6755 O   0  0  0  0  0  0  0  0  0  0  0  0
  -12.0163    7.4483    1.2289 C   0  0  1  0  0  0  0  0  0  0  0  0
  -10.8312    6.5889    1.2905 O   0  0  0  0  0  0  0  0  0  0  0  0
  -11.7692    8.5865    0.2053 C   0  0  0  0  0  0  0  0  0  0  0  0
   -1.2623    1.1855   -4.2580 N   0  3  0  0  0  0  0  0  0  0  0  0
   -9.4103    2.9186   -0.5645 O   0  0  0  0  0  0  0  0  0  0  0  0
  -14.6223    5.2650    2.3768 O   0  0  0  0  0  0  0  0  0  0  0  0
  -13.2102    6.1791   -0.4952 O   0  0  0  0  0  0  0  0  0  0  0  0
   -7.3903    7.6452    0.5654 O   0  0  0  0  0  0  0  0  0  0  0  0
   -3.9706    1.8656    2.4360 O   0  0  0  0  0  0  0  0  0  0  0  0
  -10.6648    9.4809    0.5977 N   0  3  0  0  0  0  0  0  0  0  0  0
  -12.3467    4.0108    3.6688 N   0  3  0  0  0  0  0  0  0  0  0  0
  1  2  1  1  0  0  0
  1  3  1  0  0  0  0
  1 10  1  0  0  0  0
  3  4  1  1  0  0  0
  3  5  1  0  0  0  0
  5  6  1  6  0  0  0
  5  7  1  0  0  0  0
  7  8  1  1  0  0  0
  7  9  1  0  0  0  0
  9 10  1  0  0  0  0
  9 11  1  6  0  0  0
 11 35  1  0  0  0  0
 12 13  1  1  0  0  0
 12 14  1  0  0  0  0
 12 20  1  0  0  0  0
 14 15  1  0  0  0  0
 14 40  1  6  0  0  0
 15 16  1  1  0  0  0
 15 17  1  0  0  0  0
 17  2  1  6  0  0  0
 17 18  1  0  0  0  0
 18 19  1  1  0  0  0
 18 20  1  0  0  0  0
 21 16  1  1  0  0  0
 21 22  1  0  0  0  0
 21 25  1  0  0  0  0
 22 23  1  0  0  0  0
 22 36  1  6  0  0  0
 23 24  1  0  0  0  0
 23 31  1  6  0  0  0
 24 25  1  0  0  0  0
 24 26  1  1  0  0  0
 26 39  1  0  0  0  0
 27 28  1  0  0  0  0
 27 32  1  0  0  0  0
 27 38  1  6  0  0  0
 28 29  1  0  0  0  0
 28 37  1  1  0  0  0
 29 30  1  0  0  0  0
 29 42  1  6  0  0  0
 30 31  1  6  0  0  0
 30 33  1  0  0  0  0
 32 33  1  0  0  0  0
 32 34  1  6  0  0  0
 34 41  1  0  0  0  0
M  CHG  6   4   1  13   1  19   1  35   1  41   1  42   1
M  END
>  <CHROM.1>
-179.99406703,-79.29770893,173.60828892,61.67691578,57.87965138,-64.66724511
-157.97929654,-70.24119760,-62.39728585,173.06111230,165.03689570,-69.69454934
171.55381150,-168.62442244,169.26320010,56.22686464,171.88487476,77.29774585
-20.87055396,-164.26367613,174.71969825,170.86668148,-7.11124049,4.39386738
-0.25260476,0.46687122,0.22373956,-1.91265874

>  <Name>


>  <RI>
0

>  <Rbt.Current_Directory>
/home/itssahil/PROJECTS/Mol_Feturizer/New_Systems/rnas/1ei2

>  <Rbt.Executable>
rbdock ($Id: //depot/dev/client3/rdock/2013.1/src/exe/rbdock.cxx#4 $)

>  <Rbt.Library>
libRbt.so (2013.1, Build901 2013/11/27)

>  <Rbt.Parameter_File>
/export/apps/rDock/src/rDock_2013.1_src/data/scripts/dock_solv.prm

>  <Rbt.Receptor>
prm/pocket_docking_4.prm

>  <SCORE>
-50.9777

>  <SCORE.INTER>
-30.5926

>  <SCORE.INTER.CONST>
1

>  <SCORE.INTER.POLAR>
-5.89559

>  <SCORE.INTER.ROT>
9

>  <SCORE.INTER.SOLV>
24.4764

>  <SCORE.INTER.VDW>
-18.5019

>  <SCORE.INTER.norm>
-0.728395

>  <SCORE.INTRA>
-20.3851

>  <SCORE.INTRA.DIHEDRAL>
-28.0966

>  <SCORE.INTRA.DIHEDRAL.0>
40.8761

>  <SCORE.INTRA.POLAR>
-0.0899645

>  <SCORE.INTRA.POLAR.0>
-0.0268208

>  <SCORE.INTRA.REPUL>
-0.356754

>  <SCORE.INTRA.REPUL.0>
0.641615

>  <SCORE.INTRA.SOLV>
-12.2894

>  <SCORE.INTRA.SOLV.lig_0>
-162.567

>  <SCORE.INTRA.VDW>
1.89752

>  <SCORE.INTRA.VDW.0>
-4.80338

>  <SCORE.INTRA.norm>
-0.48536

>  <SCORE.RESTR>
0

>  <SCORE.RESTR.CAVITY>
0

>  <SCORE.RESTR.norm>
0

>  <SCORE.SYSTEM>
0

>  <SCORE.SYSTEM.CONST>
0

>  <SCORE.SYSTEM.DIHEDRAL>
0

>  <SCORE.SYSTEM.SOLV>
0

>  <SCORE.SYSTEM.norm>
0

>  <SCORE.heavy>
42

>  <SCORE.norm>
-1.21376

>  <RMSD>
8.230

$$$$

 OpenBabel11021811393D
libRbt.so/2013.1/901 2013/11/27
 42 45  0  0  0  0  0  0  0  0999 V2000
   -5.1289    0.7051   -7.3810 C   0  0  2  0  0  0  0  0  0  0  0  0
   -4.1248    0.7925   -6.3238 O   0  0  0  0  0  0  0  0  0  0  0  0
   -6.0440    1.9722   -7.4122 C   0  0  2  0  0  0  0  0  0  0  0  0
   -5.4656    3.0840   -6.6231 N   0  3  0  0  0  0  0  0  0  0  0  0
   -7.4768    1.6288   -6.9043 C   0  0  1  0  0  0  0  0  0  0  0  0
   -8.3045    2.7892   -6.9469 O   0  0  0  0  0  0  0  0  0  0  0  0
   -8.1415    0.5184   -7.7614 C   0  0  2  0  0  0  0  0  0  0  0  0
   -9.3036    0.0527   -7.0844 O   0  0  0  0  0  0  0  0  0  0  0  0
   -7.1567   -0.6690   -8.0141 C   0  0  2  0  0  0  0  0  0  0  0  0
   -5.9475   -0.5015   -7.2047 O   0  0  0  0  0  0  0  0  0  0  0  0
   -6.6864   -0.8115   -9.4799 C   0  0  0  0  0  0  0  0  0  0  0  0
   -3.0615   -3.3895   -6.3272 C   0  0  1  0  0  0  0  0  0  0  0  0
   -2.3199   -4.6620   -6.1819 N   0  3  0  0  0  0  0  0  0  0  0  0
   -3.3786   -2.7548   -4.9478 C   0  0  1  0  0  0  0  0  0  0  0  0
   -4.0305   -1.3314   -5.0417 C   0  0  1  0  0  0  0  0  0  0  0  0
   -3.9768   -0.7199   -3.7248 O   0  0  0  0  0  0  0  0  0  0  0  0
   -3.2878   -0.3707   -6.0415 C   0  0  1  0  0  0  0  0  0  0  0  0
   -2.9694   -1.0728   -7.4012 C   0  0  1  0  0  0  0  0  0  0  0  0
   -2.1431   -0.2238   -8.2835 N   0  3  0  0  0  0  0  0  0  0  0  0
   -2.2360   -2.4173   -7.1956 C   0  0  0  0  0  0  0  0  0  0  0  0
   -4.5422   -1.4248   -2.5818 C   0  0  1  0  0  0  0  0  0  0  0  0
   -4.2659   -0.6098   -1.3239 C   0  0  1  0  0  0  0  0  0  0  0  0
   -5.3757    0.4274   -1.4297 C   0  0  1  0  0  0  0  0  0  0  0  0
   -6.5571   -0.4299   -1.9057 C   0  0  2  0  0  0  0  0  0  0  0  0
   -5.9727   -1.4882   -2.7021 O   0  0  0  0  0  0  0  0  0  0  0  0
   -7.5770    0.3622   -2.7434 C   0  0  0  0  0  0  0  0  0  0  0  0
   -4.7668    4.5352    1.2197 C   0  0  1  0  0  0  0  0  0  0  0  0
   -5.5808    3.4528    1.9821 C   0  0  1  0  0  0  0  0  0  0  0  0
   -4.9015    2.0533    2.0153 C   0  0  2  0  0  0  0  0  0  0  0  0
   -4.4992    1.5868    0.5793 C   0  0  1  0  0  0  0  0  0  0  0  0
   -5.6458    1.0555   -0.1435 O   0  0  0  0  0  0  0  0  0  0  0  0
   -3.5139    3.9079    0.5364 C   0  0  1  0  0  0  0  0  0  0  0  0
   -3.9069    2.7013   -0.1959 O   0  0  0  0  0  0  0  0  0  0  0  0
   -2.8151    4.8915   -0.4373 C   0  0  0  0  0  0  0  0  0  0  0  0
   -7.7150   -1.3227  -10.4029 N   0  3  0  0  0  0  0  0  0  0  0  0
   -4.4280   -1.4338   -0.1692 O   0  0  0  0  0  0  0  0  0  0  0  0
   -5.7726    3.8972    3.3245 O   0  0  0  0  0  0  0  0  0  0  0  0
   -5.6169    5.1312    0.2373 O   0  0  0  0  0  0  0  0  0  0  0  0
   -8.7264   -0.4216   -3.0139 O   0  0  0  0  0  0  0  0  0  0  0  0
   -4.2688   -3.6172   -4.2398 O   0  0  0  0  0  0  0  0  0  0  0  0
   -2.3889    6.1416    0.2182 N   0  3  0  0  0  0  0  0  0  0  0  0
   -5.7445    1.0584    2.7237 N   0  3  0  0  0  0  0  0  0  0  0  0
  1  2  1  1  0  0  0
  1  3  1  0  0  0  0
  1 10  1  0  0  0  0
  3  4  1  1  0  0  0
  3  5  1  0  0  0  0
  5  6  1  6  0  0  0
  5  7  1  0  0  0  0
  7  8  1  1  0  0  0
  7  9  1  0  0  0  0
  9 10  1  0  0  0  0
  9 11  1  6  0  0  0
 11 35  1  0  0  0  0
 12 13  1  1  0  0  0
 12 14  1  0  0  0  0
 12 20  1  0  0  0  0
 14 15  1  0  0  0  0
 14 40  1  6  0  0  0
 15 16  1  1  0  0  0
 15 17  1  0  0  0  0
 17  2  1  6  0  0  0
 17 18  1  0  0  0  0
 18 19  1  6  0  0  0
 18 20  1  0  0  0  0
 21 16  1  6  0  0  0
 21 22  1  0  0  0  0
 21 25  1  0  0  0  0
 22 23  1  0  0  0  0
 22 36  1  1  0  0  0
 23 24  1  0  0  0  0
 23 31  1  1  0  0  0
 24 25  1  0  0  0  0
 24 26  1  6  0  0  0
 26 39  1  0  0  0  0
 27 28  1  0  0  0  0
 27 32  1  0  0  0  0
 27 38  1  6  0  0  0
 28 29  1  0  0  0  0
 28 37  1  1  0  0  0
 29 30  1  0  0  0  0
 29 42  1  6  0  0  0
 30 31  1  6  0  0  0
 30 33  1  0  0  0  0
 32 33  1  0  0  0  0
 32 34  1  6  0  0  0
 34 41  1  0  0  0  0
M  CHG  6   4   1  13   1  19   1  35   1  41   1  42   1
M  END
>  <CHROM.1>
172.64179532,-85.42073787,177.22562928,-67.44111762,-58.84185025,-72.68622581
-167.51362124,-72.58444437,-71.50853624,-54.60354435,176.12599005,-128.89637554
-56.24589724,50.77599464,-172.54149727,-177.48400541,-59.69326028,60.73894469
56.19931932,-172.31182773,57.90594221,157.11102148,-5.16692374,0.56498253
-3.67416033,1.68396375,0.93078091,-2.09979547

>  <Name>


>  <RI>
0

>  <Rbt.Current_Directory>
/home/itssahil/PROJECTS/Mol_Feturizer/New_Systems/rnas/1ei2

>  <Rbt.Executable>
rbdock ($Id: //depot/dev/client3/rdock/2013.1/src/exe/rbdock.cxx#4 $)

>  <Rbt.Library>
libRbt.so (2013.1, Build901 2013/11/27)

>  <Rbt.Parameter_File>
/export/apps/rDock/src/rDock_2013.1_src/data/scripts/dock_solv.prm

>  <Rbt.Receptor>
prm/pocket_docking_7.prm

>  <SCORE>
-58.9496

>  <SCORE.INTER>
-36.9188

>  <SCORE.INTER.CONST>
1

>  <SCORE.INTER.POLAR>
-6.17133

>  <SCORE.INTER.ROT>
9

>  <SCORE.INTER.SOLV>
32.9097

>  <SCORE.INTER.VDW>
-24.6113

>  <SCORE.INTER.norm>
-0.879018

>  <SCORE.INTRA>
-22.0308

>  <SCORE.INTRA.DIHEDRAL>
-29.0379

>  <SCORE.INTRA.DIHEDRAL.0>
40.8761

>  <SCORE.INTRA.POLAR>
0.0268208

>  <SCORE.INTRA.POLAR.0>
-0.0268208

>  <SCORE.INTRA.REPUL>
-0.641615

>  <SCORE.INTRA.REPUL.0>
0.641615

>  <SCORE.INTRA.SOLV>
-13.8957

>  <SCORE.INTRA.SOLV.lig_0>
-162.567

>  <SCORE.INTRA.VDW>
2.55289

>  <SCORE.INTRA.VDW.0>
-4.80338

>  <SCORE.INTRA.norm>
-0.524543

>  <SCORE.RESTR>
0

>  <SCORE.RESTR.CAVITY>
0

>  <SCORE.RESTR.norm>
0

>  <SCORE.SYSTEM>
0

>  <SCORE.SYSTEM.CONST>
0

>  <SCORE.SYSTEM.DIHEDRAL>
0

>  <SCORE.SYSTEM.SOLV>
0

>  <SCORE.SYSTEM.norm>
0

>  <SCORE.heavy>
42

>  <SCORE.norm>
-1.40356

>  <RMSD>
8.234

$$$$

 OpenBabel11021811393D
libRbt.so/2013.1/901 2013/11/27
 42 45  0  0  0  0  0  0  0  0999 V2000
   -8.6442   -5.5047    0.2544 C   0  0  2  0  0  0  0  0  0  0  0  0
   -8.7742   -4.4852   -0.7835 O   0  0  0  0  0  0  0  0  0  0  0  0
   -9.5198   -6.7611   -0.0598 C   0  0  2  0  0  0  0  0  0  0  0  0
   -9.9781   -6.7699   -1.4680 N   0  3  0  0  0  0  0  0  0  0  0  0
  -10.7359   -6.8412    0.9115 C   0  0  1  0  0  0  0  0  0  0  0  0
  -11.5209   -7.9959    0.6220 O   0  0  0  0  0  0  0  0  0  0  0  0
  -10.2850   -6.9119    2.3951 C   0  0  2  0  0  0  0  0  0  0  0  0
  -11.4177   -6.6908    3.2280 O   0  0  0  0  0  0  0  0  0  0  0  0
   -9.1785   -5.8515    2.7029 C   0  0  2  0  0  0  0  0  0  0  0  0
   -9.0155   -4.9479    1.5618 O   0  0  0  0  0  0  0  0  0  0  0  0
   -7.7817   -6.4475    2.9927 C   0  0  0  0  0  0  0  0  0  0  0  0
   -9.9404   -0.3411   -0.4905 C   0  0  1  0  0  0  0  0  0  0  0  0
   -9.9820    1.0971   -0.1434 N   0  3  0  0  0  0  0  0  0  0  0  0
   -8.7562   -0.6637   -1.4389 C   0  0  1  0  0  0  0  0  0  0  0  0
   -8.5715   -2.1954   -1.7213 C   0  0  1  0  0  0  0  0  0  0  0  0
   -7.2693   -2.3898   -2.3357 O   0  0  0  0  0  0  0  0  0  0  0  0
   -8.6193   -3.0788   -0.4207 C   0  0  1  0  0  0  0  0  0  0  0  0
   -9.8144   -2.6895    0.5083 C   0  0  1  0  0  0  0  0  0  0  0  0
   -9.7748   -3.4134    1.7953 N   0  3  0  0  0  0  0  0  0  0  0  0
   -9.8413   -1.1732    0.8050 C   0  0  0  0  0  0  0  0  0  0  0  0
   -6.0777   -1.8792   -1.6707 C   0  0  1  0  0  0  0  0  0  0  0  0
   -4.8495   -2.4391   -2.3783 C   0  0  1  0  0  0  0  0  0  0  0  0
   -4.7764   -1.4956   -3.5712 C   0  0  1  0  0  0  0  0  0  0  0  0
   -5.1076   -0.1454   -2.9196 C   0  0  2  0  0  0  0  0  0  0  0  0
   -6.0027   -0.4523   -1.8241 O   0  0  0  0  0  0  0  0  0  0  0  0
   -5.7778    0.8433   -3.8905 C   0  0  0  0  0  0  0  0  0  0  0  0
   -1.1487    1.2848   -5.4813 C   0  0  1  0  0  0  0  0  0  0  0  0
   -0.8136   -0.2328   -5.4860 C   0  0  1  0  0  0  0  0  0  0  0  0
   -1.9245   -1.1267   -6.1089 C   0  0  2  0  0  0  0  0  0  0  0  0
   -3.3158   -0.8314   -5.4616 C   0  0  1  0  0  0  0  0  0  0  0  0
   -3.4500   -1.4958   -4.1733 O   0  0  0  0  0  0  0  0  0  0  0  0
   -2.6053    1.5326   -5.9785 C   0  0  1  0  0  0  0  0  0  0  0  0
   -3.5218    0.6246   -5.2841 O   0  0  0  0  0  0  0  0  0  0  0  0
   -3.0674    2.9954   -5.7535 C   0  0  0  0  0  0  0  0  0  0  0  0
   -7.7726   -7.5106    4.0130 N   0  3  0  0  0  0  0  0  0  0  0  0
   -3.7045   -2.3069   -1.5356 O   0  0  0  0  0  0  0  0  0  0  0  0
    0.3921   -0.4247   -6.2249 O   0  0  0  0  0  0  0  0  0  0  0  0
   -0.9925    1.7779   -4.1489 O   0  0  0  0  0  0  0  0  0  0  0  0
   -7.1591    0.5579   -4.0289 O   0  0  0  0  0  0  0  0  0  0  0  0
   -8.9682    0.0058   -2.6816 O   0  0  0  0  0  0  0  0  0  0  0  0
   -3.6560    3.6030   -6.9611 N   0  3  0  0  0  0  0  0  0  0  0  0
   -1.5604   -2.5641   -6.0491 N   0  3  0  0  0  0  0  0  0  0  0  0
  1  2  1  6  0  0  0
  1  3  1  0  0  0  0
  1 10  1  0  0  0  0
  3  4  1  6  0  0  0
  3  5  1  0  0  0  0
  5  6  1  6  0  0  0
  5  7  1  0  0  0  0
  7  8  1  1  0  0  0
  7  9  1  0  0  0  0
  9 10  1  0  0  0  0
  9 11  1  6  0  0  0
 11 35  1  0  0  0  0
 12 13  1  1  0  0  0
 12 14  1  0  0  0  0
 12 20  1  0  0  0  0
 14 15  1  0  0  0  0
 14 40  1  6  0  0  0
 15 16  1  1  0  0  0
 15 17  1  0  0  0  0
 17  2  1  6  0  0  0
 17 18  1  0  0  0  0
 18 19  1  1  0  0  0
 18 20  1  0  0  0  0
 21 16  1  6  0  0  0
 21 22  1  0  0  0  0
 21 25  1  0  0  0  0
 22 23  1  0  0  0  0
 22 36  1  1  0  0  0
 23 24  1  0  0  0  0
 23 31  1  1  0  0  0
 24 25  1  0  0  0  0
 24 26  1  6  0  0  0
 26 39  1  0  0  0  0
 27 28  1  0  0  0  0
 27 32  1  0  0  0  0
 27 38  1  1  0  0  0
 28 29  1  0  0  0  0
 28 37  1  6  0  0  0
 29 30  1  0  0  0  0
 29 42  1  1  0  0  0
 30 31  1  1  0  0  0
 30 33  1  0  0  0  0
 32 33  1  0  0  0  0
 32 34  1  1  0  0  0
 34 41  1  0  0  0  0
M  CHG  6   4   1  13   1  19   1  35   1  41   1  42   1
M  END
>  <CHROM.1>
150.06809210,171.03218472,-171.89390098,-175.19675797,-171.43351717,-51.09484915
70.64098940,9.87010268,-156.57023710,54.30859355,169.45746342,-97.03744319
164.89308459,168.95424025,80.10343041,98.59166861,47.07768027,-45.17339120
68.88467449,-169.67473246,130.33612631,62.69009248,-6.55313171,-2.23404948
-1.87229054,-2.33769876,0.47507331,-0.40934275

>  <Name>


>  <RI>
0

>  <Rbt.Current_Directory>
/home/itssahil/PROJECTS/Mol_Feturizer/New_Systems/rnas/1ei2

>  <Rbt.Executable>
rbdock ($Id: //depot/dev/client3/rdock/2013.1/src/exe/rbdock.cxx#4 $)

>  <Rbt.Library>
libRbt.so (2013.1, Build901 2013/11/27)

>  <Rbt.Parameter_File>
/export/apps/rDock/src/rDock_2013.1_src/data/scripts/dock_solv.prm

>  <Rbt.Receptor>
prm/blind_docking_80.prm

>  <SCORE>
45.9505

>  <SCORE.INTER>
26.5268

>  <SCORE.INTER.CONST>
1

>  <SCORE.INTER.POLAR>
-7.42936

>  <SCORE.INTER.ROT>
9

>  <SCORE.INTER.SOLV>
64.54

>  <SCORE.INTER.VDW>
11.3357

>  <SCORE.INTER.norm>
0.63159

>  <SCORE.INTRA>
11.3338

>  <SCORE.INTRA.DIHEDRAL>
-10.5353

>  <SCORE.INTRA.DIHEDRAL.0>
40.8761

>  <SCORE.INTRA.POLAR>
-0.213585

>  <SCORE.INTRA.POLAR.0>
-0.0268208

>  <SCORE.INTRA.REPUL>
-0.641615

>  <SCORE.INTRA.REPUL.0>
0.641615

>  <SCORE.INTRA.SOLV>
-5.38935

>  <SCORE.INTRA.SOLV.lig_0>
-162.567

>  <SCORE.INTRA.VDW>
23.2304

>  <SCORE.INTRA.VDW.0>
-4.80338

>  <SCORE.INTRA.norm>
0.269852

>  <SCORE.RESTR>
8.08989

>  <SCORE.RESTR.CAVITY>
8.08989

>  <SCORE.RESTR.norm>
0.192616

>  <SCORE.SYSTEM>
0

>  <SCORE.SYSTEM.CONST>
0

>  <SCORE.SYSTEM.DIHEDRAL>
0

>  <SCORE.SYSTEM.SOLV>
0

>  <SCORE.SYSTEM.norm>
0

>  <SCORE.heavy>
42

>  <SCORE.norm>
1.09406

>  <RMSD>
8.246

$$$$

 OpenBabel11021811393D
libRbt.so/2013.1/901 2013/11/27
 42 45  0  0  0  0  0  0  0  0999 V2000
   -4.1992    0.9244   -2.4796 C   0  0  2  0  0  0  0  0  0  0  0  0
   -2.9995    1.1221   -3.2892 O   0  0  0  0  0  0  0  0  0  0  0  0
   -3.9392   -0.0642   -1.2969 C   0  0  2  0  0  0  0  0  0  0  0  0
   -2.4913   -0.2784   -1.0715 N   0  3  0  0  0  0  0  0  0  0  0  0
   -4.6605   -1.4229   -1.5467 C   0  0  1  0  0  0  0  0  0  0  0  0
   -4.4246   -2.3122   -0.4572 O   0  0  0  0  0  0  0  0  0  0  0  0
   -6.1933   -1.2402   -1.7099 C   0  0  2  0  0  0  0  0  0  0  0  0
   -6.7462   -2.4497   -2.2170 O   0  0  0  0  0  0  0  0  0  0  0  0
   -6.5240   -0.0547   -2.6735 C   0  0  2  0  0  0  0  0  0  0  0  0
   -5.2997    0.4284   -3.3163 O   0  0  0  0  0  0  0  0  0  0  0  0
   -7.1702    1.1699   -1.9857 C   0  0  0  0  0  0  0  0  0  0  0  0
   -4.8615    3.6122   -6.2812 C   0  0  1  0  0  0  0  0  0  0  0  0
   -5.1157    4.4073   -7.5033 N   0  3  0  0  0  0  0  0  0  0  0  0
   -4.7729    2.0960   -6.5968 C   0  0  1  0  0  0  0  0  0  0  0  0
   -4.3562    1.2174   -5.3661 C   0  0  1  0  0  0  0  0  0  0  0  0
   -3.9949   -0.1030   -5.8529 O   0  0  0  0  0  0  0  0  0  0  0  0
   -3.1180    1.7897   -4.5829 C   0  0  1  0  0  0  0  0  0  0  0  0
   -3.2498    3.3247   -4.3194 C   0  0  1  0  0  0  0  0  0  0  0  0
   -2.0254    3.8912   -3.7180 N   0  3  0  0  0  0  0  0  0  0  0  0
   -3.5596    4.1057   -5.6163 C   0  0  0  0  0  0  0  0  0  0  0  0
   -3.4497   -1.0860   -4.9260 C   0  0  1  0  0  0  0  0  0  0  0  0
   -3.5141   -2.4600   -5.5824 C   0  0  1  0  0  0  0  0  0  0  0  0
   -2.2812   -2.3875   -6.4731 C   0  0  1  0  0  0  0  0  0  0  0  0
   -1.2704   -1.6951   -5.5478 C   0  0  2  0  0  0  0  0  0  0  0  0
   -2.0551   -0.8253   -4.6974 O   0  0  0  0  0  0  0  0  0  0  0  0
   -0.2155   -0.8767   -6.3137 C   0  0  0  0  0  0  0  0  0  0  0  0
   -3.1549   -3.1156  -10.4253 C   0  0  1  0  0  0  0  0  0  0  0  0
   -1.8152   -3.8211  -10.0748 C   0  0  1  0  0  0  0  0  0  0  0  0
   -1.9536   -4.9618   -9.0255 C   0  0  2  0  0  0  0  0  0  0  0  0
   -2.7118   -4.4681   -7.7515 C   0  0  1  0  0  0  0  0  0  0  0  0
   -1.8303   -3.7140   -6.8720 O   0  0  0  0  0  0  0  0  0  0  0  0
   -4.3096   -3.6349   -9.5158 C   0  0  1  0  0  0  0  0  0  0  0  0
   -3.8741   -3.6259   -8.1169 O   0  0  0  0  0  0  0  0  0  0  0  0
   -5.6002   -2.7868   -9.6545 C   0  0  0  0  0  0  0  0  0  0  0  0
   -8.3227    0.8481   -1.1259 N   0  3  0  0  0  0  0  0  0  0  0  0
   -3.3828   -3.4767   -4.5886 O   0  0  0  0  0  0  0  0  0  0  0  0
   -1.2688   -4.3696  -11.2735 O   0  0  0  0  0  0  0  0  0  0  0  0
   -2.9839   -1.7076  -10.2485 O   0  0  0  0  0  0  0  0  0  0  0  0
   -0.7766    0.3216   -6.8217 O   0  0  0  0  0  0  0  0  0  0  0  0
   -6.0455    1.6497   -7.0645 O   0  0  0  0  0  0  0  0  0  0  0  0
   -6.3332   -3.0582  -10.9047 N   0  3  0  0  0  0  0  0  0  0  0  0
   -0.6370   -5.5681   -8.7075 N   0  3  0  0  0  0  0  0  0  0  0  0
  1  2  1  6  0  0  0
  1  3  1  0  0  0  0
  1 10  1  0  0  0  0
  3  4  1  6  0  0  0
  3  5  1  0  0  0  0
  5  6  1  1  0  0  0
  5  7  1  0  0  0  0
  7  8  1  6  0  0  0
  7  9  1  0  0  0  0
  9 10  1  0  0  0  0
  9 11  1  1  0  0  0
 11 35  1  0  0  0  0
 12 13  1  6  0  0  0
 12 14  1  0  0  0  0
 12 20  1  0  0  0  0
 14 15  1  0  0  0  0
 14 40  1  1  0  0  0
 15 16  1  6  0  0  0
 15 17  1  0  0  0  0
 17  2  1  1  0  0  0
 17 18  1  0  0  0  0
 18 19  1  6  0  0  0
 18 20  1  0  0  0  0
 21 16  1  6  0  0  0
 21 22  1  0  0  0  0
 21 25  1  0  0  0  0
 22 23  1  0  0  0  0
 22 36  1  1  0  0  0
 23 24  1  0  0  0  0
 23 31  1  1  0  0  0
 24 25  1  0  0  0  0
 24 26  1  6  0  0  0
 26 39  1  0  0  0  0
 27 28  1  0  0  0  0
 27 32  1  0  0  0  0
 27 38  1  1  0  0  0
 28 29  1  0  0  0  0
 28 37  1  6  0  0  0
 29 30  1  0  0  0  0
 29 42  1  1  0  0  0
 30 31  1  1  0  0  0
 30 33  1  0  0  0  0
 32 33  1  0  0  0  0
 32 34  1  1  0  0  0
 34 41  1  0  0  0  0
M  CHG  6   4   1  13   1  19   1  35   1  41   1  42   1
M  END
>  <CHROM.1>
167.63569711,-44.70665662,-16.87651482,77.15443929,-167.07342752,-50.08583023
-58.99399853,-65.12156014,74.93556793,174.41495223,164.85920910,-57.86438551
176.26798551,66.83020037,74.14831980,-174.54730053,175.78747251,-55.59781456
72.77559941,126.76047638,75.45639972,-162.73115200,-3.75419187,-0.83397009
-5.66760730,3.10317037,1.29317051,-0.57052712

>  <Name>


>  <RI>
0

>  <Rbt.Current_Directory>
/home/itssahil/PROJECTS/Mol_Feturizer/New_Systems/rnas/1ei2

>  <Rbt.Executable>
rbdock ($Id: //depot/dev/client3/rdock/2013.1/src/exe/rbdock.cxx#4 $)

>  <Rbt.Library>
libRbt.so (2013.1, Build901 2013/11/27)

>  <Rbt.Parameter_File>
/export/apps/rDock/src/rDock_2013.1_src/data/scripts/dock_solv.prm

>  <Rbt.Receptor>
prm/blind_docking_40.prm

>  <SCORE>
-6.16456

>  <SCORE.INTER>
-14.945

>  <SCORE.INTER.CONST>
1

>  <SCORE.INTER.POLAR>
-4.59645

>  <SCORE.INTER.ROT>
9

>  <SCORE.INTER.SOLV>
39.1605

>  <SCORE.INTER.VDW>
-17.2954

>  <SCORE.INTER.norm>
-0.355834

>  <SCORE.INTRA>
-14.9601

>  <SCORE.INTRA.DIHEDRAL>
-20.0388

>  <SCORE.INTRA.DIHEDRAL.0>
40.8761

>  <SCORE.INTRA.POLAR>
-0.399408

>  <SCORE.INTRA.POLAR.0>
-0.0268208

>  <SCORE.INTRA.REPUL>
-0.522267

>  <SCORE.INTRA.REPUL.0>
0.641615

>  <SCORE.INTRA.SOLV>
-11.9637

>  <SCORE.INTRA.SOLV.lig_0>
-162.567

>  <SCORE.INTRA.VDW>
5.01046

>  <SCORE.INTRA.VDW.0>
-4.80338

>  <SCORE.INTRA.norm>
-0.356193

>  <SCORE.RESTR>
23.7406

>  <SCORE.RESTR.CAVITY>
23.7406

>  <SCORE.RESTR.norm>
0.565252

>  <SCORE.SYSTEM>
0

>  <SCORE.SYSTEM.CONST>
0

>  <SCORE.SYSTEM.DIHEDRAL>
0

>  <SCORE.SYSTEM.SOLV>
0

>  <SCORE.SYSTEM.norm>
0

>  <SCORE.heavy>
42

>  <SCORE.norm>
-0.146775

>  <RMSD>
8.259

$$$$

 OpenBabel11021811393D
libRbt.so/2013.1/901 2013/11/27
 42 45  0  0  0  0  0  0  0  0999 V2000
   -3.9495    1.2052   -5.4632 C   0  0  2  0  0  0  0  0  0  0  0  0
   -4.3399   -0.1849   -5.6848 O   0  0  0  0  0  0  0  0  0  0  0  0
   -5.0974    2.1940   -5.8486 C   0  0  2  0  0  0  0  0  0  0  0  0
   -6.3937    1.4944   -6.0006 N   0  3  0  0  0  0  0  0  0  0  0  0
   -4.7396    2.9715   -7.1510 C   0  0  1  0  0  0  0  0  0  0  0  0
   -5.7887    3.8771   -7.4867 O   0  0  0  0  0  0  0  0  0  0  0  0
   -3.4229    3.7791   -6.9970 C   0  0  2  0  0  0  0  0  0  0  0  0
   -3.0045    4.2206   -8.2837 O   0  0  0  0  0  0  0  0  0  0  0  0
   -2.3009    2.9141   -6.3363 C   0  0  2  0  0  0  0  0  0  0  0  0
   -2.7368    1.5199   -6.2296 O   0  0  0  0  0  0  0  0  0  0  0  0
   -1.9039    3.3593   -4.9100 C   0  0  0  0  0  0  0  0  0  0  0  0
   -2.8694   -4.1301   -4.7399 C   0  0  1  0  0  0  0  0  0  0  0  0
   -2.0043   -5.3226   -4.5995 N   0  3  0  0  0  0  0  0  0  0  0  0
   -2.4003   -2.9747   -3.8172 C   0  0  1  0  0  0  0  0  0  0  0  0
   -3.1868   -1.6349   -4.0322 C   0  0  1  0  0  0  0  0  0  0  0  0
   -2.4574   -0.5689   -3.3668 O   0  0  0  0  0  0  0  0  0  0  0  0
   -3.3346   -1.2354   -5.5464 C   0  0  1  0  0  0  0  0  0  0  0  0
   -3.7809   -2.4447   -6.4304 C   0  0  1  0  0  0  0  0  0  0  0  0
   -3.7762   -2.1112   -7.8694 N   0  3  0  0  0  0  0  0  0  0  0  0
   -2.8758   -3.6785   -6.2153 C   0  0  0  0  0  0  0  0  0  0  0  0
   -2.9272   -0.0709   -2.0807 C   0  0  1  0  0  0  0  0  0  0  0  0
   -3.9685    1.0135   -2.3312 C   0  0  1  0  0  0  0  0  0  0  0  0
   -5.1892    0.1494   -2.6171 C   0  0  1  0  0  0  0  0  0  0  0  0
   -5.0373   -0.9595   -1.5661 C   0  0  2  0  0  0  0  0  0  0  0  0
   -3.6116   -1.1154   -1.3696 O   0  0  0  0  0  0  0  0  0  0  0  0
   -5.6608   -2.2961   -2.0067 C   0  0  0  0  0  0  0  0  0  0  0  0
   -9.8449   -0.1993   -1.0788 C   0  0  1  0  0  0  0  0  0  0  0  0
   -9.4794    1.2428   -1.5284 C   0  0  1  0  0  0  0  0  0  0  0  0
   -8.8310    1.3227   -2.9406 C   0  0  2  0  0  0  0  0  0  0  0  0
   -7.6208    0.3417   -3.0626 C   0  0  1  0  0  0  0  0  0  0  0  0
   -6.4271    0.8967   -2.4411 O   0  0  0  0  0  0  0  0  0  0  0  0
   -9.3306   -1.2489   -2.1103 C   0  0  1  0  0  0  0  0  0  0  0  0
   -7.9316   -0.9665   -2.4415 O   0  0  0  0  0  0  0  0  0  0  0  0
   -9.4477   -2.7028   -1.5847 C   0  0  0  0  0  0  0  0  0  0  0  0
   -2.4661    4.6577   -4.4983 N   0  3  0  0  0  0  0  0  0  0  0  0
   -4.1457    1.7951   -1.1495 O   0  0  0  0  0  0  0  0  0  0  0  0
  -10.6704    2.0289   -1.5296 O   0  0  0  0  0  0  0  0  0  0  0  0
   -9.2549   -0.4366    0.2013 O   0  0  0  0  0  0  0  0  0  0  0  0
   -6.1015   -3.0422   -0.8851 O   0  0  0  0  0  0  0  0  0  0  0  0
   -2.5567   -3.3811   -2.4578 O   0  0  0  0  0  0  0  0  0  0  0  0
   -9.2763   -2.8000   -0.1235 N   0  3  0  0  0  0  0  0  0  0  0  0
   -8.4724    2.7187   -3.2941 N   0  3  0  0  0  0  0  0  0  0  0  0
  1  2  1  6  0  0  0
  1  3  1  0  0  0  0
  1 10  1  0  0  0  0
  3  4  1  6  0  0  0
  3  5  1  0  0  0  0
  5  6  1  1  0  0  0
  5  7  1  0  0  0  0
  7  8  1  6  0  0  0
  7  9  1  0  0  0  0
  9 10  1  0  0  0  0
  9 11  1  1  0  0  0
 11 35  1  0  0  0  0
 12 13  1  6  0  0  0
 12 14  1  0  0  0  0
 12 20  1  0  0  0  0
 14 15  1  0  0  0  0
 14 40  1  1  0  0  0
 15 16  1  1  0  0  0
 15 17  1  0  0  0  0
 17  2  1  1  0  0  0
 17 18  1  0  0  0  0
 18 19  1  6  0  0  0
 18 20  1  0  0  0  0
 21 16  1  6  0  0  0
 21 22  1  0  0  0  0
 21 25  1  0  0  0  0
 22 23  1  0  0  0  0
 22 36  1  1  0  0  0
 23 24  1  0  0  0  0
 23 31  1  1  0  0  0
 24 25  1  0  0  0  0
 24 26  1  6  0  0  0
 26 39  1  0  0  0  0
 27 28  1  0  0  0  0
 27 32  1  0  0  0  0
 27 38  1  1  0  0  0
 28 29  1  0  0  0  0
 28 37  1  6  0  0  0
 29 30  1  0  0  0  0
 29 42  1  1  0  0  0
 30 31  1  1  0  0  0
 30 33  1  0  0  0  0
 32 33  1  0  0  0  0
 32 34  1  1  0  0  0
 34 41  1  0  0  0  0
M  CHG  6   4   1  13   1  19   1  35   1  41   1  42   1
M  END
>  <CHROM.1>
172.03877525,83.42375590,-76.45202637,-48.14906090,167.28747531,-10.37215199
-56.94551830,-73.44989682,67.20671594,-102.48612024,-86.29930451,-172.30677707
98.97317804,161.69100505,-150.95307588,112.31979297,64.52147386,66.48605353
-178.94924708,-173.24901450,-32.03675533,-68.63376032,-5.22756472,0.01984035
-3.78733066,0.57039779,0.57431248,-0.44588567

>  <Name>


>  <RI>
0

>  <Rbt.Current_Directory>
/home/itssahil/PROJECTS/Mol_Feturizer/New_Systems/rnas/1ei2

>  <Rbt.Executable>
rbdock ($Id: //depot/dev/client3/rdock/2013.1/src/exe/rbdock.cxx#4 $)

>  <Rbt.Library>
libRbt.so (2013.1, Build901 2013/11/27)

>  <Rbt.Parameter_File>
/export/apps/rDock/src/rDock_2013.1_src/data/scripts/dock_solv.prm

>  <Rbt.Receptor>
prm/blind_docking_60.prm

>  <SCORE>
-1.01035

>  <SCORE.INTER>
-15.5519

>  <SCORE.INTER.CONST>
1

>  <SCORE.INTER.POLAR>
-4.98472

>  <SCORE.INTER.ROT>
9

>  <SCORE.INTER.SOLV>
40.6044

>  <SCORE.INTER.VDW>
-16.887

>  <SCORE.INTER.norm>
-0.370283

>  <SCORE.INTRA>
-2.90927

>  <SCORE.INTRA.DIHEDRAL>
-2.2862

>  <SCORE.INTRA.DIHEDRAL.0>
40.8761

>  <SCORE.INTRA.POLAR>
-0.0902446

>  <SCORE.INTRA.POLAR.0>
-0.0268208

>  <SCORE.INTRA.REPUL>
-0.51838

>  <SCORE.INTRA.REPUL.0>
0.641615

>  <SCORE.INTRA.SOLV>
0.268945

>  <SCORE.INTRA.SOLV.lig_0>
-162.567

>  <SCORE.INTRA.VDW>
0.998089

>  <SCORE.INTRA.VDW.0>
-4.80338

>  <SCORE.INTRA.norm>
-0.0692683

>  <SCORE.RESTR>
17.4508

>  <SCORE.RESTR.CAVITY>
17.4508

>  <SCORE.RESTR.norm>
0.415495

>  <SCORE.SYSTEM>
0

>  <SCORE.SYSTEM.CONST>
0

>  <SCORE.SYSTEM.DIHEDRAL>
0

>  <SCORE.SYSTEM.SOLV>
0

>  <SCORE.SYSTEM.norm>
0

>  <SCORE.heavy>
42

>  <SCORE.norm>
-0.0240559

>  <RMSD>
8.263

$$$$

 OpenBabel11021811393D
libRbt.so/2013.1/901 2013/11/27
 42 45  0  0  0  0  0  0  0  0999 V2000
   -3.9538    1.2050   -5.0671 C   0  0  2  0  0  0  0  0  0  0  0  0
   -4.6471    2.4179   -5.4936 O   0  0  0  0  0  0  0  0  0  0  0  0
   -2.4393    1.2415   -5.4531 C   0  0  2  0  0  0  0  0  0  0  0  0
   -2.0029    2.6067   -5.8259 N   0  3  0  0  0  0  0  0  0  0  0  0
   -2.1413    0.2378   -6.6074 C   0  0  1  0  0  0  0  0  0  0  0  0
   -0.7559    0.2727   -6.9435 O   0  0  0  0  0  0  0  0  0  0  0  0
   -2.5166   -1.2170   -6.2175 C   0  0  2  0  0  0  0  0  0  0  0  0
   -2.4973   -2.0238   -7.3899 O   0  0  0  0  0  0  0  0  0  0  0  0
   -3.9278   -1.2788   -5.5479 C   0  0  2  0  0  0  0  0  0  0  0  0
   -4.5938    0.0213   -5.6557 O   0  0  0  0  0  0  0  0  0  0  0  0
   -3.9091   -1.6381   -4.0443 C   0  0  0  0  0  0  0  0  0  0  0  0
   -8.5493    4.2577   -5.4051 C   0  0  1  0  0  0  0  0  0  0  0  0
   -9.9408    4.6099   -5.0444 N   0  3  0  0  0  0  0  0  0  0  0  0
   -7.5470    4.7021   -4.3077 C   0  0  1  0  0  0  0  0  0  0  0  0
   -6.0757    4.2229   -4.5638 C   0  0  1  0  0  0  0  0  0  0  0  0
   -5.3177    4.4104   -3.3385 O   0  0  0  0  0  0  0  0  0  0  0  0
   -5.9750    2.7030   -4.9562 C   0  0  1  0  0  0  0  0  0  0  0  0
   -7.0265    2.3076   -6.0429 C   0  0  1  0  0  0  0  0  0  0  0  0
   -7.0340    0.8537   -6.3041 N   0  3  0  0  0  0  0  0  0  0  0  0
   -8.4560    2.7360   -5.6419 C   0  0  0  0  0  0  0  0  0  0  0  0
   -4.0227    5.0762   -3.3896 C   0  0  1  0  0  0  0  0  0  0  0  0
   -3.8333    5.8688   -2.1017 C   0  0  1  0  0  0  0  0  0  0  0  0
   -3.3955    4.7520   -1.1639 C   0  0  1  0  0  0  0  0  0  0  0  0
   -2.4524    3.9421   -2.0648 C   0  0  2  0  0  0  0  0  0  0  0  0
   -2.9685    4.0997   -3.4081 O   0  0  0  0  0  0  0  0  0  0  0  0
   -2.3959    2.4501   -1.6905 C   0  0  0  0  0  0  0  0  0  0  0  0
   -2.5959    4.6478    3.7939 C   0  0  1  0  0  0  0  0  0  0  0  0
   -1.8468    5.7897    3.0520 C   0  0  1  0  0  0  0  0  0  0  0  0
   -2.7488    6.6283    2.1011 C   0  0  2  0  0  0  0  0  0  0  0  0
   -3.5432    5.7080    1.1193 C   0  0  1  0  0  0  0  0  0  0  0  0
   -2.7075    5.2762    0.0082 O   0  0  0  0  0  0  0  0  0  0  0  0
   -4.0645    4.5261    3.2853 C   0  0  1  0  0  0  0  0  0  0  0  0
   -4.0771    4.5175    1.8202 O   0  0  0  0  0  0  0  0  0  0  0  0
   -4.7692    3.2486    3.8098 C   0  0  0  0  0  0  0  0  0  0  0  0
   -3.4313   -3.0004   -3.7492 N   0  3  0  0  0  0  0  0  0  0  0  0
   -2.8004    6.8385   -2.2788 O   0  0  0  0  0  0  0  0  0  0  0  0
   -1.2788    6.6628    4.0275 O   0  0  0  0  0  0  0  0  0  0  0  0
   -1.8930    3.4242    3.5668 O   0  0  0  0  0  0  0  0  0  0  0  0
   -3.6892    1.8712   -1.7245 O   0  0  0  0  0  0  0  0  0  0  0  0
   -7.5543    6.1273   -4.2298 O   0  0  0  0  0  0  0  0  0  0  0  0
   -5.0811    3.3156    5.2493 N   0  3  0  0  0  0  0  0  0  0  0  0
   -1.9678    7.6753    1.3968 N   0  3  0  0  0  0  0  0  0  0  0  0
  1  2  1  6  0  0  0
  1  3  1  0  0  0  0
  1 10  1  0  0  0  0
  3  4  1  6  0  0  0
  3  5  1  0  0  0  0
  5  6  1  1  0  0  0
  5  7  1  0  0  0  0
  7  8  1  6  0  0  0
  7  9  1  0  0  0  0
  9 10  1  0  0  0  0
  9 11  1  1  0  0  0
 11 35  1  0  0  0  0
 12 13  1  1  0  0  0
 12 14  1  0  0  0  0
 12 20  1  0  0  0  0
 14 15  1  0  0  0  0
 14 40  1  6  0  0  0
 15 16  1  1  0  0  0
 15 17  1  0  0  0  0
 17  2  1  6  0  0  0
 17 18  1  0  0  0  0
 18 19  1  1  0  0  0
 18 20  1  0  0  0  0
 21 16  1  1  0  0  0
 21 22  1  0  0  0  0
 21 25  1  0  0  0  0
 22 23  1  0  0  0  0
 22 36  1  6  0  0  0
 23 24  1  0  0  0  0
 23 31  1  1  0  0  0
 24 25  1  0  0  0  0
 24 26  1  1  0  0  0
 26 39  1  0  0  0  0
 27 28  1  0  0  0  0
 27 32  1  0  0  0  0
 27 38  1  6  0  0  0
 28 29  1  0  0  0  0
 28 37  1  1  0  0  0
 29 30  1  0  0  0  0
 29 42  1  6  0  0  0
 30 31  1  6  0  0  0
 30 33  1  0  0  0  0
 32 33  1  0  0  0  0
 32 34  1  1  0  0  0
 34 41  1  0  0  0  0
M  CHG  6   4   1  13   1  19   1  35   1  41   1  42   1
M  END
>  <CHROM.1>
-165.89351649,136.38061655,155.62178296,-169.00237371,64.31300075,-65.61495469
56.91402599,-176.36876032,-61.93974026,-131.33879664,146.48284318,-29.82810371
-52.65514414,84.62986721,56.83243241,61.21212248,64.71330622,-59.31971979
66.51549454,-162.65393959,71.40798184,-42.01349946,-4.08426218,3.13383340
-2.42889999,-1.77464898,-0.69940633,0.94398028

>  <Name>


>  <RI>
0

>  <Rbt.Current_Directory>
/home/itssahil/PROJECTS/Mol_Feturizer/New_Systems/rnas/1ei2

>  <Rbt.Executable>
rbdock ($Id: //depot/dev/client3/rdock/2013.1/src/exe/rbdock.cxx#4 $)

>  <Rbt.Library>
libRbt.so (2013.1, Build901 2013/11/27)

>  <Rbt.Parameter_File>
/export/apps/rDock/src/rDock_2013.1_src/data/scripts/dock_solv.prm

>  <Rbt.Receptor>
prm/pocket_docking_6.prm

>  <SCORE>
-58.4032

>  <SCORE.INTER>
-34.9189

>  <SCORE.INTER.CONST>
1

>  <SCORE.INTER.POLAR>
-5.48348

>  <SCORE.INTER.ROT>
9

>  <SCORE.INTER.SOLV>
31.2985

>  <SCORE.INTER.VDW>
-25.0338

>  <SCORE.INTER.norm>
-0.831402

>  <SCORE.INTRA>
-23.4843

>  <SCORE.INTRA.DIHEDRAL>
-12.7091

>  <SCORE.INTRA.DIHEDRAL.0>
40.8761

>  <SCORE.INTRA.POLAR>
-2.30681

>  <SCORE.INTRA.POLAR.0>
-0.0268208

>  <SCORE.INTRA.REPUL>
-0.641615

>  <SCORE.INTRA.REPUL.0>
0.641615

>  <SCORE.INTRA.SOLV>
-8.70015

>  <SCORE.INTRA.SOLV.lig_0>
-162.567

>  <SCORE.INTRA.VDW>
-1.72846

>  <SCORE.INTRA.VDW.0>
-4.80338

>  <SCORE.INTRA.norm>
-0.55915

>  <SCORE.RESTR>
0

>  <SCORE.RESTR.CAVITY>
0

>  <SCORE.RESTR.norm>
0

>  <SCORE.SYSTEM>
0

>  <SCORE.SYSTEM.CONST>
0

>  <SCORE.SYSTEM.DIHEDRAL>
0

>  <SCORE.SYSTEM.SOLV>
0

>  <SCORE.SYSTEM.norm>
0

>  <SCORE.heavy>
42

>  <SCORE.norm>
-1.39055

>  <RMSD>
8.278

$$$$

 OpenBabel11021811393D
libRbt.so/2013.1/901 2013/11/27
 42 45  0  0  0  0  0  0  0  0999 V2000
   -4.7528    0.8780   -7.3519 C   0  0  2  0  0  0  0  0  0  0  0  0
   -3.8502    1.2101   -6.2524 O   0  0  0  0  0  0  0  0  0  0  0  0
   -5.1329    2.1436   -8.1871 C   0  0  2  0  0  0  0  0  0  0  0  0
   -4.2322    3.2823   -7.8950 N   0  3  0  0  0  0  0  0  0  0  0  0
   -6.6183    2.5429   -7.9358 C   0  0  1  0  0  0  0  0  0  0  0  0
   -6.9560    3.6917   -8.7102 O   0  0  0  0  0  0  0  0  0  0  0  0
   -7.5945    1.3947   -8.3070 C   0  0  2  0  0  0  0  0  0  0  0  0
   -8.8836    1.7059   -7.7902 O   0  0  0  0  0  0  0  0  0  0  0  0
   -7.1039    0.0255   -7.7342 C   0  0  2  0  0  0  0  0  0  0  0  0
   -5.9672    0.2342   -6.8344 O   0  0  0  0  0  0  0  0  0  0  0  0
   -6.6351   -0.9867   -8.8047 C   0  0  0  0  0  0  0  0  0  0  0  0
   -3.0447   -2.8898   -5.1745 C   0  0  1  0  0  0  0  0  0  0  0  0
   -2.4831   -4.1025   -4.5386 N   0  3  0  0  0  0  0  0  0  0  0  0
   -3.8914   -2.0619   -4.1725 C   0  0  1  0  0  0  0  0  0  0  0  0
   -4.3879   -0.6896   -4.7472 C   0  0  1  0  0  0  0  0  0  0  0  0
   -4.8733    0.1169   -3.6404 O   0  0  0  0  0  0  0  0  0  0  0  0
   -3.2560    0.1291   -5.4703 C   0  0  1  0  0  0  0  0  0  0  0  0
   -2.4191   -0.7623   -6.4439 C   0  0  1  0  0  0  0  0  0  0  0  0
   -1.2656   -0.0335   -7.0097 N   0  3  0  0  0  0  0  0  0  0  0  0
   -1.8931   -2.0372   -5.7469 C   0  0  0  0  0  0  0  0  0  0  0  0
   -4.6048   -0.3051   -2.2720 C   0  0  1  0  0  0  0  0  0  0  0  0
   -4.6818    0.9162   -1.3635 C   0  0  1  0  0  0  0  0  0  0  0  0
   -6.1911    1.0290   -1.1967 C   0  0  1  0  0  0  0  0  0  0  0  0
   -6.5967   -0.4434   -1.0391 C   0  0  2  0  0  0  0  0  0  0  0  0
   -5.6383   -1.1958   -1.8207 O   0  0  0  0  0  0  0  0  0  0  0  0
   -8.0258   -0.7304   -1.5336 C   0  0  0  0  0  0  0  0  0  0  0  0
   -8.7535    4.9307   -0.4104 C   0  0  1  0  0  0  0  0  0  0  0  0
   -8.3978    4.2459    0.9386 C   0  0  1  0  0  0  0  0  0  0  0  0
   -6.8757    3.9945    1.1414 C   0  0  2  0  0  0  0  0  0  0  0  0
   -6.2597    3.2431   -0.0825 C   0  0  1  0  0  0  0  0  0  0  0  0
   -6.5424    1.8164   -0.0226 O   0  0  0  0  0  0  0  0  0  0  0  0
   -7.4894    5.0695   -1.3121 C   0  0  1  0  0  0  0  0  0  0  0  0
   -6.7767    3.7903   -1.3580 O   0  0  0  0  0  0  0  0  0  0  0  0
   -7.8377    5.5125   -2.7566 C   0  0  0  0  0  0  0  0  0  0  0  0
   -7.7285   -1.6419   -9.5440 N   0  3  0  0  0  0  0  0  0  0  0  0
   -4.0374    0.6351   -0.1208 O   0  0  0  0  0  0  0  0  0  0  0  0
   -8.8673    5.0749    2.0011 O   0  0  0  0  0  0  0  0  0  0  0  0
   -9.7450    4.1406   -1.0706 O   0  0  0  0  0  0  0  0  0  0  0  0
   -8.2243   -2.1205   -1.7261 O   0  0  0  0  0  0  0  0  0  0  0  0
   -5.0295   -2.8324   -3.7875 O   0  0  0  0  0  0  0  0  0  0  0  0
   -8.2656    6.9211   -2.8370 N   0  3  0  0  0  0  0  0  0  0  0  0
   -6.6069    3.3062    2.4283 N   0  3  0  0  0  0  0  0  0  0  0  0
  1  2  1  1  0  0  0
  1  3  1  0  0  0  0
  1 10  1  0  0  0  0
  3  4  1  1  0  0  0
  3  5  1  0  0  0  0
  5  6  1  6  0  0  0
  5  7  1  0  0  0  0
  7  8  1  1  0  0  0
  7  9  1  0  0  0  0
  9 10  1  0  0  0  0
  9 11  1  6  0  0  0
 11 35  1  0  0  0  0
 12 13  1  1  0  0  0
 12 14  1  0  0  0  0
 12 20  1  0  0  0  0
 14 15  1  0  0  0  0
 14 40  1  6  0  0  0
 15 16  1  1  0  0  0
 15 17  1  0  0  0  0
 17  2  1  6  0  0  0
 17 18  1  0  0  0  0
 18 19  1  1  0  0  0
 18 20  1  0  0  0  0
 21 16  1  6  0  0  0
 21 22  1  0  0  0  0
 21 25  1  0  0  0  0
 22 23  1  0  0  0  0
 22 36  1  1  0  0  0
 23 24  1  0  0  0  0
 23 31  1  1  0  0  0
 24 25  1  0  0  0  0
 24 26  1  6  0  0  0
 26 39  1  0  0  0  0
 27 28  1  0  0  0  0
 27 32  1  0  0  0  0
 27 38  1  6  0  0  0
 28 29  1  0  0  0  0
 28 37  1  1  0  0  0
 29 30  1  0  0  0  0
 29 42  1  1  0  0  0
 30 31  1  1  0  0  0
 30 33  1  0  0  0  0
 32 33  1  0  0  0  0
 32 34  1  6  0  0  0
 34 41  1  0  0  0  0
M  CHG  6   4   1  13   1  19   1  35   1  41   1  42   1
M  END
>  <CHROM.1>
-172.31138422,-62.35197090,53.37469191,-63.25850498,-178.79127080,-76.11400095
-44.90765614,59.04019984,178.79495248,11.48152358,156.93090334,60.27133658
-53.87251738,69.59088657,163.43774353,-90.08521601,171.02826211,167.66525072
-44.62460335,171.48093708,71.69800483,-178.88644594,-5.94146892,1.17865529
-3.81756338,0.91762951,0.98193850,-1.54740686

>  <Name>


>  <RI>
0

>  <Rbt.Current_Directory>
/home/itssahil/PROJECTS/Mol_Feturizer/New_Systems/rnas/1ei2

>  <Rbt.Executable>
rbdock ($Id: //depot/dev/client3/rdock/2013.1/src/exe/rbdock.cxx#4 $)

>  <Rbt.Library>
libRbt.so (2013.1, Build901 2013/11/27)

>  <Rbt.Parameter_File>
/export/apps/rDock/src/rDock_2013.1_src/data/scripts/dock_solv.prm

>  <Rbt.Receptor>
prm/pocket_docking_6.prm

>  <SCORE>
-60.4609

>  <SCORE.INTER>
-40.132

>  <SCORE.INTER.CONST>
1

>  <SCORE.INTER.POLAR>
-6.4203

>  <SCORE.INTER.ROT>
9

>  <SCORE.INTER.SOLV>
27.9371

>  <SCORE.INTER.VDW>
-24.266

>  <SCORE.INTER.norm>
-0.955523

>  <SCORE.INTRA>
-20.3463

>  <SCORE.INTRA.DIHEDRAL>
-21.4289

>  <SCORE.INTRA.DIHEDRAL.0>
40.8761

>  <SCORE.INTRA.POLAR>
-0.999681

>  <SCORE.INTRA.POLAR.0>
-0.0268208

>  <SCORE.INTRA.REPUL>
-0.641615

>  <SCORE.INTRA.REPUL.0>
0.641615

>  <SCORE.INTRA.SOLV>
-13.6086

>  <SCORE.INTRA.SOLV.lig_0>
-162.567

>  <SCORE.INTRA.VDW>
3.77945

>  <SCORE.INTRA.VDW.0>
-4.80338

>  <SCORE.INTRA.norm>
-0.484435

>  <SCORE.RESTR>
0.0173508

>  <SCORE.RESTR.CAVITY>
0.0173508

>  <SCORE.RESTR.norm>
0.000413114

>  <SCORE.SYSTEM>
0

>  <SCORE.SYSTEM.CONST>
0

>  <SCORE.SYSTEM.DIHEDRAL>
0

>  <SCORE.SYSTEM.SOLV>
0

>  <SCORE.SYSTEM.norm>
0

>  <SCORE.heavy>
42

>  <SCORE.norm>
-1.43954

>  <RMSD>
8.280

$$$$

 OpenBabel11021811393D
libRbt.so/2013.1/901 2013/11/27
 42 45  0  0  0  0  0  0  0  0999 V2000
   -2.5570   -0.6136   -3.0945 C   0  0  2  0  0  0  0  0  0  0  0  0
   -1.7779   -0.2378   -4.2715 O   0  0  0  0  0  0  0  0  0  0  0  0
   -3.0626   -2.0900   -3.1861 C   0  0  2  0  0  0  0  0  0  0  0  0
   -2.3518   -2.8469   -4.2420 N   0  3  0  0  0  0  0  0  0  0  0  0
   -4.6020   -2.1306   -3.4264 C   0  0  1  0  0  0  0  0  0  0  0  0
   -5.0527   -3.4816   -3.4980 O   0  0  0  0  0  0  0  0  0  0  0  0
   -5.3814   -1.4110   -2.2933 C   0  0  2  0  0  0  0  0  0  0  0  0
   -6.7301   -1.2296   -2.7102 O   0  0  0  0  0  0  0  0  0  0  0  0
   -4.7363   -0.0292   -1.9499 C   0  0  2  0  0  0  0  0  0  0  0  0
   -3.6964    0.2982   -2.9280 O   0  0  0  0  0  0  0  0  0  0  0  0
   -4.0657    0.0376   -0.5585 C   0  0  0  0  0  0  0  0  0  0  0  0
   -2.6300    3.9908   -4.3849 C   0  0  1  0  0  0  0  0  0  0  0  0
   -2.4958    5.4594   -4.5095 N   0  3  0  0  0  0  0  0  0  0  0  0
   -2.4403    3.2838   -5.7525 C   0  0  1  0  0  0  0  0  0  0  0  0
   -2.4224    1.7183   -5.6578 C   0  0  1  0  0  0  0  0  0  0  0  0
   -1.9213    1.1933   -6.9164 O   0  0  0  0  0  0  0  0  0  0  0  0
   -1.4917    1.1741   -4.5124 C   0  0  1  0  0  0  0  0  0  0  0  0
   -1.7064    1.9424   -3.1683 C   0  0  1  0  0  0  0  0  0  0  0  0
   -0.7324    1.5353   -2.1352 N   0  3  0  0  0  0  0  0  0  0  0  0
   -1.6017    3.4724   -3.3580 C   0  0  0  0  0  0  0  0  0  0  0  0
   -2.8630    0.7836   -7.9499 C   0  0  1  0  0  0  0  0  0  0  0  0
   -2.5968   -0.6762   -8.2979 C   0  0  1  0  0  0  0  0  0  0  0  0
   -3.3226   -1.3607   -7.1477 C   0  0  1  0  0  0  0  0  0  0  0  0
   -4.5940   -0.5079   -7.0318 C   0  0  2  0  0  0  0  0  0  0  0  0
   -4.2047    0.8263   -7.4369 O   0  0  0  0  0  0  0  0  0  0  0  0
   -5.1731   -0.4810   -5.6059 C   0  0  0  0  0  0  0  0  0  0  0  0
   -3.3408   -6.5246   -8.1000 C   0  0  1  0  0  0  0  0  0  0  0  0
   -3.3065   -5.4238   -9.1966 C   0  0  1  0  0  0  0  0  0  0  0  0
   -2.2964   -4.2749   -8.9120 C   0  0  2  0  0  0  0  0  0  0  0  0
   -2.5077   -3.6785   -7.4832 C   0  0  1  0  0  0  0  0  0  0  0  0
   -3.6289   -2.7503   -7.4595 O   0  0  0  0  0  0  0  0  0  0  0  0
   -2.4435   -6.1284   -6.8884 C   0  0  1  0  0  0  0  0  0  0  0  0
   -2.7401   -4.7506   -6.4880 O   0  0  0  0  0  0  0  0  0  0  0  0
   -2.6426   -7.0681   -5.6713 C   0  0  0  0  0  0  0  0  0  0  0  0
   -3.0062   -0.9638   -0.3440 N   0  3  0  0  0  0  0  0  0  0  0  0
   -3.1957   -0.9898   -9.5555 O   0  0  0  0  0  0  0  0  0  0  0  0
   -2.9604   -6.0365  -10.4380 O   0  0  0  0  0  0  0  0  0  0  0  0
   -4.6945   -6.6968   -7.6749 O   0  0  0  0  0  0  0  0  0  0  0  0
   -6.0488    0.6204   -5.4368 O   0  0  0  0  0  0  0  0  0  0  0  0
   -3.5023    3.6749   -6.6223 O   0  0  0  0  0  0  0  0  0  0  0  0
   -1.5706   -6.9409   -4.6670 N   0  3  0  0  0  0  0  0  0  0  0  0
   -2.3391   -3.2402   -9.9748 N   0  3  0  0  0  0  0  0  0  0  0  0
  1  2  1  6  0  0  0
  1  3  1  0  0  0  0
  1 10  1  0  0  0  0
  3  4  1  6  0  0  0
  3  5  1  0  0  0  0
  5  6  1  1  0  0  0
  5  7  1  0  0  0  0
  7  8  1  6  0  0  0
  7  9  1  0  0  0  0
  9 10  1  0  0  0  0
  9 11  1  1  0  0  0
 11 35  1  0  0  0  0
 12 13  1  6  0  0  0
 12 14  1  0  0  0  0
 12 20  1  0  0  0  0
 14 15  1  0  0  0  0
 14 40  1  6  0  0  0
 15 16  1  6  0  0  0
 15 17  1  0  0  0  0
 17  2  1  1  0  0  0
 17 18  1  0  0  0  0
 18 19  1  1  0  0  0
 18 20  1  0  0  0  0
 21 16  1  1  0  0  0
 21 22  1  0  0  0  0
 21 25  1  0  0  0  0
 22 23  1  0  0  0  0
 22 36  1  6  0  0  0
 23 24  1  0  0  0  0
 23 31  1  6  0  0  0
 24 25  1  0  0  0  0
 24 26  1  1  0  0  0
 26 39  1  0  0  0  0
 27 28  1  0  0  0  0
 27 32  1  0  0  0  0
 27 38  1  1  0  0  0
 28 29  1  0  0  0  0
 28 37  1  6  0  0  0
 29 30  1  0  0  0  0
 29 42  1  6  0  0  0
 30 31  1  6  0  0  0
 30 33  1  0  0  0  0
 32 33  1  0  0  0  0
 32 34  1  1  0  0  0
 34 41  1  0  0  0  0
M  CHG  6   4   1  13   1  19   1  35   1  41   1  42   1
M  END
>  <CHROM.1>
165.78930835,-103.75647902,-128.61205466,65.89113364,85.77015751,57.61994725
-51.47777928,-27.65227075,-141.77490399,-95.31272921,-122.83541234,-44.44246578
74.18541021,71.89751250,160.98238506,-38.86776316,-172.24554582,58.52600983
-49.83008565,-116.26339074,164.70433432,-94.42376224,-3.21130706,-1.27348328
-5.50072347,1.44285629,1.42864377,0.62389052

>  <Name>


>  <RI>
0

>  <Rbt.Current_Directory>
/home/itssahil/PROJECTS/Mol_Feturizer/New_Systems/rnas/1ei2

>  <Rbt.Executable>
rbdock ($Id: //depot/dev/client3/rdock/2013.1/src/exe/rbdock.cxx#4 $)

>  <Rbt.Library>
libRbt.so (2013.1, Build901 2013/11/27)

>  <Rbt.Parameter_File>
/export/apps/rDock/src/rDock_2013.1_src/data/scripts/dock_solv.prm

>  <Rbt.Receptor>
prm/blind_docking_20.prm

>  <SCORE>
19.1939

>  <SCORE.INTER>
10.2628

>  <SCORE.INTER.CONST>
1

>  <SCORE.INTER.POLAR>
-6.32721

>  <SCORE.INTER.ROT>
9

>  <SCORE.INTER.SOLV>
56.9088

>  <SCORE.INTER.VDW>
-0.637007

>  <SCORE.INTER.norm>
0.244353

>  <SCORE.INTRA>
0.187062

>  <SCORE.INTRA.DIHEDRAL>
8.27999

>  <SCORE.INTRA.DIHEDRAL.0>
40.8761

>  <SCORE.INTRA.POLAR>
-2.82761

>  <SCORE.INTRA.POLAR.0>
-0.0268208

>  <SCORE.INTRA.REPUL>
-0.620551

>  <SCORE.INTRA.REPUL.0>
0.641615

>  <SCORE.INTRA.SOLV>
6.19069

>  <SCORE.INTRA.SOLV.lig_0>
-162.567

>  <SCORE.INTRA.VDW>
5.66836

>  <SCORE.INTRA.VDW.0>
-4.80338

>  <SCORE.INTRA.norm>
0.00445385

>  <SCORE.RESTR>
8.74396

>  <SCORE.RESTR.CAVITY>
8.74396

>  <SCORE.RESTR.norm>
0.20819

>  <SCORE.SYSTEM>
0

>  <SCORE.SYSTEM.CONST>
0

>  <SCORE.SYSTEM.DIHEDRAL>
0

>  <SCORE.SYSTEM.SOLV>
0

>  <SCORE.SYSTEM.norm>
0

>  <SCORE.heavy>
42

>  <SCORE.norm>
0.456997

>  <RMSD>
8.282

$$$$

 OpenBabel11021811393D
libRbt.so/2013.1/901 2013/11/27
 42 45  0  0  0  0  0  0  0  0999 V2000
   -3.6591    1.2831   -4.4002 C   0  0  2  0  0  0  0  0  0  0  0  0
   -4.5370    0.5211   -3.5159 O   0  0  0  0  0  0  0  0  0  0  0  0
   -3.8710    0.8918   -5.8988 C   0  0  2  0  0  0  0  0  0  0  0  0
   -5.1241    0.1268   -6.0923 N   0  3  0  0  0  0  0  0  0  0  0  0
   -2.6498    0.0854   -6.4349 C   0  0  1  0  0  0  0  0  0  0  0  0
   -2.8500   -0.2569   -7.8047 O   0  0  0  0  0  0  0  0  0  0  0  0
   -1.3293    0.8928   -6.3173 C   0  0  2  0  0  0  0  0  0  0  0  0
   -0.2339    0.0129   -6.5441 O   0  0  0  0  0  0  0  0  0  0  0  0
   -1.1968    1.5617   -4.9107 C   0  0  2  0  0  0  0  0  0  0  0  0
   -2.2550    1.0778   -4.0211 O   0  0  0  0  0  0  0  0  0  0  0  0
   -1.3044    3.1039   -4.9210 C   0  0  0  0  0  0  0  0  0  0  0  0
   -5.6060    0.2625    0.6567 C   0  0  1  0  0  0  0  0  0  0  0  0
   -5.8563    0.5933    2.0773 N   0  3  0  0  0  0  0  0  0  0  0  0
   -6.6254    0.9635   -0.2791 C   0  0  1  0  0  0  0  0  0  0  0  0
   -6.3188    0.7711   -1.8052 C   0  0  1  0  0  0  0  0  0  0  0  0
   -7.1255    1.7201   -2.5533 O   0  0  0  0  0  0  0  0  0  0  0  0
   -4.8127    1.0327   -2.1758 C   0  0  1  0  0  0  0  0  0  0  0  0
   -3.8338    0.3264   -1.1829 C   0  0  1  0  0  0  0  0  0  0  0  0
   -2.4255    0.6910   -1.4391 N   0  3  0  0  0  0  0  0  0  0  0  0
   -4.1632    0.6663    0.2881 C   0  0  0  0  0  0  0  0  0  0  0  0
   -8.5680    1.5313   -2.6327 C   0  0  1  0  0  0  0  0  0  0  0  0
   -9.2128    2.2052   -1.4273 C   0  0  1  0  0  0  0  0  0  0  0  0
   -9.2202    3.6515   -1.9034 C   0  0  1  0  0  0  0  0  0  0  0  0
   -9.6229    3.4912   -3.3762 C   0  0  2  0  0  0  0  0  0  0  0  0
   -9.0896    2.2096   -3.7871 O   0  0  0  0  0  0  0  0  0  0  0  0
   -9.0686    4.6094   -4.2771 C   0  0  0  0  0  0  0  0  0  0  0  0
   -9.1462    7.7980    0.4120 C   0  0  1  0  0  0  0  0  0  0  0  0
  -10.6085    7.2941    0.2598 C   0  0  1  0  0  0  0  0  0  0  0  0
  -10.8420    5.8512    0.7933 C   0  0  2  0  0  0  0  0  0  0  0  0
   -9.8065    4.8505    0.1864 C   0  0  1  0  0  0  0  0  0  0  0  0
  -10.1841    4.4540   -1.1624 O   0  0  0  0  0  0  0  0  0  0  0  0
   -8.2197    6.6603    0.9390 C   0  0  1  0  0  0  0  0  0  0  0  0
   -8.4484    5.4409    0.1598 O   0  0  0  0  0  0  0  0  0  0  0  0
   -6.7177    7.0383    0.8672 C   0  0  0  0  0  0  0  0  0  0  0  0
   -2.2798    3.6403   -5.8865 N   0  3  0  0  0  0  0  0  0  0  0  0
  -10.5385    1.7067   -1.2470 O   0  0  0  0  0  0  0  0  0  0  0  0
  -11.4674    8.1859    0.9692 O   0  0  0  0  0  0  0  0  0  0  0  0
   -8.6900    8.2534   -0.8637 O   0  0  0  0  0  0  0  0  0  0  0  0
   -9.3727    4.3590   -5.6386 O   0  0  0  0  0  0  0  0  0  0  0  0
   -7.9279    0.4465   -0.0079 O   0  0  0  0  0  0  0  0  0  0  0  0
   -6.3567    8.1312    1.7887 N   0  3  0  0  0  0  0  0  0  0  0  0
  -12.2456    5.4169    0.5849 N   0  3  0  0  0  0  0  0  0  0  0  0
  1  2  1  1  0  0  0
  1  3  1  0  0  0  0
  1 10  1  0  0  0  0
  3  4  1  1  0  0  0
  3  5  1  0  0  0  0
  5  6  1  6  0  0  0
  5  7  1  0  0  0  0
  7  8  1  1  0  0  0
  7  9  1  0  0  0  0
  9 10  1  0  0  0  0
  9 11  1  6  0  0  0
 11 35  1  0  0  0  0
 12 13  1  1  0  0  0
 12 14  1  0  0  0  0
 12 20  1  0  0  0  0
 14 15  1  0  0  0  0
 14 40  1  6  0  0  0
 15 16  1  6  0  0  0
 15 17  1  0  0  0  0
 17  2  1  6  0  0  0
 17 18  1  0  0  0  0
 18 19  1  6  0  0  0
 18 20  1  0  0  0  0
 21 16  1  1  0  0  0
 21 22  1  0  0  0  0
 21 25  1  0  0  0  0
 22 23  1  0  0  0  0
 22 36  1  6  0  0  0
 23 24  1  0  0  0  0
 23 31  1  1  0  0  0
 24 25  1  0  0  0  0
 24 26  1  6  0  0  0
 26 39  1  0  0  0  0
 27 28  1  0  0  0  0
 27 32  1  0  0  0  0
 27 38  1  6  0  0  0
 28 29  1  0  0  0  0
 28 37  1  1  0  0  0
 29 30  1  0  0  0  0
 29 42  1  6  0  0  0
 30 31  1  6  0  0  0
 30 33  1  0  0  0  0
 32 33  1  0  0  0  0
 32 34  1  6  0  0  0
 34 41  1  0  0  0  0
M  CHG  6   4   1  13   1  19   1  35   1  41   1  42   1
M  END
>  <CHROM.1>
-159.81316033,141.14585007,-154.33440714,-76.82659093,61.96450285,37.00311260
63.87648247,38.03756691,71.68723657,-70.29881719,87.18365962,68.49915261
178.08243592,76.24142999,175.16833515,-62.26431448,95.35127218,-179.54556768
52.26796370,172.73923736,66.99106720,61.18238742,-6.52441380,2.95735459,-2.21756039
0.45731511,0.68129070,-1.44930534

>  <Name>


>  <RI>
0

>  <Rbt.Current_Directory>
/home/itssahil/PROJECTS/Mol_Feturizer/New_Systems/rnas/1ei2

>  <Rbt.Executable>
rbdock ($Id: //depot/dev/client3/rdock/2013.1/src/exe/rbdock.cxx#4 $)

>  <Rbt.Library>
libRbt.so (2013.1, Build901 2013/11/27)

>  <Rbt.Parameter_File>
/export/apps/rDock/src/rDock_2013.1_src/data/scripts/dock_solv.prm

>  <Rbt.Receptor>
prm/pocket_docking_4.prm

>  <SCORE>
-58.2341

>  <SCORE.INTER>
-40.3239

>  <SCORE.INTER.CONST>
1

>  <SCORE.INTER.POLAR>
-6.04416

>  <SCORE.INTER.ROT>
9

>  <SCORE.INTER.SOLV>
32.669

>  <SCORE.INTER.VDW>
-27.225

>  <SCORE.INTER.norm>
-0.960092

>  <SCORE.INTRA>
-17.9389

>  <SCORE.INTRA.DIHEDRAL>
-16.5651

>  <SCORE.INTRA.DIHEDRAL.0>
40.8761

>  <SCORE.INTRA.POLAR>
-1.39442

>  <SCORE.INTRA.POLAR.0>
-0.0268208

>  <SCORE.INTRA.REPUL>
-0.641615

>  <SCORE.INTRA.REPUL.0>
0.641615

>  <SCORE.INTRA.SOLV>
-6.47915

>  <SCORE.INTRA.SOLV.lig_0>
-162.567

>  <SCORE.INTRA.VDW>
1.5324

>  <SCORE.INTRA.VDW.0>
-4.80338

>  <SCORE.INTRA.norm>
-0.427116

>  <SCORE.RESTR>
0.0286115

>  <SCORE.RESTR.CAVITY>
0.0286115

>  <SCORE.RESTR.norm>
0.000681226

>  <SCORE.SYSTEM>
0

>  <SCORE.SYSTEM.CONST>
0

>  <SCORE.SYSTEM.DIHEDRAL>
0

>  <SCORE.SYSTEM.SOLV>
0

>  <SCORE.SYSTEM.norm>
0

>  <SCORE.heavy>
42

>  <SCORE.norm>
-1.38653

>  <RMSD>
8.319

$$$$

 OpenBabel11021811393D
libRbt.so/2013.1/901 2013/11/27
 42 45  0  0  0  0  0  0  0  0999 V2000
   -7.8782   -5.7624    0.4345 C   0  0  2  0  0  0  0  0  0  0  0  0
   -7.7320   -4.6951   -0.5521 O   0  0  0  0  0  0  0  0  0  0  0  0
   -9.0895   -6.6927    0.1010 C   0  0  2  0  0  0  0  0  0  0  0  0
   -9.5662   -6.4934   -1.2869 N   0  3  0  0  0  0  0  0  0  0  0  0
  -10.2511   -6.4686    1.1156 C   0  0  1  0  0  0  0  0  0  0  0  0
  -11.3455   -7.3293    0.8075 O   0  0  0  0  0  0  0  0  0  0  0  0
   -9.8027   -6.7458    2.5755 C   0  0  2  0  0  0  0  0  0  0  0  0
  -10.8003   -6.2508    3.4618 O   0  0  0  0  0  0  0  0  0  0  0  0
   -8.4279   -6.0694    2.8849 C   0  0  2  0  0  0  0  0  0  0  0  0
   -8.0378   -5.1922    1.7786 O   0  0  0  0  0  0  0  0  0  0  0  0
   -7.2584   -7.0589    3.0926 C   0  0  0  0  0  0  0  0  0  0  0  0
   -9.0119   -0.5823   -0.8095 C   0  0  1  0  0  0  0  0  0  0  0  0
   -9.2864    0.8376   -0.4947 N   0  3  0  0  0  0  0  0  0  0  0  0
   -7.4914   -0.8473   -0.9643 C   0  0  1  0  0  0  0  0  0  0  0  0
   -7.1293   -2.3621   -1.1497 C   0  0  1  0  0  0  0  0  0  0  0  0
   -5.6972   -2.5132   -0.9565 O   0  0  0  0  0  0  0  0  0  0  0  0
   -7.8496   -3.3056   -0.1177 C   0  0  1  0  0  0  0  0  0  0  0  0
   -9.3709   -2.9732    0.0173 C   0  0  1  0  0  0  0  0  0  0  0  0
  -10.0163   -3.7557    1.0911 N   0  3  0  0  0  0  0  0  0  0  0  0
   -9.6083   -1.4728    0.3004 C   0  0  0  0  0  0  0  0  0  0  0  0
   -4.8595   -2.9167   -2.0782 C   0  0  1  0  0  0  0  0  0  0  0  0
   -5.2700   -2.1108   -3.3049 C   0  0  1  0  0  0  0  0  0  0  0  0
   -4.5352   -0.8069   -3.0250 C   0  0  1  0  0  0  0  0  0  0  0  0
   -3.1911   -1.3177   -2.4866 C   0  0  2  0  0  0  0  0  0  0  0  0
   -3.4899   -2.5671   -1.8193 O   0  0  0  0  0  0  0  0  0  0  0  0
   -2.5248   -0.3381   -1.5039 C   0  0  0  0  0  0  0  0  0  0  0  0
   -2.9358   -1.5572   -7.4478 C   0  0  1  0  0  0  0  0  0  0  0  0
   -3.6117   -0.1613   -7.3473 C   0  0  1  0  0  0  0  0  0  0  0  0
   -3.0462    0.7378   -6.2101 C   0  0  2  0  0  0  0  0  0  0  0  0
   -3.0441   -0.0170   -4.8419 C   0  0  1  0  0  0  0  0  0  0  0  0
   -4.3681   -0.0158   -4.2367 O   0  0  0  0  0  0  0  0  0  0  0  0
   -1.9375   -1.7760   -6.2706 C   0  0  1  0  0  0  0  0  0  0  0  0
   -2.5834   -1.4151   -5.0061 O   0  0  0  0  0  0  0  0  0  0  0  0
   -1.4321   -3.2394   -6.1866 C   0  0  0  0  0  0  0  0  0  0  0  0
   -7.6464   -8.4796    3.0445 N   0  3  0  0  0  0  0  0  0  0  0  0
   -4.7788   -2.7452   -4.4860 O   0  0  0  0  0  0  0  0  0  0  0  0
   -3.4350    0.5144   -8.5917 O   0  0  0  0  0  0  0  0  0  0  0  0
   -3.9572   -2.5567   -7.4197 O   0  0  0  0  0  0  0  0  0  0  0  0
   -3.2202   -0.3095   -0.2693 O   0  0  0  0  0  0  0  0  0  0  0  0
   -7.0126   -0.1230   -2.0973 O   0  0  0  0  0  0  0  0  0  0  0  0
   -2.5285   -4.2252   -6.1778 N   0  3  0  0  0  0  0  0  0  0  0  0
   -3.7572    2.0387   -6.1436 N   0  3  0  0  0  0  0  0  0  0  0  0
  1  2  1  6  0  0  0
  1  3  1  0  0  0  0
  1 10  1  0  0  0  0
  3  4  1  6  0  0  0
  3  5  1  0  0  0  0
  5  6  1  6  0  0  0
  5  7  1  0  0  0  0
  7  8  1  1  0  0  0
  7  9  1  0  0  0  0
  9 10  1  0  0  0  0
  9 11  1  6  0  0  0
 11 35  1  0  0  0  0
 12 13  1  1  0  0  0
 12 14  1  0  0  0  0
 12 20  1  0  0  0  0
 14 15  1  0  0  0  0
 14 40  1  6  0  0  0
 15 16  1  1  0  0  0
 15 17  1  0  0  0  0
 17  2  1  6  0  0  0
 17 18  1  0  0  0  0
 18 19  1  1  0  0  0
 18 20  1  0  0  0  0
 21 16  1  1  0  0  0
 21 22  1  0  0  0  0
 21 25  1  0  0  0  0
 22 23  1  0  0  0  0
 22 36  1  6  0  0  0
 23 24  1  0  0  0  0
 23 31  1  6  0  0  0
 24 25  1  0  0  0  0
 24 26  1  1  0  0  0
 26 39  1  0  0  0  0
 27 28  1  0  0  0  0
 27 32  1  0  0  0  0
 27 38  1  1  0  0  0
 28 29  1  0  0  0  0
 28 37  1  6  0  0  0
 29 30  1  0  0  0  0
 29 42  1  1  0  0  0
 30 31  1  6  0  0  0
 30 33  1  0  0  0  0
 32 33  1  0  0  0  0
 32 34  1  1  0  0  0
 34 41  1  0  0  0  0
M  CHG  6   4   1  13   1  19   1  35   1  41   1  42   1
M  END
>  <CHROM.1>
118.53844848,158.04469726,-178.48245908,172.59568185,-167.47280391,-3.45771851
-76.21371648,-65.91474842,133.58250863,-114.07679183,44.85772876,129.42561026
-76.60663258,-103.68361924,71.67836158,-171.58590855,-49.34106003,-123.00559704
-66.96838329,173.75963308,-51.80153463,85.97887635,-6.17954599,-2.84381026
-1.96927792,-2.51419454,0.80076185,-0.18917283

>  <Name>


>  <RI>
0

>  <Rbt.Current_Directory>
/home/itssahil/PROJECTS/Mol_Feturizer/New_Systems/rnas/1ei2

>  <Rbt.Executable>
rbdock ($Id: //depot/dev/client3/rdock/2013.1/src/exe/rbdock.cxx#4 $)

>  <Rbt.Library>
libRbt.so (2013.1, Build901 2013/11/27)

>  <Rbt.Parameter_File>
/export/apps/rDock/src/rDock_2013.1_src/data/scripts/dock_solv.prm

>  <Rbt.Receptor>
prm/blind_docking_40.prm

>  <SCORE>
173.809

>  <SCORE.INTER>
162.872

>  <SCORE.INTER.CONST>
1

>  <SCORE.INTER.POLAR>
-5.42814

>  <SCORE.INTER.ROT>
9

>  <SCORE.INTER.SOLV>
52.7204

>  <SCORE.INTER.VDW>
99.502

>  <SCORE.INTER.norm>
3.87792

>  <SCORE.INTRA>
6.97783

>  <SCORE.INTRA.DIHEDRAL>
11.0208

>  <SCORE.INTRA.DIHEDRAL.0>
40.8761

>  <SCORE.INTRA.POLAR>
-3.54046

>  <SCORE.INTRA.POLAR.0>
-0.0268208

>  <SCORE.INTRA.REPUL>
-0.518511

>  <SCORE.INTRA.REPUL.0>
0.641615

>  <SCORE.INTRA.SOLV>
6.21176

>  <SCORE.INTRA.SOLV.lig_0>
-162.567

>  <SCORE.INTRA.VDW>
12.9917

>  <SCORE.INTRA.VDW.0>
-4.80338

>  <SCORE.INTRA.norm>
0.166139

>  <SCORE.RESTR>
3.95831

>  <SCORE.RESTR.CAVITY>
3.95831

>  <SCORE.RESTR.norm>
0.0942455

>  <SCORE.SYSTEM>
0

>  <SCORE.SYSTEM.CONST>
0

>  <SCORE.SYSTEM.DIHEDRAL>
0

>  <SCORE.SYSTEM.SOLV>
0

>  <SCORE.SYSTEM.norm>
0

>  <SCORE.heavy>
42

>  <SCORE.norm>
4.1383

>  <RMSD>
8.327

$$$$

 OpenBabel11021811393D
libRbt.so/2013.1/901 2013/11/27
 42 45  0  0  0  0  0  0  0  0999 V2000
   -2.6830   -0.6202   -3.3619 C   0  0  2  0  0  0  0  0  0  0  0  0
   -2.3646   -0.0673   -4.6759 O   0  0  0  0  0  0  0  0  0  0  0  0
   -2.8278   -2.1760   -3.4117 C   0  0  2  0  0  0  0  0  0  0  0  0
   -2.2706   -2.7373   -4.6637 N   0  3  0  0  0  0  0  0  0  0  0  0
   -4.3189   -2.5956   -3.2405 C   0  0  1  0  0  0  0  0  0  0  0  0
   -4.4370   -4.0162   -3.2773 O   0  0  0  0  0  0  0  0  0  0  0  0
   -4.9103   -2.0872   -1.8984 C   0  0  2  0  0  0  0  0  0  0  0  0
   -6.3244   -2.2452   -1.9332 O   0  0  0  0  0  0  0  0  0  0  0  0
   -4.5447   -0.5880   -1.6491 C   0  0  2  0  0  0  0  0  0  0  0  0
   -3.9177   -0.0171   -2.8434 O   0  0  0  0  0  0  0  0  0  0  0  0
   -3.5582   -0.3538   -0.4820 C   0  0  0  0  0  0  0  0  0  0  0  0
   -4.0298    3.8323   -3.8756 C   0  0  1  0  0  0  0  0  0  0  0  0
   -4.4605    5.2421   -4.0069 N   0  3  0  0  0  0  0  0  0  0  0  0
   -4.8639    2.8950   -4.7877 C   0  0  1  0  0  0  0  0  0  0  0  0
   -4.3546    1.4116   -4.8042 C   0  0  1  0  0  0  0  0  0  0  0  0
   -4.9911    0.7257   -5.9157 O   0  0  0  0  0  0  0  0  0  0  0  0
   -2.7986    1.2893   -4.9995 C   0  0  1  0  0  0  0  0  0  0  0  0
   -2.0130    2.2763   -4.0767 C   0  0  1  0  0  0  0  0  0  0  0  0
   -0.5641    2.2696   -4.3639 N   0  3  0  0  0  0  0  0  0  0  0  0
   -2.5286    3.7264   -4.2157 C   0  0  0  0  0  0  0  0  0  0  0  0
   -4.3449    0.7202   -7.2215 C   0  0  1  0  0  0  0  0  0  0  0  0
   -3.4995   -0.5425   -7.3393 C   0  0  1  0  0  0  0  0  0  0  0  0
   -4.5799   -1.5537   -7.6977 C   0  0  1  0  0  0  0  0  0  0  0  0
   -5.4403   -0.7518   -8.6845 C   0  0  2  0  0  0  0  0  0  0  0  0
   -5.3347    0.6279   -8.2592 O   0  0  0  0  0  0  0  0  0  0  0  0
   -6.9152   -1.1922   -8.6932 C   0  0  0  0  0  0  0  0  0  0  0  0
   -2.4818   -6.1964   -7.6244 C   0  0  1  0  0  0  0  0  0  0  0  0
   -2.4542   -5.4612   -8.9934 C   0  0  1  0  0  0  0  0  0  0  0  0
   -1.9426   -3.9937   -8.9161 C   0  0  2  0  0  0  0  0  0  0  0  0
   -2.7152   -3.1831   -7.8262 C   0  0  1  0  0  0  0  0  0  0  0  0
   -4.0141   -2.7450   -8.3163 O   0  0  0  0  0  0  0  0  0  0  0  0
   -2.1213   -5.2204   -6.4635 C   0  0  1  0  0  0  0  0  0  0  0  0
   -2.9032   -3.9886   -6.5975 O   0  0  0  0  0  0  0  0  0  0  0  0
   -2.3803   -5.8404   -5.0662 C   0  0  0  0  0  0  0  0  0  0  0  0
   -3.3077    1.0646   -0.1711 N   0  3  0  0  0  0  0  0  0  0  0  0
   -2.5517   -0.3923   -8.3965 O   0  0  0  0  0  0  0  0  0  0  0  0
   -1.6072   -6.1921   -9.8792 O   0  0  0  0  0  0  0  0  0  0  0  0
   -3.7911   -6.7345   -7.4268 O   0  0  0  0  0  0  0  0  0  0  0  0
   -7.6517   -0.5120   -7.6915 O   0  0  0  0  0  0  0  0  0  0  0  0
   -6.2191    2.9059   -4.3397 O   0  0  0  0  0  0  0  0  0  0  0  0
   -1.7219   -7.1475   -4.8877 N   0  3  0  0  0  0  0  0  0  0  0  0
   -1.9761   -3.3374  -10.2466 N   0  3  0  0  0  0  0  0  0  0  0  0
  1  2  1  6  0  0  0
  1  3  1  0  0  0  0
  1 10  1  0  0  0  0
  3  4  1  6  0  0  0
  3  5  1  0  0  0  0
  5  6  1  1  0  0  0
  5  7  1  0  0  0  0
  7  8  1  6  0  0  0
  7  9  1  0  0  0  0
  9 10  1  0  0  0  0
  9 11  1  1  0  0  0
 11 35  1  0  0  0  0
 12 13  1  6  0  0  0
 12 14  1  0  0  0  0
 12 20  1  0  0  0  0
 14 15  1  0  0  0  0
 14 40  1  1  0  0  0
 15 16  1  6  0  0  0
 15 17  1  0  0  0  0
 17  2  1  1  0  0  0
 17 18  1  0  0  0  0
 18 19  1  6  0  0  0
 18 20  1  0  0  0  0
 21 16  1  1  0  0  0
 21 22  1  0  0  0  0
 21 25  1  0  0  0  0
 22 23  1  0  0  0  0
 22 36  1  6  0  0  0
 23 24  1  0  0  0  0
 23 31  1  6  0  0  0
 24 25  1  0  0  0  0
 24 26  1  1  0  0  0
 26 39  1  0  0  0  0
 27 28  1  0  0  0  0
 27 32  1  0  0  0  0
 27 38  1  1  0  0  0
 28 29  1  0  0  0  0
 28 37  1  6  0  0  0
 29 30  1  0  0  0  0
 29 42  1  6  0  0  0
 30 31  1  6  0  0  0
 30 33  1  0  0  0  0
 32 33  1  0  0  0  0
 32 34  1  1  0  0  0
 34 41  1  0  0  0  0
M  CHG  6   4   1  13   1  19   1  35   1  41   1  42   1
M  END
>  <CHROM.1>
151.01775129,-55.77630694,135.28113892,-25.58192483,152.49074561,-174.83000700
56.02059177,-171.96290092,77.51910461,90.21411238,93.48612038,163.20405030
166.65044511,35.32289349,86.54219723,54.25174847,-166.97323369,72.29057607
-15.54903939,-154.19711145,53.17269899,72.79743731,-3.63957924,-1.29365281
-5.55851720,-2.31978923,1.34415406,-1.87038494

>  <Name>


>  <RI>
0

>  <Rbt.Current_Directory>
/home/itssahil/PROJECTS/Mol_Feturizer/New_Systems/rnas/1ei2

>  <Rbt.Executable>
rbdock ($Id: //depot/dev/client3/rdock/2013.1/src/exe/rbdock.cxx#4 $)

>  <Rbt.Library>
libRbt.so (2013.1, Build901 2013/11/27)

>  <Rbt.Parameter_File>
/export/apps/rDock/src/rDock_2013.1_src/data/scripts/dock_solv.prm

>  <Rbt.Receptor>
prm/blind_docking_80.prm

>  <SCORE>
-25.5154

>  <SCORE.INTER>
-39.1782

>  <SCORE.INTER.CONST>
1

>  <SCORE.INTER.POLAR>
-5.80976

>  <SCORE.INTER.ROT>
9

>  <SCORE.INTER.SOLV>
40.6617

>  <SCORE.INTER.VDW>
-29.9068

>  <SCORE.INTER.norm>
-0.932815

>  <SCORE.INTRA>
-0.168878

>  <SCORE.INTRA.DIHEDRAL>
-2.39645

>  <SCORE.INTRA.DIHEDRAL.0>
40.8761

>  <SCORE.INTRA.POLAR>
-0.943942

>  <SCORE.INTRA.POLAR.0>
-0.0268208

>  <SCORE.INTRA.REPUL>
-0.641615

>  <SCORE.INTRA.REPUL.0>
0.641615

>  <SCORE.INTRA.SOLV>
-2.17266

>  <SCORE.INTRA.SOLV.lig_0>
-162.567

>  <SCORE.INTRA.VDW>
8.53315

>  <SCORE.INTRA.VDW.0>
-4.80338

>  <SCORE.INTRA.norm>
-0.00402092

>  <SCORE.RESTR>
13.8317

>  <SCORE.RESTR.CAVITY>
13.8317

>  <SCORE.RESTR.norm>
0.329326

>  <SCORE.SYSTEM>
0

>  <SCORE.SYSTEM.CONST>
0

>  <SCORE.SYSTEM.DIHEDRAL>
0

>  <SCORE.SYSTEM.SOLV>
0

>  <SCORE.SYSTEM.norm>
0

>  <SCORE.heavy>
42

>  <SCORE.norm>
-0.60751

>  <RMSD>
8.332

$$$$

 OpenBabel11021811393D
libRbt.so/2013.1/901 2013/11/27
 42 45  0  0  0  0  0  0  0  0999 V2000
   -3.4821    2.2195   -6.2705 C   0  0  2  0  0  0  0  0  0  0  0  0
   -3.6324    3.2310   -5.2275 O   0  0  0  0  0  0  0  0  0  0  0  0
   -3.8303    2.7924   -7.6827 C   0  0  2  0  0  0  0  0  0  0  0  0
   -3.8795    4.2725   -7.6754 N   0  3  0  0  0  0  0  0  0  0  0  0
   -5.1777    2.2031   -8.1987 C   0  0  1  0  0  0  0  0  0  0  0  0
   -5.4794    2.7249   -9.4910 O   0  0  0  0  0  0  0  0  0  0  0  0
   -5.1314    0.6544   -8.2917 C   0  0  2  0  0  0  0  0  0  0  0  0
   -6.4554    0.1683   -8.4827 O   0  0  0  0  0  0  0  0  0  0  0  0
   -4.5113    0.0269   -7.0014 C   0  0  2  0  0  0  0  0  0  0  0  0
   -4.3311    1.0576   -5.9765 O   0  0  0  0  0  0  0  0  0  0  0  0
   -3.1276   -0.6309   -7.2092 C   0  0  0  0  0  0  0  0  0  0  0  0
   -3.3939    0.4604   -1.9280 C   0  0  1  0  0  0  0  0  0  0  0  0
   -3.2170   -0.1241   -0.5799 N   0  3  0  0  0  0  0  0  0  0  0  0
   -4.6675    1.3427   -2.0032 C   0  0  1  0  0  0  0  0  0  0  0  0
   -4.8265    2.1089   -3.3625 C   0  0  1  0  0  0  0  0  0  0  0  0
   -5.8486    3.1274   -3.1924 O   0  0  0  0  0  0  0  0  0  0  0  0
   -3.5093    2.8316   -3.8280 C   0  0  1  0  0  0  0  0  0  0  0  0
   -2.2570    1.9048   -3.7029 C   0  0  1  0  0  0  0  0  0  0  0  0
   -1.0018    2.6259   -3.9969 N   0  3  0  0  0  0  0  0  0  0  0  0
   -2.1407    1.2832   -2.2929 C   0  0  0  0  0  0  0  0  0  0  0  0
   -5.9352    3.8551   -1.9331 C   0  0  1  0  0  0  0  0  0  0  0  0
   -6.7765    5.1068   -2.1528 C   0  0  1  0  0  0  0  0  0  0  0  0
   -8.1732    4.5050   -2.0793 C   0  0  1  0  0  0  0  0  0  0  0  0
   -8.0228    3.5128   -0.9173 C   0  0  2  0  0  0  0  0  0  0  0  0
   -6.6449    3.0710   -0.9602 O   0  0  0  0  0  0  0  0  0  0  0  0
   -8.9703    2.3051   -1.0304 C   0  0  0  0  0  0  0  0  0  0  0  0
  -10.4923    8.4517    0.3045 C   0  0  1  0  0  0  0  0  0  0  0  0
  -11.3666    7.5217   -0.5820 C   0  0  1  0  0  0  0  0  0  0  0  0
  -11.1351    6.0036   -0.3313 C   0  0  2  0  0  0  0  0  0  0  0  0
   -9.6171    5.6426   -0.4150 C   0  0  1  0  0  0  0  0  0  0  0  0
   -9.1793    5.5202   -1.7980 O   0  0  0  0  0  0  0  0  0  0  0  0
   -9.4724    7.6215    1.1416 C   0  0  1  0  0  0  0  0  0  0  0  0
   -8.7892    6.6615    0.2708 O   0  0  0  0  0  0  0  0  0  0  0  0
   -8.4174    8.5140    1.8448 C   0  0  0  0  0  0  0  0  0  0  0  0
   -3.1467   -1.8352   -8.0580 N   0  3  0  0  0  0  0  0  0  0  0  0
   -6.5495    6.0339   -1.0909 O   0  0  0  0  0  0  0  0  0  0  0  0
  -12.7391    7.8203   -0.3297 O   0  0  0  0  0  0  0  0  0  0  0  0
   -9.8005    9.3680   -0.5469 O   0  0  0  0  0  0  0  0  0  0  0  0
   -9.7446    2.1583    0.1476 O   0  0  0  0  0  0  0  0  0  0  0  0
   -5.8126    0.5123   -1.8122 O   0  0  0  0  0  0  0  0  0  0  0  0
   -7.6402    9.3364    0.8996 N   0  3  0  0  0  0  0  0  0  0  0  0
  -11.9704    5.1720   -1.2330 N   0  3  0  0  0  0  0  0  0  0  0  0
  1  2  1  1  0  0  0
  1  3  1  0  0  0  0
  1 10  1  0  0  0  0
  3  4  1  1  0  0  0
  3  5  1  0  0  0  0
  5  6  1  6  0  0  0
  5  7  1  0  0  0  0
  7  8  1  1  0  0  0
  7  9  1  0  0  0  0
  9 10  1  0  0  0  0
  9 11  1  6  0  0  0
 11 35  1  0  0  0  0
 12 13  1  1  0  0  0
 12 14  1  0  0  0  0
 12 20  1  0  0  0  0
 14 15  1  0  0  0  0
 14 40  1  6  0  0  0
 15 16  1  1  0  0  0
 15 17  1  0  0  0  0
 17  2  1  6  0  0  0
 17 18  1  0  0  0  0
 18 19  1  1  0  0  0
 18 20  1  0  0  0  0
 21 16  1  6  0  0  0
 21 22  1  0  0  0  0
 21 25  1  0  0  0  0
 22 23  1  0  0  0  0
 22 36  1  1  0  0  0
 23 24  1  0  0  0  0
 23 31  1  1  0  0  0
 24 25  1  0  0  0  0
 24 26  1  6  0  0  0
 26 39  1  0  0  0  0
 27 28  1  0  0  0  0
 27 32  1  0  0  0  0
 27 38  1  6  0  0  0
 28 29  1  0  0  0  0
 28 37  1  1  0  0  0
 29 30  1  0  0  0  0
 29 42  1  6  0  0  0
 30 31  1  6  0  0  0
 30 33  1  0  0  0  0
 32 33  1  0  0  0  0
 32 34  1  6  0  0  0
 34 41  1  0  0  0  0
M  CHG  6   4   1  13   1  19   1  35   1  41   1  42   1
M  END
>  <CHROM.1>
172.51950333,-76.97604740,61.26259257,59.87634151,63.30391617,-66.96800809
-64.23064924,-169.98385475,-54.23998344,37.80217836,163.36060679,175.66139052
162.75894620,-98.52698870,-125.80094762,-68.98098155,62.87972610,176.86013429
149.52594744,-144.69318964,-58.48017090,-63.39513265,-6.45303768,3.60889853
-3.03862012,0.73978931,0.68327948,-1.72222297

>  <Name>


>  <RI>
0

>  <Rbt.Current_Directory>
/home/itssahil/PROJECTS/Mol_Feturizer/New_Systems/rnas/1ei2

>  <Rbt.Executable>
rbdock ($Id: //depot/dev/client3/rdock/2013.1/src/exe/rbdock.cxx#4 $)

>  <Rbt.Library>
libRbt.so (2013.1, Build901 2013/11/27)

>  <Rbt.Parameter_File>
/export/apps/rDock/src/rDock_2013.1_src/data/scripts/dock_solv.prm

>  <Rbt.Receptor>
prm/pocket_docking_5.prm

>  <SCORE>
-44.4556

>  <SCORE.INTER>
-29.7653

>  <SCORE.INTER.CONST>
1

>  <SCORE.INTER.POLAR>
-6.19033

>  <SCORE.INTER.ROT>
9

>  <SCORE.INTER.SOLV>
33.6026

>  <SCORE.INTER.VDW>
-20.01

>  <SCORE.INTER.norm>
-0.708698

>  <SCORE.INTRA>
-14.6903

>  <SCORE.INTRA.DIHEDRAL>
-16.1005

>  <SCORE.INTRA.DIHEDRAL.0>
40.8761

>  <SCORE.INTRA.POLAR>
-0.522431

>  <SCORE.INTRA.POLAR.0>
-0.0268208

>  <SCORE.INTRA.REPUL>
-0.641615

>  <SCORE.INTRA.REPUL.0>
0.641615

>  <SCORE.INTRA.SOLV>
-7.92805

>  <SCORE.INTRA.SOLV.lig_0>
-162.567

>  <SCORE.INTRA.VDW>
2.30833

>  <SCORE.INTRA.VDW.0>
-4.80338

>  <SCORE.INTRA.norm>
-0.349769

>  <SCORE.RESTR>
0

>  <SCORE.RESTR.CAVITY>
0

>  <SCORE.RESTR.norm>
0

>  <SCORE.SYSTEM>
0

>  <SCORE.SYSTEM.CONST>
0

>  <SCORE.SYSTEM.DIHEDRAL>
0

>  <SCORE.SYSTEM.SOLV>
0

>  <SCORE.SYSTEM.norm>
0

>  <SCORE.heavy>
42

>  <SCORE.norm>
-1.05847

>  <RMSD>
8.334

$$$$

 OpenBabel11021811393D
libRbt.so/2013.1/901 2013/11/27
 42 45  0  0  0  0  0  0  0  0999 V2000
   -3.0059    3.0054   -2.9337 C   0  0  2  0  0  0  0  0  0  0  0  0
   -3.5549    1.9612   -3.7951 O   0  0  0  0  0  0  0  0  0  0  0  0
   -1.4620    2.8457   -2.7479 C   0  0  2  0  0  0  0  0  0  0  0  0
   -0.8840    1.9177   -3.7468 N   0  3  0  0  0  0  0  0  0  0  0  0
   -1.1281    2.3697   -1.3019 C   0  0  1  0  0  0  0  0  0  0  0  0
    0.2826    2.2376   -1.1415 O   0  0  0  0  0  0  0  0  0  0  0  0
   -1.6542    3.3636   -0.2320 C   0  0  2  0  0  0  0  0  0  0  0  0
   -1.5795    2.7412    1.0459 O   0  0  0  0  0  0  0  0  0  0  0  0
   -3.1265    3.7941   -0.5328 C   0  0  2  0  0  0  0  0  0  0  0  0
   -3.6739    2.9872   -1.6258 O   0  0  0  0  0  0  0  0  0  0  0  0
   -3.2888    5.2723   -0.9558 C   0  0  0  0  0  0  0  0  0  0  0  0
   -6.7007    3.2246   -6.4648 C   0  0  1  0  0  0  0  0  0  0  0  0
   -8.0143    3.3943   -7.1254 N   0  3  0  0  0  0  0  0  0  0  0  0
   -6.6847    3.8718   -5.0552 C   0  0  1  0  0  0  0  0  0  0  0  0
   -5.3695    3.5942   -4.2470 C   0  0  1  0  0  0  0  0  0  0  0  0
   -5.6031    3.9602   -2.8605 O   0  0  0  0  0  0  0  0  0  0  0  0
   -4.9301    2.0841   -4.2717 C   0  0  1  0  0  0  0  0  0  0  0  0
   -4.9939    1.4788   -5.7113 C   0  0  1  0  0  0  0  0  0  0  0  0
   -4.7263    0.0261   -5.7145 N   0  3  0  0  0  0  0  0  0  0  0  0
   -6.3678    1.7207   -6.3760 C   0  0  0  0  0  0  0  0  0  0  0  0
   -6.4621    3.1246   -2.0319 C   0  0  1  0  0  0  0  0  0  0  0  0
   -6.2188    3.4784   -0.5695 C   0  0  1  0  0  0  0  0  0  0  0  0
   -7.0698    4.7358   -0.4548 C   0  0  1  0  0  0  0  0  0  0  0  0
   -8.3147    4.3427   -1.2630 C   0  0  2  0  0  0  0  0  0  0  0  0
   -7.8421    3.4343   -2.2862 O   0  0  0  0  0  0  0  0  0  0  0  0
   -9.0185    5.5493   -1.9095 C   0  0  0  0  0  0  0  0  0  0  0  0
   -9.9057    7.7100    2.0707 C   0  0  1  0  0  0  0  0  0  0  0  0
   -9.2198    6.6703    3.0003 C   0  0  1  0  0  0  0  0  0  0  0  0
   -7.6726    6.6056    2.8484 C   0  0  2  0  0  0  0  0  0  0  0  0
   -7.2594    6.4230    1.3525 C   0  0  1  0  0  0  0  0  0  0  0  0
   -7.3971    5.0359    0.9326 O   0  0  0  0  0  0  0  0  0  0  0  0
   -8.8725    8.3437    1.0902 C   0  0  1  0  0  0  0  0  0  0  0  0
   -8.0751    7.2848    0.4661 O   0  0  0  0  0  0  0  0  0  0  0  0
   -9.5496    9.1929   -0.0164 C   0  0  0  0  0  0  0  0  0  0  0  0
   -2.6633    6.2409   -0.0383 N   0  3  0  0  0  0  0  0  0  0  0  0
   -6.7130    2.4337    0.2689 O   0  0  0  0  0  0  0  0  0  0  0  0
   -9.5305    7.0028    4.3529 O   0  0  0  0  0  0  0  0  0  0  0  0
  -10.9388    7.0482    1.3375 O   0  0  0  0  0  0  0  0  0  0  0  0
  -10.1736    5.1390   -2.6209 O   0  0  0  0  0  0  0  0  0  0  0  0
   -6.8425    5.2833   -5.1967 O   0  0  0  0  0  0  0  0  0  0  0  0
  -10.3601   10.2992    0.5250 N   0  3  0  0  0  0  0  0  0  0  0  0
   -7.0841    5.5703    3.7338 N   0  3  0  0  0  0  0  0  0  0  0  0
  1  2  1  6  0  0  0
  1  3  1  0  0  0  0
  1 10  1  0  0  0  0
  3  4  1  6  0  0  0
  3  5  1  0  0  0  0
  5  6  1  6  0  0  0
  5  7  1  0  0  0  0
  7  8  1  1  0  0  0
  7  9  1  0  0  0  0
  9 10  1  0  0  0  0
  9 11  1  6  0  0  0
 11 35  1  0  0  0  0
 12 13  1  1  0  0  0
 12 14  1  0  0  0  0
 12 20  1  0  0  0  0
 14 15  1  0  0  0  0
 14 40  1  6  0  0  0
 15 16  1  1  0  0  0
 15 17  1  0  0  0  0
 17  2  1  6  0  0  0
 17 18  1  0  0  0  0
 18 19  1  1  0  0  0
 18 20  1  0  0  0  0
 21 16  1  6  0  0  0
 21 22  1  0  0  0  0
 21 25  1  0  0  0  0
 22 23  1  0  0  0  0
 22 36  1  1  0  0  0
 23 24  1  0  0  0  0
 23 31  1  1  0  0  0
 24 25  1  0  0  0  0
 24 26  1  6  0  0  0
 26 39  1  0  0  0  0
 27 28  1  0  0  0  0
 27 32  1  0  0  0  0
 27 38  1  6  0  0  0
 28 29  1  0  0  0  0
 28 37  1  1  0  0  0
 29 30  1  0  0  0  0
 29 42  1  1  0  0  0
 30 31  1  6  0  0  0
 30 33  1  0  0  0  0
 32 33  1  0  0  0  0
 32 34  1  6  0  0  0
 34 41  1  0  0  0  0
M  CHG  6   4   1  13   1  19   1  35   1  41   1  42   1
M  END
>  <CHROM.1>
-169.25735821,23.29987654,-74.48682397,-50.71240470,-53.08074276,-51.98297562
-134.20091583,-56.74545130,62.95753584,72.10922575,163.67373595,166.52942977
-57.84401277,135.29917467,-178.85268456,64.79664534,171.80162316,175.15084299
-72.33175646,178.70871174,58.96976071,176.25178461,-6.05400672,4.44998131
-1.41463745,-0.82629620,-0.40599057,1.16050780

>  <Name>


>  <RI>
0

>  <Rbt.Current_Directory>
/home/itssahil/PROJECTS/Mol_Feturizer/New_Systems/rnas/1ei2

>  <Rbt.Executable>
rbdock ($Id: //depot/dev/client3/rdock/2013.1/src/exe/rbdock.cxx#4 $)

>  <Rbt.Library>
libRbt.so (2013.1, Build901 2013/11/27)

>  <Rbt.Parameter_File>
/export/apps/rDock/src/rDock_2013.1_src/data/scripts/dock_solv.prm

>  <Rbt.Receptor>
prm/pocket_docking_3.prm

>  <SCORE>
-39.8797

>  <SCORE.INTER>
-24.3045

>  <SCORE.INTER.CONST>
1

>  <SCORE.INTER.POLAR>
-5.44852

>  <SCORE.INTER.ROT>
9

>  <SCORE.INTER.SOLV>
18.2919

>  <SCORE.INTER.VDW>
-13.7386

>  <SCORE.INTER.norm>
-0.578679

>  <SCORE.INTRA>
-17.8234

>  <SCORE.INTRA.DIHEDRAL>
-20.9562

>  <SCORE.INTRA.DIHEDRAL.0>
40.8761

>  <SCORE.INTRA.POLAR>
0.0268208

>  <SCORE.INTRA.POLAR.0>
-0.0268208

>  <SCORE.INTRA.REPUL>
-0.641615

>  <SCORE.INTRA.REPUL.0>
0.641615

>  <SCORE.INTRA.SOLV>
-12.4214

>  <SCORE.INTRA.SOLV.lig_0>
-162.567

>  <SCORE.INTRA.VDW>
1.98221

>  <SCORE.INTRA.VDW.0>
-4.80338

>  <SCORE.INTRA.norm>
-0.424368

>  <SCORE.RESTR>
2.24823

>  <SCORE.RESTR.CAVITY>
2.24823

>  <SCORE.RESTR.norm>
0.0535292

>  <SCORE.SYSTEM>
0

>  <SCORE.SYSTEM.CONST>
0

>  <SCORE.SYSTEM.DIHEDRAL>
0

>  <SCORE.SYSTEM.SOLV>
0

>  <SCORE.SYSTEM.norm>
0

>  <SCORE.heavy>
42

>  <SCORE.norm>
-0.949518

>  <RMSD>
8.336

$$$$

 OpenBabel11021811393D
libRbt.so/2013.1/901 2013/11/27
 42 45  0  0  0  0  0  0  0  0999 V2000
   -9.1006    2.5790   -2.7854 C   0  0  2  0  0  0  0  0  0  0  0  0
   -9.6436    3.8274   -2.2559 O   0  0  0  0  0  0  0  0  0  0  0  0
   -9.3441    1.3844   -1.8069 C   0  0  2  0  0  0  0  0  0  0  0  0
  -10.3518    1.7197   -0.7748 N   0  3  0  0  0  0  0  0  0  0  0  0
   -8.0077    0.9372   -1.1413 C   0  0  1  0  0  0  0  0  0  0  0  0
   -8.2408   -0.1589   -0.2593 O   0  0  0  0  0  0  0  0  0  0  0  0
   -6.9548    0.5045   -2.1965 C   0  0  2  0  0  0  0  0  0  0  0  0
   -5.6879    0.3908   -1.5579 O   0  0  0  0  0  0  0  0  0  0  0  0
   -6.8724    1.5332   -3.3706 C   0  0  2  0  0  0  0  0  0  0  0  0
   -7.6638    2.7241   -3.0533 O   0  0  0  0  0  0  0  0  0  0  0  0
   -7.3998    1.0048   -4.7245 C   0  0  0  0  0  0  0  0  0  0  0  0
   -7.1571    6.3883   -4.6806 C   0  0  1  0  0  0  0  0  0  0  0  0
   -6.5394    7.5748   -5.3138 N   0  3  0  0  0  0  0  0  0  0  0  0
   -6.7970    6.2944   -3.1747 C   0  0  1  0  0  0  0  0  0  0  0  0
   -7.5439    5.1422   -2.4167 C   0  0  1  0  0  0  0  0  0  0  0  0
   -7.3822    5.3589   -0.9892 O   0  0  0  0  0  0  0  0  0  0  0  0
   -9.0870    5.0963   -2.7180 C   0  0  1  0  0  0  0  0  0  0  0  0
   -9.3897    5.2239   -4.2461 C   0  0  1  0  0  0  0  0  0  0  0  0
  -10.8377    5.3308   -4.5175 N   0  3  0  0  0  0  0  0  0  0  0  0
   -8.6870    6.4504   -4.8705 C   0  0  0  0  0  0  0  0  0  0  0  0
   -7.7275    4.2937   -0.0571 C   0  0  1  0  0  0  0  0  0  0  0  0
   -6.9507    4.5097    1.2362 C   0  0  1  0  0  0  0  0  0  0  0  0
   -7.8175    5.5757    1.8925 C   0  0  1  0  0  0  0  0  0  0  0  0
   -9.2303    5.0683    1.5704 C   0  0  2  0  0  0  0  0  0  0  0  0
   -9.1166    4.3841    0.2997 O   0  0  0  0  0  0  0  0  0  0  0  0
  -10.2686    6.2003    1.4717 C   0  0  0  0  0  0  0  0  0  0  0  0
   -6.1257    7.3385    6.4522 C   0  0  1  0  0  0  0  0  0  0  0  0
   -6.4334    5.8213    6.3148 C   0  0  1  0  0  0  0  0  0  0  0  0
   -5.8343    5.1648    5.0377 C   0  0  2  0  0  0  0  0  0  0  0  0
   -6.2267    5.9653    3.7543 C   0  0  1  0  0  0  0  0  0  0  0  0
   -7.5820    5.6478    3.3282 O   0  0  0  0  0  0  0  0  0  0  0  0
   -5.4017    7.8749    5.1801 C   0  0  1  0  0  0  0  0  0  0  0  0
   -6.1158    7.4245    3.9826 O   0  0  0  0  0  0  0  0  0  0  0  0
   -5.3014    9.4220    5.1635 C   0  0  0  0  0  0  0  0  0  0  0  0
   -7.1366    1.8938   -5.8698 N   0  3  0  0  0  0  0  0  0  0  0  0
   -6.9377    3.3029    1.9992 O   0  0  0  0  0  0  0  0  0  0  0  0
   -5.9086    5.1506    7.4599 O   0  0  0  0  0  0  0  0  0  0  0  0
   -7.3592    8.0338    6.6470 O   0  0  0  0  0  0  0  0  0  0  0  0
  -10.4533    6.8277    2.7291 O   0  0  0  0  0  0  0  0  0  0  0  0
   -5.3907    6.0832   -3.0517 O   0  0  0  0  0  0  0  0  0  0  0  0
   -6.6188   10.0815    5.1047 N   0  3  0  0  0  0  0  0  0  0  0  0
   -6.1946    3.7280    4.9470 N   0  3  0  0  0  0  0  0  0  0  0  0
  1  2  1  1  0  0  0
  1  3  1  0  0  0  0
  1 10  1  0  0  0  0
  3  4  1  1  0  0  0
  3  5  1  0  0  0  0
  5  6  1  1  0  0  0
  5  7  1  0  0  0  0
  7  8  1  1  0  0  0
  7  9  1  0  0  0  0
  9 10  1  0  0  0  0
  9 11  1  6  0  0  0
 11 35  1  0  0  0  0
 12 13  1  1  0  0  0
 12 14  1  0  0  0  0
 12 20  1  0  0  0  0
 14 15  1  0  0  0  0
 14 40  1  6  0  0  0
 15 16  1  1  0  0  0
 15 17  1  0  0  0  0
 17  2  1  6  0  0  0
 17 18  1  0  0  0  0
 18 19  1  1  0  0  0
 18 20  1  0  0  0  0
 21 16  1  6  0  0  0
 21 22  1  0  0  0  0
 21 25  1  0  0  0  0
 22 23  1  0  0  0  0
 22 36  1  1  0  0  0
 23 24  1  0  0  0  0
 23 31  1  1  0  0  0
 24 25  1  0  0  0  0
 24 26  1  6  0  0  0
 26 39  1  0  0  0  0
 27 28  1  0  0  0  0
 27 32  1  0  0  0  0
 27 38  1  6  0  0  0
 28 29  1  0  0  0  0
 28 37  1  1  0  0  0
 29 30  1  0  0  0  0
 29 42  1  6  0  0  0
 30 31  1  1  0  0  0
 30 33  1  0  0  0  0
 32 33  1  0  0  0  0
 32 34  1  1  0  0  0
 34 41  1  0  0  0  0
M  CHG  6   4   1  13   1  19   1  35   1  41   1  42   1
M  END
>  <CHROM.1>
155.99343446,-58.06010451,171.54366200,-72.69266066,61.84182310,-171.19371281
169.23827968,-51.80184278,172.34381070,-166.96687618,156.20791745,171.70693974
60.74901684,59.91084867,-65.83065875,-179.83802393,-56.78574827,-59.79970986
116.58779097,-142.64409385,-63.70077334,-61.16013259,-7.59989055,4.74269015
0.23338165,-2.96015146,-1.41611869,-0.20433751

>  <Name>


>  <RI>
0

>  <Rbt.Current_Directory>
/home/itssahil/PROJECTS/Mol_Feturizer/New_Systems/rnas/1ei2

>  <Rbt.Executable>
rbdock ($Id: //depot/dev/client3/rdock/2013.1/src/exe/rbdock.cxx#4 $)

>  <Rbt.Library>
libRbt.so (2013.1, Build901 2013/11/27)

>  <Rbt.Parameter_File>
/export/apps/rDock/src/rDock_2013.1_src/data/scripts/dock_solv.prm

>  <Rbt.Receptor>
prm/pocket_docking_6.prm

>  <SCORE>
-47.4346

>  <SCORE.INTER>
-20.1508

>  <SCORE.INTER.CONST>
1

>  <SCORE.INTER.POLAR>
-3.84754

>  <SCORE.INTER.ROT>
9

>  <SCORE.INTER.SOLV>
27.6332

>  <SCORE.INTER.VDW>
-19.4198

>  <SCORE.INTER.norm>
-0.47978

>  <SCORE.INTRA>
-27.4273

>  <SCORE.INTRA.DIHEDRAL>
-23.5577

>  <SCORE.INTRA.DIHEDRAL.0>
40.8761

>  <SCORE.INTRA.POLAR>
-2.68296

>  <SCORE.INTRA.POLAR.0>
-0.0268208

>  <SCORE.INTRA.REPUL>
-0.641615

>  <SCORE.INTRA.REPUL.0>
0.641615

>  <SCORE.INTRA.SOLV>
-6.4485

>  <SCORE.INTRA.SOLV.lig_0>
-162.567

>  <SCORE.INTRA.VDW>
-0.0940622

>  <SCORE.INTRA.VDW.0>
-4.80338

>  <SCORE.INTRA.norm>
-0.653031

>  <SCORE.RESTR>
0.143471

>  <SCORE.RESTR.CAVITY>
0.143471

>  <SCORE.RESTR.norm>
0.00341598

>  <SCORE.SYSTEM>
0

>  <SCORE.SYSTEM.CONST>
0

>  <SCORE.SYSTEM.DIHEDRAL>
0

>  <SCORE.SYSTEM.SOLV>
0

>  <SCORE.SYSTEM.norm>
0

>  <SCORE.heavy>
42

>  <SCORE.norm>
-1.1294

>  <RMSD>
8.359

$$$$

 OpenBabel11021811393D
libRbt.so/2013.1/901 2013/11/27
 42 45  0  0  0  0  0  0  0  0999 V2000
   -4.9258    0.1339   -6.9117 C   0  0  2  0  0  0  0  0  0  0  0  0
   -4.6320   -0.0873   -5.4980 O   0  0  0  0  0  0  0  0  0  0  0  0
   -4.2581    1.4448   -7.4403 C   0  0  2  0  0  0  0  0  0  0  0  0
   -3.2226    1.9456   -6.5075 N   0  3  0  0  0  0  0  0  0  0  0  0
   -5.3329    2.5420   -7.7043 C   0  0  1  0  0  0  0  0  0  0  0  0
   -4.7133    3.7287   -8.1955 O   0  0  0  0  0  0  0  0  0  0  0  0
   -6.3914    2.0749   -8.7391 C   0  0  2  0  0  0  0  0  0  0  0  0
   -7.4848    2.9857   -8.7173 O   0  0  0  0  0  0  0  0  0  0  0  0
   -6.8928    0.6282   -8.4242 C   0  0  2  0  0  0  0  0  0  0  0  0
   -6.3779    0.1883   -7.1255 O   0  0  0  0  0  0  0  0  0  0  0  0
   -6.4565   -0.4401   -9.4531 C   0  0  0  0  0  0  0  0  0  0  0  0
   -2.8038   -3.9058   -4.6634 C   0  0  1  0  0  0  0  0  0  0  0  0
   -1.8171   -4.9701   -4.3734 N   0  3  0  0  0  0  0  0  0  0  0  0
   -2.9633   -2.9353   -3.4638 C   0  0  1  0  0  0  0  0  0  0  0  0
   -3.8829   -1.7014   -3.7668 C   0  0  1  0  0  0  0  0  0  0  0  0
   -3.6933   -0.7236   -2.7090 O   0  0  0  0  0  0  0  0  0  0  0  0
   -3.5479   -0.9950   -5.1317 C   0  0  1  0  0  0  0  0  0  0  0  0
   -3.3704   -2.0232   -6.2955 C   0  0  1  0  0  0  0  0  0  0  0  0
   -2.9106   -1.3765   -7.5414 N   0  3  0  0  0  0  0  0  0  0  0  0
   -2.3659   -3.1387   -5.9284 C   0  0  0  0  0  0  0  0  0  0  0  0
   -4.0709   -1.0608   -1.3428 C   0  0  1  0  0  0  0  0  0  0  0  0
   -4.3379    0.2315   -0.5802 C   0  0  1  0  0  0  0  0  0  0  0  0
   -5.7505    0.5365   -1.0597 C   0  0  1  0  0  0  0  0  0  0  0  0
   -6.3903   -0.8591   -1.0480 C   0  0  2  0  0  0  0  0  0  0  0  0
   -5.3139   -1.7819   -1.3403 O   0  0  0  0  0  0  0  0  0  0  0  0
   -7.5172   -1.0136   -2.0850 C   0  0  0  0  0  0  0  0  0  0  0  0
   -8.3292    4.7731   -0.5252 C   0  0  1  0  0  0  0  0  0  0  0  0
   -8.0538    4.0414    0.8180 C   0  0  1  0  0  0  0  0  0  0  0  0
   -6.5652    3.6405    1.0294 C   0  0  2  0  0  0  0  0  0  0  0  0
   -6.0144    2.8470   -0.1989 C   0  0  1  0  0  0  0  0  0  0  0  0
   -6.4352    1.4539   -0.1588 O   0  0  0  0  0  0  0  0  0  0  0  0
   -7.0496    4.7985   -1.4153 C   0  0  1  0  0  0  0  0  0  0  0  0
   -6.4643    3.4565   -1.4716 O   0  0  0  0  0  0  0  0  0  0  0  0
   -7.3402    5.2899   -2.8569 C   0  0  0  0  0  0  0  0  0  0  0  0
   -6.8311   -0.1343  -10.8450 N   0  3  0  0  0  0  0  0  0  0  0  0
   -4.3052   -0.0213    0.8247 O   0  0  0  0  0  0  0  0  0  0  0  0
   -8.4498    4.8999    1.8869 O   0  0  0  0  0  0  0  0  0  0  0  0
   -9.3869    4.0910   -1.2027 O   0  0  0  0  0  0  0  0  0  0  0  0
   -8.1027   -2.3019   -2.0070 O   0  0  0  0  0  0  0  0  0  0  0  0
   -3.5158   -3.6549   -2.3619 O   0  0  0  0  0  0  0  0  0  0  0  0
   -7.7464    6.7064   -2.9090 N   0  3  0  0  0  0  0  0  0  0  0  0
   -6.3762    2.9146    2.3098 N   0  3  0  0  0  0  0  0  0  0  0  0
  1  2  1  1  0  0  0
  1  3  1  0  0  0  0
  1 10  1  0  0  0  0
  3  4  1  1  0  0  0
  3  5  1  0  0  0  0
  5  6  1  6  0  0  0
  5  7  1  0  0  0  0
  7  8  1  1  0  0  0
  7  9  1  0  0  0  0
  9 10  1  0  0  0  0
  9 11  1  6  0  0  0
 11 35  1  0  0  0  0
 12 13  1  1  0  0  0
 12 14  1  0  0  0  0
 12 20  1  0  0  0  0
 14 15  1  0  0  0  0
 14 40  1  1  0  0  0
 15 16  1  1  0  0  0
 15 17  1  0  0  0  0
 17  2  1  6  0  0  0
 17 18  1  0  0  0  0
 18 19  1  6  0  0  0
 18 20  1  0  0  0  0
 21 16  1  6  0  0  0
 21 22  1  0  0  0  0
 21 25  1  0  0  0  0
 22 23  1  0  0  0  0
 22 36  1  1  0  0  0
 23 24  1  0  0  0  0
 23 31  1  1  0  0  0
 24 25  1  0  0  0  0
 24 26  1  6  0  0  0
 26 39  1  0  0  0  0
 27 28  1  0  0  0  0
 27 32  1  0  0  0  0
 27 38  1  6  0  0  0
 28 29  1  0  0  0  0
 28 37  1  1  0  0  0
 29 30  1  0  0  0  0
 29 42  1  1  0  0  0
 30 31  1  1  0  0  0
 30 33  1  0  0  0  0
 32 33  1  0  0  0  0
 32 34  1  6  0  0  0
 34 41  1  0  0  0  0
M  CHG  6   4   1  13   1  19   1  35   1  41   1  42   1
M  END
>  <CHROM.1>
-97.76981272,-148.39521239,27.30781841,65.33101829,-56.13555477,-55.23354376
-50.49156983,30.58466270,112.79055949,-63.77430631,-156.28988455,8.95578200
-93.57461337,73.70753142,-178.17123455,-162.34352503,-58.48303244,172.66338529
-165.29989898,-166.26404070,66.54185072,-61.33942636,-5.55121048,0.78251637
-3.69395835,0.86987949,1.05843577,-1.47303668

>  <Name>


>  <RI>
0

>  <Rbt.Current_Directory>
/home/itssahil/PROJECTS/Mol_Feturizer/New_Systems/rnas/1ei2

>  <Rbt.Executable>
rbdock ($Id: //depot/dev/client3/rdock/2013.1/src/exe/rbdock.cxx#4 $)

>  <Rbt.Library>
libRbt.so (2013.1, Build901 2013/11/27)

>  <Rbt.Parameter_File>
/export/apps/rDock/src/rDock_2013.1_src/data/scripts/dock_solv.prm

>  <Rbt.Receptor>
prm/pocket_docking_6.prm

>  <SCORE>
-54.2822

>  <SCORE.INTER>
-52.4395

>  <SCORE.INTER.CONST>
1

>  <SCORE.INTER.POLAR>
-8.48575

>  <SCORE.INTER.ROT>
9

>  <SCORE.INTER.SOLV>
25.806

>  <SCORE.INTER.VDW>
-24.8758

>  <SCORE.INTER.norm>
-1.24856

>  <SCORE.INTRA>
-2.96962

>  <SCORE.INTRA.DIHEDRAL>
-6.28534

>  <SCORE.INTRA.DIHEDRAL.0>
40.8761

>  <SCORE.INTRA.POLAR>
0.0102953

>  <SCORE.INTRA.POLAR.0>
-0.0268208

>  <SCORE.INTRA.REPUL>
-0.634739

>  <SCORE.INTRA.REPUL.0>
0.641615

>  <SCORE.INTRA.SOLV>
-7.15999

>  <SCORE.INTRA.SOLV.lig_0>
-162.567

>  <SCORE.INTRA.VDW>
6.89173

>  <SCORE.INTRA.VDW.0>
-4.80338

>  <SCORE.INTRA.norm>
-0.0707053

>  <SCORE.RESTR>
1.12685

>  <SCORE.RESTR.CAVITY>
1.12685

>  <SCORE.RESTR.norm>
0.0268297

>  <SCORE.SYSTEM>
0

>  <SCORE.SYSTEM.CONST>
0

>  <SCORE.SYSTEM.DIHEDRAL>
0

>  <SCORE.SYSTEM.SOLV>
0

>  <SCORE.SYSTEM.norm>
0

>  <SCORE.heavy>
42

>  <SCORE.norm>
-1.29243

>  <RMSD>
8.360

$$$$

 OpenBabel11021811393D
libRbt.so/2013.1/901 2013/11/27
 42 45  0  0  0  0  0  0  0  0999 V2000
   -5.4478    1.7152   -4.0401 C   0  0  2  0  0  0  0  0  0  0  0  0
   -6.4517    2.5548   -4.6890 O   0  0  0  0  0  0  0  0  0  0  0  0
   -4.0307    1.9239   -4.6664 C   0  0  2  0  0  0  0  0  0  0  0  0
   -3.9757    3.1471   -5.4992 N   0  3  0  0  0  0  0  0  0  0  0  0
   -3.6080    0.6761   -5.4989 C   0  0  1  0  0  0  0  0  0  0  0  0
   -2.3105    0.8739   -6.0564 O   0  0  0  0  0  0  0  0  0  0  0  0
   -3.5806   -0.6121   -4.6334 C   0  0  2  0  0  0  0  0  0  0  0  0
   -3.4765   -1.7398   -5.4954 O   0  0  0  0  0  0  0  0  0  0  0  0
   -4.8651   -0.7297   -3.7504 C   0  0  2  0  0  0  0  0  0  0  0  0
   -5.8338    0.3010   -4.1306 O   0  0  0  0  0  0  0  0  0  0  0  0
   -4.6185   -0.5607   -2.2335 C   0  0  0  0  0  0  0  0  0  0  0  0
   -9.4381    5.4001   -3.4221 C   0  0  1  0  0  0  0  0  0  0  0  0
  -10.6099    6.0278   -2.7715 N   0  3  0  0  0  0  0  0  0  0  0  0
   -8.3375    5.0424   -2.3892 C   0  0  1  0  0  0  0  0  0  0  0  0
   -7.1360    4.2391   -2.9983 C   0  0  1  0  0  0  0  0  0  0  0  0
   -6.3545    3.6913   -1.9027 O   0  0  0  0  0  0  0  0  0  0  0  0
   -7.5871    3.0370   -3.9069 C   0  0  1  0  0  0  0  0  0  0  0  0
   -8.7162    3.4493   -4.9060 C   0  0  1  0  0  0  0  0  0  0  0  0
   -9.2441    2.2907   -5.6549 N   0  3  0  0  0  0  0  0  0  0  0  0
   -9.8961    4.1404   -4.1862 C   0  0  0  0  0  0  0  0  0  0  0  0
   -6.8417    2.5182   -1.1890 C   0  0  1  0  0  0  0  0  0  0  0  0
   -6.0771    2.3966    0.1238 C   0  0  1  0  0  0  0  0  0  0  0  0
   -6.8326    3.4147    0.9671 C   0  0  1  0  0  0  0  0  0  0  0  0
   -8.2857    3.1446    0.5515 C   0  0  2  0  0  0  0  0  0  0  0  0
   -8.2197    2.7015   -0.8251 O   0  0  0  0  0  0  0  0  0  0  0  0
   -9.1856    4.3882    0.6653 C   0  0  0  0  0  0  0  0  0  0  0  0
   -5.7517    5.6158    5.2350 C   0  0  1  0  0  0  0  0  0  0  0  0
   -6.0175    4.0940    5.4047 C   0  0  1  0  0  0  0  0  0  0  0  0
   -5.1989    3.1942    4.4344 C   0  0  2  0  0  0  0  0  0  0  0  0
   -5.3683    3.6614    2.9529 C   0  0  1  0  0  0  0  0  0  0  0  0
   -6.6256    3.1893    2.3912 O   0  0  0  0  0  0  0  0  0  0  0  0
   -4.8215    5.8834    4.0130 C   0  0  1  0  0  0  0  0  0  0  0  0
   -5.3117    5.1379    2.8508 O   0  0  0  0  0  0  0  0  0  0  0  0
   -4.7334    7.3892    3.6540 C   0  0  0  0  0  0  0  0  0  0  0  0
   -5.8179   -0.7424   -1.3971 N   0  3  0  0  0  0  0  0  0  0  0  0
   -6.2204    1.0753    0.6457 O   0  0  0  0  0  0  0  0  0  0  0  0
   -5.6947    3.7280    6.7457 O   0  0  0  0  0  0  0  0  0  0  0  0
   -7.0063    6.2760    5.0529 O   0  0  0  0  0  0  0  0  0  0  0  0
  -10.5468    4.0166    0.7982 O   0  0  0  0  0  0  0  0  0  0  0  0
   -7.8346    6.2500   -1.8180 O   0  0  0  0  0  0  0  0  0  0  0  0
   -5.5868    7.7567    2.5092 N   0  3  0  0  0  0  0  0  0  0  0  0
   -5.5254    1.7586    4.6213 N   0  3  0  0  0  0  0  0  0  0  0  0
  1  2  1  6  0  0  0
  1  3  1  0  0  0  0
  1 10  1  0  0  0  0
  3  4  1  6  0  0  0
  3  5  1  0  0  0  0
  5  6  1  1  0  0  0
  5  7  1  0  0  0  0
  7  8  1  6  0  0  0
  7  9  1  0  0  0  0
  9 10  1  0  0  0  0
  9 11  1  1  0  0  0
 11 35  1  0  0  0  0
 12 13  1  1  0  0  0
 12 14  1  0  0  0  0
 12 20  1  0  0  0  0
 14 15  1  0  0  0  0
 14 40  1  6  0  0  0
 15 16  1  1  0  0  0
 15 17  1  0  0  0  0
 17  2  1  6  0  0  0
 17 18  1  0  0  0  0
 18 19  1  1  0  0  0
 18 20  1  0  0  0  0
 21 16  1  1  0  0  0
 21 22  1  0  0  0  0
 21 25  1  0  0  0  0
 22 23  1  0  0  0  0
 22 36  1  1  0  0  0
 23 24  1  0  0  0  0
 23 31  1  1  0  0  0
 24 25  1  0  0  0  0
 24 26  1  6  0  0  0
 26 39  1  0  0  0  0
 27 28  1  0  0  0  0
 27 32  1  0  0  0  0
 27 38  1  6  0  0  0
 28 29  1  0  0  0  0
 28 37  1  1  0  0  0
 29 30  1  0  0  0  0
 29 42  1  6  0  0  0
 30 31  1  1  0  0  0
 30 33  1  0  0  0  0
 32 33  1  0  0  0  0
 32 34  1  6  0  0  0
 34 41  1  0  0  0  0
M  CHG  6   4   1  13   1  19   1  35   1  41   1  42   1
M  END
>  <CHROM.1>
-148.95481955,77.41891453,-65.42567781,60.87886507,60.42060848,-176.92461878
103.62629032,66.29361035,179.28411884,76.85433227,-163.91043544,54.16936065
-175.94079737,78.66063446,-156.79977577,-60.69445198,64.51057984,-57.50089255
178.83629693,-172.64742149,-100.65498091,26.30705952,-6.41553241,3.13323169
-0.80812652,-1.47387025,-0.72824677,1.24637458

>  <Name>


>  <RI>
0

>  <Rbt.Current_Directory>
/home/itssahil/PROJECTS/Mol_Feturizer/New_Systems/rnas/1ei2

>  <Rbt.Executable>
rbdock ($Id: //depot/dev/client3/rdock/2013.1/src/exe/rbdock.cxx#4 $)

>  <Rbt.Library>
libRbt.so (2013.1, Build901 2013/11/27)

>  <Rbt.Parameter_File>
/export/apps/rDock/src/rDock_2013.1_src/data/scripts/dock_solv.prm

>  <Rbt.Receptor>
prm/pocket_docking_8.prm

>  <SCORE>
-52.9177

>  <SCORE.INTER>
-31.2608

>  <SCORE.INTER.CONST>
1

>  <SCORE.INTER.POLAR>
-5.64152

>  <SCORE.INTER.ROT>
9

>  <SCORE.INTER.SOLV>
26.7889

>  <SCORE.INTER.VDW>
-20.5651

>  <SCORE.INTER.norm>
-0.744304

>  <SCORE.INTRA>
-21.6569

>  <SCORE.INTRA.DIHEDRAL>
-19.1664

>  <SCORE.INTRA.DIHEDRAL.0>
40.8761

>  <SCORE.INTRA.POLAR>
-1.15363

>  <SCORE.INTRA.POLAR.0>
-0.0268208

>  <SCORE.INTRA.REPUL>
-0.641615

>  <SCORE.INTRA.REPUL.0>
0.641615

>  <SCORE.INTRA.SOLV>
-6.61151

>  <SCORE.INTRA.SOLV.lig_0>
-162.567

>  <SCORE.INTRA.VDW>
-1.63753

>  <SCORE.INTRA.VDW.0>
-4.80338

>  <SCORE.INTRA.norm>
-0.515641

>  <SCORE.RESTR>
0

>  <SCORE.RESTR.CAVITY>
0

>  <SCORE.RESTR.norm>
0

>  <SCORE.SYSTEM>
0

>  <SCORE.SYSTEM.CONST>
0

>  <SCORE.SYSTEM.DIHEDRAL>
0

>  <SCORE.SYSTEM.SOLV>
0

>  <SCORE.SYSTEM.norm>
0

>  <SCORE.heavy>
42

>  <SCORE.norm>
-1.25995

>  <RMSD>
8.369

$$$$

 OpenBabel11021811393D
libRbt.so/2013.1/901 2013/11/27
 42 45  0  0  0  0  0  0  0  0999 V2000
   -3.6362    1.0656   -6.6303 C   0  0  2  0  0  0  0  0  0  0  0  0
   -2.5125    1.0489   -5.6971 O   0  0  0  0  0  0  0  0  0  0  0  0
   -4.1473    2.5199   -6.8901 C   0  0  2  0  0  0  0  0  0  0  0  0
   -3.1726    3.5333   -6.4252 N   0  3  0  0  0  0  0  0  0  0  0  0
   -5.5339    2.7447   -6.2149 C   0  0  1  0  0  0  0  0  0  0  0  0
   -5.9941    4.0705   -6.4673 O   0  0  0  0  0  0  0  0  0  0  0  0
   -6.5994    1.7455   -6.7400 C   0  0  2  0  0  0  0  0  0  0  0  0
   -7.7406    1.8069   -5.8918 O   0  0  0  0  0  0  0  0  0  0  0  0
   -6.0387    0.2869   -6.7790 C   0  0  2  0  0  0  0  0  0  0  0  0
   -4.7321    0.2317   -6.1196 O   0  0  0  0  0  0  0  0  0  0  0  0
   -5.8362   -0.2847   -8.2012 C   0  0  0  0  0  0  0  0  0  0  0  0
   -1.9450   -3.2254   -5.8632 C   0  0  1  0  0  0  0  0  0  0  0  0
   -1.4075   -4.5909   -5.6713 N   0  3  0  0  0  0  0  0  0  0  0  0
   -2.5294   -2.6532   -4.5452 C   0  0  1  0  0  0  0  0  0  0  0  0
   -2.9773   -1.1538   -4.6506 C   0  0  1  0  0  0  0  0  0  0  0  0
   -3.1919   -0.6487   -3.3053 O   0  0  0  0  0  0  0  0  0  0  0  0
   -1.9059   -0.2306   -5.3389 C   0  0  1  0  0  0  0  0  0  0  0  0
   -1.3327   -0.8709   -6.6444 C   0  0  1  0  0  0  0  0  0  0  0  0
   -0.2228   -0.0772   -7.2102 N   0  3  0  0  0  0  0  0  0  0  0  0
   -0.8261   -2.3108   -6.4035 C   0  0  0  0  0  0  0  0  0  0  0  0
   -3.7818    0.6704   -3.1187 C   0  0  1  0  0  0  0  0  0  0  0  0
   -5.2985    0.5381   -3.1888 C   0  0  1  0  0  0  0  0  0  0  0  0
   -5.5876    0.0392   -1.7796 C   0  0  1  0  0  0  0  0  0  0  0  0
   -4.6308    0.9008   -0.9432 C   0  0  2  0  0  0  0  0  0  0  0  0
   -3.4909    1.1564   -1.7981 O   0  0  0  0  0  0  0  0  0  0  0  0
   -4.1756    0.2088    0.3542 C   0  0  0  0  0  0  0  0  0  0  0  0
  -10.0253   -1.5677    0.0478 C   0  0  1  0  0  0  0  0  0  0  0  0
  -10.0425   -0.1353   -0.5550 C   0  0  1  0  0  0  0  0  0  0  0  0
   -9.3909   -0.0314   -1.9642 C   0  0  2  0  0  0  0  0  0  0  0  0
   -7.9594   -0.6579   -1.9719 C   0  0  1  0  0  0  0  0  0  0  0  0
   -6.9790    0.2591   -1.4088 O   0  0  0  0  0  0  0  0  0  0  0  0
   -9.2145   -2.5417   -0.8600 C   0  0  1  0  0  0  0  0  0  0  0  0
   -7.9310   -1.9295   -1.2129 O   0  0  0  0  0  0  0  0  0  0  0  0
   -8.9575   -3.9107   -0.1791 C   0  0  0  0  0  0  0  0  0  0  0  0
   -5.1381   -1.5817   -8.2430 N   0  3  0  0  0  0  0  0  0  0  0  0
   -5.8849    1.8190   -3.4212 O   0  0  0  0  0  0  0  0  0  0  0  0
  -11.3993    0.2970   -0.6483 O   0  0  0  0  0  0  0  0  0  0  0  0
   -9.4377   -1.5031    1.3492 O   0  0  0  0  0  0  0  0  0  0  0  0
   -3.6130   -1.0624    0.0784 O   0  0  0  0  0  0  0  0  0  0  0  0
   -3.6581   -3.4397   -4.1644 O   0  0  0  0  0  0  0  0  0  0  0  0
   -9.5895   -5.0346   -0.8942 N   0  3  0  0  0  0  0  0  0  0  0  0
   -9.4058    1.3650   -2.4664 N   0  3  0  0  0  0  0  0  0  0  0  0
  1  2  1  1  0  0  0
  1  3  1  0  0  0  0
  1 10  1  0  0  0  0
  3  4  1  1  0  0  0
  3  5  1  0  0  0  0
  5  6  1  6  0  0  0
  5  7  1  0  0  0  0
  7  8  1  1  0  0  0
  7  9  1  0  0  0  0
  9 10  1  0  0  0  0
  9 11  1  6  0  0  0
 11 35  1  0  0  0  0
 12 13  1  1  0  0  0
 12 14  1  0  0  0  0
 12 20  1  0  0  0  0
 14 15  1  0  0  0  0
 14 40  1  6  0  0  0
 15 16  1  1  0  0  0
 15 17  1  0  0  0  0
 17  2  1  6  0  0  0
 17 18  1  0  0  0  0
 18 19  1  1  0  0  0
 18 20  1  0  0  0  0
 21 16  1  1  0  0  0
 21 22  1  0  0  0  0
 21 25  1  0  0  0  0
 22 23  1  0  0  0  0
 22 36  1  1  0  0  0
 23 24  1  0  0  0  0
 23 31  1  1  0  0  0
 24 25  1  0  0  0  0
 24 26  1  1  0  0  0
 26 39  1  0  0  0  0
 27 28  1  0  0  0  0
 27 32  1  0  0  0  0
 27 38  1  1  0  0  0
 28 29  1  0  0  0  0
 28 37  1  6  0  0  0
 29 30  1  0  0  0  0
 29 42  1  1  0  0  0
 30 31  1  1  0  0  0
 30 33  1  0  0  0  0
 32 33  1  0  0  0  0
 32 34  1  1  0  0  0
 34 41  1  0  0  0  0
M  CHG  6   4   1  13   1  19   1  35   1  41   1  42   1
M  END
>  <CHROM.1>
-179.96657088,-60.70360206,-55.13691874,64.16580375,-169.43069326,172.01575334
158.81096807,-164.25234403,-165.33053268,-172.06506785,84.23589049,-52.25126950
-59.18587477,76.84266078,54.32548390,-67.63419742,124.67581001,-29.36014596
-150.94577535,-158.37141399,117.04790349,-3.81888374,-5.44536363,-0.31659630
-3.76889328,0.55770218,0.53098090,-0.69603650

>  <Name>


>  <RI>
0

>  <Rbt.Current_Directory>
/home/itssahil/PROJECTS/Mol_Feturizer/New_Systems/rnas/1ei2

>  <Rbt.Executable>
rbdock ($Id: //depot/dev/client3/rdock/2013.1/src/exe/rbdock.cxx#4 $)

>  <Rbt.Library>
libRbt.so (2013.1, Build901 2013/11/27)

>  <Rbt.Parameter_File>
/export/apps/rDock/src/rDock_2013.1_src/data/scripts/dock_solv.prm

>  <Rbt.Receptor>
prm/blind_docking_40.prm

>  <SCORE>
25.5121

>  <SCORE.INTER>
18.8641

>  <SCORE.INTER.CONST>
1

>  <SCORE.INTER.POLAR>
-4.76345

>  <SCORE.INTER.ROT>
9

>  <SCORE.INTER.SOLV>
57.6784

>  <SCORE.INTER.VDW>
-0.371873

>  <SCORE.INTER.norm>
0.449146

>  <SCORE.INTRA>
-12.7496

>  <SCORE.INTRA.DIHEDRAL>
-8.40078

>  <SCORE.INTRA.DIHEDRAL.0>
40.8761

>  <SCORE.INTRA.POLAR>
-0.0805292

>  <SCORE.INTRA.POLAR.0>
-0.0268208

>  <SCORE.INTRA.REPUL>
-0.641615

>  <SCORE.INTRA.REPUL.0>
0.641615

>  <SCORE.INTRA.SOLV>
-9.78283

>  <SCORE.INTRA.SOLV.lig_0>
-162.567

>  <SCORE.INTRA.VDW>
-0.175884

>  <SCORE.INTRA.VDW.0>
-4.80338

>  <SCORE.INTRA.norm>
-0.303561

>  <SCORE.RESTR>
19.3975

>  <SCORE.RESTR.CAVITY>
19.3975

>  <SCORE.RESTR.norm>
0.461846

>  <SCORE.SYSTEM>
0

>  <SCORE.SYSTEM.CONST>
0

>  <SCORE.SYSTEM.DIHEDRAL>
0

>  <SCORE.SYSTEM.SOLV>
0

>  <SCORE.SYSTEM.norm>
0

>  <SCORE.heavy>
42

>  <SCORE.norm>
0.607431

>  <RMSD>
8.370

$$$$

 OpenBabel11021811393D
libRbt.so/2013.1/901 2013/11/27
 42 45  0  0  0  0  0  0  0  0999 V2000
   -4.0965    1.3427   -5.6606 C   0  0  2  0  0  0  0  0  0  0  0  0
   -4.3631   -0.0499   -6.0118 O   0  0  0  0  0  0  0  0  0  0  0  0
   -5.1666    2.3053   -6.2705 C   0  0  2  0  0  0  0  0  0  0  0  0
   -6.3605    1.5671   -6.7426 N   0  3  0  0  0  0  0  0  0  0  0  0
   -4.5521    3.1486   -7.4282 C   0  0  1  0  0  0  0  0  0  0  0  0
   -5.5342    4.0295   -7.9694 O   0  0  0  0  0  0  0  0  0  0  0  0
   -3.3438    3.9953   -6.9460 C   0  0  2  0  0  0  0  0  0  0  0  0
   -2.6591    4.5046   -8.0851 O   0  0  0  0  0  0  0  0  0  0  0  0
   -2.3679    3.1440   -6.0706 C   0  0  2  0  0  0  0  0  0  0  0  0
   -2.7545    1.7319   -6.1133 O   0  0  0  0  0  0  0  0  0  0  0  0
   -2.3315    3.5433   -4.5774 C   0  0  0  0  0  0  0  0  0  0  0  0
   -3.0527   -3.7844   -4.2925 C   0  0  1  0  0  0  0  0  0  0  0  0
   -2.2293   -4.9472   -3.8921 N   0  3  0  0  0  0  0  0  0  0  0  0
   -2.5996   -2.4897   -3.5682 C   0  0  1  0  0  0  0  0  0  0  0  0
   -3.3366   -1.1970   -4.0640 C   0  0  1  0  0  0  0  0  0  0  0  0
   -2.6129   -0.0414   -3.5621 O   0  0  0  0  0  0  0  0  0  0  0  0
   -3.3958   -1.0759   -5.6311 C   0  0  1  0  0  0  0  0  0  0  0  0
   -3.8296   -2.4171   -6.3064 C   0  0  1  0  0  0  0  0  0  0  0  0
   -3.7421   -2.3500   -7.7794 N   0  3  0  0  0  0  0  0  0  0  0  0
   -2.9712   -3.6077   -5.8230 C   0  0  0  0  0  0  0  0  0  0  0  0
   -3.0877    0.6391   -2.3645 C   0  0  1  0  0  0  0  0  0  0  0  0
   -4.5643    0.9696   -2.5473 C   0  0  1  0  0  0  0  0  0  0  0  0
   -5.1827   -0.3810   -2.2124 C   0  0  1  0  0  0  0  0  0  0  0  0
   -4.3304   -0.8240   -1.0147 C   0  0  2  0  0  0  0  0  0  0  0  0
   -3.0208   -0.2480   -1.2360 O   0  0  0  0  0  0  0  0  0  0  0  0
   -4.2215   -2.3541   -0.8864 C   0  0  0  0  0  0  0  0  0  0  0  0
   -9.8171   -1.7702   -0.4372 C   0  0  1  0  0  0  0  0  0  0  0  0
   -9.7453   -0.5335   -1.3756 C   0  0  1  0  0  0  0  0  0  0  0  0
   -8.8946   -0.7584   -2.6590 C   0  0  2  0  0  0  0  0  0  0  0  0
   -7.4777   -1.3152   -2.3066 C   0  0  1  0  0  0  0  0  0  0  0  0
   -6.5897   -0.2524   -1.8581 O   0  0  0  0  0  0  0  0  0  0  0  0
   -8.8827   -2.9088   -0.9479 C   0  0  1  0  0  0  0  0  0  0  0  0
   -7.5611   -2.3572   -1.2573 O   0  0  0  0  0  0  0  0  0  0  0  0
   -8.7286   -4.0562    0.0835 C   0  0  0  0  0  0  0  0  0  0  0  0
   -3.3724    4.5070   -4.1788 N   0  3  0  0  0  0  0  0  0  0  0  0
   -4.9549    1.9714   -1.6079 O   0  0  0  0  0  0  0  0  0  0  0  0
  -11.0736   -0.1872   -1.7654 O   0  0  0  0  0  0  0  0  0  0  0  0
   -9.4260   -1.3641    0.8762 O   0  0  0  0  0  0  0  0  0  0  0  0
   -5.2397   -2.9976   -1.6333 O   0  0  0  0  0  0  0  0  0  0  0  0
   -2.8364   -2.6401   -2.1687 O   0  0  0  0  0  0  0  0  0  0  0  0
   -9.6098   -3.8967    1.2548 N   0  3  0  0  0  0  0  0  0  0  0  0
   -8.8352    0.4685   -3.4917 N   0  3  0  0  0  0  0  0  0  0  0  0
  1  2  1  6  0  0  0
  1  3  1  0  0  0  0
  1 10  1  0  0  0  0
  3  4  1  6  0  0  0
  3  5  1  0  0  0  0
  5  6  1  1  0  0  0
  5  7  1  0  0  0  0
  7  8  1  6  0  0  0
  7  9  1  0  0  0  0
  9 10  1  0  0  0  0
  9 11  1  1  0  0  0
 11 35  1  0  0  0  0
 12 13  1  1  0  0  0
 12 14  1  0  0  0  0
 12 20  1  0  0  0  0
 14 15  1  0  0  0  0
 14 40  1  1  0  0  0
 15 16  1  1  0  0  0
 15 17  1  0  0  0  0
 17  2  1  1  0  0  0
 17 18  1  0  0  0  0
 18 19  1  6  0  0  0
 18 20  1  0  0  0  0
 21 16  1  6  0  0  0
 21 22  1  0  0  0  0
 21 25  1  0  0  0  0
 22 23  1  0  0  0  0
 22 36  1  1  0  0  0
 23 24  1  0  0  0  0
 23 31  1  1  0  0  0
 24 25  1  0  0  0  0
 24 26  1  6  0  0  0
 26 39  1  0  0  0  0
 27 28  1  0  0  0  0
 27 32  1  0  0  0  0
 27 38  1  1  0  0  0
 28 29  1  0  0  0  0
 28 37  1  6  0  0  0
 29 30  1  0  0  0  0
 29 42  1  1  0  0  0
 30 31  1  1  0  0  0
 30 33  1  0  0  0  0
 32 33  1  0  0  0  0
 32 34  1  1  0  0  0
 34 41  1  0  0  0  0
M  CHG  6   4   1  13   1  19   1  35   1  41   1  42   1
M  END
>  <CHROM.1>
174.38934708,65.75779879,17.99867503,62.50026978,-53.46991938,9.38420561
-48.15077365,173.66823860,74.66261396,-98.65134238,-51.92495757,34.21999012
173.20902441,142.86701119,-17.86522835,67.78748180,73.48236248,54.49745320
161.77941910,-145.92042676,6.32926960,-3.82657904,-5.24050631,-0.29536024
-3.57567462,0.88242224,0.50329276,-0.52590173

>  <Name>


>  <RI>
0

>  <Rbt.Current_Directory>
/home/itssahil/PROJECTS/Mol_Feturizer/New_Systems/rnas/1ei2

>  <Rbt.Executable>
rbdock ($Id: //depot/dev/client3/rdock/2013.1/src/exe/rbdock.cxx#4 $)

>  <Rbt.Library>
libRbt.so (2013.1, Build901 2013/11/27)

>  <Rbt.Parameter_File>
/export/apps/rDock/src/rDock_2013.1_src/data/scripts/dock_solv.prm

>  <Rbt.Receptor>
prm/blind_docking_20.prm

>  <SCORE>
57.5787

>  <SCORE.INTER>
25.1678

>  <SCORE.INTER.CONST>
1

>  <SCORE.INTER.POLAR>
-3.49574

>  <SCORE.INTER.ROT>
9

>  <SCORE.INTER.SOLV>
49.3855

>  <SCORE.INTER.VDW>
2.3692

>  <SCORE.INTER.norm>
0.599234

>  <SCORE.INTRA>
20.5107

>  <SCORE.INTRA.DIHEDRAL>
0.55365

>  <SCORE.INTRA.DIHEDRAL.0>
40.8761

>  <SCORE.INTRA.POLAR>
-0.261536

>  <SCORE.INTRA.POLAR.0>
-0.0268208

>  <SCORE.INTRA.REPUL>
-0.369539

>  <SCORE.INTRA.REPUL.0>
0.641615

>  <SCORE.INTRA.SOLV>
-2.21315

>  <SCORE.INTRA.SOLV.lig_0>
-162.567

>  <SCORE.INTRA.VDW>
24.0774

>  <SCORE.INTRA.VDW.0>
-4.80338

>  <SCORE.INTRA.norm>
0.48835

>  <SCORE.RESTR>
11.9002

>  <SCORE.RESTR.CAVITY>
11.9002

>  <SCORE.RESTR.norm>
0.283337

>  <SCORE.SYSTEM>
0

>  <SCORE.SYSTEM.CONST>
0

>  <SCORE.SYSTEM.DIHEDRAL>
0

>  <SCORE.SYSTEM.SOLV>
0

>  <SCORE.SYSTEM.norm>
0

>  <SCORE.heavy>
42

>  <SCORE.norm>
1.37092

>  <RMSD>
8.397

$$$$

 OpenBabel11021811393D
libRbt.so/2013.1/901 2013/11/27
 42 45  0  0  0  0  0  0  0  0999 V2000
   -3.5119    3.2496   -4.3657 C   0  0  2  0  0  0  0  0  0  0  0  0
   -3.1571    2.4941   -5.5645 O   0  0  0  0  0  0  0  0  0  0  0  0
   -5.0586    3.4389   -4.2412 C   0  0  2  0  0  0  0  0  0  0  0  0
   -5.7957    2.5277   -5.1464 N   0  3  0  0  0  0  0  0  0  0  0  0
   -5.4554    4.9209   -4.5154 C   0  0  1  0  0  0  0  0  0  0  0  0
   -6.8665    5.0832   -4.3890 O   0  0  0  0  0  0  0  0  0  0  0  0
   -4.7576    5.8963   -3.5300 C   0  0  2  0  0  0  0  0  0  0  0  0
   -4.9256    7.2264   -4.0077 O   0  0  0  0  0  0  0  0  0  0  0  0
   -3.2363    5.5664   -3.3874 C   0  0  2  0  0  0  0  0  0  0  0  0
   -2.8447    4.5581   -4.3749 O   0  0  0  0  0  0  0  0  0  0  0  0
   -2.8279    5.0075   -2.0049 C   0  0  0  0  0  0  0  0  0  0  0  0
   -1.9531   -1.4199   -6.9249 C   0  0  1  0  0  0  0  0  0  0  0  0
   -1.4157   -2.7980   -6.9758 N   0  3  0  0  0  0  0  0  0  0  0  0
   -3.2543   -1.3471   -6.0837 C   0  0  1  0  0  0  0  0  0  0  0  0
   -3.7876    0.1122   -5.8691 C   0  0  1  0  0  0  0  0  0  0  0  0
   -4.7928    0.0784   -4.8205 O   0  0  0  0  0  0  0  0  0  0  0  0
   -2.6697    1.1246   -5.4223 C   0  0  1  0  0  0  0  0  0  0  0  0
   -1.3742    0.9853   -6.2857 C   0  0  1  0  0  0  0  0  0  0  0  0
   -0.2740    1.8279   -5.7744 N   0  3  0  0  0  0  0  0  0  0  0  0
   -0.8781   -0.4769   -6.3455 C   0  0  0  0  0  0  0  0  0  0  0  0
   -4.3794    0.1631   -3.4260 C   0  0  1  0  0  0  0  0  0  0  0  0
   -5.6261    0.1617   -2.5493 C   0  0  1  0  0  0  0  0  0  0  0  0
   -5.9349   -1.3291   -2.5282 C   0  0  1  0  0  0  0  0  0  0  0  0
   -4.5313   -1.9347   -2.3853 C   0  0  2  0  0  0  0  0  0  0  0  0
   -3.6409   -1.0140   -3.0600 O   0  0  0  0  0  0  0  0  0  0  0  0
   -4.4145   -3.3374   -3.0082 C   0  0  0  0  0  0  0  0  0  0  0  0
   -9.6170   -3.5055    0.4498 C   0  0  1  0  0  0  0  0  0  0  0  0
   -9.2303   -2.0135    0.6492 C   0  0  1  0  0  0  0  0  0  0  0  0
   -9.1272   -1.2017   -0.6742 C   0  0  2  0  0  0  0  0  0  0  0  0
   -8.1986   -1.9194   -1.7059 C   0  0  1  0  0  0  0  0  0  0  0  0
   -6.7940   -1.6819   -1.4059 O   0  0  0  0  0  0  0  0  0  0  0  0
   -9.6660   -3.8679   -1.0657 C   0  0  1  0  0  0  0  0  0  0  0  0
   -8.4536   -3.3782   -1.7267 O   0  0  0  0  0  0  0  0  0  0  0  0
   -9.7982   -5.3939   -1.3061 C   0  0  0  0  0  0  0  0  0  0  0  0
   -2.7567    6.0187   -0.9356 N   0  3  0  0  0  0  0  0  0  0  0  0
   -5.3010    0.6474   -1.2466 O   0  0  0  0  0  0  0  0  0  0  0  0
  -10.2139   -1.4017    1.4826 O   0  0  0  0  0  0  0  0  0  0  0  0
   -8.6488   -4.3165    1.1190 O   0  0  0  0  0  0  0  0  0  0  0  0
   -3.2020   -3.9620   -2.6231 O   0  0  0  0  0  0  0  0  0  0  0  0
   -4.2673   -2.1100   -6.7387 O   0  0  0  0  0  0  0  0  0  0  0  0
   -9.4100   -6.1953   -0.1309 N   0  3  0  0  0  0  0  0  0  0  0  0
   -8.7192    0.2020   -0.4185 N   0  3  0  0  0  0  0  0  0  0  0  0
  1  2  1  6  0  0  0
  1  3  1  0  0  0  0
  1 10  1  0  0  0  0
  3  4  1  6  0  0  0
  3  5  1  0  0  0  0
  5  6  1  1  0  0  0
  5  7  1  0  0  0  0
  7  8  1  6  0  0  0
  7  9  1  0  0  0  0
  9 10  1  0  0  0  0
  9 11  1  1  0  0  0
 11 35  1  0  0  0  0
 12 13  1  1  0  0  0
 12 14  1  0  0  0  0
 12 20  1  0  0  0  0
 14 15  1  0  0  0  0
 14 40  1  6  0  0  0
 15 16  1  1  0  0  0
 15 17  1  0  0  0  0
 17  2  1  6  0  0  0
 17 18  1  0  0  0  0
 18 19  1  1  0  0  0
 18 20  1  0  0  0  0
 21 16  1  6  0  0  0
 21 22  1  0  0  0  0
 21 25  1  0  0  0  0
 22 23  1  0  0  0  0
 22 36  1  1  0  0  0
 23 24  1  0  0  0  0
 23 31  1  1  0  0  0
 24 25  1  0  0  0  0
 24 26  1  6  0  0  0
 26 39  1  0  0  0  0
 27 28  1  0  0  0  0
 27 32  1  0  0  0  0
 27 38  1  1  0  0  0
 28 29  1  0  0  0  0
 28 37  1  1  0  0  0
 29 30  1  0  0  0  0
 29 42  1  1  0  0  0
 30 31  1  1  0  0  0
 30 33  1  0  0  0  0
 32 33  1  0  0  0  0
 32 34  1  1  0  0  0
 34 41  1  0  0  0  0
M  CHG  6   4   1  13   1  19   1  35   1  41   1  42   1
M  END
>  <CHROM.1>
-108.43753368,106.15462981,68.08658264,-60.29047710,70.47230845,-75.80720567
168.18300618,-151.47118226,78.23373816,85.46165680,177.74635647,-173.76315020
-73.87449090,103.02887166,-168.23662664,-59.73535904,89.81038591,174.78043457
138.91078213,-134.63628928,-18.90832642,-60.41362527,-5.26275765,0.15535351
-3.14325336,0.72415187,0.71462312,0.08922034

>  <Name>


>  <RI>
0

>  <Rbt.Current_Directory>
/home/itssahil/PROJECTS/Mol_Feturizer/New_Systems/rnas/1ei2

>  <Rbt.Executable>
rbdock ($Id: //depot/dev/client3/rdock/2013.1/src/exe/rbdock.cxx#4 $)

>  <Rbt.Library>
libRbt.so (2013.1, Build901 2013/11/27)

>  <Rbt.Parameter_File>
/export/apps/rDock/src/rDock_2013.1_src/data/scripts/dock_solv.prm

>  <Rbt.Receptor>
prm/blind_docking_20.prm

>  <SCORE>
42.0199

>  <SCORE.INTER>
24.97

>  <SCORE.INTER.CONST>
1

>  <SCORE.INTER.POLAR>
-7.28758

>  <SCORE.INTER.ROT>
9

>  <SCORE.INTER.SOLV>
56.5553

>  <SCORE.INTER.VDW>
12.4868

>  <SCORE.INTER.norm>
0.594523

>  <SCORE.INTRA>
-3.56356

>  <SCORE.INTRA.DIHEDRAL>
4.31449

>  <SCORE.INTRA.DIHEDRAL.0>
40.8761

>  <SCORE.INTRA.POLAR>
-1.00383

>  <SCORE.INTRA.POLAR.0>
-0.0268208

>  <SCORE.INTRA.REPUL>
-0.639612

>  <SCORE.INTRA.REPUL.0>
0.641615

>  <SCORE.INTRA.SOLV>
-3.49354

>  <SCORE.INTRA.SOLV.lig_0>
-162.567

>  <SCORE.INTRA.VDW>
2.63703

>  <SCORE.INTRA.VDW.0>
-4.80338

>  <SCORE.INTRA.norm>
-0.0848466

>  <SCORE.RESTR>
20.6134

>  <SCORE.RESTR.CAVITY>
20.6134

>  <SCORE.RESTR.norm>
0.490796

>  <SCORE.SYSTEM>
0

>  <SCORE.SYSTEM.CONST>
0

>  <SCORE.SYSTEM.DIHEDRAL>
0

>  <SCORE.SYSTEM.SOLV>
0

>  <SCORE.SYSTEM.norm>
0

>  <SCORE.heavy>
42

>  <SCORE.norm>
1.00047

>  <RMSD>
8.398

$$$$

 OpenBabel11021811393D
libRbt.so/2013.1/901 2013/11/27
 42 45  0  0  0  0  0  0  0  0999 V2000
   -5.6641    1.0256   -2.6062 C   0  0  2  0  0  0  0  0  0  0  0  0
   -5.8508    1.6815   -1.3145 O   0  0  0  0  0  0  0  0  0  0  0  0
   -6.1151   -0.4706   -2.5627 C   0  0  2  0  0  0  0  0  0  0  0  0
   -6.9342   -0.7601   -1.3634 N   0  3  0  0  0  0  0  0  0  0  0  0
   -4.8803   -1.4195   -2.6237 C   0  0  1  0  0  0  0  0  0  0  0  0
   -5.3046   -2.7806   -2.5936 O   0  0  0  0  0  0  0  0  0  0  0  0
   -4.0426   -1.1934   -3.9107 C   0  0  2  0  0  0  0  0  0  0  0  0
   -2.7968   -1.8670   -3.7694 O   0  0  0  0  0  0  0  0  0  0  0  0
   -3.8018    0.3291   -4.1707 C   0  0  2  0  0  0  0  0  0  0  0  0
   -4.2582    1.1146   -3.0218 O   0  0  0  0  0  0  0  0  0  0  0  0
   -4.5386    0.8930   -5.4074 C   0  0  0  0  0  0  0  0  0  0  0  0
   -3.3917    5.1064   -2.2326 C   0  0  1  0  0  0  0  0  0  0  0  0
   -2.7735    6.4510   -2.2157 N   0  3  0  0  0  0  0  0  0  0  0  0
   -2.9934    4.2811   -0.9810 C   0  0  1  0  0  0  0  0  0  0  0  0
   -3.7369    2.9047   -0.8685 C   0  0  1  0  0  0  0  0  0  0  0  0
   -3.5344    2.3880    0.4743 O   0  0  0  0  0  0  0  0  0  0  0  0
   -5.2879    3.0132   -1.1064 C   0  0  1  0  0  0  0  0  0  0  0  0
   -5.6289    3.8788   -2.3623 C   0  0  1  0  0  0  0  0  0  0  0  0
   -7.0819    4.1055   -2.5017 N   0  3  0  0  0  0  0  0  0  0  0  0
   -4.9250    5.2538   -2.3207 C   0  0  0  0  0  0  0  0  0  0  0  0
   -2.1792    2.1836    0.9687 C   0  0  1  0  0  0  0  0  0  0  0  0
   -1.7626    3.4141    1.7657 C   0  0  1  0  0  0  0  0  0  0  0  0
   -2.4554    3.1210    3.0895 C   0  0  1  0  0  0  0  0  0  0  0  0
   -2.2022    1.6147    3.2453 C   0  0  2  0  0  0  0  0  0  0  0  0
   -2.1553    1.0876    1.8978 O   0  0  0  0  0  0  0  0  0  0  0  0
   -3.2988    0.9005    4.0558 C   0  0  0  0  0  0  0  0  0  0  0  0
   -3.7433    4.8668    7.3846 C   0  0  1  0  0  0  0  0  0  0  0  0
   -2.2192    5.0542    7.1447 C   0  0  1  0  0  0  0  0  0  0  0  0
   -1.8700    5.7722    5.8091 C   0  0  2  0  0  0  0  0  0  0  0  0
   -2.5783    5.0858    4.5971 C   0  0  1  0  0  0  0  0  0  0  0  0
   -1.8680    3.8849    4.1818 O   0  0  0  0  0  0  0  0  0  0  0  0
   -4.5610    5.3219    6.1377 C   0  0  1  0  0  0  0  0  0  0  0  0
   -3.9787    4.7348    4.9282 O   0  0  0  0  0  0  0  0  0  0  0  0
   -6.0559    4.9215    6.2312 C   0  0  0  0  0  0  0  0  0  0  0  0
   -4.0444    0.3803   -6.6974 N   0  3  0  0  0  0  0  0  0  0  0  0
   -0.3425    3.4367    1.9120 O   0  0  0  0  0  0  0  0  0  0  0  0
   -1.6847    5.8181    8.2250 O   0  0  0  0  0  0  0  0  0  0  0  0
   -3.9910    3.4861    7.6589 O   0  0  0  0  0  0  0  0  0  0  0  0
   -4.5845    1.2002    3.5402 O   0  0  0  0  0  0  0  0  0  0  0  0
   -1.5876    4.0370   -1.0209 O   0  0  0  0  0  0  0  0  0  0  0  0
   -6.3351    3.6031    5.6330 N   0  3  0  0  0  0  0  0  0  0  0  0
   -0.4021    5.8862    5.6229 N   0  3  0  0  0  0  0  0  0  0  0  0
  1  2  1  1  0  0  0
  1  3  1  0  0  0  0
  1 10  1  0  0  0  0
  3  4  1  1  0  0  0
  3  5  1  0  0  0  0
  5  6  1  6  0  0  0
  5  7  1  0  0  0  0
  7  8  1  1  0  0  0
  7  9  1  0  0  0  0
  9 10  1  0  0  0  0
  9 11  1  6  0  0  0
 11 35  1  0  0  0  0
 12 13  1  1  0  0  0
 12 14  1  0  0  0  0
 12 20  1  0  0  0  0
 14 15  1  0  0  0  0
 14 40  1  6  0  0  0
 15 16  1  1  0  0  0
 15 17  1  0  0  0  0
 17  2  1  6  0  0  0
 17 18  1  0  0  0  0
 18 19  1  1  0  0  0
 18 20  1  0  0  0  0
 21 16  1  1  0  0  0
 21 22  1  0  0  0  0
 21 25  1  0  0  0  0
 22 23  1  0  0  0  0
 22 36  1  1  0  0  0
 23 24  1  0  0  0  0
 23 31  1  1  0  0  0
 24 25  1  0  0  0  0
 24 26  1  1  0  0  0
 26 39  1  0  0  0  0
 27 28  1  0  0  0  0
 27 32  1  0  0  0  0
 27 38  1  6  0  0  0
 28 29  1  0  0  0  0
 28 37  1  1  0  0  0
 29 30  1  0  0  0  0
 29 42  1  6  0  0  0
 30 31  1  1  0  0  0
 30 33  1  0  0  0  0
 32 33  1  0  0  0  0
 32 34  1  1  0  0  0
 34 41  1  0  0  0  0
M  CHG  6   4   1  13   1  19   1  35   1  41   1  42   1
M  END
>  <CHROM.1>
170.25858899,-76.78912725,-19.32060708,-169.82695211,178.80992761,-67.78392818
-44.03892582,-121.79271695,105.26295715,-57.22266594,95.37613139,-178.06401652
70.26793679,100.12331280,51.65272439,169.65150515,-60.90963408,172.50631942
55.18118870,177.75189963,-90.95181602,-151.57714005,-3.74094854,2.68781478
0.92991187,1.99628034,-1.16076648,-1.58113222

>  <Name>


>  <RI>
0

>  <Rbt.Current_Directory>
/home/itssahil/PROJECTS/Mol_Feturizer/New_Systems/rnas/1ei2

>  <Rbt.Executable>
rbdock ($Id: //depot/dev/client3/rdock/2013.1/src/exe/rbdock.cxx#4 $)

>  <Rbt.Library>
libRbt.so (2013.1, Build901 2013/11/27)

>  <Rbt.Parameter_File>
/export/apps/rDock/src/rDock_2013.1_src/data/scripts/dock_solv.prm

>  <Rbt.Receptor>
prm/pocket_docking_7.prm

>  <SCORE>
-38.2208

>  <SCORE.INTER>
-27.5392

>  <SCORE.INTER.CONST>
1

>  <SCORE.INTER.POLAR>
-5.32867

>  <SCORE.INTER.ROT>
9

>  <SCORE.INTER.SOLV>
25.6962

>  <SCORE.INTER.VDW>
-18.7627

>  <SCORE.INTER.norm>
-0.655696

>  <SCORE.INTRA>
-11.7086

>  <SCORE.INTRA.DIHEDRAL>
-8.42913

>  <SCORE.INTRA.DIHEDRAL.0>
40.8761

>  <SCORE.INTRA.POLAR>
-0.680159

>  <SCORE.INTRA.POLAR.0>
-0.0268208

>  <SCORE.INTRA.REPUL>
-0.350019

>  <SCORE.INTRA.REPUL.0>
0.641615

>  <SCORE.INTRA.SOLV>
-9.06539

>  <SCORE.INTRA.SOLV.lig_0>
-162.567

>  <SCORE.INTRA.VDW>
1.10128

>  <SCORE.INTRA.VDW.0>
-4.80338

>  <SCORE.INTRA.norm>
-0.278777

>  <SCORE.RESTR>
1.02704

>  <SCORE.RESTR.CAVITY>
1.02704

>  <SCORE.RESTR.norm>
0.0244533

>  <SCORE.SYSTEM>
0

>  <SCORE.SYSTEM.CONST>
0

>  <SCORE.SYSTEM.DIHEDRAL>
0

>  <SCORE.SYSTEM.SOLV>
0

>  <SCORE.SYSTEM.norm>
0

>  <SCORE.heavy>
42

>  <SCORE.norm>
-0.91002

>  <RMSD>
8.406

$$$$

 OpenBabel11021811393D
libRbt.so/2013.1/901 2013/11/27
 42 45  0  0  0  0  0  0  0  0999 V2000
   -2.7665    0.9240   -3.7547 C   0  0  2  0  0  0  0  0  0  0  0  0
   -3.0991    2.3170   -4.0416 O   0  0  0  0  0  0  0  0  0  0  0  0
   -1.5587    0.4312   -4.6163 C   0  0  2  0  0  0  0  0  0  0  0  0
   -0.8317    1.5626   -5.2363 N   0  3  0  0  0  0  0  0  0  0  0  0
   -2.0350   -0.5758   -5.7062 C   0  0  1  0  0  0  0  0  0  0  0  0
   -0.9240   -1.0258   -6.4786 O   0  0  0  0  0  0  0  0  0  0  0  0
   -2.7337   -1.8133   -5.0818 C   0  0  2  0  0  0  0  0  0  0  0  0
   -3.3921   -2.5365   -6.1158 O   0  0  0  0  0  0  0  0  0  0  0  0
   -3.7637   -1.3898   -3.9849 C   0  0  2  0  0  0  0  0  0  0  0  0
   -3.9345    0.0649   -3.9891 O   0  0  0  0  0  0  0  0  0  0  0  0
   -3.3625   -1.7796   -2.5436 C   0  0  0  0  0  0  0  0  0  0  0  0
   -5.7971    5.4512   -2.8097 C   0  0  1  0  0  0  0  0  0  0  0  0
   -6.9961    6.1892   -2.3533 N   0  3  0  0  0  0  0  0  0  0  0  0
   -5.2230    4.5481   -1.6868 C   0  0  1  0  0  0  0  0  0  0  0  0
   -4.0422    3.6288   -2.1565 C   0  0  1  0  0  0  0  0  0  0  0  0
   -3.8164    2.6221   -1.1335 O   0  0  0  0  0  0  0  0  0  0  0  0
   -4.3376    2.8762   -3.5058 C   0  0  1  0  0  0  0  0  0  0  0  0
   -4.9404    3.8290   -4.5882 C   0  0  1  0  0  0  0  0  0  0  0  0
   -5.3560    3.0969   -5.8020 N   0  3  0  0  0  0  0  0  0  0  0  0
   -6.1607    4.6099   -4.0508 C   0  0  0  0  0  0  0  0  0  0  0  0
   -2.5095    1.9869   -1.0267 C   0  0  1  0  0  0  0  0  0  0  0  0
   -1.4820    3.0499   -0.6563 C   0  0  1  0  0  0  0  0  0  0  0  0
   -1.7288    3.1476    0.8430 C   0  0  1  0  0  0  0  0  0  0  0  0
   -1.9198    1.6723    1.2228 C   0  0  2  0  0  0  0  0  0  0  0  0
   -2.5082    1.0448    0.0584 O   0  0  0  0  0  0  0  0  0  0  0  0
   -2.8325    1.4790    2.4471 C   0  0  0  0  0  0  0  0  0  0  0  0
    1.6866    3.8149    4.6228 C   0  0  1  0  0  0  0  0  0  0  0  0
    1.5374    4.9677    3.5911 C   0  0  1  0  0  0  0  0  0  0  0  0
    0.0635    5.3735    3.3007 C   0  0  2  0  0  0  0  0  0  0  0  0
   -0.8011    4.1278    2.9232 C   0  0  1  0  0  0  0  0  0  0  0  0
   -0.5933    3.7425    1.5348 O   0  0  0  0  0  0  0  0  0  0  0  0
    0.2926    3.2367    5.0136 C   0  0  1  0  0  0  0  0  0  0  0  0
   -0.4882    2.9769    3.8014 O   0  0  0  0  0  0  0  0  0  0  0  0
    0.4039    1.9293    5.8396 C   0  0  0  0  0  0  0  0  0  0  0  0
   -3.0981   -3.2165   -2.3521 N   0  3  0  0  0  0  0  0  0  0  0  0
   -0.1674    2.5706   -0.9402 O   0  0  0  0  0  0  0  0  0  0  0  0
    2.2338    6.1094    4.0889 O   0  0  0  0  0  0  0  0  0  0  0  0
    2.4991    2.7919    4.0428 O   0  0  0  0  0  0  0  0  0  0  0  0
   -4.1605    1.8790    2.1556 O   0  0  0  0  0  0  0  0  0  0  0  0
   -4.7576    5.3786   -0.6231 O   0  0  0  0  0  0  0  0  0  0  0  0
   -0.8134    1.1005    5.7683 N   0  3  0  0  0  0  0  0  0  0  0  0
   -0.0114    6.4505    2.2826 N   0  3  0  0  0  0  0  0  0  0  0  0
  1  2  1  6  0  0  0
  1  3  1  0  0  0  0
  1 10  1  0  0  0  0
  3  4  1  6  0  0  0
  3  5  1  0  0  0  0
  5  6  1  1  0  0  0
  5  7  1  0  0  0  0
  7  8  1  6  0  0  0
  7  9  1  0  0  0  0
  9 10  1  0  0  0  0
  9 11  1  1  0  0  0
 11 35  1  0  0  0  0
 12 13  1  1  0  0  0
 12 14  1  0  0  0  0
 12 20  1  0  0  0  0
 14 15  1  0  0  0  0
 14 40  1  1  0  0  0
 15 16  1  1  0  0  0
 15 17  1  0  0  0  0
 17  2  1  6  0  0  0
 17 18  1  0  0  0  0
 18 19  1  6  0  0  0
 18 20  1  0  0  0  0
 21 16  1  1  0  0  0
 21 22  1  0  0  0  0
 21 25  1  0  0  0  0
 22 23  1  0  0  0  0
 22 36  1  1  0  0  0
 23 24  1  0  0  0  0
 23 31  1  1  0  0  0
 24 25  1  0  0  0  0
 24 26  1  1  0  0  0
 26 39  1  0  0  0  0
 27 28  1  0  0  0  0
 27 32  1  0  0  0  0
 27 38  1  6  0  0  0
 28 29  1  0  0  0  0
 28 37  1  1  0  0  0
 29 30  1  0  0  0  0
 29 42  1  6  0  0  0
 30 31  1  6  0  0  0
 30 33  1  0  0  0  0
 32 33  1  0  0  0  0
 32 34  1  6  0  0  0
 34 41  1  0  0  0  0
M  CHG  6   4   1  13   1  19   1  35   1  41   1  42   1
M  END
>  <CHROM.1>
169.49657288,95.61199587,-32.70746580,64.27776918,-86.09355184,-56.03372806
71.86020383,-49.80177884,-178.87639199,-155.97213398,63.78040516,-174.63222376
-57.47929388,168.49225321,66.34321037,175.01234663,164.63039804,62.93752826
-91.93234086,-148.35032649,-157.40531402,22.28130073,-2.23229443,2.33166564
-0.75213513,-2.22426247,-0.85963451,0.70097310

>  <Name>


>  <RI>
0

>  <Rbt.Current_Directory>
/home/itssahil/PROJECTS/Mol_Feturizer/New_Systems/rnas/1ei2

>  <Rbt.Executable>
rbdock ($Id: //depot/dev/client3/rdock/2013.1/src/exe/rbdock.cxx#4 $)

>  <Rbt.Library>
libRbt.so (2013.1, Build901 2013/11/27)

>  <Rbt.Parameter_File>
/export/apps/rDock/src/rDock_2013.1_src/data/scripts/dock_solv.prm

>  <Rbt.Receptor>
prm/pocket_docking_7.prm

>  <SCORE>
-63.2367

>  <SCORE.INTER>
-46.1047

>  <SCORE.INTER.CONST>
1

>  <SCORE.INTER.POLAR>
-7.46864

>  <SCORE.INTER.ROT>
9

>  <SCORE.INTER.SOLV>
33.9458

>  <SCORE.INTER.VDW>
-26.7563

>  <SCORE.INTER.norm>
-1.09773

>  <SCORE.INTRA>
-17.132

>  <SCORE.INTRA.DIHEDRAL>
-14.9843

>  <SCORE.INTRA.DIHEDRAL.0>
40.8761

>  <SCORE.INTRA.POLAR>
-0.551534

>  <SCORE.INTRA.POLAR.0>
-0.0268208

>  <SCORE.INTRA.REPUL>
-0.298555

>  <SCORE.INTRA.REPUL.0>
0.641615

>  <SCORE.INTRA.SOLV>
-12.6934

>  <SCORE.INTRA.SOLV.lig_0>
-162.567

>  <SCORE.INTRA.VDW>
0.0748445

>  <SCORE.INTRA.VDW.0>
-4.80338

>  <SCORE.INTRA.norm>
-0.407904

>  <SCORE.RESTR>
0

>  <SCORE.RESTR.CAVITY>
0

>  <SCORE.RESTR.norm>
0

>  <SCORE.SYSTEM>
0

>  <SCORE.SYSTEM.CONST>
0

>  <SCORE.SYSTEM.DIHEDRAL>
0

>  <SCORE.SYSTEM.SOLV>
0

>  <SCORE.SYSTEM.norm>
0

>  <SCORE.heavy>
42

>  <SCORE.norm>
-1.50564

>  <RMSD>
8.411

$$$$

 OpenBabel11021811393D
libRbt.so/2013.1/901 2013/11/27
 42 45  0  0  0  0  0  0  0  0999 V2000
   -4.1412   -1.0885   -4.5318 C   0  0  2  0  0  0  0  0  0  0  0  0
   -4.1910    0.0568   -3.6266 O   0  0  0  0  0  0  0  0  0  0  0  0
   -4.4081   -2.4312   -3.7768 C   0  0  2  0  0  0  0  0  0  0  0  0
   -4.9864   -2.1976   -2.4336 N   0  3  0  0  0  0  0  0  0  0  0  0
   -3.1001   -3.2719   -3.6703 C   0  0  1  0  0  0  0  0  0  0  0  0
   -3.3581   -4.4979   -2.9892 O   0  0  0  0  0  0  0  0  0  0  0  0
   -2.5105   -3.6001   -5.0682 C   0  0  2  0  0  0  0  0  0  0  0  0
   -1.1904   -4.1049   -4.9002 O   0  0  0  0  0  0  0  0  0  0  0  0
   -2.4875   -2.3347   -5.9855 C   0  0  2  0  0  0  0  0  0  0  0  0
   -2.8393   -1.1434   -5.2093 O   0  0  0  0  0  0  0  0  0  0  0  0
   -3.4718   -2.3878   -7.1766 C   0  0  0  0  0  0  0  0  0  0  0  0
   -4.7255    3.0264   -6.7113 C   0  0  1  0  0  0  0  0  0  0  0  0
   -5.0727    4.2701   -7.4346 N   0  3  0  0  0  0  0  0  0  0  0  0
   -3.5451    3.2493   -5.7299 C   0  0  1  0  0  0  0  0  0  0  0  0
   -3.2304    2.0063   -4.8267 C   0  0  1  0  0  0  0  0  0  0  0  0
   -2.3510    2.4364   -3.7531 O   0  0  0  0  0  0  0  0  0  0  0  0
   -4.5114    1.3755   -4.1669 C   0  0  1  0  0  0  0  0  0  0  0  0
   -5.6751    1.2016   -5.1957 C   0  0  1  0  0  0  0  0  0  0  0  0
   -6.9240    0.7499   -4.5490 N   0  3  0  0  0  0  0  0  0  0  0  0
   -5.9699    2.5137   -5.9568 C   0  0  0  0  0  0  0  0  0  0  0  0
   -2.0943    1.5414   -2.6325 C   0  0  1  0  0  0  0  0  0  0  0  0
   -1.0115    2.1595   -1.7559 C   0  0  1  0  0  0  0  0  0  0  0  0
   -1.8462    3.1590   -0.9668 C   0  0  1  0  0  0  0  0  0  0  0  0
   -3.1147    2.3439   -0.6776 C   0  0  2  0  0  0  0  0  0  0  0  0
   -3.2636    1.4452   -1.8026 O   0  0  0  0  0  0  0  0  0  0  0  0
   -4.3720    3.2194   -0.5286 C   0  0  0  0  0  0  0  0  0  0  0  0
   -3.1635    4.9634    3.2310 C   0  0  1  0  0  0  0  0  0  0  0  0
   -1.6685    4.5409    3.2720 C   0  0  1  0  0  0  0  0  0  0  0  0
   -0.8017    5.1614    2.1386 C   0  0  2  0  0  0  0  0  0  0  0  0
   -1.4463    4.9163    0.7363 C   0  0  1  0  0  0  0  0  0  0  0  0
   -1.1739    3.5682    0.2589 O   0  0  0  0  0  0  0  0  0  0  0  0
   -3.4668    5.8062    1.9551 C   0  0  1  0  0  0  0  0  0  0  0  0
   -2.9109    5.1327    0.7787 O   0  0  0  0  0  0  0  0  0  0  0  0
   -4.9856    6.0345    1.7429 C   0  0  0  0  0  0  0  0  0  0  0  0
   -3.1482   -1.4620   -8.2763 N   0  3  0  0  0  0  0  0  0  0  0  0
   -0.4497    1.1598   -0.9052 O   0  0  0  0  0  0  0  0  0  0  0  0
   -1.1237    4.9371    4.5300 O   0  0  0  0  0  0  0  0  0  0  0  0
   -3.9676    3.7818    3.2433 O   0  0  0  0  0  0  0  0  0  0  0  0
   -4.8239    3.6741   -1.7926 O   0  0  0  0  0  0  0  0  0  0  0  0
   -2.3766    3.5717   -6.4836 O   0  0  0  0  0  0  0  0  0  0  0  0
   -5.4579    7.3121    2.3075 N   0  3  0  0  0  0  0  0  0  0  0  0
    0.6036    4.6902    2.2114 N   0  3  0  0  0  0  0  0  0  0  0  0
  1  2  1  1  0  0  0
  1  3  1  0  0  0  0
  1 10  1  0  0  0  0
  3  4  1  1  0  0  0
  3  5  1  0  0  0  0
  5  6  1  6  0  0  0
  5  7  1  0  0  0  0
  7  8  1  1  0  0  0
  7  9  1  0  0  0  0
  9 10  1  0  0  0  0
  9 11  1  6  0  0  0
 11 35  1  0  0  0  0
 12 13  1  1  0  0  0
 12 14  1  0  0  0  0
 12 20  1  0  0  0  0
 14 15  1  0  0  0  0
 14 40  1  6  0  0  0
 15 16  1  1  0  0  0
 15 17  1  0  0  0  0
 17  2  1  6  0  0  0
 17 18  1  0  0  0  0
 18 19  1  1  0  0  0
 18 20  1  0  0  0  0
 21 16  1  6  0  0  0
 21 22  1  0  0  0  0
 21 25  1  0  0  0  0
 22 23  1  0  0  0  0
 22 36  1  1  0  0  0
 23 24  1  0  0  0  0
 23 31  1  1  0  0  0
 24 25  1  0  0  0  0
 24 26  1  6  0  0  0
 26 39  1  0  0  0  0
 27 28  1  0  0  0  0
 27 32  1  0  0  0  0
 27 38  1  6  0  0  0
 28 29  1  0  0  0  0
 28 37  1  1  0  0  0
 29 30  1  0  0  0  0
 29 42  1  6  0  0  0
 30 31  1  1  0  0  0
 30 33  1  0  0  0  0
 32 33  1  0  0  0  0
 32 34  1  6  0  0  0
 34 41  1  0  0  0  0
M  CHG  6   4   1  13   1  19   1  35   1  41   1  42   1
M  END
>  <CHROM.1>
-155.20079482,-80.34668510,-29.28103442,-160.80065091,-172.85770019,-159.96637381
58.87740778,-50.47194627,-49.84922756,168.94676002,172.72812719,-169.93469059
162.93688616,149.41441347,75.55941948,-166.64683804,-52.77642453,179.82216967
173.86593490,173.18378377,94.63061855,-45.67937882,-3.20672052,1.79647376
-2.29892658,-1.80007433,-1.07743177,0.68412383

>  <Name>


>  <RI>
0

>  <Rbt.Current_Directory>
/home/itssahil/PROJECTS/Mol_Feturizer/New_Systems/rnas/1ei2

>  <Rbt.Executable>
rbdock ($Id: //depot/dev/client3/rdock/2013.1/src/exe/rbdock.cxx#4 $)

>  <Rbt.Library>
libRbt.so (2013.1, Build901 2013/11/27)

>  <Rbt.Parameter_File>
/export/apps/rDock/src/rDock_2013.1_src/data/scripts/dock_solv.prm

>  <Rbt.Receptor>
prm/pocket_docking_6.prm

>  <SCORE>
-53.6661

>  <SCORE.INTER>
-38.6579

>  <SCORE.INTER.CONST>
1

>  <SCORE.INTER.POLAR>
-6.28668

>  <SCORE.INTER.ROT>
9

>  <SCORE.INTER.SOLV>
32.7901

>  <SCORE.INTER.VDW>
-25.3463

>  <SCORE.INTER.norm>
-0.920425

>  <SCORE.INTRA>
-15.5769

>  <SCORE.INTRA.DIHEDRAL>
-17.5335

>  <SCORE.INTRA.DIHEDRAL.0>
40.8761

>  <SCORE.INTRA.POLAR>
-0.29865

>  <SCORE.INTRA.POLAR.0>
-0.0268208

>  <SCORE.INTRA.REPUL>
-0.293339

>  <SCORE.INTRA.REPUL.0>
0.641615

>  <SCORE.INTRA.SOLV>
-11.9881

>  <SCORE.INTRA.SOLV.lig_0>
-162.567

>  <SCORE.INTRA.VDW>
1.66601

>  <SCORE.INTRA.VDW.0>
-4.80338

>  <SCORE.INTRA.norm>
-0.370878

>  <SCORE.RESTR>
0.568582

>  <SCORE.RESTR.CAVITY>
0.568582

>  <SCORE.RESTR.norm>
0.0135377

>  <SCORE.SYSTEM>
0

>  <SCORE.SYSTEM.CONST>
0

>  <SCORE.SYSTEM.DIHEDRAL>
0

>  <SCORE.SYSTEM.SOLV>
0

>  <SCORE.SYSTEM.norm>
0

>  <SCORE.heavy>
42

>  <SCORE.norm>
-1.27777

>  <RMSD>
8.420

$$$$

 OpenBabel11021811393D
libRbt.so/2013.1/901 2013/11/27
 42 45  0  0  0  0  0  0  0  0999 V2000
   -3.0345    1.6078   -6.8502 C   0  0  2  0  0  0  0  0  0  0  0  0
   -2.2866    1.4620   -5.6040 O   0  0  0  0  0  0  0  0  0  0  0  0
   -3.6288    3.0459   -7.0003 C   0  0  2  0  0  0  0  0  0  0  0  0
   -3.0097    3.9955   -6.0473 N   0  3  0  0  0  0  0  0  0  0  0  0
   -5.1768    3.0230   -6.8216 C   0  0  1  0  0  0  0  0  0  0  0  0
   -5.7082    4.3378   -6.9706 O   0  0  0  0  0  0  0  0  0  0  0  0
   -5.8631    2.0943   -7.8589 C   0  0  2  0  0  0  0  0  0  0  0  0
   -7.2157    1.8909   -7.4656 O   0  0  0  0  0  0  0  0  0  0  0  0
   -5.1243    0.7210   -7.9671 C   0  0  2  0  0  0  0  0  0  0  0  0
   -4.1105    0.6102   -6.9158 O   0  0  0  0  0  0  0  0  0  0  0  0
   -4.3911    0.4910   -9.3086 C   0  0  0  0  0  0  0  0  0  0  0  0
   -2.1106   -2.8495   -5.6194 C   0  0  1  0  0  0  0  0  0  0  0  0
   -1.6799   -4.2498   -5.4095 N   0  3  0  0  0  0  0  0  0  0  0  0
   -2.5278   -2.1763   -4.2856 C   0  0  1  0  0  0  0  0  0  0  0  0
   -2.8506   -0.6476   -4.4228 C   0  0  1  0  0  0  0  0  0  0  0  0
   -2.9042   -0.0737   -3.0891 O   0  0  0  0  0  0  0  0  0  0  0  0
   -1.7655    0.1474   -5.2382 C   0  0  1  0  0  0  0  0  0  0  0  0
   -1.3643   -0.5921   -6.5554 C   0  0  1  0  0  0  0  0  0  0  0  0
   -0.2419    0.0751   -7.2461 N   0  3  0  0  0  0  0  0  0  0  0  0
   -0.9665   -2.0617   -6.2909 C   0  0  0  0  0  0  0  0  0  0  0  0
   -3.7185    1.1104   -2.8487 C   0  0  1  0  0  0  0  0  0  0  0  0
   -5.1794    0.7531   -3.0954 C   0  0  1  0  0  0  0  0  0  0  0  0
   -5.5119    0.0672   -1.7772 C   0  0  1  0  0  0  0  0  0  0  0  0
   -4.7923    0.9718   -0.7667 C   0  0  2  0  0  0  0  0  0  0  0  0
   -3.6357    1.4911   -1.4655 O   0  0  0  0  0  0  0  0  0  0  0  0
   -4.3517    0.2235    0.5042 C   0  0  0  0  0  0  0  0  0  0  0  0
  -10.0255   -1.9290   -0.3404 C   0  0  1  0  0  0  0  0  0  0  0  0
  -10.0631   -0.6678   -1.2478 C   0  0  1  0  0  0  0  0  0  0  0  0
   -9.1219   -0.7466   -2.4843 C   0  0  2  0  0  0  0  0  0  0  0  0
   -7.6662   -1.1271   -2.0623 C   0  0  1  0  0  0  0  0  0  0  0  0
   -6.9489    0.0278   -1.5418 O   0  0  0  0  0  0  0  0  0  0  0  0
   -8.9254   -2.9242   -0.8194 C   0  0  1  0  0  0  0  0  0  0  0  0
   -7.6713   -2.1997   -1.0409 O   0  0  0  0  0  0  0  0  0  0  0  0
   -8.6807   -4.0705    0.1956 C   0  0  0  0  0  0  0  0  0  0  0  0
   -3.5188   -0.6963   -9.3306 N   0  3  0  0  0  0  0  0  0  0  0  0
   -5.9450    1.9451   -3.2728 O   0  0  0  0  0  0  0  0  0  0  0  0
  -11.4019   -0.4837   -1.7063 O   0  0  0  0  0  0  0  0  0  0  0  0
   -9.7624   -1.5125    1.0014 O   0  0  0  0  0  0  0  0  0  0  0  0
   -5.4599   -0.3919    1.1381 O   0  0  0  0  0  0  0  0  0  0  0  0
   -3.6841   -2.8417   -3.7779 O   0  0  0  0  0  0  0  0  0  0  0  0
   -9.2840   -5.3481   -0.2258 N   0  3  0  0  0  0  0  0  0  0  0  0
   -9.1763    0.5003   -3.2871 N   0  3  0  0  0  0  0  0  0  0  0  0
  1  2  1  1  0  0  0
  1  3  1  0  0  0  0
  1 10  1  0  0  0  0
  3  4  1  1  0  0  0
  3  5  1  0  0  0  0
  5  6  1  6  0  0  0
  5  7  1  0  0  0  0
  7  8  1  1  0  0  0
  7  9  1  0  0  0  0
  9 10  1  0  0  0  0
  9 11  1  6  0  0  0
 11 35  1  0  0  0  0
 12 13  1  1  0  0  0
 12 14  1  0  0  0  0
 12 20  1  0  0  0  0
 14 15  1  0  0  0  0
 14 40  1  6  0  0  0
 15 16  1  1  0  0  0
 15 17  1  0  0  0  0
 17  2  1  6  0  0  0
 17 18  1  0  0  0  0
 18 19  1  1  0  0  0
 18 20  1  0  0  0  0
 21 16  1  1  0  0  0
 21 22  1  0  0  0  0
 21 25  1  0  0  0  0
 22 23  1  0  0  0  0
 22 36  1  1  0  0  0
 23 24  1  0  0  0  0
 23 31  1  1  0  0  0
 24 25  1  0  0  0  0
 24 26  1  1  0  0  0
 26 39  1  0  0  0  0
 27 28  1  0  0  0  0
 27 32  1  0  0  0  0
 27 38  1  1  0  0  0
 28 29  1  0  0  0  0
 28 37  1  6  0  0  0
 29 30  1  0  0  0  0
 29 42  1  1  0  0  0
 30 31  1  1  0  0  0
 30 33  1  0  0  0  0
 32 33  1  0  0  0  0
 32 34  1  1  0  0  0
 34 41  1  0  0  0  0
M  CHG  6   4   1  13   1  19   1  35   1  41   1  42   1
M  END
>  <CHROM.1>
174.38161701,-88.25283549,-22.40656808,-175.06510819,78.81057863,170.54744455
-178.02217910,-43.09579548,-53.21129699,-153.35333133,63.90105959,-60.88601280
-44.77783596,89.31891256,-57.07001069,-47.42707699,46.68210414,-40.90823096
-94.65845797,-147.97461126,103.83752046,88.55863524,-5.27957762,-0.16546417
-3.92426543,0.77818612,0.44106054,-0.79009236

>  <Name>


>  <RI>
0

>  <Rbt.Current_Directory>
/home/itssahil/PROJECTS/Mol_Feturizer/New_Systems/rnas/1ei2

>  <Rbt.Executable>
rbdock ($Id: //depot/dev/client3/rdock/2013.1/src/exe/rbdock.cxx#4 $)

>  <Rbt.Library>
libRbt.so (2013.1, Build901 2013/11/27)

>  <Rbt.Parameter_File>
/export/apps/rDock/src/rDock_2013.1_src/data/scripts/dock_solv.prm

>  <Rbt.Receptor>
prm/blind_docking_60.prm

>  <SCORE>
20.2294

>  <SCORE.INTER>
14.0809

>  <SCORE.INTER.CONST>
1

>  <SCORE.INTER.POLAR>
-6.53276

>  <SCORE.INTER.ROT>
9

>  <SCORE.INTER.SOLV>
53.4037

>  <SCORE.INTER.VDW>
3.76186

>  <SCORE.INTER.norm>
0.335259

>  <SCORE.INTRA>
-12.5508

>  <SCORE.INTRA.DIHEDRAL>
-8.16532

>  <SCORE.INTRA.DIHEDRAL.0>
40.8761

>  <SCORE.INTRA.POLAR>
-0.371937

>  <SCORE.INTRA.POLAR.0>
-0.0268208

>  <SCORE.INTRA.REPUL>
-0.641615

>  <SCORE.INTRA.REPUL.0>
0.641615

>  <SCORE.INTRA.SOLV>
-9.78026

>  <SCORE.INTRA.SOLV.lig_0>
-162.567

>  <SCORE.INTRA.VDW>
0.894677

>  <SCORE.INTRA.VDW.0>
-4.80338

>  <SCORE.INTRA.norm>
-0.298828

>  <SCORE.RESTR>
18.6993

>  <SCORE.RESTR.CAVITY>
18.6993

>  <SCORE.RESTR.norm>
0.445222

>  <SCORE.SYSTEM>
0

>  <SCORE.SYSTEM.CONST>
0

>  <SCORE.SYSTEM.DIHEDRAL>
0

>  <SCORE.SYSTEM.SOLV>
0

>  <SCORE.SYSTEM.norm>
0

>  <SCORE.heavy>
42

>  <SCORE.norm>
0.481653

>  <RMSD>
8.465

$$$$

 OpenBabel11021811393D
libRbt.so/2013.1/901 2013/11/27
 42 45  0  0  0  0  0  0  0  0999 V2000
   -3.0745    2.8463   -4.0049 C   0  0  2  0  0  0  0  0  0  0  0  0
   -2.6678    2.3528   -5.3182 O   0  0  0  0  0  0  0  0  0  0  0  0
   -4.1626    3.9627   -4.1209 C   0  0  2  0  0  0  0  0  0  0  0  0
   -4.7652    4.0005   -5.4732 N   0  3  0  0  0  0  0  0  0  0  0  0
   -3.5657    5.3535   -3.7493 C   0  0  1  0  0  0  0  0  0  0  0  0
   -4.5695    6.3615   -3.8489 O   0  0  0  0  0  0  0  0  0  0  0  0
   -2.9946    5.3686   -2.3060 C   0  0  2  0  0  0  0  0  0  0  0  0
   -2.2177    6.5487   -2.1343 O   0  0  0  0  0  0  0  0  0  0  0  0
   -2.1172    4.1047   -2.0299 C   0  0  2  0  0  0  0  0  0  0  0  0
   -1.9086    3.3554   -3.2710 O   0  0  0  0  0  0  0  0  0  0  0  0
   -2.7263    3.1103   -1.0149 C   0  0  0  0  0  0  0  0  0  0  0  0
   -2.9197   -1.2046   -7.7475 C   0  0  1  0  0  0  0  0  0  0  0  0
   -2.9088   -2.6135   -8.2006 N   0  3  0  0  0  0  0  0  0  0  0  0
   -4.1217   -0.9174   -6.8100 C   0  0  1  0  0  0  0  0  0  0  0  0
   -4.1022    0.5182   -6.1786 C   0  0  1  0  0  0  0  0  0  0  0  0
   -5.0688    0.5503   -5.0944 O   0  0  0  0  0  0  0  0  0  0  0  0
   -2.7034    0.9161   -5.5792 C   0  0  1  0  0  0  0  0  0  0  0  0
   -1.5302    0.5774   -6.5548 C   0  0  1  0  0  0  0  0  0  0  0  0
   -0.2094    0.8116   -5.9361 N   0  3  0  0  0  0  0  0  0  0  0  0
   -1.5878   -0.8902   -7.0350 C   0  0  0  0  0  0  0  0  0  0  0  0
   -4.6020    0.5220   -3.7146 C   0  0  1  0  0  0  0  0  0  0  0  0
   -5.8115    0.3987   -2.7954 C   0  0  1  0  0  0  0  0  0  0  0  0
   -6.0739   -1.0975   -2.9001 C   0  0  1  0  0  0  0  0  0  0  0  0
   -4.6480   -1.6656   -2.8665 C   0  0  2  0  0  0  0  0  0  0  0  0
   -3.8140   -0.6579   -3.4865 O   0  0  0  0  0  0  0  0  0  0  0  0
   -4.5141   -3.0012   -3.6198 C   0  0  0  0  0  0  0  0  0  0  0  0
   -9.6661   -3.3035    0.2115 C   0  0  1  0  0  0  0  0  0  0  0  0
   -9.2882   -1.7995    0.3142 C   0  0  1  0  0  0  0  0  0  0  0  0
   -9.2046   -1.0704   -1.0579 C   0  0  2  0  0  0  0  0  0  0  0  0
   -8.2815   -1.8444   -2.0532 C   0  0  1  0  0  0  0  0  0  0  0  0
   -6.8756   -1.5797   -1.7835 O   0  0  0  0  0  0  0  0  0  0  0  0
   -9.7282   -3.7592   -1.2780 C   0  0  1  0  0  0  0  0  0  0  0  0
   -8.5262   -3.3034   -1.9810 O   0  0  0  0  0  0  0  0  0  0  0  0
   -9.8518   -5.2980   -1.4222 C   0  0  0  0  0  0  0  0  0  0  0  0
   -3.3869    3.7453    0.1391 N   0  3  0  0  0  0  0  0  0  0  0  0
   -5.4487    0.7748   -1.4667 O   0  0  0  0  0  0  0  0  0  0  0  0
  -10.2676   -1.1437    1.1187 O   0  0  0  0  0  0  0  0  0  0  0  0
   -8.6853   -4.0652    0.9191 O   0  0  0  0  0  0  0  0  0  0  0  0
   -3.5991   -3.8620   -2.9638 O   0  0  0  0  0  0  0  0  0  0  0  0
   -5.3303   -1.0711   -7.5536 O   0  0  0  0  0  0  0  0  0  0  0  0
   -9.4275   -6.0234   -0.2108 N   0  3  0  0  0  0  0  0  0  0  0  0
   -8.8041    0.3491   -0.8938 N   0  3  0  0  0  0  0  0  0  0  0  0
  1  2  1  6  0  0  0
  1  3  1  0  0  0  0
  1 10  1  0  0  0  0
  3  4  1  6  0  0  0
  3  5  1  0  0  0  0
  5  6  1  1  0  0  0
  5  7  1  0  0  0  0
  7  8  1  6  0  0  0
  7  9  1  0  0  0  0
  9 10  1  0  0  0  0
  9 11  1  1  0  0  0
 11 35  1  0  0  0  0
 12 13  1  1  0  0  0
 12 14  1  0  0  0  0
 12 20  1  0  0  0  0
 14 15  1  0  0  0  0
 14 40  1  6  0  0  0
 15 16  1  1  0  0  0
 15 17  1  0  0  0  0
 17  2  1  6  0  0  0
 17 18  1  0  0  0  0
 18 19  1  1  0  0  0
 18 20  1  0  0  0  0
 21 16  1  6  0  0  0
 21 22  1  0  0  0  0
 21 25  1  0  0  0  0
 22 23  1  0  0  0  0
 22 36  1  1  0  0  0
 23 24  1  0  0  0  0
 23 31  1  1  0  0  0
 24 25  1  0  0  0  0
 24 26  1  6  0  0  0
 26 39  1  0  0  0  0
 27 28  1  0  0  0  0
 27 32  1  0  0  0  0
 27 38  1  1  0  0  0
 28 29  1  0  0  0  0
 28 37  1  1  0  0  0
 29 30  1  0  0  0  0
 29 42  1  1  0  0  0
 30 31  1  1  0  0  0
 30 33  1  0  0  0  0
 32 33  1  0  0  0  0
 32 34  1  1  0  0  0
 34 41  1  0  0  0  0
M  CHG  6   4   1  13   1  19   1  35   1  41   1  42   1
M  END
>  <CHROM.1>
-127.37258309,91.10783559,-21.36627026,71.55289732,-176.09909153,-40.13501007
-143.62215466,-168.33024035,-48.71664265,104.96717733,-173.39692761,-148.53228595
-138.61266538,103.40795742,-143.93393991,-45.55724654,100.88982581,178.09415387
169.13237032,-125.75143573,-19.72784189,-171.61795271,-5.14186075,0.15324445
-3.19861449,0.37672205,0.80907917,0.53489616

>  <Name>


>  <RI>
0

>  <Rbt.Current_Directory>
/home/itssahil/PROJECTS/Mol_Feturizer/New_Systems/rnas/1ei2

>  <Rbt.Executable>
rbdock ($Id: //depot/dev/client3/rdock/2013.1/src/exe/rbdock.cxx#4 $)

>  <Rbt.Library>
libRbt.so (2013.1, Build901 2013/11/27)

>  <Rbt.Parameter_File>
/export/apps/rDock/src/rDock_2013.1_src/data/scripts/dock_solv.prm

>  <Rbt.Receptor>
prm/blind_docking_60.prm

>  <SCORE>
38.9467

>  <SCORE.INTER>
19.2893

>  <SCORE.INTER.CONST>
1

>  <SCORE.INTER.POLAR>
-4.58938

>  <SCORE.INTER.ROT>
9

>  <SCORE.INTER.SOLV>
46.3805

>  <SCORE.INTER.VDW>
3.0973

>  <SCORE.INTER.norm>
0.45927

>  <SCORE.INTRA>
5.17648

>  <SCORE.INTRA.DIHEDRAL>
19.4256

>  <SCORE.INTRA.DIHEDRAL.0>
40.8761

>  <SCORE.INTRA.POLAR>
-0.888367

>  <SCORE.INTRA.POLAR.0>
-0.0268208

>  <SCORE.INTRA.REPUL>
-0.638777

>  <SCORE.INTRA.REPUL.0>
0.641615

>  <SCORE.INTRA.SOLV>
-4.70349

>  <SCORE.INTRA.SOLV.lig_0>
-162.567

>  <SCORE.INTRA.VDW>
4.02975

>  <SCORE.INTRA.VDW.0>
-4.80338

>  <SCORE.INTRA.norm>
0.12325

>  <SCORE.RESTR>
14.4809

>  <SCORE.RESTR.CAVITY>
14.4809

>  <SCORE.RESTR.norm>
0.344784

>  <SCORE.SYSTEM>
0

>  <SCORE.SYSTEM.CONST>
0

>  <SCORE.SYSTEM.DIHEDRAL>
0

>  <SCORE.SYSTEM.SOLV>
0

>  <SCORE.SYSTEM.norm>
0

>  <SCORE.heavy>
42

>  <SCORE.norm>
0.927303

>  <RMSD>
8.478

$$$$

 OpenBabel11021811393D
libRbt.so/2013.1/901 2013/11/27
 42 45  0  0  0  0  0  0  0  0999 V2000
   -3.0124   -0.7857   -7.8292 C   0  0  2  0  0  0  0  0  0  0  0  0
   -2.8240   -0.4030   -6.4321 O   0  0  0  0  0  0  0  0  0  0  0  0
   -3.7671    0.3225   -8.6330 C   0  0  2  0  0  0  0  0  0  0  0  0
   -3.7921    1.6088   -7.8995 N   0  3  0  0  0  0  0  0  0  0  0  0
   -5.2153   -0.1381   -8.9784 C   0  0  1  0  0  0  0  0  0  0  0  0
   -5.8899    0.8761   -9.7198 O   0  0  0  0  0  0  0  0  0  0  0  0
   -5.2201   -1.4452   -9.8156 C   0  0  2  0  0  0  0  0  0  0  0  0
   -6.5456   -1.9628   -9.8472 O   0  0  0  0  0  0  0  0  0  0  0  0
   -4.2443   -2.5079   -9.2139 C   0  0  2  0  0  0  0  0  0  0  0  0
   -3.7465   -2.0550   -7.9129 O   0  0  0  0  0  0  0  0  0  0  0  0
   -2.9988   -2.7994  -10.0822 C   0  0  0  0  0  0  0  0  0  0  0  0
   -2.7176   -4.4162   -4.8499 C   0  0  1  0  0  0  0  0  0  0  0  0
   -2.4422   -5.5964   -4.0005 N   0  3  0  0  0  0  0  0  0  0  0  0
   -3.6702   -3.4163   -4.1435 C   0  0  1  0  0  0  0  0  0  0  0  0
   -3.8788   -2.0769   -4.9324 C   0  0  1  0  0  0  0  0  0  0  0  0
   -4.5064   -1.1175   -4.0398 O   0  0  0  0  0  0  0  0  0  0  0  0
   -2.5350   -1.4398   -5.4447 C   0  0  1  0  0  0  0  0  0  0  0  0
   -1.6049   -2.4987   -6.1204 C   0  0  1  0  0  0  0  0  0  0  0  0
   -0.2842   -1.9356   -6.4676 N   0  3  0  0  0  0  0  0  0  0  0  0
   -1.3841   -3.7310   -5.2145 C   0  0  0  0  0  0  0  0  0  0  0  0
   -4.2539   -1.1974   -2.6070 C   0  0  1  0  0  0  0  0  0  0  0  0
   -3.1968   -0.1620   -2.2420 C   0  0  1  0  0  0  0  0  0  0  0  0
   -4.0615    1.0896   -2.1766 C   0  0  1  0  0  0  0  0  0  0  0  0
   -5.3209    0.5602   -1.4760 C   0  0  2  0  0  0  0  0  0  0  0  0
   -5.4354   -0.8256   -1.8784 O   0  0  0  0  0  0  0  0  0  0  0  0
   -6.5951    1.3318   -1.8641 C   0  0  0  0  0  0  0  0  0  0  0  0
   -2.3041    3.0429   -4.9706 C   0  0  1  0  0  0  0  0  0  0  0  0
   -3.0826    3.9849   -4.0104 C   0  0  1  0  0  0  0  0  0  0  0  0
   -2.4502    4.1121   -2.5944 C   0  0  2  0  0  0  0  0  0  0  0  0
   -2.1935    2.7062   -1.9624 C   0  0  1  0  0  0  0  0  0  0  0  0
   -3.4172    2.1457   -1.4076 O   0  0  0  0  0  0  0  0  0  0  0  0
   -1.1389    2.3276   -4.2217 C   0  0  1  0  0  0  0  0  0  0  0  0
   -1.6359    1.7669   -2.9627 O   0  0  0  0  0  0  0  0  0  0  0  0
   -0.4973    1.1969   -5.0665 C   0  0  0  0  0  0  0  0  0  0  0  0
   -2.3532   -1.5998  -10.6439 N   0  3  0  0  0  0  0  0  0  0  0  0
   -2.6329   -0.4758   -0.9684 O   0  0  0  0  0  0  0  0  0  0  0  0
   -3.1389    5.2826   -4.6015 O   0  0  0  0  0  0  0  0  0  0  0  0
   -3.2181    2.0775   -5.4957 O   0  0  0  0  0  0  0  0  0  0  0  0
   -7.2127    0.7492   -2.9989 O   0  0  0  0  0  0  0  0  0  0  0  0
   -4.9407   -4.0416   -3.9645 O   0  0  0  0  0  0  0  0  0  0  0  0
   -0.7591    1.3407   -6.5104 N   0  3  0  0  0  0  0  0  0  0  0  0
   -3.2595    4.9936   -1.7167 N   0  3  0  0  0  0  0  0  0  0  0  0
  1  2  1  1  0  0  0
  1  3  1  0  0  0  0
  1 10  1  0  0  0  0
  3  4  1  1  0  0  0
  3  5  1  0  0  0  0
  5  6  1  6  0  0  0
  5  7  1  0  0  0  0
  7  8  1  1  0  0  0
  7  9  1  0  0  0  0
  9 10  1  0  0  0  0
  9 11  1  6  0  0  0
 11 35  1  0  0  0  0
 12 13  1  1  0  0  0
 12 14  1  0  0  0  0
 12 20  1  0  0  0  0
 14 15  1  0  0  0  0
 14 40  1  6  0  0  0
 15 16  1  1  0  0  0
 15 17  1  0  0  0  0
 17  2  1  6  0  0  0
 17 18  1  0  0  0  0
 18 19  1  1  0  0  0
 18 20  1  0  0  0  0
 21 16  1  6  0  0  0
 21 22  1  0  0  0  0
 21 25  1  0  0  0  0
 22 23  1  0  0  0  0
 22 36  1  1  0  0  0
 23 24  1  0  0  0  0
 23 31  1  1  0  0  0
 24 25  1  0  0  0  0
 24 26  1  6  0  0  0
 26 39  1  0  0  0  0
 27 28  1  0  0  0  0
 27 32  1  0  0  0  0
 27 38  1  1  0  0  0
 28 29  1  0  0  0  0
 28 37  1  6  0  0  0
 29 30  1  0  0  0  0
 29 42  1  1  0  0  0
 30 31  1  6  0  0  0
 30 33  1  0  0  0  0
 32 33  1  0  0  0  0
 32 34  1  6  0  0  0
 34 41  1  0  0  0  0
M  CHG  6   4   1  13   1  19   1  35   1  41   1  42   1
M  END
>  <CHROM.1>
160.79965462,-85.16040833,-27.80233779,-176.80200126,78.93610620,43.77115963
-142.54809410,54.71780039,-98.67139791,29.61295529,99.70964591,42.14473541
72.71503239,65.64705143,89.62204124,-52.14843185,-62.54257180,-169.01278911
-64.74656318,104.12617011,20.66747435,-91.37360746,-3.42920810,-0.10465139
-5.20868493,-2.55941515,1.52214769,1.92049954

>  <Name>


>  <RI>
0

>  <Rbt.Current_Directory>
/home/itssahil/PROJECTS/Mol_Feturizer/New_Systems/rnas/1ei2

>  <Rbt.Executable>
rbdock ($Id: //depot/dev/client3/rdock/2013.1/src/exe/rbdock.cxx#4 $)

>  <Rbt.Library>
libRbt.so (2013.1, Build901 2013/11/27)

>  <Rbt.Parameter_File>
/export/apps/rDock/src/rDock_2013.1_src/data/scripts/dock_solv.prm

>  <Rbt.Receptor>
prm/blind_docking_100.prm

>  <SCORE>
4.38946

>  <SCORE.INTER>
-10.5562

>  <SCORE.INTER.CONST>
1

>  <SCORE.INTER.POLAR>
-6.44996

>  <SCORE.INTER.ROT>
9

>  <SCORE.INTER.SOLV>
42.8771

>  <SCORE.INTER.VDW>
-9.42992

>  <SCORE.INTER.norm>
-0.251337

>  <SCORE.INTRA>
-1.85996

>  <SCORE.INTRA.DIHEDRAL>
2.34938

>  <SCORE.INTRA.DIHEDRAL.0>
40.8761

>  <SCORE.INTRA.POLAR>
-2.45548

>  <SCORE.INTRA.POLAR.0>
-0.0268208

>  <SCORE.INTRA.REPUL>
-0.574386

>  <SCORE.INTRA.REPUL.0>
0.641615

>  <SCORE.INTRA.SOLV>
10.2474

>  <SCORE.INTRA.SOLV.lig_0>
-162.567

>  <SCORE.INTRA.VDW>
3.06224

>  <SCORE.INTRA.VDW.0>
-4.80338

>  <SCORE.INTRA.norm>
-0.0442847

>  <SCORE.RESTR>
16.8056

>  <SCORE.RESTR.CAVITY>
16.8056

>  <SCORE.RESTR.norm>
0.400133

>  <SCORE.SYSTEM>
0

>  <SCORE.SYSTEM.CONST>
0

>  <SCORE.SYSTEM.DIHEDRAL>
0

>  <SCORE.SYSTEM.SOLV>
0

>  <SCORE.SYSTEM.norm>
0

>  <SCORE.heavy>
42

>  <SCORE.norm>
0.104511

>  <RMSD>
8.506

$$$$

 OpenBabel11021811393D
libRbt.so/2013.1/901 2013/11/27
 42 45  0  0  0  0  0  0  0  0999 V2000
   -1.9698    1.4424   -4.9861 C   0  0  2  0  0  0  0  0  0  0  0  0
   -1.9934    0.0135   -4.6839 O   0  0  0  0  0  0  0  0  0  0  0  0
   -1.4326    2.2774   -3.7786 C   0  0  2  0  0  0  0  0  0  0  0  0
   -0.7576    1.4197   -2.7778 N   0  3  0  0  0  0  0  0  0  0  0  0
   -2.5856    3.0889   -3.1145 C   0  0  1  0  0  0  0  0  0  0  0  0
   -2.0818    3.8539   -2.0216 O   0  0  0  0  0  0  0  0  0  0  0  0
   -3.2637    4.0564   -4.1213 C   0  0  2  0  0  0  0  0  0  0  0  0
   -4.4712    4.5423   -3.5456 O   0  0  0  0  0  0  0  0  0  0  0  0
   -3.5666    3.3421   -5.4783 C   0  0  2  0  0  0  0  0  0  0  0  0
   -3.3134    1.9044   -5.3583 O   0  0  0  0  0  0  0  0  0  0  0  0
   -2.7149    3.8390   -6.6690 C   0  0  0  0  0  0  0  0  0  0  0  0
   -3.7794   -1.3274   -8.3761 C   0  0  1  0  0  0  0  0  0  0  0  0
   -4.4659   -2.1432   -9.4026 N   0  3  0  0  0  0  0  0  0  0  0  0
   -4.7544   -0.8882   -7.2524 C   0  0  1  0  0  0  0  0  0  0  0  0
   -4.0532   -0.1485   -6.0603 C   0  0  1  0  0  0  0  0  0  0  0  0
   -4.9905   -0.0839   -4.9520 O   0  0  0  0  0  0  0  0  0  0  0  0
   -2.7603   -0.8820   -5.5461 C   0  0  1  0  0  0  0  0  0  0  0  0
   -1.8316   -1.3259   -6.7224 C   0  0  1  0  0  0  0  0  0  0  0  0
   -0.6943   -2.1432   -6.2529 N   0  3  0  0  0  0  0  0  0  0  0  0
   -2.6028   -2.1348   -7.7895 C   0  0  0  0  0  0  0  0  0  0  0  0
   -4.4857    0.0161   -3.5890 C   0  0  1  0  0  0  0  0  0  0  0  0
   -5.6624   -0.0923   -2.6264 C   0  0  1  0  0  0  0  0  0  0  0  0
   -5.8540   -1.6027   -2.6093 C   0  0  1  0  0  0  0  0  0  0  0  0
   -4.4015   -2.0993   -2.5767 C   0  0  2  0  0  0  0  0  0  0  0  0
   -3.6349   -1.1045   -3.2966 O   0  0  0  0  0  0  0  0  0  0  0  0
   -4.2229   -3.4813   -3.2305 C   0  0  0  0  0  0  0  0  0  0  0  0
   -9.6867   -0.1939   -2.7871 C   0  0  1  0  0  0  0  0  0  0  0  0
   -9.7002   -1.5986   -2.1224 C   0  0  1  0  0  0  0  0  0  0  0  0
   -8.9673   -1.6596   -0.7512 C   0  0  2  0  0  0  0  0  0  0  0  0
   -7.5241   -1.0698   -0.8557 C   0  0  1  0  0  0  0  0  0  0  0  0
   -6.6006   -2.0344   -1.4354 O   0  0  0  0  0  0  0  0  0  0  0  0
   -8.8006    0.7967   -1.9723 C   0  0  1  0  0  0  0  0  0  0  0  0
   -7.5125    0.1675   -1.6697 O   0  0  0  0  0  0  0  0  0  0  0  0
   -8.5539    2.1288   -2.7263 C   0  0  0  0  0  0  0  0  0  0  0  0
   -3.3973    3.7785   -7.9736 N   0  3  0  0  0  0  0  0  0  0  0  0
   -5.2826    0.4017   -1.3418 O   0  0  0  0  0  0  0  0  0  0  0  0
  -11.0584   -1.9920   -1.9301 O   0  0  0  0  0  0  0  0  0  0  0  0
   -9.1802   -0.3281   -4.1170 O   0  0  0  0  0  0  0  0  0  0  0  0
   -2.9895   -4.0656   -2.8482 O   0  0  0  0  0  0  0  0  0  0  0  0
   -5.7378   -0.0183   -7.8125 O   0  0  0  0  0  0  0  0  0  0  0  0
   -7.7650    1.9523   -3.9594 N   0  3  0  0  0  0  0  0  0  0  0  0
   -8.9838   -3.0327   -0.1885 N   0  3  0  0  0  0  0  0  0  0  0  0
  1  2  1  1  0  0  0
  1  3  1  0  0  0  0
  1 10  1  0  0  0  0
  3  4  1  1  0  0  0
  3  5  1  0  0  0  0
  5  6  1  1  0  0  0
  5  7  1  0  0  0  0
  7  8  1  1  0  0  0
  7  9  1  0  0  0  0
  9 10  1  0  0  0  0
  9 11  1  6  0  0  0
 11 35  1  0  0  0  0
 12 13  1  6  0  0  0
 12 14  1  0  0  0  0
 12 20  1  0  0  0  0
 14 15  1  0  0  0  0
 14 40  1  6  0  0  0
 15 16  1  1  0  0  0
 15 17  1  0  0  0  0
 17  2  1  1  0  0  0
 17 18  1  0  0  0  0
 18 19  1  1  0  0  0
 18 20  1  0  0  0  0
 21 16  1  6  0  0  0
 21 22  1  0  0  0  0
 21 25  1  0  0  0  0
 22 23  1  0  0  0  0
 22 36  1  1  0  0  0
 23 24  1  0  0  0  0
 23 31  1  1  0  0  0
 24 25  1  0  0  0  0
 24 26  1  6  0  0  0
 26 39  1  0  0  0  0
 27 28  1  0  0  0  0
 27 32  1  0  0  0  0
 27 38  1  6  0  0  0
 28 29  1  0  0  0  0
 28 37  1  1  0  0  0
 29 30  1  0  0  0  0
 29 42  1  6  0  0  0
 30 31  1  6  0  0  0
 30 33  1  0  0  0  0
 32 33  1  0  0  0  0
 32 34  1  6  0  0  0
 34 41  1  0  0  0  0
M  CHG  6   4   1  13   1  19   1  35   1  41   1  42   1
M  END
>  <CHROM.1>
165.00891912,-34.80722490,-145.27293972,-178.64553366,74.72646204,-148.39216939
103.60649196,167.63846197,68.31428618,154.24622158,-173.65734218,-74.51996286
72.53703109,27.28230772,-163.13429929,-173.73790336,85.59998805,162.60147192
-127.18855593,124.88879727,-65.15553979,46.23633170,-4.96031814,0.07867825
-4.08105617,0.08097993,0.65317919,0.36710457

>  <Name>


>  <RI>
0

>  <Rbt.Current_Directory>
/home/itssahil/PROJECTS/Mol_Feturizer/New_Systems/rnas/1ei2

>  <Rbt.Executable>
rbdock ($Id: //depot/dev/client3/rdock/2013.1/src/exe/rbdock.cxx#4 $)

>  <Rbt.Library>
libRbt.so (2013.1, Build901 2013/11/27)

>  <Rbt.Parameter_File>
/export/apps/rDock/src/rDock_2013.1_src/data/scripts/dock_solv.prm

>  <Rbt.Receptor>
prm/blind_docking_100.prm

>  <SCORE>
18.3405

>  <SCORE.INTER>
-17.4863

>  <SCORE.INTER.CONST>
1

>  <SCORE.INTER.POLAR>
-3.98116

>  <SCORE.INTER.ROT>
9

>  <SCORE.INTER.SOLV>
47.1536

>  <SCORE.INTER.VDW>
-23.7049

>  <SCORE.INTER.norm>
-0.41634

>  <SCORE.INTRA>
20.6361

>  <SCORE.INTRA.DIHEDRAL>
-2.08987

>  <SCORE.INTRA.DIHEDRAL.0>
40.8761

>  <SCORE.INTRA.POLAR>
-1.30758

>  <SCORE.INTRA.POLAR.0>
-0.0268208

>  <SCORE.INTRA.REPUL>
-0.499354

>  <SCORE.INTRA.REPUL.0>
0.641615

>  <SCORE.INTRA.SOLV>
-5.51958

>  <SCORE.INTRA.SOLV.lig_0>
-162.567

>  <SCORE.INTRA.VDW>
31.3834

>  <SCORE.INTRA.VDW.0>
-4.80338

>  <SCORE.INTRA.norm>
0.491336

>  <SCORE.RESTR>
15.1907

>  <SCORE.RESTR.CAVITY>
15.1907

>  <SCORE.RESTR.norm>
0.361683

>  <SCORE.SYSTEM>
0

>  <SCORE.SYSTEM.CONST>
0

>  <SCORE.SYSTEM.DIHEDRAL>
0

>  <SCORE.SYSTEM.SOLV>
0

>  <SCORE.SYSTEM.norm>
0

>  <SCORE.heavy>
42

>  <SCORE.norm>
0.436679

>  <RMSD>
8.509

$$$$

 OpenBabel11021811393D
libRbt.so/2013.1/901 2013/11/27
 42 45  0  0  0  0  0  0  0  0999 V2000
   -3.9992    1.9252   -7.0994 C   0  0  2  0  0  0  0  0  0  0  0  0
   -4.1636    3.0889   -6.2319 O   0  0  0  0  0  0  0  0  0  0  0  0
   -4.7343    2.1172   -8.4657 C   0  0  2  0  0  0  0  0  0  0  0  0
   -5.1078    3.5323   -8.6915 N   0  3  0  0  0  0  0  0  0  0  0  0
   -5.9917    1.2000   -8.5476 C   0  0  1  0  0  0  0  0  0  0  0  0
   -6.6477    1.3763   -9.8014 O   0  0  0  0  0  0  0  0  0  0  0  0
   -5.6225   -0.2996   -8.3919 C   0  0  2  0  0  0  0  0  0  0  0  0
   -6.8170   -1.0452   -8.1849 O   0  0  0  0  0  0  0  0  0  0  0  0
   -4.6392   -0.5206   -7.1969 C   0  0  2  0  0  0  0  0  0  0  0  0
   -4.4956    0.7173   -6.4273 O   0  0  0  0  0  0  0  0  0  0  0  0
   -3.2121   -0.9470   -7.6110 C   0  0  0  0  0  0  0  0  0  0  0  0
   -2.9656    1.1662   -2.5593 C   0  0  1  0  0  0  0  0  0  0  0  0
   -2.4233    0.9112   -1.2060 N   0  3  0  0  0  0  0  0  0  0  0  0
   -4.2531    2.0296   -2.5032 C   0  0  1  0  0  0  0  0  0  0  0  0
   -4.7889    2.4581   -3.9136 C   0  0  1  0  0  0  0  0  0  0  0  0
   -5.7765    3.5068   -3.7243 O   0  0  0  0  0  0  0  0  0  0  0  0
   -3.6681    3.0269   -4.8593 C   0  0  1  0  0  0  0  0  0  0  0  0
   -2.3864    2.1323   -4.8528 C   0  0  1  0  0  0  0  0  0  0  0  0
   -1.2814    2.7410   -5.6212 N   0  3  0  0  0  0  0  0  0  0  0  0
   -1.8852    1.8571   -3.4172 C   0  0  0  0  0  0  0  0  0  0  0  0
   -5.3615    4.7962   -3.1878 C   0  0  1  0  0  0  0  0  0  0  0  0
   -6.4141    5.8358   -3.5540 C   0  0  1  0  0  0  0  0  0  0  0  0
   -7.4553    5.5500   -2.4804 C   0  0  1  0  0  0  0  0  0  0  0  0
   -6.5723    5.3170   -1.2462 C   0  0  2  0  0  0  0  0  0  0  0  0
   -5.3412    4.7474   -1.7517 O   0  0  0  0  0  0  0  0  0  0  0  0
   -7.2129    4.3670   -0.2183 C   0  0  0  0  0  0  0  0  0  0  0  0
  -11.7032    7.1677   -0.4776 C   0  0  1  0  0  0  0  0  0  0  0  0
  -10.9492    8.2655   -1.2786 C   0  0  1  0  0  0  0  0  0  0  0  0
  -10.5281    7.8298   -2.7118 C   0  0  2  0  0  0  0  0  0  0  0  0
   -9.7460    6.4773   -2.6839 C   0  0  1  0  0  0  0  0  0  0  0  0
   -8.3575    6.6787   -2.2957 O   0  0  0  0  0  0  0  0  0  0  0  0
  -11.7267    5.8233   -1.2665 C   0  0  1  0  0  0  0  0  0  0  0  0
  -10.3790    5.5157   -1.7520 O   0  0  0  0  0  0  0  0  0  0  0  0
  -12.2421    4.6406   -0.4064 C   0  0  0  0  0  0  0  0  0  0  0  0
   -3.0977   -2.3498   -8.0474 N   0  3  0  0  0  0  0  0  0  0  0  0
   -5.8664    7.1471   -3.4161 O   0  0  0  0  0  0  0  0  0  0  0  0
  -11.7966    9.4090   -1.3814 O   0  0  0  0  0  0  0  0  0  0  0  0
  -11.0432    6.9906    0.7778 O   0  0  0  0  0  0  0  0  0  0  0  0
   -8.2928    4.9978    0.4485 O   0  0  0  0  0  0  0  0  0  0  0  0
   -5.2735    1.2885   -1.8347 O   0  0  0  0  0  0  0  0  0  0  0  0
  -12.2729    3.3649   -1.1452 N   0  3  0  0  0  0  0  0  0  0  0  0
   -9.7817    8.9069   -3.4082 N   0  3  0  0  0  0  0  0  0  0  0  0
  1  2  1  1  0  0  0
  1  3  1  0  0  0  0
  1 10  1  0  0  0  0
  3  4  1  1  0  0  0
  3  5  1  0  0  0  0
  5  6  1  6  0  0  0
  5  7  1  0  0  0  0
  7  8  1  1  0  0  0
  7  9  1  0  0  0  0
  9 10  1  0  0  0  0
  9 11  1  6  0  0  0
 11 35  1  0  0  0  0
 12 13  1  1  0  0  0
 12 14  1  0  0  0  0
 12 20  1  0  0  0  0
 14 15  1  0  0  0  0
 14 40  1  6  0  0  0
 15 16  1  1  0  0  0
 15 17  1  0  0  0  0
 17  2  1  6  0  0  0
 17 18  1  0  0  0  0
 18 19  1  6  0  0  0
 18 20  1  0  0  0  0
 21 16  1  6  0  0  0
 21 22  1  0  0  0  0
 21 25  1  0  0  0  0
 22 23  1  0  0  0  0
 22 36  1  1  0  0  0
 23 24  1  0  0  0  0
 23 31  1  1  0  0  0
 24 25  1  0  0  0  0
 24 26  1  1  0  0  0
 26 39  1  0  0  0  0
 27 28  1  0  0  0  0
 27 32  1  0  0  0  0
 27 38  1  1  0  0  0
 28 29  1  0  0  0  0
 28 37  1  6  0  0  0
 29 30  1  0  0  0  0
 29 42  1  1  0  0  0
 30 31  1  1  0  0  0
 30 33  1  0  0  0  0
 32 33  1  0  0  0  0
 32 34  1  1  0  0  0
 34 41  1  0  0  0  0
M  CHG  6   4   1  13   1  19   1  35   1  41   1  42   1
M  END
>  <CHROM.1>
173.34688064,-88.92209793,-1.46128826,57.76819651,-169.50704327,-74.98805200
-61.28624299,163.70928296,-178.45172088,65.65768438,159.70227427,59.28439609
178.59029417,113.02467099,-71.90322886,60.44009395,168.03501529,-66.64578774
-178.54168424,-168.37630405,179.78792574,87.76870375,-6.59908064,3.66105992
-3.87263095,0.80850269,0.47677047,-1.98358973

>  <Name>


>  <RI>
0

>  <Rbt.Current_Directory>
/home/itssahil/PROJECTS/Mol_Feturizer/New_Systems/rnas/1ei2

>  <Rbt.Executable>
rbdock ($Id: //depot/dev/client3/rdock/2013.1/src/exe/rbdock.cxx#4 $)

>  <Rbt.Library>
libRbt.so (2013.1, Build901 2013/11/27)

>  <Rbt.Parameter_File>
/export/apps/rDock/src/rDock_2013.1_src/data/scripts/dock_solv.prm

>  <Rbt.Receptor>
prm/pocket_docking_6.prm

>  <SCORE>
-53.1038

>  <SCORE.INTER>
-29.383

>  <SCORE.INTER.CONST>
1

>  <SCORE.INTER.POLAR>
-5.34329

>  <SCORE.INTER.ROT>
9

>  <SCORE.INTER.SOLV>
29.5196

>  <SCORE.INTER.VDW>
-21.2175

>  <SCORE.INTER.norm>
-0.699595

>  <SCORE.INTRA>
-23.7208

>  <SCORE.INTRA.DIHEDRAL>
-18.4959

>  <SCORE.INTRA.DIHEDRAL.0>
40.8761

>  <SCORE.INTRA.POLAR>
-1.38584

>  <SCORE.INTRA.POLAR.0>
-0.0268208

>  <SCORE.INTRA.REPUL>
-0.641615

>  <SCORE.INTRA.REPUL.0>
0.641615

>  <SCORE.INTRA.SOLV>
-13.636

>  <SCORE.INTRA.SOLV.lig_0>
-162.567

>  <SCORE.INTRA.VDW>
0.265042

>  <SCORE.INTRA.VDW.0>
-4.80338

>  <SCORE.INTRA.norm>
-0.564781

>  <SCORE.RESTR>
0

>  <SCORE.RESTR.CAVITY>
0

>  <SCORE.RESTR.norm>
0

>  <SCORE.SYSTEM>
0

>  <SCORE.SYSTEM.CONST>
0

>  <SCORE.SYSTEM.DIHEDRAL>
0

>  <SCORE.SYSTEM.SOLV>
0

>  <SCORE.SYSTEM.norm>
0

>  <SCORE.heavy>
42

>  <SCORE.norm>
-1.26438

>  <RMSD>
8.510

$$$$

 OpenBabel11021811393D
libRbt.so/2013.1/901 2013/11/27
 42 45  0  0  0  0  0  0  0  0999 V2000
   -3.6395    2.9855   -3.8681 C   0  0  2  0  0  0  0  0  0  0  0  0
   -3.4061    2.2424   -5.1038 O   0  0  0  0  0  0  0  0  0  0  0  0
   -4.8873    3.9200   -3.9852 C   0  0  2  0  0  0  0  0  0  0  0  0
   -5.7224    3.5727   -5.1578 N   0  3  0  0  0  0  0  0  0  0  0  0
   -4.4512    5.4149   -4.0479 C   0  0  1  0  0  0  0  0  0  0  0  0
   -5.5976    6.2575   -4.1442 O   0  0  0  0  0  0  0  0  0  0  0  0
   -3.6383    5.8314   -2.7929 C   0  0  2  0  0  0  0  0  0  0  0  0
   -3.0314    7.0948   -3.0400 O   0  0  0  0  0  0  0  0  0  0  0  0
   -2.5441    4.7698   -2.4477 C   0  0  2  0  0  0  0  0  0  0  0  0
   -2.4514    3.7753   -3.5191 O   0  0  0  0  0  0  0  0  0  0  0  0
   -2.8023    3.9838   -1.1416 C   0  0  0  0  0  0  0  0  0  0  0  0
   -1.9790   -1.5247   -6.6506 C   0  0  1  0  0  0  0  0  0  0  0  0
   -1.3568   -2.8623   -6.7689 N   0  3  0  0  0  0  0  0  0  0  0  0
   -3.2692   -1.5712   -5.7907 C   0  0  1  0  0  0  0  0  0  0  0  0
   -3.8900   -0.1594   -5.5053 C   0  0  1  0  0  0  0  0  0  0  0  0
   -4.8749   -0.3023   -4.4467 O   0  0  0  0  0  0  0  0  0  0  0  0
   -2.8313    0.9017   -5.0283 C   0  0  1  0  0  0  0  0  0  0  0  0
   -1.5430    0.8826   -5.9131 C   0  0  1  0  0  0  0  0  0  0  0  0
   -0.4903    1.7705   -5.3790 N   0  3  0  0  0  0  0  0  0  0  0  0
   -0.9568   -0.5412   -6.0436 C   0  0  0  0  0  0  0  0  0  0  0  0
   -4.4327   -0.3925   -3.0614 C   0  0  1  0  0  0  0  0  0  0  0  0
   -5.6405   -0.7047   -2.1858 C   0  0  1  0  0  0  0  0  0  0  0  0
   -5.7510   -2.2066   -2.4104 C   0  0  1  0  0  0  0  0  0  0  0  0
   -4.2765   -2.6337   -2.3833 C   0  0  2  0  0  0  0  0  0  0  0  0
   -3.5356   -1.5040   -2.9033 O   0  0  0  0  0  0  0  0  0  0  0  0
   -3.9969   -3.8869   -3.2321 C   0  0  0  0  0  0  0  0  0  0  0  0
   -9.6937   -3.5764    0.6813 C   0  0  1  0  0  0  0  0  0  0  0  0
   -9.3062   -2.1934    0.0875 C   0  0  1  0  0  0  0  0  0  0  0  0
   -8.9342   -2.2323   -1.4229 C   0  0  2  0  0  0  0  0  0  0  0  0
   -7.8518   -3.3222   -1.7098 C   0  0  1  0  0  0  0  0  0  0  0  0
   -6.5211   -2.8505   -1.3548 O   0  0  0  0  0  0  0  0  0  0  0  0
   -9.4707   -4.7110   -0.3643 C   0  0  1  0  0  0  0  0  0  0  0  0
   -8.1423   -4.5696   -0.9658 O   0  0  0  0  0  0  0  0  0  0  0  0
   -9.6016   -6.1248    0.2585 C   0  0  0  0  0  0  0  0  0  0  0  0
   -1.6728    3.1463   -0.7011 N   0  3  0  0  0  0  0  0  0  0  0  0
   -5.3412   -0.3999   -0.8235 O   0  0  0  0  0  0  0  0  0  0  0  0
  -10.4090   -1.3045    0.2616 O   0  0  0  0  0  0  0  0  0  0  0  0
   -8.8919   -3.8109    1.8411 O   0  0  0  0  0  0  0  0  0  0  0  0
   -3.0742   -4.7430   -2.5807 O   0  0  0  0  0  0  0  0  0  0  0  0
   -4.2421   -2.3679   -6.4661 O   0  0  0  0  0  0  0  0  0  0  0  0
   -8.3260   -6.6369    0.7920 N   0  3  0  0  0  0  0  0  0  0  0  0
   -8.5389   -0.8905   -1.9183 N   0  3  0  0  0  0  0  0  0  0  0  0
  1  2  1  6  0  0  0
  1  3  1  0  0  0  0
  1 10  1  0  0  0  0
  3  4  1  6  0  0  0
  3  5  1  0  0  0  0
  5  6  1  1  0  0  0
  5  7  1  0  0  0  0
  7  8  1  6  0  0  0
  7  9  1  0  0  0  0
  9 10  1  0  0  0  0
  9 11  1  1  0  0  0
 11 35  1  0  0  0  0
 12 13  1  1  0  0  0
 12 14  1  0  0  0  0
 12 20  1  0  0  0  0
 14 15  1  0  0  0  0
 14 40  1  6  0  0  0
 15 16  1  1  0  0  0
 15 17  1  0  0  0  0
 17  2  1  6  0  0  0
 17 18  1  0  0  0  0
 18 19  1  1  0  0  0
 18 20  1  0  0  0  0
 21 16  1  6  0  0  0
 21 22  1  0  0  0  0
 21 25  1  0  0  0  0
 22 23  1  0  0  0  0
 22 36  1  1  0  0  0
 23 24  1  0  0  0  0
 23 31  1  1  0  0  0
 24 25  1  0  0  0  0
 24 26  1  6  0  0  0
 26 39  1  0  0  0  0
 27 28  1  0  0  0  0
 27 32  1  0  0  0  0
 27 38  1  1  0  0  0
 28 29  1  0  0  0  0
 28 37  1  6  0  0  0
 29 30  1  0  0  0  0
 29 42  1  1  0  0  0
 30 31  1  1  0  0  0
 30 33  1  0  0  0  0
 32 33  1  0  0  0  0
 32 34  1  1  0  0  0
 34 41  1  0  0  0  0
M  CHG  6   4   1  13   1  19   1  35   1  41   1  42   1
M  END
>  <CHROM.1>
-147.81272807,113.47774023,-35.23563877,61.98299374,133.76460811,-170.48254858
71.53742410,74.91349524,-174.72791091,79.06237869,-173.20091649,-51.65956545
67.67014498,107.99777923,-140.34152973,-69.97000732,172.61989870,104.44482428
172.92176247,-91.92488945,-89.00505161,-66.39035950,-5.01948263,-0.27268347
-2.86385105,0.78342553,0.70263958,0.10445033

>  <Name>


>  <RI>
0

>  <Rbt.Current_Directory>
/home/itssahil/PROJECTS/Mol_Feturizer/New_Systems/rnas/1ei2

>  <Rbt.Executable>
rbdock ($Id: //depot/dev/client3/rdock/2013.1/src/exe/rbdock.cxx#4 $)

>  <Rbt.Library>
libRbt.so (2013.1, Build901 2013/11/27)

>  <Rbt.Parameter_File>
/export/apps/rDock/src/rDock_2013.1_src/data/scripts/dock_solv.prm

>  <Rbt.Receptor>
prm/blind_docking_40.prm

>  <SCORE>
97.426

>  <SCORE.INTER>
87.2878

>  <SCORE.INTER.CONST>
1

>  <SCORE.INTER.POLAR>
-5.45764

>  <SCORE.INTER.ROT>
9

>  <SCORE.INTER.SOLV>
55.2791

>  <SCORE.INTER.VDW>
48.3576

>  <SCORE.INTER.norm>
2.07828

>  <SCORE.INTRA>
-5.31023

>  <SCORE.INTRA.DIHEDRAL>
5.96903

>  <SCORE.INTRA.DIHEDRAL.0>
40.8761

>  <SCORE.INTRA.POLAR>
-0.203201

>  <SCORE.INTRA.POLAR.0>
-0.0268208

>  <SCORE.INTRA.REPUL>
-0.641615

>  <SCORE.INTRA.REPUL.0>
0.641615

>  <SCORE.INTRA.SOLV>
-7.75535

>  <SCORE.INTRA.SOLV.lig_0>
-162.567

>  <SCORE.INTRA.VDW>
-0.518115

>  <SCORE.INTRA.VDW.0>
-4.80338

>  <SCORE.INTRA.norm>
-0.126434

>  <SCORE.RESTR>
15.4484

>  <SCORE.RESTR.CAVITY>
15.4484

>  <SCORE.RESTR.norm>
0.36782

>  <SCORE.SYSTEM>
0

>  <SCORE.SYSTEM.CONST>
0

>  <SCORE.SYSTEM.DIHEDRAL>
0

>  <SCORE.SYSTEM.SOLV>
0

>  <SCORE.SYSTEM.norm>
0

>  <SCORE.heavy>
42

>  <SCORE.norm>
2.31967

>  <RMSD>
8.537

$$$$

 OpenBabel11021811393D
libRbt.so/2013.1/901 2013/11/27
 42 45  0  0  0  0  0  0  0  0999 V2000
   -3.0172    0.3517   -6.5384 C   0  0  2  0  0  0  0  0  0  0  0  0
   -2.1604    0.0827   -5.3863 O   0  0  0  0  0  0  0  0  0  0  0  0
   -3.1190    1.8832   -6.8350 C   0  0  2  0  0  0  0  0  0  0  0  0
   -2.0695    2.6488   -6.1242 N   0  3  0  0  0  0  0  0  0  0  0  0
   -4.5339    2.4222   -6.4657 C   0  0  1  0  0  0  0  0  0  0  0  0
   -4.6180    3.8170   -6.7501 O   0  0  0  0  0  0  0  0  0  0  0  0
   -5.6533    1.6909   -7.2542 C   0  0  2  0  0  0  0  0  0  0  0  0
   -6.9101    2.0156   -6.6707 O   0  0  0  0  0  0  0  0  0  0  0  0
   -5.4393    0.1425   -7.2386 C   0  0  2  0  0  0  0  0  0  0  0  0
   -4.3571   -0.2071   -6.3157 O   0  0  0  0  0  0  0  0  0  0  0  0
   -5.0610   -0.4667   -8.6082 C   0  0  0  0  0  0  0  0  0  0  0  0
   -2.5165   -4.2099   -5.6456 C   0  0  1  0  0  0  0  0  0  0  0  0
   -2.3393   -5.6616   -5.4190 N   0  3  0  0  0  0  0  0  0  0  0  0
   -3.2145   -3.5267   -4.4405 C   0  0  1  0  0  0  0  0  0  0  0  0
   -3.2944   -1.9648   -4.5583 C   0  0  1  0  0  0  0  0  0  0  0  0
   -3.6593   -1.4297   -3.2578 O   0  0  0  0  0  0  0  0  0  0  0  0
   -1.9318   -1.3013   -4.9792 C   0  0  1  0  0  0  0  0  0  0  0  0
   -1.2618   -2.0485   -6.1775 C   0  0  1  0  0  0  0  0  0  0  0  0
    0.0848   -1.5204   -6.4771 N   0  3  0  0  0  0  0  0  0  0  0  0
   -1.1401   -3.5660   -5.9126 C   0  0  0  0  0  0  0  0  0  0  0  0
   -3.7163    0.0134   -3.0649 C   0  0  1  0  0  0  0  0  0  0  0  0
   -5.1035    0.5020   -3.4645 C   0  0  1  0  0  0  0  0  0  0  0  0
   -5.8835    0.1474   -2.2058 C   0  0  1  0  0  0  0  0  0  0  0  0
   -4.8908    0.5438   -1.1037 C   0  0  2  0  0  0  0  0  0  0  0  0
   -3.5760    0.3285   -1.6699 O   0  0  0  0  0  0  0  0  0  0  0  0
   -5.0562   -0.2856    0.1824 C   0  0  0  0  0  0  0  0  0  0  0  0
  -10.2779   -0.6647   -0.5857 C   0  0  1  0  0  0  0  0  0  0  0  0
  -10.0973    0.8426   -0.9185 C   0  0  1  0  0  0  0  0  0  0  0  0
   -9.5950    1.1180   -2.3652 C   0  0  2  0  0  0  0  0  0  0  0  0
   -8.3123    0.2849   -2.6856 C   0  0  1  0  0  0  0  0  0  0  0  0
   -7.1249    0.9039   -2.1144 O   0  0  0  0  0  0  0  0  0  0  0  0
   -9.7633   -1.5565   -1.7563 C   0  0  1  0  0  0  0  0  0  0  0  0
   -8.4354   -1.0996   -2.1740 O   0  0  0  0  0  0  0  0  0  0  0  0
   -9.6894   -3.0564   -1.3702 C   0  0  0  0  0  0  0  0  0  0  0  0
   -4.0479    0.2982   -9.3564 N   0  3  0  0  0  0  0  0  0  0  0  0
   -5.0745    1.9128   -3.6821 O   0  0  0  0  0  0  0  0  0  0  0  0
  -11.3537    1.4957   -0.7412 O   0  0  0  0  0  0  0  0  0  0  0  0
   -9.5504   -0.9537    0.6102 O   0  0  0  0  0  0  0  0  0  0  0  0
   -4.4209   -1.5462    0.0561 O   0  0  0  0  0  0  0  0  0  0  0  0
   -4.5403   -4.0428   -4.3254 O   0  0  0  0  0  0  0  0  0  0  0  0
   -8.8862   -3.2975   -0.1575 N   0  3  0  0  0  0  0  0  0  0  0  0
   -9.4079    2.5702   -2.6066 N   0  3  0  0  0  0  0  0  0  0  0  0
  1  2  1  1  0  0  0
  1  3  1  0  0  0  0
  1 10  1  0  0  0  0
  3  4  1  1  0  0  0
  3  5  1  0  0  0  0
  5  6  1  6  0  0  0
  5  7  1  0  0  0  0
  7  8  1  1  0  0  0
  7  9  1  0  0  0  0
  9 10  1  0  0  0  0
  9 11  1  6  0  0  0
 11 35  1  0  0  0  0
 12 13  1  1  0  0  0
 12 14  1  0  0  0  0
 12 20  1  0  0  0  0
 14 15  1  0  0  0  0
 14 40  1  6  0  0  0
 15 16  1  1  0  0  0
 15 17  1  0  0  0  0
 17  2  1  6  0  0  0
 17 18  1  0  0  0  0
 18 19  1  1  0  0  0
 18 20  1  0  0  0  0
 21 16  1  1  0  0  0
 21 22  1  0  0  0  0
 21 25  1  0  0  0  0
 22 23  1  0  0  0  0
 22 36  1  1  0  0  0
 23 24  1  0  0  0  0
 23 31  1  1  0  0  0
 24 25  1  0  0  0  0
 24 26  1  1  0  0  0
 26 39  1  0  0  0  0
 27 28  1  0  0  0  0
 27 32  1  0  0  0  0
 27 38  1  1  0  0  0
 28 29  1  0  0  0  0
 28 37  1  6  0  0  0
 29 30  1  0  0  0  0
 29 42  1  1  0  0  0
 30 31  1  1  0  0  0
 30 33  1  0  0  0  0
 32 33  1  0  0  0  0
 32 34  1  1  0  0  0
 34 41  1  0  0  0  0
M  CHG  6   4   1  13   1  19   1  35   1  41   1  42   1
M  END
>  <CHROM.1>
-178.91006590,-62.15980183,-149.96978757,-79.98861324,-57.96952309,43.91638039
69.19921462,-51.74802362,-83.87541643,175.93741719,86.86462844,136.55982470
-175.95452153,91.87900095,80.40515424,-72.70066196,43.11250385,173.58615259
-177.68767781,173.03338749,-54.62554469,-64.85514109,-5.36262363,-0.37181240
-3.95013441,0.33691930,0.61534199,-0.66223629

>  <Name>


>  <RI>
0

>  <Rbt.Current_Directory>
/home/itssahil/PROJECTS/Mol_Feturizer/New_Systems/rnas/1ei2

>  <Rbt.Executable>
rbdock ($Id: //depot/dev/client3/rdock/2013.1/src/exe/rbdock.cxx#4 $)

>  <Rbt.Library>
libRbt.so (2013.1, Build901 2013/11/27)

>  <Rbt.Parameter_File>
/export/apps/rDock/src/rDock_2013.1_src/data/scripts/dock_solv.prm

>  <Rbt.Receptor>
prm/blind_docking_60.prm

>  <SCORE>
-16.5527

>  <SCORE.INTER>
-20.066

>  <SCORE.INTER.CONST>
1

>  <SCORE.INTER.POLAR>
-5.13207

>  <SCORE.INTER.ROT>
9

>  <SCORE.INTER.SOLV>
49.6884

>  <SCORE.INTER.VDW>
-22.4332

>  <SCORE.INTER.norm>
-0.477762

>  <SCORE.INTRA>
-16.0366

>  <SCORE.INTRA.DIHEDRAL>
-18.6365

>  <SCORE.INTRA.DIHEDRAL.0>
40.8761

>  <SCORE.INTRA.POLAR>
-0.808829

>  <SCORE.INTRA.POLAR.0>
-0.0268208

>  <SCORE.INTRA.REPUL>
-0.636286

>  <SCORE.INTRA.REPUL.0>
0.641615

>  <SCORE.INTRA.SOLV>
-4.23805

>  <SCORE.INTRA.SOLV.lig_0>
-162.567

>  <SCORE.INTRA.VDW>
1.33214

>  <SCORE.INTRA.VDW.0>
-4.80338

>  <SCORE.INTRA.norm>
-0.381823

>  <SCORE.RESTR>
19.5498

>  <SCORE.RESTR.CAVITY>
19.5498

>  <SCORE.RESTR.norm>
0.465472

>  <SCORE.SYSTEM>
0

>  <SCORE.SYSTEM.CONST>
0

>  <SCORE.SYSTEM.DIHEDRAL>
0

>  <SCORE.SYSTEM.SOLV>
0

>  <SCORE.SYSTEM.norm>
0

>  <SCORE.heavy>
42

>  <SCORE.norm>
-0.394113

>  <RMSD>
8.540

$$$$

 OpenBabel11021811393D
libRbt.so/2013.1/901 2013/11/27
 42 45  0  0  0  0  0  0  0  0999 V2000
   -4.6958    2.3174   -2.5584 C   0  0  2  0  0  0  0  0  0  0  0  0
   -5.5338    3.4958   -2.3515 O   0  0  0  0  0  0  0  0  0  0  0  0
   -5.5509    1.0582   -2.9146 C   0  0  2  0  0  0  0  0  0  0  0  0
   -6.9325    1.4266   -3.3001 N   0  3  0  0  0  0  0  0  0  0  0  0
   -5.5652    0.0489   -1.7272 C   0  0  1  0  0  0  0  0  0  0  0  0
   -6.3393   -1.0993   -2.0675 O   0  0  0  0  0  0  0  0  0  0  0  0
   -4.1336   -0.4170   -1.3494 C   0  0  2  0  0  0  0  0  0  0  0  0
   -4.1883   -1.0930   -0.0981 O   0  0  0  0  0  0  0  0  0  0  0  0
   -3.1478    0.7929   -1.2620 C   0  0  2  0  0  0  0  0  0  0  0  0
   -3.8873    2.0533   -1.3609 O   0  0  0  0  0  0  0  0  0  0  0  0
   -2.0737    0.8268   -2.3734 C   0  0  0  0  0  0  0  0  0  0  0  0
   -2.5830    5.6587   -0.0636 C   0  0  1  0  0  0  0  0  0  0  0  0
   -1.8606    6.7217    0.6703 N   0  3  0  0  0  0  0  0  0  0  0  0
   -3.8571    5.2069    0.6972 C   0  0  1  0  0  0  0  0  0  0  0  0
   -4.7437    4.1899   -0.1026 C   0  0  1  0  0  0  0  0  0  0  0  0
   -6.0363    4.1000    0.5548 O   0  0  0  0  0  0  0  0  0  0  0  0
   -4.9985    4.6235   -1.5930 C   0  0  1  0  0  0  0  0  0  0  0  0
   -3.6860    5.0953   -2.2985 C   0  0  1  0  0  0  0  0  0  0  0  0
   -3.9463    5.6418   -3.6458 N   0  3  0  0  0  0  0  0  0  0  0  0
   -2.9450    6.1712   -1.4731 C   0  0  0  0  0  0  0  0  0  0  0  0
   -7.2102    3.7157   -0.2179 C   0  0  1  0  0  0  0  0  0  0  0  0
   -8.3090    3.2893    0.7483 C   0  0  1  0  0  0  0  0  0  0  0  0
   -8.8398    4.6537    1.1667 C   0  0  1  0  0  0  0  0  0  0  0  0
   -8.8301    5.4128   -0.1678 C   0  0  2  0  0  0  0  0  0  0  0  0
   -7.7286    4.8551   -0.9236 O   0  0  0  0  0  0  0  0  0  0  0  0
   -8.6401    6.9306    0.0042 C   0  0  0  0  0  0  0  0  0  0  0  0
  -13.6989    6.0957    1.6972 C   0  0  1  0  0  0  0  0  0  0  0  0
  -13.1773    5.0698    2.7416 C   0  0  1  0  0  0  0  0  0  0  0  0
  -11.8126    5.4541    3.3827 C   0  0  2  0  0  0  0  0  0  0  0  0
  -10.7453    5.7765    2.2878 C   0  0  1  0  0  0  0  0  0  0  0  0
  -10.1815    4.5577    1.7256 O   0  0  0  0  0  0  0  0  0  0  0  0
  -12.6383    7.2076    1.4345 C   0  0  1  0  0  0  0  0  0  0  0  0
  -11.3301    6.5918    1.1983 O   0  0  0  0  0  0  0  0  0  0  0  0
  -13.0070    8.1041    0.2244 C   0  0  0  0  0  0  0  0  0  0  0  0
   -0.9967    1.8075   -2.1504 N   0  3  0  0  0  0  0  0  0  0  0  0
   -9.2994    2.5339    0.0505 O   0  0  0  0  0  0  0  0  0  0  0  0
  -14.1498    4.9506    3.7792 O   0  0  0  0  0  0  0  0  0  0  0  0
  -13.9910    5.3974    0.4847 O   0  0  0  0  0  0  0  0  0  0  0  0
   -7.3979    7.2175    0.6233 O   0  0  0  0  0  0  0  0  0  0  0  0
   -3.4652    4.5992    1.9278 O   0  0  0  0  0  0  0  0  0  0  0  0
  -12.0741    9.2310    0.0403 N   0  3  0  0  0  0  0  0  0  0  0  0
  -11.3531    4.4181    4.3407 N   0  3  0  0  0  0  0  0  0  0  0  0
  1  2  1  1  0  0  0
  1  3  1  0  0  0  0
  1 10  1  0  0  0  0
  3  4  1  1  0  0  0
  3  5  1  0  0  0  0
  5  6  1  6  0  0  0
  5  7  1  0  0  0  0
  7  8  1  1  0  0  0
  7  9  1  0  0  0  0
  9 10  1  0  0  0  0
  9 11  1  6  0  0  0
 11 35  1  0  0  0  0
 12 13  1  1  0  0  0
 12 14  1  0  0  0  0
 12 20  1  0  0  0  0
 14 15  1  0  0  0  0
 14 40  1  1  0  0  0
 15 16  1  1  0  0  0
 15 17  1  0  0  0  0
 17  2  1  6  0  0  0
 17 18  1  0  0  0  0
 18 19  1  6  0  0  0
 18 20  1  0  0  0  0
 21 16  1  1  0  0  0
 21 22  1  0  0  0  0
 21 25  1  0  0  0  0
 22 23  1  0  0  0  0
 22 36  1  6  0  0  0
 23 24  1  0  0  0  0
 23 31  1  6  0  0  0
 24 25  1  0  0  0  0
 24 26  1  1  0  0  0
 26 39  1  0  0  0  0
 27 28  1  0  0  0  0
 27 32  1  0  0  0  0
 27 38  1  6  0  0  0
 28 29  1  0  0  0  0
 28 37  1  1  0  0  0
 29 30  1  0  0  0  0
 29 42  1  6  0  0  0
 30 31  1  6  0  0  0
 30 33  1  0  0  0  0
 32 33  1  0  0  0  0
 32 34  1  6  0  0  0
 34 41  1  0  0  0  0
M  CHG  6   4   1  13   1  19   1  35   1  41   1  42   1
M  END
>  <CHROM.1>
159.62787700,-65.13694676,176.08736229,64.01308669,51.60051209,-168.90876243
43.26696314,61.70750828,176.81889153,154.01894432,162.97493114,-61.65381739
-56.59554417,173.94876279,61.24874669,59.98422196,61.46395221,-60.30141643
166.41816284,-154.06214133,174.90788443,-177.88219660,-7.28615266,4.15895602
-0.09774128,0.43985191,-0.29595044,-2.96495081

>  <Name>


>  <RI>
0

>  <Rbt.Current_Directory>
/home/itssahil/PROJECTS/Mol_Feturizer/New_Systems/rnas/1ei2

>  <Rbt.Executable>
rbdock ($Id: //depot/dev/client3/rdock/2013.1/src/exe/rbdock.cxx#4 $)

>  <Rbt.Library>
libRbt.so (2013.1, Build901 2013/11/27)

>  <Rbt.Parameter_File>
/export/apps/rDock/src/rDock_2013.1_src/data/scripts/dock_solv.prm

>  <Rbt.Receptor>
prm/pocket_docking_5.prm

>  <SCORE>
-58.6657

>  <SCORE.INTER>
-36.7004

>  <SCORE.INTER.CONST>
1

>  <SCORE.INTER.POLAR>
-5.91519

>  <SCORE.INTER.ROT>
9

>  <SCORE.INTER.SOLV>
31.2092

>  <SCORE.INTER.VDW>
-24.7527

>  <SCORE.INTER.norm>
-0.873819

>  <SCORE.INTRA>
-21.9653

>  <SCORE.INTRA.DIHEDRAL>
-28.7265

>  <SCORE.INTRA.DIHEDRAL.0>
40.8761

>  <SCORE.INTRA.POLAR>
0.0203925

>  <SCORE.INTRA.POLAR.0>
-0.0268208

>  <SCORE.INTRA.REPUL>
-0.639047

>  <SCORE.INTRA.REPUL.0>
0.641615

>  <SCORE.INTRA.SOLV>
-12.4455

>  <SCORE.INTRA.SOLV.lig_0>
-162.567

>  <SCORE.INTRA.VDW>
1.74654

>  <SCORE.INTRA.VDW.0>
-4.80338

>  <SCORE.INTRA.norm>
-0.522984

>  <SCORE.RESTR>
0

>  <SCORE.RESTR.CAVITY>
0

>  <SCORE.RESTR.norm>
0

>  <SCORE.SYSTEM>
0

>  <SCORE.SYSTEM.CONST>
0

>  <SCORE.SYSTEM.DIHEDRAL>
0

>  <SCORE.SYSTEM.SOLV>
0

>  <SCORE.SYSTEM.norm>
0

>  <SCORE.heavy>
42

>  <SCORE.norm>
-1.3968

>  <RMSD>
8.550

$$$$

 OpenBabel11021811393D
libRbt.so/2013.1/901 2013/11/27
 42 45  0  0  0  0  0  0  0  0999 V2000
   -3.9863    1.2045   -5.9445 C   0  0  2  0  0  0  0  0  0  0  0  0
   -4.5940    2.0511   -6.9680 O   0  0  0  0  0  0  0  0  0  0  0  0
   -2.4918    1.5880   -5.6930 C   0  0  2  0  0  0  0  0  0  0  0  0
   -2.1613    2.9098   -6.2734 N   0  3  0  0  0  0  0  0  0  0  0  0
   -1.5397    0.4901   -6.2562 C   0  0  1  0  0  0  0  0  0  0  0  0
   -0.1806    0.8459   -6.0120 O   0  0  0  0  0  0  0  0  0  0  0  0
   -1.8099   -0.8945   -5.6088 C   0  0  2  0  0  0  0  0  0  0  0  0
   -1.1252   -1.8913   -6.3593 O   0  0  0  0  0  0  0  0  0  0  0  0
   -3.3399   -1.2122   -5.5667 C   0  0  2  0  0  0  0  0  0  0  0  0
   -4.0839   -0.2089   -6.3317 O   0  0  0  0  0  0  0  0  0  0  0  0
   -3.9536   -1.2249   -4.1477 C   0  0  0  0  0  0  0  0  0  0  0  0
   -8.1784    4.3572   -7.6416 C   0  0  1  0  0  0  0  0  0  0  0  0
   -9.5923    4.7895   -7.7087 N   0  3  0  0  0  0  0  0  0  0  0  0
   -7.6831    4.2561   -6.1750 C   0  0  1  0  0  0  0  0  0  0  0  0
   -6.2396    3.6589   -6.0350 C   0  0  1  0  0  0  0  0  0  0  0  0
   -6.0241    3.3155   -4.6398 O   0  0  0  0  0  0  0  0  0  0  0  0
   -6.0206    2.3532   -6.8843 C   0  0  1  0  0  0  0  0  0  0  0  0
   -6.5644    2.5043   -8.3419 C   0  0  1  0  0  0  0  0  0  0  0  0
   -6.4953    1.2349   -9.0939 N   0  3  0  0  0  0  0  0  0  0  0  0
   -8.0277    3.0005   -8.3606 C   0  0  0  0  0  0  0  0  0  0  0  0
   -7.1075    2.7164   -3.8716 C   0  0  1  0  0  0  0  0  0  0  0  0
   -6.5242    2.1121   -2.5998 C   0  0  1  0  0  0  0  0  0  0  0  0
   -6.4014    3.3643   -1.7422 C   0  0  1  0  0  0  0  0  0  0  0  0
   -7.7109    4.0952   -2.0712 C   0  0  2  0  0  0  0  0  0  0  0  0
   -8.0239    3.7348   -3.4378 O   0  0  0  0  0  0  0  0  0  0  0  0
   -7.5963    5.6246   -1.9394 C   0  0  0  0  0  0  0  0  0  0  0  0
   -4.9188    2.3694    3.1911 C   0  0  1  0  0  0  0  0  0  0  0  0
   -5.5429    1.2971    2.2552 C   0  0  1  0  0  0  0  0  0  0  0  0
   -4.9488    1.2859    0.8171 C   0  0  2  0  0  0  0  0  0  0  0  0
   -4.9798    2.7135    0.1824 C   0  0  1  0  0  0  0  0  0  0  0  0
   -6.3051    3.0360   -0.3263 O   0  0  0  0  0  0  0  0  0  0  0  0
   -3.9337    3.2864    2.4044 C   0  0  1  0  0  0  0  0  0  0  0  0
   -4.5706    3.7423    1.1662 O   0  0  0  0  0  0  0  0  0  0  0  0
   -3.4831    4.5186    3.2307 C   0  0  0  0  0  0  0  0  0  0  0  0
   -3.5217   -2.3553   -3.3071 N   0  3  0  0  0  0  0  0  0  0  0  0
   -7.4505    1.1819   -2.0382 O   0  0  0  0  0  0  0  0  0  0  0  0
   -5.3366    0.0129    2.8425 O   0  0  0  0  0  0  0  0  0  0  0  0
   -5.9766    3.1499    3.7524 O   0  0  0  0  0  0  0  0  0  0  0  0
   -6.6379    6.1396   -2.8477 O   0  0  0  0  0  0  0  0  0  0  0  0
   -7.6939    5.5609   -5.5963 O   0  0  0  0  0  0  0  0  0  0  0  0
   -2.4473    5.3175    2.5506 N   0  3  0  0  0  0  0  0  0  0  0  0
   -5.6115    0.2675   -0.0350 N   0  3  0  0  0  0  0  0  0  0  0  0
  1  2  1  6  0  0  0
  1  3  1  0  0  0  0
  1 10  1  0  0  0  0
  3  4  1  6  0  0  0
  3  5  1  0  0  0  0
  5  6  1  1  0  0  0
  5  7  1  0  0  0  0
  7  8  1  6  0  0  0
  7  9  1  0  0  0  0
  9 10  1  0  0  0  0
  9 11  1  1  0  0  0
 11 35  1  0  0  0  0
 12 13  1  1  0  0  0
 12 14  1  0  0  0  0
 12 20  1  0  0  0  0
 14 15  1  0  0  0  0
 14 40  1  6  0  0  0
 15 16  1  1  0  0  0
 15 17  1  0  0  0  0
 17  2  1  6  0  0  0
 17 18  1  0  0  0  0
 18 19  1  1  0  0  0
 18 20  1  0  0  0  0
 21 16  1  6  0  0  0
 21 22  1  0  0  0  0
 21 25  1  0  0  0  0
 22 23  1  0  0  0  0
 22 36  1  1  0  0  0
 23 24  1  0  0  0  0
 23 31  1  1  0  0  0
 24 25  1  0  0  0  0
 24 26  1  6  0  0  0
 26 39  1  0  0  0  0
 27 28  1  0  0  0  0
 27 32  1  0  0  0  0
 27 38  1  6  0  0  0
 28 29  1  0  0  0  0
 28 37  1  1  0  0  0
 29 30  1  0  0  0  0
 29 42  1  6  0  0  0
 30 31  1  1  0  0  0
 30 33  1  0  0  0  0
 32 33  1  0  0  0  0
 32 34  1  1  0  0  0
 34 41  1  0  0  0  0
M  CHG  6   4   1  13   1  19   1  35   1  41   1  42   1
M  END
>  <CHROM.1>
-148.76986630,89.72701339,-71.95177710,-87.31848916,-44.29968984,-69.71449095
-162.90124107,49.65847498,171.02495079,39.82604460,164.52676332,64.91504486
56.33530480,84.66331906,61.83347454,-172.36811020,-58.91590622,63.90410564
-40.34012147,-121.83100966,174.11573128,69.60318579,-5.24522071,2.29050670
-3.26303831,-1.60307278,-0.74055834,1.43752284

>  <Name>


>  <RI>
0

>  <Rbt.Current_Directory>
/home/itssahil/PROJECTS/Mol_Feturizer/New_Systems/rnas/1ei2

>  <Rbt.Executable>
rbdock ($Id: //depot/dev/client3/rdock/2013.1/src/exe/rbdock.cxx#4 $)

>  <Rbt.Library>
libRbt.so (2013.1, Build901 2013/11/27)

>  <Rbt.Parameter_File>
/export/apps/rDock/src/rDock_2013.1_src/data/scripts/dock_solv.prm

>  <Rbt.Receptor>
prm/pocket_docking_6.prm

>  <SCORE>
-50.5872

>  <SCORE.INTER>
-26.9494

>  <SCORE.INTER.CONST>
1

>  <SCORE.INTER.POLAR>
-4.60098

>  <SCORE.INTER.ROT>
9

>  <SCORE.INTER.SOLV>
23.7347

>  <SCORE.INTER.VDW>
-20.1413

>  <SCORE.INTER.norm>
-0.641653

>  <SCORE.INTRA>
-23.6378

>  <SCORE.INTRA.DIHEDRAL>
-11.9603

>  <SCORE.INTRA.DIHEDRAL.0>
40.8761

>  <SCORE.INTRA.POLAR>
-2.5855

>  <SCORE.INTRA.POLAR.0>
-0.0268208

>  <SCORE.INTRA.REPUL>
-0.641615

>  <SCORE.INTRA.REPUL.0>
0.641615

>  <SCORE.INTRA.SOLV>
-9.12892

>  <SCORE.INTRA.SOLV.lig_0>
-162.567

>  <SCORE.INTRA.VDW>
-1.09442

>  <SCORE.INTRA.VDW.0>
-4.80338

>  <SCORE.INTRA.norm>
-0.562805

>  <SCORE.RESTR>
0

>  <SCORE.RESTR.CAVITY>
0

>  <SCORE.RESTR.norm>
0

>  <SCORE.SYSTEM>
0

>  <SCORE.SYSTEM.CONST>
0

>  <SCORE.SYSTEM.DIHEDRAL>
0

>  <SCORE.SYSTEM.SOLV>
0

>  <SCORE.SYSTEM.norm>
0

>  <SCORE.heavy>
42

>  <SCORE.norm>
-1.20446

>  <RMSD>
8.560

$$$$

 OpenBabel11021811393D
libRbt.so/2013.1/901 2013/11/27
 42 45  0  0  0  0  0  0  0  0999 V2000
   -4.0311    1.5292   -7.1081 C   0  0  2  0  0  0  0  0  0  0  0  0
   -2.8041    0.9310   -6.5882 O   0  0  0  0  0  0  0  0  0  0  0  0
   -4.0279    3.0838   -6.9444 C   0  0  2  0  0  0  0  0  0  0  0  0
   -2.6731    3.5989   -6.6405 N   0  3  0  0  0  0  0  0  0  0  0  0
   -5.0396    3.5232   -5.8433 C   0  0  1  0  0  0  0  0  0  0  0  0
   -5.0353    4.9430   -5.7103 O   0  0  0  0  0  0  0  0  0  0  0  0
   -6.4854    3.0642   -6.1728 C   0  0  2  0  0  0  0  0  0  0  0  0
   -7.2942    3.2347   -5.0141 O   0  0  0  0  0  0  0  0  0  0  0  0
   -6.5155    1.5704   -6.6321 C   0  0  2  0  0  0  0  0  0  0  0  0
   -5.2015    0.9551   -6.4316 O   0  0  0  0  0  0  0  0  0  0  0  0
   -6.8729    1.3644   -8.1221 C   0  0  0  0  0  0  0  0  0  0  0  0
   -3.5091   -3.0178   -8.1788 C   0  0  1  0  0  0  0  0  0  0  0  0
   -3.3166   -4.3900   -8.6987 N   0  3  0  0  0  0  0  0  0  0  0  0
   -3.1680   -2.9284   -6.6682 C   0  0  1  0  0  0  0  0  0  0  0  0
   -3.2087   -1.4686   -6.0962 C   0  0  1  0  0  0  0  0  0  0  0  0
   -2.5673   -1.4740   -4.7925 O   0  0  0  0  0  0  0  0  0  0  0  0
   -2.4478   -0.4259   -6.9951 C   0  0  1  0  0  0  0  0  0  0  0  0
   -2.8090   -0.5826   -8.5077 C   0  0  1  0  0  0  0  0  0  0  0  0
   -1.9867    0.2929   -9.3676 N   0  3  0  0  0  0  0  0  0  0  0  0
   -2.6356   -2.0398   -8.9918 C   0  0  0  0  0  0  0  0  0  0  0  0
   -2.6970   -0.3121   -3.9231 C   0  0  1  0  0  0  0  0  0  0  0  0
   -4.1782    0.0043   -3.7537 C   0  0  1  0  0  0  0  0  0  0  0  0
   -4.5504   -1.0236   -2.6937 C   0  0  1  0  0  0  0  0  0  0  0  0
   -3.3337   -0.9602   -1.7594 C   0  0  2  0  0  0  0  0  0  0  0  0
   -2.2097   -0.6255   -2.6081 O   0  0  0  0  0  0  0  0  0  0  0  0
   -3.0676   -2.2873   -1.0264 C   0  0  0  0  0  0  0  0  0  0  0  0
   -9.4760   -0.6673   -0.9610 C   0  0  1  0  0  0  0  0  0  0  0  0
   -8.6712    0.5869   -1.4024 C   0  0  1  0  0  0  0  0  0  0  0  0
   -7.9063    0.4103   -2.7459 C   0  0  2  0  0  0  0  0  0  0  0  0
   -7.0256   -0.8803   -2.7287 C   0  0  1  0  0  0  0  0  0  0  0  0
   -5.7817   -0.6607   -2.0052 O   0  0  0  0  0  0  0  0  0  0  0  0
   -9.1988   -1.8683   -1.9155 C   0  0  1  0  0  0  0  0  0  0  0  0
   -7.7545   -2.0138   -2.1141 O   0  0  0  0  0  0  0  0  0  0  0  0
   -9.7768   -3.2012   -1.3739 C   0  0  0  0  0  0  0  0  0  0  0  0
   -6.1653    2.2656   -9.0486 N   0  3  0  0  0  0  0  0  0  0  0  0
   -4.3348    1.3376   -3.2675 O   0  0  0  0  0  0  0  0  0  0  0  0
   -9.5793    1.6796   -1.5362 O   0  0  0  0  0  0  0  0  0  0  0  0
   -9.0944   -1.0018    0.3752 O   0  0  0  0  0  0  0  0  0  0  0  0
   -2.7126   -3.3084   -1.9428 O   0  0  0  0  0  0  0  0  0  0  0  0
   -4.0986   -3.7287   -5.9397 O   0  0  0  0  0  0  0  0  0  0  0  0
   -9.2086   -3.5843   -0.0685 N   0  3  0  0  0  0  0  0  0  0  0  0
   -7.1299    1.6269   -3.0913 N   0  3  0  0  0  0  0  0  0  0  0  0
  1  2  1  1  0  0  0
  1  3  1  0  0  0  0
  1 10  1  0  0  0  0
  3  4  1  1  0  0  0
  3  5  1  0  0  0  0
  5  6  1  6  0  0  0
  5  7  1  0  0  0  0
  7  8  1  1  0  0  0
  7  9  1  0  0  0  0
  9 10  1  0  0  0  0
  9 11  1  6  0  0  0
 11 35  1  0  0  0  0
 12 13  1  6  0  0  0
 12 14  1  0  0  0  0
 12 20  1  0  0  0  0
 14 15  1  0  0  0  0
 14 40  1  1  0  0  0
 15 16  1  1  0  0  0
 15 17  1  0  0  0  0
 17  2  1  1  0  0  0
 17 18  1  0  0  0  0
 18 19  1  6  0  0  0
 18 20  1  0  0  0  0
 21 16  1  6  0  0  0
 21 22  1  0  0  0  0
 21 25  1  0  0  0  0
 22 23  1  0  0  0  0
 22 36  1  1  0  0  0
 23 24  1  0  0  0  0
 23 31  1  1  0  0  0
 24 25  1  0  0  0  0
 24 26  1  6  0  0  0
 26 39  1  0  0  0  0
 27 28  1  0  0  0  0
 27 32  1  0  0  0  0
 27 38  1  1  0  0  0
 28 29  1  0  0  0  0
 28 37  1  6  0  0  0
 29 30  1  0  0  0  0
 29 42  1  1  0  0  0
 30 31  1  1  0  0  0
 30 33  1  0  0  0  0
 32 33  1  0  0  0  0
 32 34  1  1  0  0  0
 34 41  1  0  0  0  0
M  CHG  6   4   1  13   1  19   1  35   1  41   1  42   1
M  END
>  <CHROM.1>
-162.17580052,-83.29335043,178.96732414,177.09760172,92.93225738,45.50810920
-149.55409203,132.37330380,-179.83478074,-167.94345736,53.79709367,-179.81434451
-53.91059186,76.02766869,64.94101796,-72.32013520,66.75099813,-47.93728465
142.67852427,-128.13077289,-60.28594125,179.53535201,-5.23427934,-0.13581149
-4.62479984,0.62508360,0.75617730,-0.60152085

>  <Name>


>  <RI>
0

>  <Rbt.Current_Directory>
/home/itssahil/PROJECTS/Mol_Feturizer/New_Systems/rnas/1ei2

>  <Rbt.Executable>
rbdock ($Id: //depot/dev/client3/rdock/2013.1/src/exe/rbdock.cxx#4 $)

>  <Rbt.Library>
libRbt.so (2013.1, Build901 2013/11/27)

>  <Rbt.Parameter_File>
/export/apps/rDock/src/rDock_2013.1_src/data/scripts/dock_solv.prm

>  <Rbt.Receptor>
prm/blind_docking_40.prm

>  <SCORE>
26.8844

>  <SCORE.INTER>
18.1928

>  <SCORE.INTER.CONST>
1

>  <SCORE.INTER.POLAR>
-3.68037

>  <SCORE.INTER.ROT>
9

>  <SCORE.INTER.SOLV>
38.4088

>  <SCORE.INTER.VDW>
1.99353

>  <SCORE.INTER.norm>
0.433162

>  <SCORE.INTRA>
-15.8448

>  <SCORE.INTRA.DIHEDRAL>
-13.1094

>  <SCORE.INTRA.DIHEDRAL.0>
40.8761

>  <SCORE.INTRA.POLAR>
-2.35705

>  <SCORE.INTRA.POLAR.0>
-0.0268208

>  <SCORE.INTRA.REPUL>
-0.604791

>  <SCORE.INTRA.REPUL.0>
0.641615

>  <SCORE.INTRA.SOLV>
4.29795

>  <SCORE.INTRA.SOLV.lig_0>
-162.567

>  <SCORE.INTRA.VDW>
-0.401193

>  <SCORE.INTRA.VDW.0>
-4.80338

>  <SCORE.INTRA.norm>
-0.377258

>  <SCORE.RESTR>
24.5364

>  <SCORE.RESTR.CAVITY>
24.5364

>  <SCORE.RESTR.norm>
0.584201

>  <SCORE.SYSTEM>
0

>  <SCORE.SYSTEM.CONST>
0

>  <SCORE.SYSTEM.DIHEDRAL>
0

>  <SCORE.SYSTEM.SOLV>
0

>  <SCORE.SYSTEM.norm>
0

>  <SCORE.heavy>
42

>  <SCORE.norm>
0.640105

>  <RMSD>
8.605

$$$$

 OpenBabel11021811393D
libRbt.so/2013.1/901 2013/11/27
 42 45  0  0  0  0  0  0  0  0999 V2000
   -3.6661    0.9598   -6.6854 C   0  0  2  0  0  0  0  0  0  0  0  0
   -2.5787    0.9402   -5.7103 O   0  0  0  0  0  0  0  0  0  0  0  0
   -4.1677    2.4148   -6.9593 C   0  0  2  0  0  0  0  0  0  0  0  0
   -3.2119    3.4269   -6.4541 N   0  3  0  0  0  0  0  0  0  0  0  0
   -5.5790    2.6367   -6.3365 C   0  0  1  0  0  0  0  0  0  0  0  0
   -6.0300    3.9633   -6.6015 O   0  0  0  0  0  0  0  0  0  0  0  0
   -6.6234    1.6390   -6.9052 C   0  0  2  0  0  0  0  0  0  0  0  0
   -7.7960    1.6970   -6.1008 O   0  0  0  0  0  0  0  0  0  0  0  0
   -6.0609    0.1808   -6.9281 C   0  0  2  0  0  0  0  0  0  0  0  0
   -4.7802    0.1236   -6.2197 O   0  0  0  0  0  0  0  0  0  0  0  0
   -5.8042   -0.3857   -8.3435 C   0  0  0  0  0  0  0  0  0  0  0  0
   -1.9577   -3.3251   -5.9128 C   0  0  1  0  0  0  0  0  0  0  0  0
   -1.4218   -4.6893   -5.7072 N   0  3  0  0  0  0  0  0  0  0  0  0
   -2.6418   -2.7831   -4.6304 C   0  0  1  0  0  0  0  0  0  0  0  0
   -3.0960   -1.2860   -4.7407 C   0  0  1  0  0  0  0  0  0  0  0  0
   -3.4126   -0.8083   -3.4056 O   0  0  0  0  0  0  0  0  0  0  0  0
   -1.9868   -0.3405   -5.3324 C   0  0  1  0  0  0  0  0  0  0  0  0
   -1.3140   -0.9510   -6.6042 C   0  0  1  0  0  0  0  0  0  0  0  0
   -0.1741   -0.1371   -7.0733 N   0  3  0  0  0  0  0  0  0  0  0  0
   -0.8118   -2.3907   -6.3535 C   0  0  0  0  0  0  0  0  0  0  0  0
   -4.2776    0.3530   -3.2443 C   0  0  1  0  0  0  0  0  0  0  0  0
   -5.7177   -0.1288   -3.1144 C   0  0  1  0  0  0  0  0  0  0  0  0
   -5.7308   -0.5357   -1.6472 C   0  0  1  0  0  0  0  0  0  0  0  0
   -4.9256    0.6016   -1.0026 C   0  0  2  0  0  0  0  0  0  0  0  0
   -3.9751    1.0233   -2.0098 O   0  0  0  0  0  0  0  0  0  0  0  0
   -4.1857    0.1664    0.2751 C   0  0  0  0  0  0  0  0  0  0  0  0
  -10.2704   -2.4726   -0.0655 C   0  0  1  0  0  0  0  0  0  0  0  0
  -10.2201   -1.0060   -0.5774 C   0  0  1  0  0  0  0  0  0  0  0  0
   -9.4412   -0.8254   -1.9122 C   0  0  2  0  0  0  0  0  0  0  0  0
   -8.0204   -1.4704   -1.8284 C   0  0  1  0  0  0  0  0  0  0  0  0
   -7.0881   -0.6033   -1.1226 O   0  0  0  0  0  0  0  0  0  0  0  0
   -9.3880   -3.4007   -0.9544 C   0  0  1  0  0  0  0  0  0  0  0  0
   -8.0724   -2.7862   -1.1504 O   0  0  0  0  0  0  0  0  0  0  0  0
   -9.2060   -4.8122   -0.3392 C   0  0  0  0  0  0  0  0  0  0  0  0
   -6.4605   -1.6775   -8.6112 N   0  3  0  0  0  0  0  0  0  0  0  0
   -6.6138    0.9541   -3.3652 O   0  0  0  0  0  0  0  0  0  0  0  0
  -11.5590   -0.5498   -0.7668 O   0  0  0  0  0  0  0  0  0  0  0  0
   -9.8041   -2.4958    1.2854 O   0  0  0  0  0  0  0  0  0  0  0  0
   -2.8853   -0.3071   -0.0304 O   0  0  0  0  0  0  0  0  0  0  0  0
   -3.7872   -3.5864   -4.3471 O   0  0  0  0  0  0  0  0  0  0  0  0
   -9.6948   -5.8890   -1.2198 N   0  3  0  0  0  0  0  0  0  0  0  0
   -9.3982    0.5990   -2.3261 N   0  3  0  0  0  0  0  0  0  0  0  0
  1  2  1  1  0  0  0
  1  3  1  0  0  0  0
  1 10  1  0  0  0  0
  3  4  1  1  0  0  0
  3  5  1  0  0  0  0
  5  6  1  6  0  0  0
  5  7  1  0  0  0  0
  7  8  1  1  0  0  0
  7  9  1  0  0  0  0
  9 10  1  0  0  0  0
  9 11  1  6  0  0  0
 11 35  1  0  0  0  0
 12 13  1  1  0  0  0
 12 14  1  0  0  0  0
 12 20  1  0  0  0  0
 14 15  1  0  0  0  0
 14 40  1  6  0  0  0
 15 16  1  1  0  0  0
 15 17  1  0  0  0  0
 17  2  1  6  0  0  0
 17 18  1  0  0  0  0
 18 19  1  1  0  0  0
 18 20  1  0  0  0  0
 21 16  1  1  0  0  0
 21 22  1  0  0  0  0
 21 25  1  0  0  0  0
 22 23  1  0  0  0  0
 22 36  1  1  0  0  0
 23 24  1  0  0  0  0
 23 31  1  1  0  0  0
 24 25  1  0  0  0  0
 24 26  1  1  0  0  0
 26 39  1  0  0  0  0
 27 28  1  0  0  0  0
 27 32  1  0  0  0  0
 27 38  1  1  0  0  0
 28 29  1  0  0  0  0
 28 37  1  6  0  0  0
 29 30  1  0  0  0  0
 29 42  1  1  0  0  0
 30 31  1  1  0  0  0
 30 33  1  0  0  0  0
 32 33  1  0  0  0  0
 32 34  1  1  0  0  0
 34 41  1  0  0  0  0
M  CHG  6   4   1  13   1  19   1  35   1  41   1  42   1
M  END
>  <CHROM.1>
179.94590328,-58.43675672,67.47952622,-174.06082518,-44.17968925,-126.15275493
-170.41539704,-42.34037134,79.83651173,-158.88699283,91.61948118,-45.50555636
-179.37905219,55.72593087,90.25225921,-178.10963470,-173.42801186,149.50153189
-151.79157250,-140.86800311,121.04902799,93.27770338,-5.58788511,-0.66757579
-3.82393428,0.64106109,0.45946135,-0.67626773

>  <Name>


>  <RI>
0

>  <Rbt.Current_Directory>
/home/itssahil/PROJECTS/Mol_Feturizer/New_Systems/rnas/1ei2

>  <Rbt.Executable>
rbdock ($Id: //depot/dev/client3/rdock/2013.1/src/exe/rbdock.cxx#4 $)

>  <Rbt.Library>
libRbt.so (2013.1, Build901 2013/11/27)

>  <Rbt.Parameter_File>
/export/apps/rDock/src/rDock_2013.1_src/data/scripts/dock_solv.prm

>  <Rbt.Receptor>
prm/blind_docking_100.prm

>  <SCORE>
40.3997

>  <SCORE.INTER>
30.4756

>  <SCORE.INTER.CONST>
1

>  <SCORE.INTER.POLAR>
-5.96536

>  <SCORE.INTER.ROT>
9

>  <SCORE.INTER.SOLV>
61.5078

>  <SCORE.INTER.VDW>
10.099

>  <SCORE.INTER.norm>
0.725611

>  <SCORE.INTRA>
-9.51774

>  <SCORE.INTRA.DIHEDRAL>
-3.04612

>  <SCORE.INTRA.DIHEDRAL.0>
40.8761

>  <SCORE.INTRA.POLAR>
-1.02093

>  <SCORE.INTRA.POLAR.0>
-0.0268208

>  <SCORE.INTRA.REPUL>
-0.347725

>  <SCORE.INTRA.REPUL.0>
0.641615

>  <SCORE.INTRA.SOLV>
-10.5075

>  <SCORE.INTRA.SOLV.lig_0>
-162.567

>  <SCORE.INTRA.VDW>
2.46887

>  <SCORE.INTRA.VDW.0>
-4.80338

>  <SCORE.INTRA.norm>
-0.226613

>  <SCORE.RESTR>
19.4417

>  <SCORE.RESTR.CAVITY>
19.4417

>  <SCORE.RESTR.norm>
0.462899

>  <SCORE.SYSTEM>
0

>  <SCORE.SYSTEM.CONST>
0

>  <SCORE.SYSTEM.DIHEDRAL>
0

>  <SCORE.SYSTEM.SOLV>
0

>  <SCORE.SYSTEM.norm>
0

>  <SCORE.heavy>
42

>  <SCORE.norm>
0.961897

>  <RMSD>
8.608

$$$$

 OpenBabel11021811393D
libRbt.so/2013.1/901 2013/11/27
 42 45  0  0  0  0  0  0  0  0999 V2000
   -6.6387    2.4159   -8.5471 C   0  0  2  0  0  0  0  0  0  0  0  0
   -6.5803    0.9627   -8.4115 O   0  0  0  0  0  0  0  0  0  0  0  0
   -7.9369    3.0025   -7.9034 C   0  0  2  0  0  0  0  0  0  0  0  0
   -8.6024    2.0176   -7.0201 N   0  3  0  0  0  0  0  0  0  0  0  0
   -8.9202    3.5014   -9.0048 C   0  0  1  0  0  0  0  0  0  0  0  0
  -10.0953    4.0432   -8.4057 O   0  0  0  0  0  0  0  0  0  0  0  0
   -8.2763    4.5932   -9.9007 C   0  0  2  0  0  0  0  0  0  0  0  0
   -9.1014    4.7919  -11.0433 O   0  0  0  0  0  0  0  0  0  0  0  0
   -6.8346    4.1845  -10.3456 C   0  0  2  0  0  0  0  0  0  0  0  0
   -6.5641    2.7966   -9.9637 O   0  0  0  0  0  0  0  0  0  0  0  0
   -5.7053    5.0379   -9.7239 C   0  0  0  0  0  0  0  0  0  0  0  0
   -4.0204   -2.4517   -9.0512 C   0  0  1  0  0  0  0  0  0  0  0  0
   -2.8640   -3.3104   -9.3914 N   0  3  0  0  0  0  0  0  0  0  0  0
   -3.7483   -1.6087   -7.7779 C   0  0  1  0  0  0  0  0  0  0  0  0
   -4.8778   -0.5698   -7.4540 C   0  0  1  0  0  0  0  0  0  0  0  0
   -4.3683    0.3595   -6.4602 O   0  0  0  0  0  0  0  0  0  0  0  0
   -5.3271    0.2719   -8.7046 C   0  0  1  0  0  0  0  0  0  0  0  0
   -5.5581   -0.6260   -9.9629 C   0  0  1  0  0  0  0  0  0  0  0  0
   -5.8343    0.1753  -11.1727 N   0  3  0  0  0  0  0  0  0  0  0  0
   -4.3427   -1.5359  -10.2504 C   0  0  0  0  0  0  0  0  0  0  0  0
   -3.5208    1.4677   -6.8806 C   0  0  1  0  0  0  0  0  0  0  0  0
   -3.9264    2.7121   -6.0997 C   0  0  1  0  0  0  0  0  0  0  0  0
   -3.1995    2.4514   -4.7874 C   0  0  1  0  0  0  0  0  0  0  0  0
   -1.8569    1.8943   -5.2817 C   0  0  2  0  0  0  0  0  0  0  0  0
   -2.1547    1.2059   -6.5199 O   0  0  0  0  0  0  0  0  0  0  0  0
   -1.2019    0.9255   -4.2809 C   0  0  0  0  0  0  0  0  0  0  0  0
   -3.3910    4.0249   -0.2124 C   0  0  1  0  0  0  0  0  0  0  0  0
   -2.8853    5.1392   -1.1705 C   0  0  1  0  0  0  0  0  0  0  0  0
   -3.8130    5.3947   -2.3933 C   0  0  2  0  0  0  0  0  0  0  0  0
   -4.1294    4.0645   -3.1497 C   0  0  1  0  0  0  0  0  0  0  0  0
   -3.0274    3.6765   -4.0183 O   0  0  0  0  0  0  0  0  0  0  0  0
   -4.6530    3.3212   -0.7974 C   0  0  1  0  0  0  0  0  0  0  0  0
   -4.4113    2.9652   -2.1979 O   0  0  0  0  0  0  0  0  0  0  0  0
   -5.0407    2.0457   -0.0057 C   0  0  0  0  0  0  0  0  0  0  0  0
   -5.7091    6.4510  -10.1415 N   0  3  0  0  0  0  0  0  0  0  0  0
   -3.4240    3.8777   -6.7537 O   0  0  0  0  0  0  0  0  0  0  0  0
   -2.7677    6.3518   -0.4275 O   0  0  0  0  0  0  0  0  0  0  0  0
   -2.3385    3.0755   -0.0282 O   0  0  0  0  0  0  0  0  0  0  0  0
   -1.9679   -0.2598   -4.1497 O   0  0  0  0  0  0  0  0  0  0  0  0
   -3.6089   -2.4911   -6.6647 O   0  0  0  0  0  0  0  0  0  0  0  0
   -5.6563    2.3460    1.3000 N   0  3  0  0  0  0  0  0  0  0  0  0
   -3.2565    6.4410   -3.2864 N   0  3  0  0  0  0  0  0  0  0  0  0
  1  2  1  6  0  0  0
  1  3  1  0  0  0  0
  1 10  1  0  0  0  0
  3  4  1  6  0  0  0
  3  5  1  0  0  0  0
  5  6  1  1  0  0  0
  5  7  1  0  0  0  0
  7  8  1  6  0  0  0
  7  9  1  0  0  0  0
  9 10  1  0  0  0  0
  9 11  1  1  0  0  0
 11 35  1  0  0  0  0
 12 13  1  6  0  0  0
 12 14  1  0  0  0  0
 12 20  1  0  0  0  0
 14 15  1  0  0  0  0
 14 40  1  1  0  0  0
 15 16  1  1  0  0  0
 15 17  1  0  0  0  0
 17  2  1  1  0  0  0
 17 18  1  0  0  0  0
 18 19  1  6  0  0  0
 18 20  1  0  0  0  0
 21 16  1  1  0  0  0
 21 22  1  0  0  0  0
 21 25  1  0  0  0  0
 22 23  1  0  0  0  0
 22 36  1  6  0  0  0
 23 24  1  0  0  0  0
 23 31  1  6  0  0  0
 24 25  1  0  0  0  0
 24 26  1  1  0  0  0
 26 39  1  0  0  0  0
 27 28  1  0  0  0  0
 27 32  1  0  0  0  0
 27 38  1  6  0  0  0
 28 29  1  0  0  0  0
 28 37  1  1  0  0  0
 29 30  1  0  0  0  0
 29 42  1  6  0  0  0
 30 31  1  1  0  0  0
 30 33  1  0  0  0  0
 32 33  1  0  0  0  0
 32 34  1  1  0  0  0
 34 41  1  0  0  0  0
M  CHG  6   4   1  13   1  19   1  35   1  41   1  42   1
M  END
>  <CHROM.1>
-167.60563809,123.43004583,-17.75940257,65.02211530,66.87365254,-65.45743427
67.77198895,-41.42681790,65.20602416,81.04346162,138.99891272,84.73702302
66.06544971,85.99584385,66.82236825,-68.57895627,-54.91094997,156.31816998
-66.66457040,-179.74344340,73.98524326,-45.14095215,-4.81700169,2.28296400
-6.14076305,2.14133502,0.92051426,-2.28637721

>  <Name>


>  <RI>
0

>  <Rbt.Current_Directory>
/home/itssahil/PROJECTS/Mol_Feturizer/New_Systems/rnas/1ei2

>  <Rbt.Executable>
rbdock ($Id: //depot/dev/client3/rdock/2013.1/src/exe/rbdock.cxx#4 $)

>  <Rbt.Library>
libRbt.so (2013.1, Build901 2013/11/27)

>  <Rbt.Parameter_File>
/export/apps/rDock/src/rDock_2013.1_src/data/scripts/dock_solv.prm

>  <Rbt.Receptor>
prm/pocket_docking_7.prm

>  <SCORE>
-48.0873

>  <SCORE.INTER>
-27.0868

>  <SCORE.INTER.CONST>
1

>  <SCORE.INTER.POLAR>
-4.55838

>  <SCORE.INTER.ROT>
9

>  <SCORE.INTER.SOLV>
25.7853

>  <SCORE.INTER.VDW>
-21.0583

>  <SCORE.INTER.norm>
-0.644923

>  <SCORE.INTRA>
-21.0465

>  <SCORE.INTRA.DIHEDRAL>
-11.3847

>  <SCORE.INTRA.DIHEDRAL.0>
40.8761

>  <SCORE.INTRA.POLAR>
-1.54711

>  <SCORE.INTRA.POLAR.0>
-0.0268208

>  <SCORE.INTRA.REPUL>
-0.641615

>  <SCORE.INTRA.REPUL.0>
0.641615

>  <SCORE.INTRA.SOLV>
-12.1096

>  <SCORE.INTRA.SOLV.lig_0>
-162.567

>  <SCORE.INTRA.VDW>
-0.831108

>  <SCORE.INTRA.VDW.0>
-4.80338

>  <SCORE.INTRA.norm>
-0.501107

>  <SCORE.RESTR>
0.0459946

>  <SCORE.RESTR.CAVITY>
0.0459946

>  <SCORE.RESTR.norm>
0.00109511

>  <SCORE.SYSTEM>
0

>  <SCORE.SYSTEM.CONST>
0

>  <SCORE.SYSTEM.DIHEDRAL>
0

>  <SCORE.SYSTEM.SOLV>
0

>  <SCORE.SYSTEM.norm>
0

>  <SCORE.heavy>
42

>  <SCORE.norm>
-1.14493

>  <RMSD>
8.622

$$$$

 OpenBabel11021811393D
libRbt.so/2013.1/901 2013/11/27
 42 45  0  0  0  0  0  0  0  0999 V2000
   -1.7647    2.0089   -4.2101 C   0  0  2  0  0  0  0  0  0  0  0  0
   -1.6536    0.5662   -4.4099 O   0  0  0  0  0  0  0  0  0  0  0  0
   -1.2490    2.4359   -2.7974 C   0  0  2  0  0  0  0  0  0  0  0  0
   -0.4609    1.3594   -2.1546 N   0  3  0  0  0  0  0  0  0  0  0  0
   -2.4371    2.8637   -1.8840 C   0  0  1  0  0  0  0  0  0  0  0  0
   -1.9536    3.2605   -0.6025 O   0  0  0  0  0  0  0  0  0  0  0  0
   -3.2378    4.0447   -2.4952 C   0  0  2  0  0  0  0  0  0  0  0  0
   -4.4564    4.1920   -1.7748 O   0  0  0  0  0  0  0  0  0  0  0  0
   -3.5371    3.8033   -4.0104 C   0  0  2  0  0  0  0  0  0  0  0  0
   -3.1575    2.4399   -4.3878 O   0  0  0  0  0  0  0  0  0  0  0  0
   -2.7829    4.7501   -4.9720 C   0  0  0  0  0  0  0  0  0  0  0  0
   -3.5020    0.5132   -8.3087 C   0  0  1  0  0  0  0  0  0  0  0  0
   -4.1012    0.0651   -9.5856 N   0  3  0  0  0  0  0  0  0  0  0  0
   -4.4169    0.1773   -7.1019 C   0  0  1  0  0  0  0  0  0  0  0  0
   -3.7678    0.4928   -5.7093 C   0  0  1  0  0  0  0  0  0  0  0  0
   -4.5645   -0.1535   -4.6805 O   0  0  0  0  0  0  0  0  0  0  0  0
   -2.2943   -0.0409   -5.5737 C   0  0  1  0  0  0  0  0  0  0  0  0
   -1.4292    0.3016   -6.8296 C   0  0  1  0  0  0  0  0  0  0  0  0
   -0.0930   -0.3251   -6.7700 N   0  3  0  0  0  0  0  0  0  0  0  0
   -2.1166   -0.1445   -8.1397 C   0  0  0  0  0  0  0  0  0  0  0  0
   -4.4859    0.3229   -3.3058 C   0  0  1  0  0  0  0  0  0  0  0  0
   -5.8371    0.1000   -2.6369 C   0  0  1  0  0  0  0  0  0  0  0  0
   -5.7237   -1.3792   -2.2942 C   0  0  1  0  0  0  0  0  0  0  0  0
   -4.2685   -1.4757   -1.8143 C   0  0  2  0  0  0  0  0  0  0  0  0
   -3.5451   -0.4705   -2.5639 O   0  0  0  0  0  0  0  0  0  0  0  0
   -3.6469   -2.8637   -2.0522 C   0  0  0  0  0  0  0  0  0  0  0  0
   -9.8125   -2.9203    0.6173 C   0  0  1  0  0  0  0  0  0  0  0  0
   -9.5030   -1.4537    0.2064 C   0  0  1  0  0  0  0  0  0  0  0  0
   -9.1104   -1.2826   -1.2895 C   0  0  2  0  0  0  0  0  0  0  0  0
   -7.9597   -2.2623   -1.6868 C   0  0  1  0  0  0  0  0  0  0  0  0
   -6.6650   -1.7604   -1.2499 O   0  0  0  0  0  0  0  0  0  0  0  0
   -9.5073   -3.9009   -0.5554 C   0  0  1  0  0  0  0  0  0  0  0  0
   -8.1826   -3.6074   -1.1082 O   0  0  0  0  0  0  0  0  0  0  0  0
   -9.5591   -5.3864   -0.1144 C   0  0  0  0  0  0  0  0  0  0  0  0
   -2.5834    4.2089   -6.3280 N   0  3  0  0  0  0  0  0  0  0  0  0
   -5.9323    0.9040   -1.4608 O   0  0  0  0  0  0  0  0  0  0  0  0
  -10.6602   -0.6602    0.4666 O   0  0  0  0  0  0  0  0  0  0  0  0
   -9.0123   -3.2491    1.7552 O   0  0  0  0  0  0  0  0  0  0  0  0
   -3.6246   -3.1773   -3.4341 O   0  0  0  0  0  0  0  0  0  0  0  0
   -5.6260    0.9265   -7.2205 O   0  0  0  0  0  0  0  0  0  0  0  0
   -8.2675   -5.8773    0.4002 N   0  3  0  0  0  0  0  0  0  0  0  0
   -8.7918    0.1314   -1.6078 N   0  3  0  0  0  0  0  0  0  0  0  0
  1  2  1  1  0  0  0
  1  3  1  0  0  0  0
  1 10  1  0  0  0  0
  3  4  1  1  0  0  0
  3  5  1  0  0  0  0
  5  6  1  1  0  0  0
  5  7  1  0  0  0  0
  7  8  1  1  0  0  0
  7  9  1  0  0  0  0
  9 10  1  0  0  0  0
  9 11  1  6  0  0  0
 11 35  1  0  0  0  0
 12 13  1  6  0  0  0
 12 14  1  0  0  0  0
 12 20  1  0  0  0  0
 14 15  1  0  0  0  0
 14 40  1  6  0  0  0
 15 16  1  1  0  0  0
 15 17  1  0  0  0  0
 17  2  1  1  0  0  0
 17 18  1  0  0  0  0
 18 19  1  1  0  0  0
 18 20  1  0  0  0  0
 21 16  1  6  0  0  0
 21 22  1  0  0  0  0
 21 25  1  0  0  0  0
 22 23  1  0  0  0  0
 22 36  1  1  0  0  0
 23 24  1  0  0  0  0
 23 31  1  1  0  0  0
 24 25  1  0  0  0  0
 24 26  1  6  0  0  0
 26 39  1  0  0  0  0
 27 28  1  0  0  0  0
 27 32  1  0  0  0  0
 27 38  1  1  0  0  0
 28 29  1  0  0  0  0
 28 37  1  6  0  0  0
 29 30  1  0  0  0  0
 29 42  1  1  0  0  0
 30 31  1  1  0  0  0
 30 33  1  0  0  0  0
 32 33  1  0  0  0  0
 32 34  1  1  0  0  0
 34 41  1  0  0  0  0
M  CHG  6   4   1  13   1  19   1  35   1  41   1  42   1
M  END
>  <CHROM.1>
169.63001482,-47.15617449,-39.97833486,77.05479277,-170.92618229,155.06041382
169.35785373,49.40836355,85.66348102,-159.04148557,148.74064309,-133.61916814
-39.32073036,92.47609616,61.10765906,-47.50432039,175.62124392,-106.47316339
-163.64377744,-113.43439141,-87.96085273,42.22641243,-4.88904130,-0.06340995
-3.16875170,-0.11141707,0.83359297,0.87317701

>  <Name>


>  <RI>
0

>  <Rbt.Current_Directory>
/home/itssahil/PROJECTS/Mol_Feturizer/New_Systems/rnas/1ei2

>  <Rbt.Executable>
rbdock ($Id: //depot/dev/client3/rdock/2013.1/src/exe/rbdock.cxx#4 $)

>  <Rbt.Library>
libRbt.so (2013.1, Build901 2013/11/27)

>  <Rbt.Parameter_File>
/export/apps/rDock/src/rDock_2013.1_src/data/scripts/dock_solv.prm

>  <Rbt.Receptor>
prm/blind_docking_100.prm

>  <SCORE>
42.3705

>  <SCORE.INTER>
35.5676

>  <SCORE.INTER.CONST>
1

>  <SCORE.INTER.POLAR>
-5.14082

>  <SCORE.INTER.ROT>
9

>  <SCORE.INTER.SOLV>
55.5346

>  <SCORE.INTER.VDW>
12.7363

>  <SCORE.INTER.norm>
0.846848

>  <SCORE.INTRA>
-4.88182

>  <SCORE.INTRA.DIHEDRAL>
1.42581

>  <SCORE.INTRA.DIHEDRAL.0>
40.8761

>  <SCORE.INTRA.POLAR>
-1.29559

>  <SCORE.INTRA.POLAR.0>
-0.0268208

>  <SCORE.INTRA.REPUL>
-0.641615

>  <SCORE.INTRA.REPUL.0>
0.641615

>  <SCORE.INTRA.SOLV>
-3.07985

>  <SCORE.INTRA.SOLV.lig_0>
-162.567

>  <SCORE.INTRA.VDW>
3.55826

>  <SCORE.INTRA.VDW.0>
-4.80338

>  <SCORE.INTRA.norm>
-0.116234

>  <SCORE.RESTR>
11.6847

>  <SCORE.RESTR.CAVITY>
11.6847

>  <SCORE.RESTR.norm>
0.278206

>  <SCORE.SYSTEM>
0

>  <SCORE.SYSTEM.CONST>
0

>  <SCORE.SYSTEM.DIHEDRAL>
0

>  <SCORE.SYSTEM.SOLV>
0

>  <SCORE.SYSTEM.norm>
0

>  <SCORE.heavy>
42

>  <SCORE.norm>
1.00882

>  <RMSD>
8.623

$$$$

 OpenBabel11021811393D
libRbt.so/2013.1/901 2013/11/27
 42 45  0  0  0  0  0  0  0  0999 V2000
   -2.8976    0.4505   -6.5285 C   0  0  2  0  0  0  0  0  0  0  0  0
   -1.9945    0.1653   -5.4165 O   0  0  0  0  0  0  0  0  0  0  0  0
   -2.9840    1.9837   -6.8213 C   0  0  2  0  0  0  0  0  0  0  0  0
   -1.8889    2.7294   -6.1596 N   0  3  0  0  0  0  0  0  0  0  0  0
   -4.3702    2.5493   -6.3883 C   0  0  1  0  0  0  0  0  0  0  0  0
   -4.4408    3.9455   -6.6695 O   0  0  0  0  0  0  0  0  0  0  0  0
   -5.5379    1.8393   -7.1244 C   0  0  2  0  0  0  0  0  0  0  0  0
   -6.7605    2.1876   -6.4845 O   0  0  0  0  0  0  0  0  0  0  0  0
   -5.3527    0.2872   -7.1174 C   0  0  2  0  0  0  0  0  0  0  0  0
   -4.2362   -0.0829   -6.2445 O   0  0  0  0  0  0  0  0  0  0  0  0
   -5.0487   -0.3289   -8.5024 C   0  0  0  0  0  0  0  0  0  0  0  0
   -2.4630   -4.1185   -5.6387 C   0  0  1  0  0  0  0  0  0  0  0  0
   -2.3119   -5.5731   -5.4112 N   0  3  0  0  0  0  0  0  0  0  0  0
   -3.0972   -3.4134   -4.4111 C   0  0  1  0  0  0  0  0  0  0  0  0
   -3.1442   -1.8505   -4.5343 C   0  0  1  0  0  0  0  0  0  0  0  0
   -3.4454   -1.3009   -3.2235 O   0  0  0  0  0  0  0  0  0  0  0  0
   -1.7834   -1.2220   -5.0111 C   0  0  1  0  0  0  0  0  0  0  0  0
   -1.1784   -1.9904   -6.2303 C   0  0  1  0  0  0  0  0  0  0  0  0
    0.1678   -1.4963   -6.5846 N   0  3  0  0  0  0  0  0  0  0  0  0
   -1.0829   -3.5093   -5.9621 C   0  0  0  0  0  0  0  0  0  0  0  0
   -3.7403    0.1197   -3.0905 C   0  0  1  0  0  0  0  0  0  0  0  0
   -5.2099    0.3439   -3.4263 C   0  0  1  0  0  0  0  0  0  0  0  0
   -5.8502   -0.0704   -2.1084 C   0  0  1  0  0  0  0  0  0  0  0  0
   -4.8845    0.5469   -1.0867 C   0  0  2  0  0  0  0  0  0  0  0  0
   -3.5837    0.5280   -1.7216 O   0  0  0  0  0  0  0  0  0  0  0  0
   -4.8371   -0.2288    0.2419 C   0  0  0  0  0  0  0  0  0  0  0  0
  -10.1817   -0.9430   -0.0156 C   0  0  1  0  0  0  0  0  0  0  0  0
  -10.1664    0.4151   -0.7710 C   0  0  1  0  0  0  0  0  0  0  0  0
   -9.6700    0.3180   -2.2425 C   0  0  2  0  0  0  0  0  0  0  0  0
   -8.2953   -0.4201   -2.3271 C   0  0  1  0  0  0  0  0  0  0  0  0
   -7.1970    0.4682   -1.9749 O   0  0  0  0  0  0  0  0  0  0  0  0
   -9.5465   -2.0692   -0.8866 C   0  0  1  0  0  0  0  0  0  0  0  0
   -8.2709   -1.6034   -1.4366 O   0  0  0  0  0  0  0  0  0  0  0  0
   -9.3110   -3.3758   -0.0859 C   0  0  0  0  0  0  0  0  0  0  0  0
   -3.9356    0.3129   -9.2238 N   0  3  0  0  0  0  0  0  0  0  0  0
   -5.4360    1.7255   -3.7065 O   0  0  0  0  0  0  0  0  0  0  0  0
  -11.4918    0.9439   -0.7720 O   0  0  0  0  0  0  0  0  0  0  0  0
   -9.4498   -0.7907    1.2027 O   0  0  0  0  0  0  0  0  0  0  0  0
   -4.2967   -1.5251    0.0513 O   0  0  0  0  0  0  0  0  0  0  0  0
   -4.4295   -3.8968   -4.2421 O   0  0  0  0  0  0  0  0  0  0  0  0
   -9.6058   -4.5896   -0.8693 N   0  3  0  0  0  0  0  0  0  0  0  0
   -9.6438    1.6507   -2.8947 N   0  3  0  0  0  0  0  0  0  0  0  0
  1  2  1  1  0  0  0
  1  3  1  0  0  0  0
  1 10  1  0  0  0  0
  3  4  1  1  0  0  0
  3  5  1  0  0  0  0
  5  6  1  6  0  0  0
  5  7  1  0  0  0  0
  7  8  1  1  0  0  0
  7  9  1  0  0  0  0
  9 10  1  0  0  0  0
  9 11  1  6  0  0  0
 11 35  1  0  0  0  0
 12 13  1  1  0  0  0
 12 14  1  0  0  0  0
 12 20  1  0  0  0  0
 14 15  1  0  0  0  0
 14 40  1  6  0  0  0
 15 16  1  1  0  0  0
 15 17  1  0  0  0  0
 17  2  1  6  0  0  0
 17 18  1  0  0  0  0
 18 19  1  1  0  0  0
 18 20  1  0  0  0  0
 21 16  1  1  0  0  0
 21 22  1  0  0  0  0
 21 25  1  0  0  0  0
 22 23  1  0  0  0  0
 22 36  1  1  0  0  0
 23 24  1  0  0  0  0
 23 31  1  1  0  0  0
 24 25  1  0  0  0  0
 24 26  1  1  0  0  0
 26 39  1  0  0  0  0
 27 28  1  0  0  0  0
 27 32  1  0  0  0  0
 27 38  1  1  0  0  0
 28 29  1  0  0  0  0
 28 37  1  6  0  0  0
 29 30  1  0  0  0  0
 29 42  1  1  0  0  0
 30 31  1  1  0  0  0
 30 33  1  0  0  0  0
 32 33  1  0  0  0  0
 32 34  1  1  0  0  0
 34 41  1  0  0  0  0
M  CHG  6   4   1  13   1  19   1  35   1  41   1  42   1
M  END
>  <CHROM.1>
-179.48351213,-61.62910980,-168.77547557,-56.91247987,54.28739783,51.40510309
85.58807701,-167.59821249,-66.87856863,-171.10075389,83.02090346,-104.65782879
-30.76195581,97.51468507,65.47558783,57.50047384,28.41872024,158.00193092
-33.19243408,-175.65081529,140.98229763,-111.60908755,-5.31238571,-0.48014291
-3.84984434,0.41296072,0.59776413,-0.60351346

>  <Name>


>  <RI>
0

>  <Rbt.Current_Directory>
/home/itssahil/PROJECTS/Mol_Feturizer/New_Systems/rnas/1ei2

>  <Rbt.Executable>
rbdock ($Id: //depot/dev/client3/rdock/2013.1/src/exe/rbdock.cxx#4 $)

>  <Rbt.Library>
libRbt.so (2013.1, Build901 2013/11/27)

>  <Rbt.Parameter_File>
/export/apps/rDock/src/rDock_2013.1_src/data/scripts/dock_solv.prm

>  <Rbt.Receptor>
prm/blind_docking_60.prm

>  <SCORE>
31.3306

>  <SCORE.INTER>
24.5472

>  <SCORE.INTER.CONST>
1

>  <SCORE.INTER.POLAR>
-4.44702

>  <SCORE.INTER.ROT>
9

>  <SCORE.INTER.SOLV>
59.1806

>  <SCORE.INTER.VDW>
1.86136

>  <SCORE.INTER.norm>
0.584458

>  <SCORE.INTRA>
-8.91343

>  <SCORE.INTRA.DIHEDRAL>
-8.4237

>  <SCORE.INTRA.DIHEDRAL.0>
40.8761

>  <SCORE.INTRA.POLAR>
-0.110529

>  <SCORE.INTRA.POLAR.0>
-0.0268208

>  <SCORE.INTRA.REPUL>
-0.631708

>  <SCORE.INTRA.REPUL.0>
0.641615

>  <SCORE.INTRA.SOLV>
-8.13689

>  <SCORE.INTRA.SOLV.lig_0>
-162.567

>  <SCORE.INTRA.VDW>
2.9012

>  <SCORE.INTRA.VDW.0>
-4.80338

>  <SCORE.INTRA.norm>
-0.212225

>  <SCORE.RESTR>
15.6968

>  <SCORE.RESTR.CAVITY>
15.6968

>  <SCORE.RESTR.norm>
0.373733

>  <SCORE.SYSTEM>
0

>  <SCORE.SYSTEM.CONST>
0

>  <SCORE.SYSTEM.DIHEDRAL>
0

>  <SCORE.SYSTEM.SOLV>
0

>  <SCORE.SYSTEM.norm>
0

>  <SCORE.heavy>
42

>  <SCORE.norm>
0.745967

>  <RMSD>
8.625

$$$$

 OpenBabel11021811393D
libRbt.so/2013.1/901 2013/11/27
 42 45  0  0  0  0  0  0  0  0999 V2000
   -1.6477    1.8112   -3.9562 C   0  0  2  0  0  0  0  0  0  0  0  0
   -1.7669    0.3746   -4.1926 O   0  0  0  0  0  0  0  0  0  0  0  0
   -1.0024    2.1141   -2.5649 C   0  0  2  0  0  0  0  0  0  0  0  0
   -0.3551    0.9130   -1.9891 N   0  3  0  0  0  0  0  0  0  0  0  0
   -2.0642    2.6886   -1.5793 C   0  0  1  0  0  0  0  0  0  0  0  0
   -1.4620    2.9704   -0.3178 O   0  0  0  0  0  0  0  0  0  0  0  0
   -2.7065    3.9939   -2.1206 C   0  0  2  0  0  0  0  0  0  0  0  0
   -3.8506    4.3015   -1.3319 O   0  0  0  0  0  0  0  0  0  0  0  0
   -3.1151    3.8448   -3.6220 C   0  0  2  0  0  0  0  0  0  0  0  0
   -2.9662    2.4516   -4.0486 O   0  0  0  0  0  0  0  0  0  0  0  0
   -2.2757    4.6953   -4.6029 C   0  0  0  0  0  0  0  0  0  0  0  0
   -3.1882    0.6675   -8.2563 C   0  0  1  0  0  0  0  0  0  0  0  0
   -3.7478    0.3431   -9.5874 N   0  3  0  0  0  0  0  0  0  0  0  0
   -4.2692    0.5783   -7.1473 C   0  0  1  0  0  0  0  0  0  0  0  0
   -3.7033    0.7646   -5.6964 C   0  0  1  0  0  0  0  0  0  0  0  0
   -4.7247    0.3423   -4.7533 O   0  0  0  0  0  0  0  0  0  0  0  0
   -2.4146   -0.0924   -5.4156 C   0  0  1  0  0  0  0  0  0  0  0  0
   -1.3755    0.0137   -6.5783 C   0  0  1  0  0  0  0  0  0  0  0  0
   -0.2337   -0.9037   -6.3871 N   0  3  0  0  0  0  0  0  0  0  0  0
   -2.0168   -0.2891   -7.9513 C   0  0  0  0  0  0  0  0  0  0  0  0
   -4.5185    0.5568   -3.3271 C   0  0  1  0  0  0  0  0  0  0  0  0
   -5.8387    0.3171   -2.6043 C   0  0  1  0  0  0  0  0  0  0  0  0
   -5.8314   -1.2039   -2.5341 C   0  0  1  0  0  0  0  0  0  0  0  0
   -4.3624   -1.4916   -2.1927 C   0  0  2  0  0  0  0  0  0  0  0  0
   -3.6042   -0.4238   -2.8098 O   0  0  0  0  0  0  0  0  0  0  0  0
   -3.8787   -2.8560   -2.7160 C   0  0  0  0  0  0  0  0  0  0  0  0
   -9.7634   -3.2553    0.2670 C   0  0  1  0  0  0  0  0  0  0  0  0
   -9.3298   -1.7668    0.3754 C   0  0  1  0  0  0  0  0  0  0  0  0
   -9.0930   -1.0727   -0.9969 C   0  0  2  0  0  0  0  0  0  0  0  0
   -8.1207   -1.9072   -1.8914 C   0  0  1  0  0  0  0  0  0  0  0  0
   -6.7338   -1.6965   -1.5021 O   0  0  0  0  0  0  0  0  0  0  0  0
   -9.7136   -3.7410   -1.2135 C   0  0  1  0  0  0  0  0  0  0  0  0
   -8.4352   -3.3525   -1.8145 O   0  0  0  0  0  0  0  0  0  0  0  0
   -9.8920   -5.2760   -1.3398 C   0  0  0  0  0  0  0  0  0  0  0  0
   -2.3329    6.1466   -4.3539 N   0  3  0  0  0  0  0  0  0  0  0  0
   -5.7897    0.9014   -1.3025 O   0  0  0  0  0  0  0  0  0  0  0  0
  -10.3465   -1.0524    1.0770 O   0  0  0  0  0  0  0  0  0  0  0  0
   -8.8837   -4.0421    1.0733 O   0  0  0  0  0  0  0  0  0  0  0  0
   -3.9072   -2.8930   -4.1325 O   0  0  0  0  0  0  0  0  0  0  0  0
   -5.2537    1.5842   -7.3844 O   0  0  0  0  0  0  0  0  0  0  0  0
   -9.1104   -6.0283   -0.3413 N   0  3  0  0  0  0  0  0  0  0  0  0
   -8.6461    0.3318   -0.8238 N   0  3  0  0  0  0  0  0  0  0  0  0
  1  2  1  1  0  0  0
  1  3  1  0  0  0  0
  1 10  1  0  0  0  0
  3  4  1  1  0  0  0
  3  5  1  0  0  0  0
  5  6  1  1  0  0  0
  5  7  1  0  0  0  0
  7  8  1  1  0  0  0
  7  9  1  0  0  0  0
  9 10  1  0  0  0  0
  9 11  1  6  0  0  0
 11 35  1  0  0  0  0
 12 13  1  6  0  0  0
 12 14  1  0  0  0  0
 12 20  1  0  0  0  0
 14 15  1  0  0  0  0
 14 40  1  6  0  0  0
 15 16  1  1  0  0  0
 15 17  1  0  0  0  0
 17  2  1  1  0  0  0
 17 18  1  0  0  0  0
 18 19  1  1  0  0  0
 18 20  1  0  0  0  0
 21 16  1  6  0  0  0
 21 22  1  0  0  0  0
 21 25  1  0  0  0  0
 22 23  1  0  0  0  0
 22 36  1  1  0  0  0
 23 24  1  0  0  0  0
 23 31  1  1  0  0  0
 24 25  1  0  0  0  0
 24 26  1  6  0  0  0
 26 39  1  0  0  0  0
 27 28  1  0  0  0  0
 27 32  1  0  0  0  0
 27 38  1  1  0  0  0
 28 29  1  0  0  0  0
 28 37  1  6  0  0  0
 29 30  1  0  0  0  0
 29 42  1  1  0  0  0
 30 31  1  1  0  0  0
 30 33  1  0  0  0  0
 32 33  1  0  0  0  0
 32 34  1  1  0  0  0
 34 41  1  0  0  0  0
M  CHG  6   4   1  13   1  19   1  35   1  41   1  42   1
M  END
>  <CHROM.1>
176.77577784,-42.65767665,46.70595040,178.37794369,176.62720967,-59.72472967
-62.15344231,62.25231289,66.97696704,-172.90039334,167.60429361,28.76485132
56.44984186,87.40581537,64.06289222,-170.91361724,75.45125564,162.70482971
-44.84428957,-122.51185129,-43.65964121,154.03061609,-4.81770150,-0.01108129
-3.12933959,-0.03247538,0.79233919,0.88772101

>  <Name>


>  <RI>
0

>  <Rbt.Current_Directory>
/home/itssahil/PROJECTS/Mol_Feturizer/New_Systems/rnas/1ei2

>  <Rbt.Executable>
rbdock ($Id: //depot/dev/client3/rdock/2013.1/src/exe/rbdock.cxx#4 $)

>  <Rbt.Library>
libRbt.so (2013.1, Build901 2013/11/27)

>  <Rbt.Parameter_File>
/export/apps/rDock/src/rDock_2013.1_src/data/scripts/dock_solv.prm

>  <Rbt.Receptor>
prm/blind_docking_20.prm

>  <SCORE>
13.6927

>  <SCORE.INTER>
18.765

>  <SCORE.INTER.CONST>
1

>  <SCORE.INTER.POLAR>
-4.95759

>  <SCORE.INTER.ROT>
9

>  <SCORE.INTER.SOLV>
57.6876

>  <SCORE.INTER.VDW>
0.20611

>  <SCORE.INTER.norm>
0.446786

>  <SCORE.INTRA>
-17.0262

>  <SCORE.INTRA.DIHEDRAL>
-19.1733

>  <SCORE.INTRA.DIHEDRAL.0>
40.8761

>  <SCORE.INTRA.POLAR>
-1.71138

>  <SCORE.INTRA.POLAR.0>
-0.0268208

>  <SCORE.INTRA.REPUL>
-0.641615

>  <SCORE.INTRA.REPUL.0>
0.641615

>  <SCORE.INTRA.SOLV>
-4.52363

>  <SCORE.INTRA.SOLV.lig_0>
-162.567

>  <SCORE.INTRA.VDW>
3.84903

>  <SCORE.INTRA.VDW.0>
-4.80338

>  <SCORE.INTRA.norm>
-0.405386

>  <SCORE.RESTR>
11.9539

>  <SCORE.RESTR.CAVITY>
11.9539

>  <SCORE.RESTR.norm>
0.284616

>  <SCORE.SYSTEM>
0

>  <SCORE.SYSTEM.CONST>
0

>  <SCORE.SYSTEM.DIHEDRAL>
0

>  <SCORE.SYSTEM.SOLV>
0

>  <SCORE.SYSTEM.norm>
0

>  <SCORE.heavy>
42

>  <SCORE.norm>
0.326016

>  <RMSD>
8.626

$$$$

 OpenBabel11021811393D
libRbt.so/2013.1/901 2013/11/27
 42 45  0  0  0  0  0  0  0  0999 V2000
   -3.6918    2.2384   -4.5778 C   0  0  2  0  0  0  0  0  0  0  0  0
   -4.4030    1.5721   -5.6659 O   0  0  0  0  0  0  0  0  0  0  0  0
   -4.5387    3.3992   -3.9621 C   0  0  2  0  0  0  0  0  0  0  0  0
   -5.9590    3.3175   -4.3735 N   0  3  0  0  0  0  0  0  0  0  0  0
   -3.9366    4.7840   -4.3475 C   0  0  1  0  0  0  0  0  0  0  0  0
   -4.7112    5.8340   -3.7722 O   0  0  0  0  0  0  0  0  0  0  0  0
   -2.4701    4.9306   -3.8605 C   0  0  2  0  0  0  0  0  0  0  0  0
   -1.8932    6.0722   -4.4847 O   0  0  0  0  0  0  0  0  0  0  0  0
   -1.6308    3.6552   -4.1959 C   0  0  2  0  0  0  0  0  0  0  0  0
   -2.4031    2.7559   -5.0561 O   0  0  0  0  0  0  0  0  0  0  0  0
   -1.2057    2.8246   -2.9632 C   0  0  0  0  0  0  0  0  0  0  0  0
   -3.8771   -1.2397   -8.8965 C   0  0  1  0  0  0  0  0  0  0  0  0
   -3.2817   -2.0806   -9.9589 N   0  3  0  0  0  0  0  0  0  0  0  0
   -3.4448   -1.7153   -7.4848 C   0  0  1  0  0  0  0  0  0  0  0  0
   -3.9228   -0.7725   -6.3261 C   0  0  1  0  0  0  0  0  0  0  0  0
   -3.1968   -1.1319   -5.1199 O   0  0  0  0  0  0  0  0  0  0  0  0
   -3.6488    0.7503   -6.6089 C   0  0  1  0  0  0  0  0  0  0  0  0
   -4.0773    1.1642   -8.0539 C   0  0  1  0  0  0  0  0  0  0  0  0
   -3.6854    2.5524   -8.3723 N   0  3  0  0  0  0  0  0  0  0  0  0
   -3.4676    0.2304   -9.1236 C   0  0  0  0  0  0  0  0  0  0  0  0
   -3.2510   -0.2522   -3.9598 C   0  0  1  0  0  0  0  0  0  0  0  0
   -4.7078   -0.0876   -3.5431 C   0  0  1  0  0  0  0  0  0  0  0  0
   -4.9099   -1.3810   -2.7654 C   0  0  1  0  0  0  0  0  0  0  0  0
   -3.5868   -1.4892   -1.9940 C   0  0  2  0  0  0  0  0  0  0  0  0
   -2.5909   -0.8705   -2.8431 O   0  0  0  0  0  0  0  0  0  0  0  0
   -3.1886   -2.9431   -1.6827 C   0  0  0  0  0  0  0  0  0  0  0  0
   -9.6007   -1.4678   -0.4085 C   0  0  1  0  0  0  0  0  0  0  0  0
   -9.0384   -0.2957   -1.2602 C   0  0  1  0  0  0  0  0  0  0  0  0
   -8.3736   -0.7419   -2.5945 C   0  0  2  0  0  0  0  0  0  0  0  0
   -7.3074   -1.8574   -2.3486 C   0  0  1  0  0  0  0  0  0  0  0  0
   -6.0543   -1.2930   -1.8685 O   0  0  0  0  0  0  0  0  0  0  0  0
   -9.2256   -2.8424   -1.0408 C   0  0  1  0  0  0  0  0  0  0  0  0
   -7.7985   -2.8570   -1.3722 O   0  0  0  0  0  0  0  0  0  0  0  0
   -9.5440   -4.0336   -0.1008 C   0  0  0  0  0  0  0  0  0  0  0  0
   -2.2039    2.7872   -1.8799 N   0  3  0  0  0  0  0  0  0  0  0  0
   -4.8426    1.0566   -2.6998 O   0  0  0  0  0  0  0  0  0  0  0  0
  -10.1112    0.5955   -1.5624 O   0  0  0  0  0  0  0  0  0  0  0  0
   -9.0591   -1.3682    0.9105 O   0  0  0  0  0  0  0  0  0  0  0  0
   -2.9542   -3.6696   -2.8767 O   0  0  0  0  0  0  0  0  0  0  0  0
   -3.9760   -3.0206   -7.2578 O   0  0  0  0  0  0  0  0  0  0  0  0
   -9.6705   -5.3143   -0.8204 N   0  3  0  0  0  0  0  0  0  0  0  0
   -7.8253    0.4176   -3.3410 N   0  3  0  0  0  0  0  0  0  0  0  0
  1  2  1  6  0  0  0
  1  3  1  0  0  0  0
  1 10  1  0  0  0  0
  3  4  1  6  0  0  0
  3  5  1  0  0  0  0
  5  6  1  1  0  0  0
  5  7  1  0  0  0  0
  7  8  1  6  0  0  0
  7  9  1  0  0  0  0
  9 10  1  0  0  0  0
  9 11  1  1  0  0  0
 11 35  1  0  0  0  0
 12 13  1  6  0  0  0
 12 14  1  0  0  0  0
 12 20  1  0  0  0  0
 14 15  1  0  0  0  0
 14 40  1  1  0  0  0
 15 16  1  1  0  0  0
 15 17  1  0  0  0  0
 17  2  1  1  0  0  0
 17 18  1  0  0  0  0
 18 19  1  6  0  0  0
 18 20  1  0  0  0  0
 21 16  1  6  0  0  0
 21 22  1  0  0  0  0
 21 25  1  0  0  0  0
 22 23  1  0  0  0  0
 22 36  1  1  0  0  0
 23 24  1  0  0  0  0
 23 31  1  1  0  0  0
 24 25  1  0  0  0  0
 24 26  1  6  0  0  0
 26 39  1  0  0  0  0
 27 28  1  0  0  0  0
 27 32  1  0  0  0  0
 27 38  1  1  0  0  0
 28 29  1  0  0  0  0
 28 37  1  6  0  0  0
 29 30  1  0  0  0  0
 29 42  1  1  0  0  0
 30 31  1  1  0  0  0
 30 33  1  0  0  0  0
 32 33  1  0  0  0  0
 32 34  1  1  0  0  0
 34 41  1  0  0  0  0
M  CHG  6   4   1  13   1  19   1  35   1  41   1  42   1
M  END
>  <CHROM.1>
162.01332529,106.09423180,-172.87133303,-153.01399894,100.73943382,35.74691869
-46.39986034,-172.84216056,169.99404683,168.04684403,58.21513160,58.35274839
-71.80276782,97.60486959,63.46596703,-57.29882530,62.41247274,176.53513233
-55.17235002,-112.55577070,158.96874122,79.12235666,-4.99760306,0.20747350
-3.90457942,0.24315554,0.87742831,0.48280339

>  <Name>


>  <RI>
0

>  <Rbt.Current_Directory>
/home/itssahil/PROJECTS/Mol_Feturizer/New_Systems/rnas/1ei2

>  <Rbt.Executable>
rbdock ($Id: //depot/dev/client3/rdock/2013.1/src/exe/rbdock.cxx#4 $)

>  <Rbt.Library>
libRbt.so (2013.1, Build901 2013/11/27)

>  <Rbt.Parameter_File>
/export/apps/rDock/src/rDock_2013.1_src/data/scripts/dock_solv.prm

>  <Rbt.Receptor>
prm/blind_docking_80.prm

>  <SCORE>
12.4389

>  <SCORE.INTER>
0.195224

>  <SCORE.INTER.CONST>
1

>  <SCORE.INTER.POLAR>
-5.57898

>  <SCORE.INTER.ROT>
9

>  <SCORE.INTER.SOLV>
35.9579

>  <SCORE.INTER.VDW>
-2.85922

>  <SCORE.INTER.norm>
0.00464819

>  <SCORE.INTRA>
-1.24209

>  <SCORE.INTRA.DIHEDRAL>
-4.88061

>  <SCORE.INTRA.DIHEDRAL.0>
40.8761

>  <SCORE.INTRA.POLAR>
-1.01379

>  <SCORE.INTRA.POLAR.0>
-0.0268208

>  <SCORE.INTRA.REPUL>
-0.641615

>  <SCORE.INTRA.REPUL.0>
0.641615

>  <SCORE.INTRA.SOLV>
1.8227

>  <SCORE.INTRA.SOLV.lig_0>
-162.567

>  <SCORE.INTRA.VDW>
6.94182

>  <SCORE.INTRA.VDW.0>
-4.80338

>  <SCORE.INTRA.norm>
-0.0295736

>  <SCORE.RESTR>
13.4857

>  <SCORE.RESTR.CAVITY>
13.4857

>  <SCORE.RESTR.norm>
0.321089

>  <SCORE.SYSTEM>
0

>  <SCORE.SYSTEM.CONST>
0

>  <SCORE.SYSTEM.DIHEDRAL>
0

>  <SCORE.SYSTEM.SOLV>
0

>  <SCORE.SYSTEM.norm>
0

>  <SCORE.heavy>
42

>  <SCORE.norm>
0.296164

>  <RMSD>
8.638

$$$$

 OpenBabel11021811393D
libRbt.so/2013.1/901 2013/11/27
 42 45  0  0  0  0  0  0  0  0999 V2000
   -3.5469    1.0953   -6.4113 C   0  0  2  0  0  0  0  0  0  0  0  0
   -2.4679    0.9379   -5.4394 O   0  0  0  0  0  0  0  0  0  0  0  0
   -4.0340    2.5784   -6.4956 C   0  0  2  0  0  0  0  0  0  0  0  0
   -3.0740    3.5065   -5.8551 N   0  3  0  0  0  0  0  0  0  0  0  0
   -5.4485    2.7299   -5.8593 C   0  0  1  0  0  0  0  0  0  0  0  0
   -5.8862    4.0840   -5.9512 O   0  0  0  0  0  0  0  0  0  0  0  0
   -6.4964    1.8253   -6.5615 C   0  0  2  0  0  0  0  0  0  0  0  0
   -7.6752    1.7883   -5.7649 O   0  0  0  0  0  0  0  0  0  0  0  0
   -5.9460    0.3774   -6.7714 C   0  0  2  0  0  0  0  0  0  0  0  0
   -4.6718    0.2159   -6.0674 O   0  0  0  0  0  0  0  0  0  0  0  0
   -5.6821   -0.0009   -8.2470 C   0  0  0  0  0  0  0  0  0  0  0  0
   -1.5158   -3.1389   -6.4852 C   0  0  1  0  0  0  0  0  0  0  0  0
   -0.9292   -4.4976   -6.4969 N   0  3  0  0  0  0  0  0  0  0  0  0
   -2.4568   -2.9357   -5.2689 C   0  0  1  0  0  0  0  0  0  0  0  0
   -2.9900   -1.4682   -5.1202 C   0  0  1  0  0  0  0  0  0  0  0  0
   -3.5754   -1.3299   -3.7976 O   0  0  0  0  0  0  0  0  0  0  0  0
   -1.8633   -0.3792   -5.2568 C   0  0  1  0  0  0  0  0  0  0  0  0
   -0.9304   -0.6517   -6.4809 C   0  0  1  0  0  0  0  0  0  0  0  0
    0.2139    0.2814   -6.5245 N   0  3  0  0  0  0  0  0  0  0  0  0
   -0.3794   -2.0954   -6.4732 C   0  0  0  0  0  0  0  0  0  0  0  0
   -4.3304   -0.1281   -3.4682 C   0  0  1  0  0  0  0  0  0  0  0  0
   -5.7470   -0.5359   -3.0811 C   0  0  1  0  0  0  0  0  0  0  0  0
   -5.5144   -0.9714   -1.6408 C   0  0  1  0  0  0  0  0  0  0  0  0
   -4.5430    0.1084   -1.1432 C   0  0  2  0  0  0  0  0  0  0  0  0
   -3.7707    0.5000   -2.3033 O   0  0  0  0  0  0  0  0  0  0  0  0
   -3.6075   -0.3911   -0.0276 C   0  0  0  0  0  0  0  0  0  0  0  0
  -10.1185   -2.4788    0.2052 C   0  0  1  0  0  0  0  0  0  0  0  0
   -9.7760   -0.9630    0.1910 C   0  0  1  0  0  0  0  0  0  0  0  0
   -9.1763   -0.4598   -1.1538 C   0  0  2  0  0  0  0  0  0  0  0  0
   -7.9657   -1.3428   -1.5974 C   0  0  1  0  0  0  0  0  0  0  0  0
   -6.7546   -0.9782   -0.8767 O   0  0  0  0  0  0  0  0  0  0  0  0
   -9.6338   -3.1692   -1.1058 C   0  0  1  0  0  0  0  0  0  0  0  0
   -8.2483   -2.7806   -1.3815 O   0  0  0  0  0  0  0  0  0  0  0  0
   -9.7254   -4.7151   -1.0302 C   0  0  0  0  0  0  0  0  0  0  0  0
   -6.8910   -0.3586   -9.0099 N   0  3  0  0  0  0  0  0  0  0  0  0
   -6.6123    0.5976   -3.1519 O   0  0  0  0  0  0  0  0  0  0  0  0
  -10.9705   -0.2296    0.4588 O   0  0  0  0  0  0  0  0  0  0  0  0
   -9.4844   -3.0747    1.3391 O   0  0  0  0  0  0  0  0  0  0  0  0
   -2.9296   -1.5700   -0.4267 O   0  0  0  0  0  0  0  0  0  0  0  0
   -3.5738   -3.8145   -5.4012 O   0  0  0  0  0  0  0  0  0  0  0  0
   -8.8758   -5.2888    0.0295 N   0  3  0  0  0  0  0  0  0  0  0  0
   -8.8372    0.9835   -1.0896 N   0  3  0  0  0  0  0  0  0  0  0  0
  1  2  1  1  0  0  0
  1  3  1  0  0  0  0
  1 10  1  0  0  0  0
  3  4  1  1  0  0  0
  3  5  1  0  0  0  0
  5  6  1  6  0  0  0
  5  7  1  0  0  0  0
  7  8  1  1  0  0  0
  7  9  1  0  0  0  0
  9 10  1  0  0  0  0
  9 11  1  6  0  0  0
 11 35  1  0  0  0  0
 12 13  1  1  0  0  0
 12 14  1  0  0  0  0
 12 20  1  0  0  0  0
 14 15  1  0  0  0  0
 14 40  1  6  0  0  0
 15 16  1  1  0  0  0
 15 17  1  0  0  0  0
 17  2  1  6  0  0  0
 17 18  1  0  0  0  0
 18 19  1  1  0  0  0
 18 20  1  0  0  0  0
 21 16  1  1  0  0  0
 21 22  1  0  0  0  0
 21 25  1  0  0  0  0
 22 23  1  0  0  0  0
 22 36  1  1  0  0  0
 23 24  1  0  0  0  0
 23 31  1  1  0  0  0
 24 25  1  0  0  0  0
 24 26  1  1  0  0  0
 26 39  1  0  0  0  0
 27 28  1  0  0  0  0
 27 32  1  0  0  0  0
 27 38  1  1  0  0  0
 28 29  1  0  0  0  0
 28 37  1  6  0  0  0
 29 30  1  0  0  0  0
 29 42  1  1  0  0  0
 30 31  1  1  0  0  0
 30 33  1  0  0  0  0
 32 33  1  0  0  0  0
 32 34  1  1  0  0  0
 34 41  1  0  0  0  0
M  CHG  6   4   1  13   1  19   1  35   1  41   1  42   1
M  END
>  <CHROM.1>
-178.27538393,-46.94707679,63.18918512,-164.67296949,-58.19646655,-78.43355876
71.47271370,76.24859521,-178.45476872,-170.59490495,120.87022663,100.21437067
-50.26020203,33.94589235,53.35761138,80.15547823,84.46284503,-70.17240973
168.85610581,-140.55760581,-61.85282534,130.90628843,-5.40757917,-0.66457112
-3.71752049,0.62200637,0.51176081,-0.66456962

>  <Name>


>  <RI>
0

>  <Rbt.Current_Directory>
/home/itssahil/PROJECTS/Mol_Feturizer/New_Systems/rnas/1ei2

>  <Rbt.Executable>
rbdock ($Id: //depot/dev/client3/rdock/2013.1/src/exe/rbdock.cxx#4 $)

>  <Rbt.Library>
libRbt.so (2013.1, Build901 2013/11/27)

>  <Rbt.Parameter_File>
/export/apps/rDock/src/rDock_2013.1_src/data/scripts/dock_solv.prm

>  <Rbt.Receptor>
prm/blind_docking_100.prm

>  <SCORE>
39.1513

>  <SCORE.INTER>
40.3261

>  <SCORE.INTER.CONST>
1

>  <SCORE.INTER.POLAR>
-4.65514

>  <SCORE.INTER.ROT>
9

>  <SCORE.INTER.SOLV>
53.9938

>  <SCORE.INTER.VDW>
14.8033

>  <SCORE.INTER.norm>
0.960146

>  <SCORE.INTRA>
-17.2162

>  <SCORE.INTRA.DIHEDRAL>
-8.49921

>  <SCORE.INTRA.DIHEDRAL.0>
40.8761

>  <SCORE.INTRA.POLAR>
-2.51885

>  <SCORE.INTRA.POLAR.0>
-0.0268208

>  <SCORE.INTRA.REPUL>
-0.641615

>  <SCORE.INTRA.REPUL.0>
0.641615

>  <SCORE.INTRA.SOLV>
-7.48255

>  <SCORE.INTRA.SOLV.lig_0>
-162.567

>  <SCORE.INTRA.VDW>
2.54678

>  <SCORE.INTRA.VDW.0>
-4.80338

>  <SCORE.INTRA.norm>
-0.409911

>  <SCORE.RESTR>
16.0414

>  <SCORE.RESTR.CAVITY>
16.0414

>  <SCORE.RESTR.norm>
0.381939

>  <SCORE.SYSTEM>
0

>  <SCORE.SYSTEM.CONST>
0

>  <SCORE.SYSTEM.DIHEDRAL>
0

>  <SCORE.SYSTEM.SOLV>
0

>  <SCORE.SYSTEM.norm>
0

>  <SCORE.heavy>
42

>  <SCORE.norm>
0.932174

>  <RMSD>
8.644

$$$$

 OpenBabel11021811393D
libRbt.so/2013.1/901 2013/11/27
 42 45  0  0  0  0  0  0  0  0999 V2000
   -6.3312    1.6241   -1.5844 C   0  0  2  0  0  0  0  0  0  0  0  0
   -7.7164    2.0008   -1.3142 O   0  0  0  0  0  0  0  0  0  0  0  0
   -5.5140    1.4489   -0.2632 C   0  0  2  0  0  0  0  0  0  0  0  0
   -6.4002    1.3561    0.9197 N   0  3  0  0  0  0  0  0  0  0  0  0
   -4.4914    2.6121   -0.0904 C   0  0  1  0  0  0  0  0  0  0  0  0
   -3.7454    2.4360    1.1120 O   0  0  0  0  0  0  0  0  0  0  0  0
   -3.4970    2.6869   -1.2800 C   0  0  2  0  0  0  0  0  0  0  0  0
   -2.7925    3.9216   -1.2097 O   0  0  0  0  0  0  0  0  0  0  0  0
   -4.2415    2.5721   -2.6497 C   0  0  2  0  0  0  0  0  0  0  0  0
   -5.6902    2.6295   -2.4420 O   0  0  0  0  0  0  0  0  0  0  0  0
   -3.9614    1.2637   -3.4243 C   0  0  0  0  0  0  0  0  0  0  0  0
   -8.4932    3.5035   -5.2838 C   0  0  1  0  0  0  0  0  0  0  0  0
   -9.1713    3.9880   -6.5069 N   0  3  0  0  0  0  0  0  0  0  0  0
   -8.6275    4.5185   -4.1185 C   0  0  1  0  0  0  0  0  0  0  0  0
   -8.0585    3.9939   -2.7543 C   0  0  1  0  0  0  0  0  0  0  0  0
   -8.5275    4.8746   -1.6983 O   0  0  0  0  0  0  0  0  0  0  0  0
   -8.5318    2.5359   -2.4015 C   0  0  1  0  0  0  0  0  0  0  0  0
   -8.4006    1.5663   -3.6203 C   0  0  1  0  0  0  0  0  0  0  0  0
   -8.9816    0.2380   -3.3372 N   0  3  0  0  0  0  0  0  0  0  0  0
   -9.0843    2.1357   -4.8837 C   0  0  0  0  0  0  0  0  0  0  0  0
   -8.0221    6.2391   -1.6234 C   0  0  1  0  0  0  0  0  0  0  0  0
   -8.9189    7.0380   -0.6851 C   0  0  1  0  0  0  0  0  0  0  0  0
   -8.3607    6.5928    0.6598 C   0  0  1  0  0  0  0  0  0  0  0  0
   -6.8509    6.5825    0.3810 C   0  0  2  0  0  0  0  0  0  0  0  0
   -6.7174    6.2475   -1.0210 O   0  0  0  0  0  0  0  0  0  0  0  0
   -6.0861    5.5634    1.2446 C   0  0  0  0  0  0  0  0  0  0  0  0
  -10.7891    6.4129    4.7483 C   0  0  1  0  0  0  0  0  0  0  0  0
  -10.0356    7.7668    4.6278 C   0  0  1  0  0  0  0  0  0  0  0  0
  -10.3336    8.5449    3.3137 C   0  0  2  0  0  0  0  0  0  0  0  0
  -10.1209    7.6373    2.0596 C   0  0  1  0  0  0  0  0  0  0  0  0
   -8.7094    7.5286    1.7203 O   0  0  0  0  0  0  0  0  0  0  0  0
  -11.5619    6.0895    3.4336 C   0  0  1  0  0  0  0  0  0  0  0  0
  -10.6751    6.2821    2.2832 O   0  0  0  0  0  0  0  0  0  0  0  0
  -12.1174    4.6421    3.4136 C   0  0  0  0  0  0  0  0  0  0  0  0
   -2.5502    1.0685   -3.8006 N   0  3  0  0  0  0  0  0  0  0  0  0
   -8.7181    8.4354   -0.8984 O   0  0  0  0  0  0  0  0  0  0  0  0
  -10.4049    8.5870    5.7357 O   0  0  0  0  0  0  0  0  0  0  0  0
   -9.8329    5.3866    5.0228 O   0  0  0  0  0  0  0  0  0  0  0  0
   -6.7906    4.3361    1.3210 O   0  0  0  0  0  0  0  0  0  0  0  0
   -7.9340    5.7155   -4.4706 O   0  0  0  0  0  0  0  0  0  0  0  0
  -13.0786    4.3817    4.5009 N   0  3  0  0  0  0  0  0  0  0  0  0
   -9.5568    9.8074    3.2434 N   0  3  0  0  0  0  0  0  0  0  0  0
  1  2  1  1  0  0  0
  1  3  1  0  0  0  0
  1 10  1  0  0  0  0
  3  4  1  1  0  0  0
  3  5  1  0  0  0  0
  5  6  1  1  0  0  0
  5  7  1  0  0  0  0
  7  8  1  6  0  0  0
  7  9  1  0  0  0  0
  9 10  1  0  0  0  0
  9 11  1  1  0  0  0
 11 35  1  0  0  0  0
 12 13  1  6  0  0  0
 12 14  1  0  0  0  0
 12 20  1  0  0  0  0
 14 15  1  0  0  0  0
 14 40  1  6  0  0  0
 15 16  1  1  0  0  0
 15 17  1  0  0  0  0
 17  2  1  1  0  0  0
 17 18  1  0  0  0  0
 18 19  1  1  0  0  0
 18 20  1  0  0  0  0
 21 16  1  1  0  0  0
 21 22  1  0  0  0  0
 21 25  1  0  0  0  0
 22 23  1  0  0  0  0
 22 36  1  6  0  0  0
 23 24  1  0  0  0  0
 23 31  1  1  0  0  0
 24 25  1  0  0  0  0
 24 26  1  1  0  0  0
 26 39  1  0  0  0  0
 27 28  1  0  0  0  0
 27 32  1  0  0  0  0
 27 38  1  6  0  0  0
 28 29  1  0  0  0  0
 28 37  1  1  0  0  0
 29 30  1  0  0  0  0
 29 42  1  6  0  0  0
 30 31  1  1  0  0  0
 30 33  1  0  0  0  0
 32 33  1  0  0  0  0
 32 34  1  1  0  0  0
 34 41  1  0  0  0  0
M  CHG  6   4   1  13   1  19   1  35   1  41   1  42   1
M  END
>  <CHROM.1>
164.50701666,-72.12183097,174.03626098,56.82022788,-65.50687297,-61.58606086
63.81283472,-66.86219013,146.01660004,-68.96045948,165.42694435,-32.75956532
-55.11495399,66.08638623,42.65834539,-168.27594557,69.36195382,57.29323651
-55.29578632,173.45034973,61.14774533,-84.78366847,-7.85529177,4.59140914
-0.24645560,-0.98908522,-0.52117608,1.27012971

>  <Name>


>  <RI>
0

>  <Rbt.Current_Directory>
/home/itssahil/PROJECTS/Mol_Feturizer/New_Systems/rnas/1ei2

>  <Rbt.Executable>
rbdock ($Id: //depot/dev/client3/rdock/2013.1/src/exe/rbdock.cxx#4 $)

>  <Rbt.Library>
libRbt.so (2013.1, Build901 2013/11/27)

>  <Rbt.Parameter_File>
/export/apps/rDock/src/rDock_2013.1_src/data/scripts/dock_solv.prm

>  <Rbt.Receptor>
prm/pocket_docking_6.prm

>  <SCORE>
-44.1798

>  <SCORE.INTER>
-18.8248

>  <SCORE.INTER.CONST>
1

>  <SCORE.INTER.POLAR>
-4.5567

>  <SCORE.INTER.ROT>
9

>  <SCORE.INTER.SOLV>
18.7196

>  <SCORE.INTER.VDW>
-13.2007

>  <SCORE.INTER.norm>
-0.448209

>  <SCORE.INTRA>
-25.3551

>  <SCORE.INTRA.DIHEDRAL>
-26.4925

>  <SCORE.INTRA.DIHEDRAL.0>
40.8761

>  <SCORE.INTRA.POLAR>
-1.00988

>  <SCORE.INTRA.POLAR.0>
-0.0268208

>  <SCORE.INTRA.REPUL>
-0.622804

>  <SCORE.INTRA.REPUL.0>
0.641615

>  <SCORE.INTRA.SOLV>
-10.7912

>  <SCORE.INTRA.SOLV.lig_0>
-162.567

>  <SCORE.INTRA.VDW>
-0.165599

>  <SCORE.INTRA.VDW.0>
-4.80338

>  <SCORE.INTRA.norm>
-0.603692

>  <SCORE.RESTR>
0

>  <SCORE.RESTR.CAVITY>
0

>  <SCORE.RESTR.norm>
0

>  <SCORE.SYSTEM>
0

>  <SCORE.SYSTEM.CONST>
0

>  <SCORE.SYSTEM.DIHEDRAL>
0

>  <SCORE.SYSTEM.SOLV>
0

>  <SCORE.SYSTEM.norm>
0

>  <SCORE.heavy>
42

>  <SCORE.norm>
-1.0519

>  <RMSD>
8.664

$$$$

 OpenBabel11021811393D
libRbt.so/2013.1/901 2013/11/27
 42 45  0  0  0  0  0  0  0  0999 V2000
   -2.8251    1.3681   -5.6855 C   0  0  2  0  0  0  0  0  0  0  0  0
   -2.4325    0.3247   -4.7416 O   0  0  0  0  0  0  0  0  0  0  0  0
   -2.2909    2.7707   -5.2482 C   0  0  2  0  0  0  0  0  0  0  0  0
   -1.2433    2.6568   -4.2077 N   0  3  0  0  0  0  0  0  0  0  0  0
   -3.4596    3.6739   -4.7508 C   0  0  1  0  0  0  0  0  0  0  0  0
   -2.9618    4.9532   -4.3646 O   0  0  0  0  0  0  0  0  0  0  0  0
   -4.5387    3.8765   -5.8481 C   0  0  2  0  0  0  0  0  0  0  0  0
   -5.6949    4.4531   -5.2510 O   0  0  0  0  0  0  0  0  0  0  0  0
   -4.9095    2.5226   -6.5358 C   0  0  2  0  0  0  0  0  0  0  0  0
   -4.2872    1.4068   -5.8197 O   0  0  0  0  0  0  0  0  0  0  0  0
   -4.4548    2.4058   -8.0089 C   0  0  0  0  0  0  0  0  0  0  0  0
   -2.7660   -3.2726   -7.1013 C   0  0  1  0  0  0  0  0  0  0  0  0
   -2.4718   -4.5597   -7.7699 N   0  3  0  0  0  0  0  0  0  0  0  0
   -2.8645   -3.4400   -5.5623 C   0  0  1  0  0  0  0  0  0  0  0  0
   -3.0256   -2.0856   -4.7880 C   0  0  1  0  0  0  0  0  0  0  0  0
   -2.7802   -2.3370   -3.3782 O   0  0  0  0  0  0  0  0  0  0  0  0
   -2.0129   -0.9765   -5.2556 C   0  0  1  0  0  0  0  0  0  0  0  0
   -1.9349   -0.8736   -6.8132 C   0  0  1  0  0  0  0  0  0  0  0  0
   -0.8791    0.0602   -7.2550 N   0  3  0  0  0  0  0  0  0  0  0  0
   -1.6715   -2.2485   -7.4674 C   0  0  0  0  0  0  0  0  0  0  0  0
   -2.9138   -1.2474   -2.4202 C   0  0  1  0  0  0  0  0  0  0  0  0
   -4.2271   -0.5225   -2.6897 C   0  0  1  0  0  0  0  0  0  0  0  0
   -5.1988   -1.4631   -1.9899 C   0  0  1  0  0  0  0  0  0  0  0  0
   -4.4211   -1.8202   -0.7152 C   0  0  2  0  0  0  0  0  0  0  0  0
   -3.0230   -1.7750   -1.0880 O   0  0  0  0  0  0  0  0  0  0  0  0
   -4.7775   -3.2119   -0.1625 C   0  0  0  0  0  0  0  0  0  0  0  0
  -10.0463   -1.6104   -0.5804 C   0  0  1  0  0  0  0  0  0  0  0  0
   -9.5411   -0.2113   -1.0306 C   0  0  1  0  0  0  0  0  0  0  0  0
   -8.7797   -0.2172   -2.3876 C   0  0  2  0  0  0  0  0  0  0  0  0
   -7.6394   -1.2857   -2.3904 C   0  0  1  0  0  0  0  0  0  0  0  0
   -6.4605   -0.8010   -1.6872 O   0  0  0  0  0  0  0  0  0  0  0  0
   -9.5314   -2.7223   -1.5441 C   0  0  1  0  0  0  0  0  0  0  0  0
   -8.0937   -2.5505   -1.7678 O   0  0  0  0  0  0  0  0  0  0  0  0
   -9.7965   -4.1490   -0.9980 C   0  0  0  0  0  0  0  0  0  0  0  0
   -3.6524    3.5437   -8.4910 N   0  3  0  0  0  0  0  0  0  0  0  0
   -4.2051    0.7634   -2.0697 O   0  0  0  0  0  0  0  0  0  0  0  0
  -10.6670    0.6580   -1.1447 O   0  0  0  0  0  0  0  0  0  0  0  0
   -9.5779   -1.8541    0.7478 O   0  0  0  0  0  0  0  0  0  0  0  0
   -4.1629   -3.4284    1.0961 O   0  0  0  0  0  0  0  0  0  0  0  0
   -3.9850   -4.2718   -5.2622 O   0  0  0  0  0  0  0  0  0  0  0  0
   -8.6912   -4.6593   -0.1663 N   0  3  0  0  0  0  0  0  0  0  0  0
   -8.2923    1.1391   -2.7414 N   0  3  0  0  0  0  0  0  0  0  0  0
  1  2  1  1  0  0  0
  1  3  1  0  0  0  0
  1 10  1  0  0  0  0
  3  4  1  1  0  0  0
  3  5  1  0  0  0  0
  5  6  1  6  0  0  0
  5  7  1  0  0  0  0
  7  8  1  1  0  0  0
  7  9  1  0  0  0  0
  9 10  1  0  0  0  0
  9 11  1  6  0  0  0
 11 35  1  0  0  0  0
 12 13  1  6  0  0  0
 12 14  1  0  0  0  0
 12 20  1  0  0  0  0
 14 15  1  0  0  0  0
 14 40  1  6  0  0  0
 15 16  1  1  0  0  0
 15 17  1  0  0  0  0
 17  2  1  1  0  0  0
 17 18  1  0  0  0  0
 18 19  1  1  0  0  0
 18 20  1  0  0  0  0
 21 16  1  6  0  0  0
 21 22  1  0  0  0  0
 21 25  1  0  0  0  0
 22 23  1  0  0  0  0
 22 36  1  1  0  0  0
 23 24  1  0  0  0  0
 23 31  1  1  0  0  0
 24 25  1  0  0  0  0
 24 26  1  6  0  0  0
 26 39  1  0  0  0  0
 27 28  1  0  0  0  0
 27 32  1  0  0  0  0
 27 38  1  1  0  0  0
 28 29  1  0  0  0  0
 28 37  1  6  0  0  0
 29 30  1  0  0  0  0
 29 42  1  1  0  0  0
 30 31  1  1  0  0  0
 30 33  1  0  0  0  0
 32 33  1  0  0  0  0
 32 34  1  1  0  0  0
 34 41  1  0  0  0  0
M  CHG  6   4   1  13   1  19   1  35   1  41   1  42   1
M  END
>  <CHROM.1>
-139.79918168,-115.82017644,3.19683777,-21.76064914,-135.40931979,4.68194774
-156.42239164,42.93382004,87.10889899,-177.77852144,47.56153921,143.05926053
68.82021340,113.79753020,-172.78416651,174.21243993,65.55896630,78.73386752
-179.58430585,-159.59727625,-89.80364435,-126.65370836,-4.93163202,-0.48313180
-3.67413850,0.62388853,0.63851632,-0.32815907

>  <Name>


>  <RI>
0

>  <Rbt.Current_Directory>
/home/itssahil/PROJECTS/Mol_Feturizer/New_Systems/rnas/1ei2

>  <Rbt.Executable>
rbdock ($Id: //depot/dev/client3/rdock/2013.1/src/exe/rbdock.cxx#4 $)

>  <Rbt.Library>
libRbt.so (2013.1, Build901 2013/11/27)

>  <Rbt.Parameter_File>
/export/apps/rDock/src/rDock_2013.1_src/data/scripts/dock_solv.prm

>  <Rbt.Receptor>
prm/blind_docking_100.prm

>  <SCORE>
144.112

>  <SCORE.INTER>
124.429

>  <SCORE.INTER.CONST>
1

>  <SCORE.INTER.POLAR>
-5.30238

>  <SCORE.INTER.ROT>
9

>  <SCORE.INTER.SOLV>
52.6652

>  <SCORE.INTER.VDW>
73.4723

>  <SCORE.INTER.norm>
2.9626

>  <SCORE.INTRA>
6.90222

>  <SCORE.INTRA.DIHEDRAL>
17.4446

>  <SCORE.INTRA.DIHEDRAL.0>
40.8761

>  <SCORE.INTRA.POLAR>
-0.572147

>  <SCORE.INTRA.POLAR.0>
-0.0268208

>  <SCORE.INTRA.REPUL>
-0.641615

>  <SCORE.INTRA.REPUL.0>
0.641615

>  <SCORE.INTRA.SOLV>
-4.35097

>  <SCORE.INTRA.SOLV.lig_0>
-162.567

>  <SCORE.INTRA.VDW>
5.5088

>  <SCORE.INTRA.VDW.0>
-4.80338

>  <SCORE.INTRA.norm>
0.164339

>  <SCORE.RESTR>
12.7802

>  <SCORE.RESTR.CAVITY>
12.7802

>  <SCORE.RESTR.norm>
0.304291

>  <SCORE.SYSTEM>
0

>  <SCORE.SYSTEM.CONST>
0

>  <SCORE.SYSTEM.DIHEDRAL>
0

>  <SCORE.SYSTEM.SOLV>
0

>  <SCORE.SYSTEM.norm>
0

>  <SCORE.heavy>
42

>  <SCORE.norm>
3.43123

>  <RMSD>
8.673

$$$$

 OpenBabel11021811393D
libRbt.so/2013.1/901 2013/11/27
 42 45  0  0  0  0  0  0  0  0999 V2000
   -4.4871    4.9146    1.3701 C   0  0  2  0  0  0  0  0  0  0  0  0
   -4.4081    5.7155    0.1511 O   0  0  0  0  0  0  0  0  0  0  0  0
   -3.4206    5.3610    2.4224 C   0  0  2  0  0  0  0  0  0  0  0  0
   -2.8416    6.6823    2.0874 N   0  3  0  0  0  0  0  0  0  0  0  0
   -2.2969    4.2894    2.5555 C   0  0  1  0  0  0  0  0  0  0  0  0
   -1.3361    4.7027    3.5248 O   0  0  0  0  0  0  0  0  0  0  0  0
   -2.8643    2.9091    2.9824 C   0  0  2  0  0  0  0  0  0  0  0  0
   -1.8524    1.9242    2.8044 O   0  0  0  0  0  0  0  0  0  0  0  0
   -4.1306    2.5333    2.1466 C   0  0  2  0  0  0  0  0  0  0  0  0
   -4.3152    3.4907    1.0537 O   0  0  0  0  0  0  0  0  0  0  0  0
   -5.4511    2.5264    2.9507 C   0  0  0  0  0  0  0  0  0  0  0  0
   -6.3264    6.1918   -3.6847 C   0  0  1  0  0  0  0  0  0  0  0  0
   -7.0095    5.9215   -4.9695 N   0  3  0  0  0  0  0  0  0  0  0  0
   -7.2542    5.9041   -2.4753 C   0  0  1  0  0  0  0  0  0  0  0  0
   -6.5381    6.0284   -1.0854 C   0  0  1  0  0  0  0  0  0  0  0  0
   -7.3965    5.4299   -0.0775 O   0  0  0  0  0  0  0  0  0  0  0  0
   -5.1524    5.2861   -1.0301 C   0  0  1  0  0  0  0  0  0  0  0  0
   -4.2740    5.5906   -2.2865 C   0  0  1  0  0  0  0  0  0  0  0  0
   -3.0388    4.7809   -2.3090 N   0  3  0  0  0  0  0  0  0  0  0  0
   -5.0447    5.3369   -3.6016 C   0  0  0  0  0  0  0  0  0  0  0  0
   -7.1528    5.7092    1.3315 C   0  0  1  0  0  0  0  0  0  0  0  0
   -6.9397    7.2089    1.4992 C   0  0  1  0  0  0  0  0  0  0  0  0
   -8.3859    7.6853    1.4956 C   0  0  1  0  0  0  0  0  0  0  0  0
   -9.0706    6.6050    2.3448 C   0  0  2  0  0  0  0  0  0  0  0  0
   -8.3211    5.3899    2.1049 O   0  0  0  0  0  0  0  0  0  0  0  0
  -10.5502    6.3966    1.9754 C   0  0  0  0  0  0  0  0  0  0  0  0
   -9.1311   12.5926    0.8664 C   0  0  1  0  0  0  0  0  0  0  0  0
   -8.8584   12.1839    2.3408 C   0  0  1  0  0  0  0  0  0  0  0  0
   -7.6025   11.2848    2.5289 C   0  0  2  0  0  0  0  0  0  0  0  0
   -7.6437   10.0500    1.5720 C   0  0  1  0  0  0  0  0  0  0  0  0
   -8.5155    9.0073    2.0934 O   0  0  0  0  0  0  0  0  0  0  0  0
   -8.1454   11.8693   -0.1009 C   0  0  1  0  0  0  0  0  0  0  0  0
   -8.1039   10.4402    0.2194 O   0  0  0  0  0  0  0  0  0  0  0  0
   -8.5385   12.0480   -1.5900 C   0  0  0  0  0  0  0  0  0  0  0  0
   -5.9675    1.1821    3.2628 N   0  3  0  0  0  0  0  0  0  0  0  0
   -6.3060    7.4696    2.7518 O   0  0  0  0  0  0  0  0  0  0  0  0
   -8.6868   13.3721    3.1123 O   0  0  0  0  0  0  0  0  0  0  0  0
  -10.4800   12.2471    0.5439 O   0  0  0  0  0  0  0  0  0  0  0  0
  -11.2059    5.5984    2.9459 O   0  0  0  0  0  0  0  0  0  0  0  0
   -8.3475    6.8212   -2.5075 O   0  0  0  0  0  0  0  0  0  0  0  0
   -7.9566   11.0136   -2.4648 N   0  3  0  0  0  0  0  0  0  0  0  0
   -7.4195   10.8998    3.9504 N   0  3  0  0  0  0  0  0  0  0  0  0
  1  2  1  6  0  0  0
  1  3  1  0  0  0  0
  1 10  1  0  0  0  0
  3  4  1  6  0  0  0
  3  5  1  0  0  0  0
  5  6  1  1  0  0  0
  5  7  1  0  0  0  0
  7  8  1  6  0  0  0
  7  9  1  0  0  0  0
  9 10  1  0  0  0  0
  9 11  1  1  0  0  0
 11 35  1  0  0  0  0
 12 13  1  6  0  0  0
 12 14  1  0  0  0  0
 12 20  1  0  0  0  0
 14 15  1  0  0  0  0
 14 40  1  1  0  0  0
 15 16  1  1  0  0  0
 15 17  1  0  0  0  0
 17  2  1  1  0  0  0
 17 18  1  0  0  0  0
 18 19  1  6  0  0  0
 18 20  1  0  0  0  0
 21 16  1  6  0  0  0
 21 22  1  0  0  0  0
 21 25  1  0  0  0  0
 22 23  1  0  0  0  0
 22 36  1  1  0  0  0
 23 24  1  0  0  0  0
 23 31  1  1  0  0  0
 24 25  1  0  0  0  0
 24 26  1  6  0  0  0
 26 39  1  0  0  0  0
 27 28  1  0  0  0  0
 27 32  1  0  0  0  0
 27 38  1  6  0  0  0
 28 29  1  0  0  0  0
 28 37  1  1  0  0  0
 29 30  1  0  0  0  0
 29 42  1  1  0  0  0
 30 31  1  1  0  0  0
 30 33  1  0  0  0  0
 32 33  1  0  0  0  0
 32 34  1  6  0  0  0
 34 41  1  0  0  0  0
M  CHG  6   4   1  13   1  19   1  35   1  41   1  42   1
M  END
>  <CHROM.1>
168.74630287,95.29333851,-114.61545676,61.52377533,-179.75549668,-105.28691765
31.85120045,-58.01287926,70.08729786,-164.02708249,46.40738692,62.24621637
164.71216582,52.19919260,-168.26665277,-175.35291909,175.37887667,-60.39289259
155.12845217,-164.73741626,-158.95320492,134.27090884,-6.49821066,6.96420384
0.79319977,0.01277341,-0.98140481,1.50671001

>  <Name>


>  <RI>
0

>  <Rbt.Current_Directory>
/home/itssahil/PROJECTS/Mol_Feturizer/New_Systems/rnas/1ei2

>  <Rbt.Executable>
rbdock ($Id: //depot/dev/client3/rdock/2013.1/src/exe/rbdock.cxx#4 $)

>  <Rbt.Library>
libRbt.so (2013.1, Build901 2013/11/27)

>  <Rbt.Parameter_File>
/export/apps/rDock/src/rDock_2013.1_src/data/scripts/dock_solv.prm

>  <Rbt.Receptor>
prm/pocket_docking_8.prm

>  <SCORE>
-44.6353

>  <SCORE.INTER>
-27.8963

>  <SCORE.INTER.CONST>
1

>  <SCORE.INTER.POLAR>
-4.51315

>  <SCORE.INTER.ROT>
9

>  <SCORE.INTER.SOLV>
23.2677

>  <SCORE.INTER.VDW>
-20.9096

>  <SCORE.INTER.norm>
-0.664198

>  <SCORE.INTRA>
-16.739

>  <SCORE.INTRA.DIHEDRAL>
-14.0168

>  <SCORE.INTRA.DIHEDRAL.0>
40.8761

>  <SCORE.INTRA.POLAR>
-0.535553

>  <SCORE.INTRA.POLAR.0>
-0.0268208

>  <SCORE.INTRA.REPUL>
-0.627977

>  <SCORE.INTRA.REPUL.0>
0.641615

>  <SCORE.INTRA.SOLV>
-12.343

>  <SCORE.INTRA.SOLV.lig_0>
-162.567

>  <SCORE.INTRA.VDW>
1.40171

>  <SCORE.INTRA.VDW.0>
-4.80338

>  <SCORE.INTRA.norm>
-0.398547

>  <SCORE.RESTR>
0

>  <SCORE.RESTR.CAVITY>
0

>  <SCORE.RESTR.norm>
0

>  <SCORE.SYSTEM>
0

>  <SCORE.SYSTEM.CONST>
0

>  <SCORE.SYSTEM.DIHEDRAL>
0

>  <SCORE.SYSTEM.SOLV>
0

>  <SCORE.SYSTEM.norm>
0

>  <SCORE.heavy>
42

>  <SCORE.norm>
-1.06274

>  <RMSD>
8.676

$$$$

 OpenBabel11021811393D
libRbt.so/2013.1/901 2013/11/27
 42 45  0  0  0  0  0  0  0  0999 V2000
   -3.9431    2.5889   -5.4403 C   0  0  2  0  0  0  0  0  0  0  0  0
   -3.3334    1.6719   -6.4000 O   0  0  0  0  0  0  0  0  0  0  0  0
   -3.4866    4.0642   -5.6835 C   0  0  2  0  0  0  0  0  0  0  0  0
   -2.8485    4.2275   -7.0099 N   0  3  0  0  0  0  0  0  0  0  0  0
   -2.5243    4.5360   -4.5520 C   0  0  1  0  0  0  0  0  0  0  0  0
   -2.1231    5.8854   -4.7791 O   0  0  0  0  0  0  0  0  0  0  0  0
   -3.1928    4.4500   -3.1538 C   0  0  2  0  0  0  0  0  0  0  0  0
   -2.1896    4.6104   -2.1570 O   0  0  0  0  0  0  0  0  0  0  0  0
   -3.9276    3.0841   -2.9593 C   0  0  2  0  0  0  0  0  0  0  0  0
   -3.6134    2.1807   -4.0685 O   0  0  0  0  0  0  0  0  0  0  0  0
   -5.4691    3.1874   -2.9018 C   0  0  0  0  0  0  0  0  0  0  0  0
   -1.6420   -2.2824   -6.7505 C   0  0  1  0  0  0  0  0  0  0  0  0
   -0.9825   -3.5722   -6.4478 N   0  3  0  0  0  0  0  0  0  0  0  0
   -3.0311   -2.1793   -6.0679 C   0  0  1  0  0  0  0  0  0  0  0  0
   -3.7122   -0.7757   -6.2291 C   0  0  1  0  0  0  0  0  0  0  0  0
   -4.8222   -0.7000   -5.2947 O   0  0  0  0  0  0  0  0  0  0  0  0
   -2.7458    0.4253   -5.9162 C   0  0  1  0  0  0  0  0  0  0  0  0
   -1.3540    0.2524   -6.6062 C   0  0  1  0  0  0  0  0  0  0  0  0
   -0.3973    1.3000   -6.1950 N   0  3  0  0  0  0  0  0  0  0  0  0
   -0.7269   -1.1257   -6.2975 C   0  0  0  0  0  0  0  0  0  0  0  0
   -4.6033   -0.1541   -3.9617 C   0  0  1  0  0  0  0  0  0  0  0  0
   -5.9182   -0.2089   -3.1929 C   0  0  1  0  0  0  0  0  0  0  0  0
   -5.9148   -1.6698   -2.7636 C   0  0  1  0  0  0  0  0  0  0  0  0
   -4.4438   -1.8754   -2.3747 C   0  0  2  0  0  0  0  0  0  0  0  0
   -3.6877   -0.9884   -3.2333 O   0  0  0  0  0  0  0  0  0  0  0  0
   -3.9686   -3.3274   -2.5628 C   0  0  0  0  0  0  0  0  0  0  0  0
   -9.6689   -3.6009    0.2777 C   0  0  1  0  0  0  0  0  0  0  0  0
   -9.2969   -2.0950    0.3739 C   0  0  1  0  0  0  0  0  0  0  0  0
   -9.1644   -1.3841   -1.0039 C   0  0  2  0  0  0  0  0  0  0  0  0
   -8.2047   -2.1697   -1.9545 C   0  0  1  0  0  0  0  0  0  0  0  0
   -6.8099   -1.8989   -1.6375 O   0  0  0  0  0  0  0  0  0  0  0  0
   -9.6762   -4.0765   -1.2069 C   0  0  1  0  0  0  0  0  0  0  0  0
   -8.4501   -3.6281   -1.8717 O   0  0  0  0  0  0  0  0  0  0  0  0
   -9.7925   -5.6173   -1.3349 C   0  0  0  0  0  0  0  0  0  0  0  0
   -5.9782    4.1652   -1.9240 N   0  3  0  0  0  0  0  0  0  0  0  0
   -5.8564    0.6675   -2.0674 O   0  0  0  0  0  0  0  0  0  0  0  0
  -10.3057   -1.4303    1.1335 O   0  0  0  0  0  0  0  0  0  0  0  0
   -8.7134   -4.3513    1.0306 O   0  0  0  0  0  0  0  0  0  0  0  0
   -2.6012   -3.4607   -2.2150 O   0  0  0  0  0  0  0  0  0  0  0  0
   -3.8923   -3.1700   -6.6284 O   0  0  0  0  0  0  0  0  0  0  0  0
   -9.8416   -6.2992   -0.0285 N   0  3  0  0  0  0  0  0  0  0  0  0
   -8.7719    0.0381   -0.8443 N   0  3  0  0  0  0  0  0  0  0  0  0
  1  2  1  6  0  0  0
  1  3  1  0  0  0  0
  1 10  1  0  0  0  0
  3  4  1  6  0  0  0
  3  5  1  0  0  0  0
  5  6  1  6  0  0  0
  5  7  1  0  0  0  0
  7  8  1  1  0  0  0
  7  9  1  0  0  0  0
  9 10  1  0  0  0  0
  9 11  1  6  0  0  0
 11 35  1  0  0  0  0
 12 13  1  1  0  0  0
 12 14  1  0  0  0  0
 12 20  1  0  0  0  0
 14 15  1  0  0  0  0
 14 40  1  6  0  0  0
 15 16  1  1  0  0  0
 15 17  1  0  0  0  0
 17  2  1  6  0  0  0
 17 18  1  0  0  0  0
 18 19  1  1  0  0  0
 18 20  1  0  0  0  0
 21 16  1  6  0  0  0
 21 22  1  0  0  0  0
 21 25  1  0  0  0  0
 22 23  1  0  0  0  0
 22 36  1  1  0  0  0
 23 24  1  0  0  0  0
 23 31  1  1  0  0  0
 24 25  1  0  0  0  0
 24 26  1  6  0  0  0
 26 39  1  0  0  0  0
 27 28  1  0  0  0  0
 27 32  1  0  0  0  0
 27 38  1  1  0  0  0
 28 29  1  0  0  0  0
 28 37  1  1  0  0  0
 29 30  1  0  0  0  0
 29 42  1  1  0  0  0
 30 31  1  1  0  0  0
 30 33  1  0  0  0  0
 32 33  1  0  0  0  0
 32 34  1  1  0  0  0
 34 41  1  0  0  0  0
M  CHG  6   4   1  13   1  19   1  35   1  41   1  42   1
M  END
>  <CHROM.1>
133.61489305,103.28021865,-25.95933558,-68.07037416,-63.21587035,-52.31062407
-137.26728118,-165.16540545,68.59403042,91.52610634,-179.28916100,-169.14616275
-138.19207107,86.52780223,178.91316615,85.11320554,-82.32375314,73.88549929
164.65922218,-136.68013625,-1.23191745,-162.01469312,-5.02874203,-0.34685633
-3.36785328,0.54400308,0.70849607,0.12731881

>  <Name>


>  <RI>
0

>  <Rbt.Current_Directory>
/home/itssahil/PROJECTS/Mol_Feturizer/New_Systems/rnas/1ei2

>  <Rbt.Executable>
rbdock ($Id: //depot/dev/client3/rdock/2013.1/src/exe/rbdock.cxx#4 $)

>  <Rbt.Library>
libRbt.so (2013.1, Build901 2013/11/27)

>  <Rbt.Parameter_File>
/export/apps/rDock/src/rDock_2013.1_src/data/scripts/dock_solv.prm

>  <Rbt.Receptor>
prm/blind_docking_20.prm

>  <SCORE>
44.8012

>  <SCORE.INTER>
31.0096

>  <SCORE.INTER.CONST>
1

>  <SCORE.INTER.POLAR>
-6.26778

>  <SCORE.INTER.ROT>
9

>  <SCORE.INTER.SOLV>
60.9572

>  <SCORE.INTER.VDW>
11.6466

>  <SCORE.INTER.norm>
0.738324

>  <SCORE.INTRA>
2.92855

>  <SCORE.INTRA.DIHEDRAL>
9.44994

>  <SCORE.INTRA.DIHEDRAL.0>
40.8761

>  <SCORE.INTRA.POLAR>
-0.868254

>  <SCORE.INTRA.POLAR.0>
-0.0268208

>  <SCORE.INTRA.REPUL>
-0.551904

>  <SCORE.INTRA.REPUL.0>
0.641615

>  <SCORE.INTRA.SOLV>
-2.89579

>  <SCORE.INTRA.SOLV.lig_0>
-162.567

>  <SCORE.INTRA.VDW>
5.36306

>  <SCORE.INTRA.VDW.0>
-4.80338

>  <SCORE.INTRA.norm>
0.0697274

>  <SCORE.RESTR>
10.863

>  <SCORE.RESTR.CAVITY>
10.863

>  <SCORE.RESTR.norm>
0.258643

>  <SCORE.SYSTEM>
0

>  <SCORE.SYSTEM.CONST>
0

>  <SCORE.SYSTEM.DIHEDRAL>
0

>  <SCORE.SYSTEM.SOLV>
0

>  <SCORE.SYSTEM.norm>
0

>  <SCORE.heavy>
42

>  <SCORE.norm>
1.0667

>  <RMSD>
8.677

$$$$

 OpenBabel11021811393D
libRbt.so/2013.1/901 2013/11/27
 42 45  0  0  0  0  0  0  0  0999 V2000
   -3.5752    0.7820   -4.6275 C   0  0  2  0  0  0  0  0  0  0  0  0
   -4.3600    2.0064   -4.7643 O   0  0  0  0  0  0  0  0  0  0  0  0
   -2.1667    0.9238   -5.2906 C   0  0  2  0  0  0  0  0  0  0  0  0
   -1.8360    2.3391   -5.5747 N   0  3  0  0  0  0  0  0  0  0  0  0
   -2.0831    0.0709   -6.5924 C   0  0  1  0  0  0  0  0  0  0  0  0
   -0.7913    0.2001   -7.1824 O   0  0  0  0  0  0  0  0  0  0  0  0
   -2.3489   -1.4329   -6.3143 C   0  0  2  0  0  0  0  0  0  0  0  0
   -2.5455   -2.0995   -7.5563 O   0  0  0  0  0  0  0  0  0  0  0  0
   -3.6001   -1.6278   -5.3977 C   0  0  2  0  0  0  0  0  0  0  0  0
   -4.2972   -0.3521   -5.2190 O   0  0  0  0  0  0  0  0  0  0  0  0
   -3.2807   -2.1548   -3.9798 C   0  0  0  0  0  0  0  0  0  0  0  0
   -8.3824    3.5590   -4.5921 C   0  0  1  0  0  0  0  0  0  0  0  0
   -9.8507    3.6741   -4.4463 N   0  3  0  0  0  0  0  0  0  0  0  0
   -7.6979    3.2518   -3.2344 C   0  0  1  0  0  0  0  0  0  0  0  0
   -6.1594    2.9703   -3.3514 C   0  0  1  0  0  0  0  0  0  0  0  0
   -5.7084    2.3869   -2.0995 O   0  0  0  0  0  0  0  0  0  0  0  0
   -5.7963    1.9621   -4.5028 C   0  0  1  0  0  0  0  0  0  0  0  0
   -6.5366    2.3043   -5.8362 C   0  0  1  0  0  0  0  0  0  0  0  0
   -6.3143    1.2763   -6.8733 N   0  3  0  0  0  0  0  0  0  0  0  0
   -8.0595    2.4588   -5.6245 C   0  0  0  0  0  0  0  0  0  0  0  0
   -4.4607    2.8442   -1.5020 C   0  0  1  0  0  0  0  0  0  0  0  0
   -4.7663    4.0168   -0.5777 C   0  0  1  0  0  0  0  0  0  0  0  0
   -5.2594    3.2654    0.6514 C   0  0  1  0  0  0  0  0  0  0  0  0
   -4.2740    2.0895    0.7121 C   0  0  2  0  0  0  0  0  0  0  0  0
   -3.9119    1.8152   -0.6623 O   0  0  0  0  0  0  0  0  0  0  0  0
   -4.8772    0.8315    1.3625 C   0  0  0  0  0  0  0  0  0  0  0  0
   -3.1825    4.3780    5.1082 C   0  0  1  0  0  0  0  0  0  0  0  0
   -4.4386    5.2211    4.7520 C   0  0  1  0  0  0  0  0  0  0  0  0
   -5.6572    4.3768    4.2795 C   0  0  2  0  0  0  0  0  0  0  0  0
   -5.2551    3.4007    3.1273 C   0  0  1  0  0  0  0  0  0  0  0  0
   -5.1900    4.0928    1.8482 O   0  0  0  0  0  0  0  0  0  0  0  0
   -3.4065    2.8750    4.7601 C   0  0  1  0  0  0  0  0  0  0  0  0
   -3.9481    2.7610    3.4036 O   0  0  0  0  0  0  0  0  0  0  0  0
   -2.1022    2.0427    4.8610 C   0  0  0  0  0  0  0  0  0  0  0  0
   -2.8106   -3.5508   -3.9402 N   0  3  0  0  0  0  0  0  0  0  0  0
   -3.5665    4.7403   -0.3025 O   0  0  0  0  0  0  0  0  0  0  0  0
   -4.8220    5.9665    5.9068 O   0  0  0  0  0  0  0  0  0  0  0  0
   -2.0696    4.8930    4.3740 O   0  0  0  0  0  0  0  0  0  0  0  0
   -4.9374   -0.2378    0.4342 O   0  0  0  0  0  0  0  0  0  0  0  0
   -7.8920    4.3639   -2.3609 O   0  0  0  0  0  0  0  0  0  0  0  0
   -2.3339    0.5938    4.7165 N   0  3  0  0  0  0  0  0  0  0  0  0
   -6.8086    5.2412    3.9199 N   0  3  0  0  0  0  0  0  0  0  0  0
  1  2  1  6  0  0  0
  1  3  1  0  0  0  0
  1 10  1  0  0  0  0
  3  4  1  6  0  0  0
  3  5  1  0  0  0  0
  5  6  1  1  0  0  0
  5  7  1  0  0  0  0
  7  8  1  6  0  0  0
  7  9  1  0  0  0  0
  9 10  1  0  0  0  0
  9 11  1  1  0  0  0
 11 35  1  0  0  0  0
 12 13  1  1  0  0  0
 12 14  1  0  0  0  0
 12 20  1  0  0  0  0
 14 15  1  0  0  0  0
 14 40  1  1  0  0  0
 15 16  1  1  0  0  0
 15 17  1  0  0  0  0
 17  2  1  6  0  0  0
 17 18  1  0  0  0  0
 18 19  1  6  0  0  0
 18 20  1  0  0  0  0
 21 16  1  1  0  0  0
 21 22  1  0  0  0  0
 21 25  1  0  0  0  0
 22 23  1  0  0  0  0
 22 36  1  1  0  0  0
 23 24  1  0  0  0  0
 23 31  1  1  0  0  0
 24 25  1  0  0  0  0
 24 26  1  6  0  0  0
 26 39  1  0  0  0  0
 27 28  1  0  0  0  0
 27 32  1  0  0  0  0
 27 38  1  6  0  0  0
 28 29  1  0  0  0  0
 28 37  1  1  0  0  0
 29 30  1  0  0  0  0
 29 42  1  6  0  0  0
 30 31  1  6  0  0  0
 30 33  1  0  0  0  0
 32 33  1  0  0  0  0
 32 34  1  6  0  0  0
 34 41  1  0  0  0  0
M  CHG  6   4   1  13   1  19   1  35   1  41   1  42   1
M  END
>  <CHROM.1>
165.25100764,121.37305151,-126.82601434,56.69365762,59.44638599,-69.28387869
-61.21073509,-159.80561290,173.48812833,-136.46569076,89.60647687,126.27457393
-63.66317404,-162.69686563,116.61233601,-60.32297513,-62.36920453,-62.74185142
-175.05695383,-160.63683198,172.09813674,-176.74165552,-4.53946849,2.09536800
-1.38453237,-1.54477133,-0.65130038,1.22956641

>  <Name>


>  <RI>
0

>  <Rbt.Current_Directory>
/home/itssahil/PROJECTS/Mol_Feturizer/New_Systems/rnas/1ei2

>  <Rbt.Executable>
rbdock ($Id: //depot/dev/client3/rdock/2013.1/src/exe/rbdock.cxx#4 $)

>  <Rbt.Library>
libRbt.so (2013.1, Build901 2013/11/27)

>  <Rbt.Parameter_File>
/export/apps/rDock/src/rDock_2013.1_src/data/scripts/dock_solv.prm

>  <Rbt.Receptor>
prm/pocket_docking_6.prm

>  <SCORE>
-45.9578

>  <SCORE.INTER>
-30.6823

>  <SCORE.INTER.CONST>
1

>  <SCORE.INTER.POLAR>
-5.51751

>  <SCORE.INTER.ROT>
9

>  <SCORE.INTER.SOLV>
31.557

>  <SCORE.INTER.VDW>
-22.1821

>  <SCORE.INTER.norm>
-0.73053

>  <SCORE.INTRA>
-15.2756

>  <SCORE.INTRA.DIHEDRAL>
-5.20074

>  <SCORE.INTRA.DIHEDRAL.0>
40.8761

>  <SCORE.INTRA.POLAR>
-1.53127

>  <SCORE.INTRA.POLAR.0>
-0.0268208

>  <SCORE.INTRA.REPUL>
-0.641615

>  <SCORE.INTRA.REPUL.0>
0.641615

>  <SCORE.INTRA.SOLV>
-13.077

>  <SCORE.INTRA.SOLV.lig_0>
-162.567

>  <SCORE.INTRA.VDW>
2.27773

>  <SCORE.INTRA.VDW.0>
-4.80338

>  <SCORE.INTRA.norm>
-0.363704

>  <SCORE.RESTR>
0

>  <SCORE.RESTR.CAVITY>
0

>  <SCORE.RESTR.norm>
0

>  <SCORE.SYSTEM>
0

>  <SCORE.SYSTEM.CONST>
0

>  <SCORE.SYSTEM.DIHEDRAL>
0

>  <SCORE.SYSTEM.SOLV>
0

>  <SCORE.SYSTEM.norm>
0

>  <SCORE.heavy>
42

>  <SCORE.norm>
-1.09423

>  <RMSD>
8.680

$$$$

 OpenBabel11021811393D
libRbt.so/2013.1/901 2013/11/27
 42 45  0  0  0  0  0  0  0  0999 V2000
   -4.1557    1.3866   -4.9659 C   0  0  2  0  0  0  0  0  0  0  0  0
   -5.5998    1.1717   -5.0101 O   0  0  0  0  0  0  0  0  0  0  0  0
   -3.4133    0.1764   -4.3116 C   0  0  2  0  0  0  0  0  0  0  0  0
   -4.2855   -1.0171   -4.2230 N   0  3  0  0  0  0  0  0  0  0  0  0
   -2.8686    0.5613   -2.9030 C   0  0  1  0  0  0  0  0  0  0  0  0
   -2.1851   -0.5466   -2.3209 O   0  0  0  0  0  0  0  0  0  0  0  0
   -1.8884    1.7629   -2.9727 C   0  0  2  0  0  0  0  0  0  0  0  0
   -1.6598    2.2432   -1.6526 O   0  0  0  0  0  0  0  0  0  0  0  0
   -2.4594    2.9096   -3.8686 C   0  0  2  0  0  0  0  0  0  0  0  0
   -3.8488    2.6209   -4.2314 O   0  0  0  0  0  0  0  0  0  0  0  0
   -1.6963    3.1273   -5.1954 C   0  0  0  0  0  0  0  0  0  0  0  0
   -6.6240    5.3398   -5.4554 C   0  0  1  0  0  0  0  0  0  0  0  0
   -7.3476    6.5961   -5.7530 N   0  3  0  0  0  0  0  0  0  0  0  0
   -7.2471    4.5972   -4.2445 C   0  0  1  0  0  0  0  0  0  0  0  0
   -6.6169    3.1863   -3.9755 C   0  0  1  0  0  0  0  0  0  0  0  0
   -7.4817    2.4716   -3.0523 O   0  0  0  0  0  0  0  0  0  0  0  0
   -6.4791    2.3081   -5.2731 C   0  0  1  0  0  0  0  0  0  0  0  0
   -5.8733    3.1162   -6.4660 C   0  0  1  0  0  0  0  0  0  0  0  0
   -5.8811    2.3398   -7.7225 N   0  3  0  0  0  0  0  0  0  0  0  0
   -6.6336    4.4395   -6.7084 C   0  0  0  0  0  0  0  0  0  0  0  0
   -6.9517    2.0254   -1.7706 C   0  0  1  0  0  0  0  0  0  0  0  0
   -6.4818    3.2460   -0.9883 C   0  0  1  0  0  0  0  0  0  0  0  0
   -7.8138    3.7402   -0.4406 C   0  0  1  0  0  0  0  0  0  0  0  0
   -8.4965    2.4219   -0.0492 C   0  0  2  0  0  0  0  0  0  0  0  0
   -7.9996    1.4349   -0.9843 O   0  0  0  0  0  0  0  0  0  0  0  0
  -10.0324    2.4946   -0.1216 C   0  0  0  0  0  0  0  0  0  0  0  0
  -10.8049    6.2822    2.0766 C   0  0  1  0  0  0  0  0  0  0  0  0
   -9.4486    6.1842    2.8290 C   0  0  1  0  0  0  0  0  0  0  0  0
   -8.2245    6.6642    1.9969 C   0  0  2  0  0  0  0  0  0  0  0  0
   -8.1784    5.9599    0.6027 C   0  0  1  0  0  0  0  0  0  0  0  0
   -7.6283    4.6162    0.7084 O   0  0  0  0  0  0  0  0  0  0  0  0
  -10.5866    6.7086    0.5931 C   0  0  1  0  0  0  0  0  0  0  0  0
   -9.5284    5.8887   -0.0024 O   0  0  0  0  0  0  0  0  0  0  0  0
  -11.8760    6.5753   -0.2576 C   0  0  0  0  0  0  0  0  0  0  0  0
   -2.4048    3.9704   -6.1745 N   0  3  0  0  0  0  0  0  0  0  0  0
   -5.6033    2.8384    0.0609 O   0  0  0  0  0  0  0  0  0  0  0  0
   -9.5328    6.9768    4.0127 O   0  0  0  0  0  0  0  0  0  0  0  0
  -11.4461    5.0060    2.1330 O   0  0  0  0  0  0  0  0  0  0  0  0
  -10.4492    3.3171   -1.1979 O   0  0  0  0  0  0  0  0  0  0  0  0
   -7.0782    5.4010   -3.0771 O   0  0  0  0  0  0  0  0  0  0  0  0
  -11.6017    6.2286   -1.6642 N   0  3  0  0  0  0  0  0  0  0  0  0
   -6.9590    6.5103    2.7565 N   0  3  0  0  0  0  0  0  0  0  0  0
  1  2  1  1  0  0  0
  1  3  1  0  0  0  0
  1 10  1  0  0  0  0
  3  4  1  1  0  0  0
  3  5  1  0  0  0  0
  5  6  1  6  0  0  0
  5  7  1  0  0  0  0
  7  8  1  1  0  0  0
  7  9  1  0  0  0  0
  9 10  1  0  0  0  0
  9 11  1  6  0  0  0
 11 35  1  0  0  0  0
 12 13  1  6  0  0  0
 12 14  1  0  0  0  0
 12 20  1  0  0  0  0
 14 15  1  0  0  0  0
 14 40  1  1  0  0  0
 15 16  1  1  0  0  0
 15 17  1  0  0  0  0
 17  2  1  1  0  0  0
 17 18  1  0  0  0  0
 18 19  1  6  0  0  0
 18 20  1  0  0  0  0
 21 16  1  6  0  0  0
 21 22  1  0  0  0  0
 21 25  1  0  0  0  0
 22 23  1  0  0  0  0
 22 36  1  1  0  0  0
 23 24  1  0  0  0  0
 23 31  1  1  0  0  0
 24 25  1  0  0  0  0
 24 26  1  6  0  0  0
 26 39  1  0  0  0  0
 27 28  1  0  0  0  0
 27 32  1  0  0  0  0
 27 38  1  6  0  0  0
 28 29  1  0  0  0  0
 28 37  1  1  0  0  0
 29 30  1  0  0  0  0
 29 42  1  1  0  0  0
 30 31  1  1  0  0  0
 30 33  1  0  0  0  0
 32 33  1  0  0  0  0
 32 34  1  6  0  0  0
 34 41  1  0  0  0  0
M  CHG  6   4   1  13   1  19   1  35   1  41   1  42   1
M  END
>  <CHROM.1>
164.90964698,-76.99113574,-157.65937252,172.00536028,-179.16917454,166.21434929
-22.80764544,172.32590207,-61.33402038,-120.42386921,60.31816469,62.40481514
66.57632750,121.88456626,35.42811833,175.26692639,-59.41065040,-60.61906103
179.97010518,166.08407921,-147.86669580,-174.52724043,-6.74876558,3.65188096
-2.11701929,0.67084555,0.59042281,-1.53200226

>  <Name>


>  <RI>
0

>  <Rbt.Current_Directory>
/home/itssahil/PROJECTS/Mol_Feturizer/New_Systems/rnas/1ei2

>  <Rbt.Executable>
rbdock ($Id: //depot/dev/client3/rdock/2013.1/src/exe/rbdock.cxx#4 $)

>  <Rbt.Library>
libRbt.so (2013.1, Build901 2013/11/27)

>  <Rbt.Parameter_File>
/export/apps/rDock/src/rDock_2013.1_src/data/scripts/dock_solv.prm

>  <Rbt.Receptor>
prm/pocket_docking_3.prm

>  <SCORE>
-32.7027

>  <SCORE.INTER>
-13.4943

>  <SCORE.INTER.CONST>
1

>  <SCORE.INTER.POLAR>
-2.79166

>  <SCORE.INTER.ROT>
9

>  <SCORE.INTER.SOLV>
20.7914

>  <SCORE.INTER.VDW>
-16.2211

>  <SCORE.INTER.norm>
-0.321292

>  <SCORE.INTRA>
-19.2903

>  <SCORE.INTRA.DIHEDRAL>
-12.4749

>  <SCORE.INTRA.DIHEDRAL.0>
40.8761

>  <SCORE.INTRA.POLAR>
-1.40148

>  <SCORE.INTRA.POLAR.0>
-0.0268208

>  <SCORE.INTRA.REPUL>
-0.550419

>  <SCORE.INTRA.REPUL.0>
0.641615

>  <SCORE.INTRA.SOLV>
-7.15942

>  <SCORE.INTRA.SOLV.lig_0>
-162.567

>  <SCORE.INTRA.VDW>
-1.95598

>  <SCORE.INTRA.VDW.0>
-4.80338

>  <SCORE.INTRA.norm>
-0.459292

>  <SCORE.RESTR>
0.0818142

>  <SCORE.RESTR.CAVITY>
0.0818142

>  <SCORE.RESTR.norm>
0.00194796

>  <SCORE.SYSTEM>
0

>  <SCORE.SYSTEM.CONST>
0

>  <SCORE.SYSTEM.DIHEDRAL>
0

>  <SCORE.SYSTEM.SOLV>
0

>  <SCORE.SYSTEM.norm>
0

>  <SCORE.heavy>
42

>  <SCORE.norm>
-0.778636

>  <RMSD>
8.687

$$$$

 OpenBabel11021811393D
libRbt.so/2013.1/901 2013/11/27
 42 45  0  0  0  0  0  0  0  0999 V2000
   -2.7480    1.8079   -4.7354 C   0  0  2  0  0  0  0  0  0  0  0  0
   -2.3365    1.0193   -5.8941 O   0  0  0  0  0  0  0  0  0  0  0  0
   -4.1209    2.5149   -4.9783 C   0  0  2  0  0  0  0  0  0  0  0  0
   -4.8291    1.9468   -6.1483 N   0  3  0  0  0  0  0  0  0  0  0  0
   -3.9256    4.0515   -5.1505 C   0  0  1  0  0  0  0  0  0  0  0  0
   -5.1850    4.6863   -5.3611 O   0  0  0  0  0  0  0  0  0  0  0  0
   -3.2545    4.6904   -3.9052 C   0  0  2  0  0  0  0  0  0  0  0  0
   -2.8445    6.0128   -4.2350 O   0  0  0  0  0  0  0  0  0  0  0  0
   -2.0245    3.8509   -3.4302 C   0  0  2  0  0  0  0  0  0  0  0  0
   -1.7201    2.8050   -4.4094 O   0  0  0  0  0  0  0  0  0  0  0  0
   -2.2207    3.1367   -2.0732 C   0  0  0  0  0  0  0  0  0  0  0  0
   -1.8106   -3.0441   -7.2476 C   0  0  1  0  0  0  0  0  0  0  0  0
   -1.5688   -4.5037   -7.2858 N   0  3  0  0  0  0  0  0  0  0  0  0
   -3.1630   -2.7088   -6.5657 C   0  0  1  0  0  0  0  0  0  0  0  0
   -3.4044   -1.1726   -6.3615 C   0  0  1  0  0  0  0  0  0  0  0  0
   -4.5175   -1.0064   -5.4427 O   0  0  0  0  0  0  0  0  0  0  0  0
   -2.1654   -0.4237   -5.7464 C   0  0  1  0  0  0  0  0  0  0  0  0
   -0.8297   -0.8224   -6.4534 C   0  0  1  0  0  0  0  0  0  0  0  0
    0.3489   -0.2365   -5.7828 N   0  3  0  0  0  0  0  0  0  0  0  0
   -0.6442   -2.3555   -6.5086 C   0  0  0  0  0  0  0  0  0  0  0  0
   -4.3683   -0.1371   -4.2831 C   0  0  1  0  0  0  0  0  0  0  0  0
   -5.7419    0.0803   -3.6595 C   0  0  1  0  0  0  0  0  0  0  0  0
   -5.8816   -1.2119   -2.8664 C   0  0  1  0  0  0  0  0  0  0  0  0
   -4.4666   -1.3797   -2.2948 C   0  0  2  0  0  0  0  0  0  0  0  0
   -3.5794   -0.7920   -3.2762 O   0  0  0  0  0  0  0  0  0  0  0  0
   -4.0864   -2.8511   -2.0506 C   0  0  0  0  0  0  0  0  0  0  0  0
  -10.1645   -1.3238    0.1608 C   0  0  1  0  0  0  0  0  0  0  0  0
   -9.9200   -0.4019   -1.0662 C   0  0  1  0  0  0  0  0  0  0  0  0
   -9.3232   -1.1346   -2.3024 C   0  0  2  0  0  0  0  0  0  0  0  0
   -8.0485   -1.9507   -1.9139 C   0  0  1  0  0  0  0  0  0  0  0  0
   -6.8802   -1.0881   -1.8130 O   0  0  0  0  0  0  0  0  0  0  0  0
   -9.6065   -2.7556   -0.1014 C   0  0  1  0  0  0  0  0  0  0  0  0
   -8.2429   -2.6617   -0.6291 O   0  0  0  0  0  0  0  0  0  0  0  0
   -9.6001   -3.6325    1.1773 C   0  0  0  0  0  0  0  0  0  0  0  0
   -1.1944    2.1261   -1.7624 N   0  3  0  0  0  0  0  0  0  0  0  0
   -5.7075    1.2204   -2.8007 O   0  0  0  0  0  0  0  0  0  0  0  0
  -11.1651    0.1851   -1.4427 O   0  0  0  0  0  0  0  0  0  0  0  0
   -9.5195   -0.7443    1.2971 O   0  0  0  0  0  0  0  0  0  0  0  0
   -2.6975   -2.9792   -1.7991 O   0  0  0  0  0  0  0  0  0  0  0  0
   -4.2224   -3.2336   -7.3655 O   0  0  0  0  0  0  0  0  0  0  0  0
   -9.1097   -5.0011    0.9317 N   0  3  0  0  0  0  0  0  0  0  0  0
   -9.0793   -0.1942   -3.4241 N   0  3  0  0  0  0  0  0  0  0  0  0
  1  2  1  6  0  0  0
  1  3  1  0  0  0  0
  1 10  1  0  0  0  0
  3  4  1  6  0  0  0
  3  5  1  0  0  0  0
  5  6  1  1  0  0  0
  5  7  1  0  0  0  0
  7  8  1  6  0  0  0
  7  9  1  0  0  0  0
  9 10  1  0  0  0  0
  9 11  1  1  0  0  0
 11 35  1  0  0  0  0
 12 13  1  1  0  0  0
 12 14  1  0  0  0  0
 12 20  1  0  0  0  0
 14 15  1  0  0  0  0
 14 40  1  6  0  0  0
 15 16  1  1  0  0  0
 15 17  1  0  0  0  0
 17  2  1  6  0  0  0
 17 18  1  0  0  0  0
 18 19  1  1  0  0  0
 18 20  1  0  0  0  0
 21 16  1  6  0  0  0
 21 22  1  0  0  0  0
 21 25  1  0  0  0  0
 22 23  1  0  0  0  0
 22 36  1  1  0  0  0
 23 24  1  0  0  0  0
 23 31  1  1  0  0  0
 24 25  1  0  0  0  0
 24 26  1  6  0  0  0
 26 39  1  0  0  0  0
 27 28  1  0  0  0  0
 27 32  1  0  0  0  0
 27 38  1  1  0  0  0
 28 29  1  0  0  0  0
 28 37  1  6  0  0  0
 29 30  1  0  0  0  0
 29 42  1  6  0  0  0
 30 31  1  1  0  0  0
 30 33  1  0  0  0  0
 32 33  1  0  0  0  0
 32 34  1  1  0  0  0
 34 41  1  0  0  0  0
M  CHG  6   4   1  13   1  19   1  35   1  41   1  42   1
M  END
>  <CHROM.1>
-118.39422296,102.69527126,40.21693572,-135.92966016,53.00275256,167.55252682
-50.41198588,-50.41153388,-59.49580240,128.83993281,168.64106665,125.00065325
-169.80346147,116.85228950,167.56665698,-68.21475376,38.80375287,61.52932462
-52.37547134,-108.25781734,178.37218027,57.93418581,-4.89904389,-0.22202394
-3.53925549,0.26751038,0.63059101,0.08913653

>  <Name>


>  <RI>
0

>  <Rbt.Current_Directory>
/home/itssahil/PROJECTS/Mol_Feturizer/New_Systems/rnas/1ei2

>  <Rbt.Executable>
rbdock ($Id: //depot/dev/client3/rdock/2013.1/src/exe/rbdock.cxx#4 $)

>  <Rbt.Library>
libRbt.so (2013.1, Build901 2013/11/27)

>  <Rbt.Parameter_File>
/export/apps/rDock/src/rDock_2013.1_src/data/scripts/dock_solv.prm

>  <Rbt.Receptor>
prm/blind_docking_60.prm

>  <SCORE>
62.5435

>  <SCORE.INTER>
46.7176

>  <SCORE.INTER.CONST>
1

>  <SCORE.INTER.POLAR>
-3.52486

>  <SCORE.INTER.ROT>
9

>  <SCORE.INTER.SOLV>
56.6561

>  <SCORE.INTER.VDW>
14.4092

>  <SCORE.INTER.norm>
1.11232

>  <SCORE.INTRA>
7.42285

>  <SCORE.INTRA.DIHEDRAL>
8.82909

>  <SCORE.INTRA.DIHEDRAL.0>
40.8761

>  <SCORE.INTRA.POLAR>
-0.00329655

>  <SCORE.INTRA.POLAR.0>
-0.0268208

>  <SCORE.INTRA.REPUL>
-0.631806

>  <SCORE.INTRA.REPUL.0>
0.641615

>  <SCORE.INTRA.SOLV>
-5.8727

>  <SCORE.INTRA.SOLV.lig_0>
-162.567

>  <SCORE.INTRA.VDW>
9.1149

>  <SCORE.INTRA.VDW.0>
-4.80338

>  <SCORE.INTRA.norm>
0.176735

>  <SCORE.RESTR>
8.40302

>  <SCORE.RESTR.CAVITY>
8.40302

>  <SCORE.RESTR.norm>
0.200072

>  <SCORE.SYSTEM>
0

>  <SCORE.SYSTEM.CONST>
0

>  <SCORE.SYSTEM.DIHEDRAL>
0

>  <SCORE.SYSTEM.SOLV>
0

>  <SCORE.SYSTEM.norm>
0

>  <SCORE.heavy>
42

>  <SCORE.norm>
1.48913

>  <RMSD>
8.705

$$$$

 OpenBabel11021811393D
libRbt.so/2013.1/901 2013/11/27
 42 45  0  0  0  0  0  0  0  0999 V2000
   -2.8194    2.3732   -5.5138 C   0  0  2  0  0  0  0  0  0  0  0  0
   -2.2135    1.1776   -4.9333 O   0  0  0  0  0  0  0  0  0  0  0  0
   -2.6595    3.6132   -4.5754 C   0  0  2  0  0  0  0  0  0  0  0  0
   -1.6498    3.3731   -3.5191 N   0  3  0  0  0  0  0  0  0  0  0  0
   -4.0292    4.0052   -3.9435 C   0  0  1  0  0  0  0  0  0  0  0  0
   -3.8727    5.1429   -3.0981 O   0  0  0  0  0  0  0  0  0  0  0  0
   -5.0893    4.3392   -5.0269 C   0  0  2  0  0  0  0  0  0  0  0  0
   -6.3701    4.4015   -4.4093 O   0  0  0  0  0  0  0  0  0  0  0  0
   -5.0948    3.2673   -6.1647 C   0  0  2  0  0  0  0  0  0  0  0  0
   -4.2413    2.1359   -5.7950 O   0  0  0  0  0  0  0  0  0  0  0  0
   -4.5785    3.7779   -7.5296 C   0  0  0  0  0  0  0  0  0  0  0  0
   -2.8364   -1.3174   -8.3984 C   0  0  1  0  0  0  0  0  0  0  0  0
   -2.8662   -2.4699   -9.3265 N   0  3  0  0  0  0  0  0  0  0  0  0
   -3.8204   -1.5138   -7.2153 C   0  0  1  0  0  0  0  0  0  0  0  0
   -3.7239   -0.3951   -6.1204 C   0  0  1  0  0  0  0  0  0  0  0  0
   -4.4364   -0.8529   -4.9398 O   0  0  0  0  0  0  0  0  0  0  0  0
   -2.2463   -0.0728   -5.6876 C   0  0  1  0  0  0  0  0  0  0  0  0
   -1.2966    0.0856   -6.9188 C   0  0  1  0  0  0  0  0  0  0  0  0
    0.1155    0.2398   -6.5136 N   0  3  0  0  0  0  0  0  0  0  0  0
   -1.3966   -1.1199   -7.8804 C   0  0  0  0  0  0  0  0  0  0  0  0
   -4.6226    0.0552   -3.8158 C   0  0  1  0  0  0  0  0  0  0  0  0
   -6.0006   -0.1937   -3.2139 C   0  0  1  0  0  0  0  0  0  0  0  0
   -5.7036   -1.4253   -2.3694 C   0  0  1  0  0  0  0  0  0  0  0  0
   -4.3309   -1.0730   -1.7789 C   0  0  2  0  0  0  0  0  0  0  0  0
   -3.6791   -0.2502   -2.7758 O   0  0  0  0  0  0  0  0  0  0  0  0
   -3.4718   -2.3125   -1.4708 C   0  0  0  0  0  0  0  0  0  0  0  0
   -9.8418   -2.7720    0.5605 C   0  0  1  0  0  0  0  0  0  0  0  0
   -9.5407   -1.3084    0.1333 C   0  0  1  0  0  0  0  0  0  0  0  0
   -9.1548   -1.1509   -1.3659 C   0  0  2  0  0  0  0  0  0  0  0  0
   -8.0011   -2.1294   -1.7576 C   0  0  1  0  0  0  0  0  0  0  0  0
   -6.7070   -1.6170   -1.3310 O   0  0  0  0  0  0  0  0  0  0  0  0
   -9.5366   -3.7633   -0.6033 C   0  0  1  0  0  0  0  0  0  0  0  0
   -8.2154   -3.4695   -1.1643 O   0  0  0  0  0  0  0  0  0  0  0  0
   -9.5798   -5.2444   -0.1467 C   0  0  0  0  0  0  0  0  0  0  0  0
   -3.1507    4.1418   -7.5436 N   0  3  0  0  0  0  0  0  0  0  0  0
   -6.3812    0.9179   -2.4026 O   0  0  0  0  0  0  0  0  0  0  0  0
  -10.7005   -0.5175    0.3898 O   0  0  0  0  0  0  0  0  0  0  0  0
   -9.0357   -3.0853    1.6985 O   0  0  0  0  0  0  0  0  0  0  0  0
   -3.2754   -3.0938   -2.6368 O   0  0  0  0  0  0  0  0  0  0  0  0
   -5.1530   -1.5369   -7.7261 O   0  0  0  0  0  0  0  0  0  0  0  0
   -9.7748   -6.1841   -1.2660 N   0  3  0  0  0  0  0  0  0  0  0  0
   -8.8440    0.2612   -1.7000 N   0  3  0  0  0  0  0  0  0  0  0  0
  1  2  1  1  0  0  0
  1  3  1  0  0  0  0
  1 10  1  0  0  0  0
  3  4  1  1  0  0  0
  3  5  1  0  0  0  0
  5  6  1  1  0  0  0
  5  7  1  0  0  0  0
  7  8  1  1  0  0  0
  7  9  1  0  0  0  0
  9 10  1  0  0  0  0
  9 11  1  6  0  0  0
 11 35  1  0  0  0  0
 12 13  1  6  0  0  0
 12 14  1  0  0  0  0
 12 20  1  0  0  0  0
 14 15  1  0  0  0  0
 14 40  1  6  0  0  0
 15 16  1  1  0  0  0
 15 17  1  0  0  0  0
 17  2  1  6  0  0  0
 17 18  1  0  0  0  0
 18 19  1  1  0  0  0
 18 20  1  0  0  0  0
 21 16  1  6  0  0  0
 21 22  1  0  0  0  0
 21 25  1  0  0  0  0
 22 23  1  0  0  0  0
 22 36  1  1  0  0  0
 23 24  1  0  0  0  0
 23 31  1  1  0  0  0
 24 25  1  0  0  0  0
 24 26  1  6  0  0  0
 26 39  1  0  0  0  0
 27 28  1  0  0  0  0
 27 32  1  0  0  0  0
 27 38  1  1  0  0  0
 28 29  1  0  0  0  0
 28 37  1  6  0  0  0
 29 30  1  0  0  0  0
 29 42  1  1  0  0  0
 30 31  1  1  0  0  0
 30 33  1  0  0  0  0
 32 33  1  0  0  0  0
 32 34  1  1  0  0  0
 34 41  1  0  0  0  0
M  CHG  6   4   1  13   1  19   1  35   1  41   1  42   1
M  END
>  <CHROM.1>
-178.83007193,-52.91126272,-50.96613931,-71.20134092,66.83041046,65.96433361
-167.96180969,-41.27889648,-58.53486783,-173.61962634,143.00903299,89.59136293
-57.12736710,74.89329774,57.76998281,66.07137400,171.02286779,-94.70156681
-157.89611714,-122.06201812,159.51292834,80.51627440,-5.23440528,-0.12662577
-3.78991845,0.42044925,0.80042780,0.10062194

>  <Name>


>  <RI>
0

>  <Rbt.Current_Directory>
/home/itssahil/PROJECTS/Mol_Feturizer/New_Systems/rnas/1ei2

>  <Rbt.Executable>
rbdock ($Id: //depot/dev/client3/rdock/2013.1/src/exe/rbdock.cxx#4 $)

>  <Rbt.Library>
libRbt.so (2013.1, Build901 2013/11/27)

>  <Rbt.Parameter_File>
/export/apps/rDock/src/rDock_2013.1_src/data/scripts/dock_solv.prm

>  <Rbt.Receptor>
prm/blind_docking_60.prm

>  <SCORE>
51.9829

>  <SCORE.INTER>
52.1445

>  <SCORE.INTER.CONST>
1

>  <SCORE.INTER.POLAR>
-6.34279

>  <SCORE.INTER.ROT>
9

>  <SCORE.INTER.SOLV>
61.0917

>  <SCORE.INTER.VDW>
25.9417

>  <SCORE.INTER.norm>
1.24153

>  <SCORE.INTRA>
-11.1507

>  <SCORE.INTRA.DIHEDRAL>
-13.5433

>  <SCORE.INTRA.DIHEDRAL.0>
40.8761

>  <SCORE.INTRA.POLAR>
-0.731276

>  <SCORE.INTRA.POLAR.0>
-0.0268208

>  <SCORE.INTRA.REPUL>
-0.641615

>  <SCORE.INTRA.REPUL.0>
0.641615

>  <SCORE.INTRA.SOLV>
-4.93243

>  <SCORE.INTRA.SOLV.lig_0>
-162.567

>  <SCORE.INTRA.VDW>
3.78161

>  <SCORE.INTRA.VDW.0>
-4.80338

>  <SCORE.INTRA.norm>
-0.265492

>  <SCORE.RESTR>
10.9891

>  <SCORE.RESTR.CAVITY>
10.9891

>  <SCORE.RESTR.norm>
0.261645

>  <SCORE.SYSTEM>
0

>  <SCORE.SYSTEM.CONST>
0

>  <SCORE.SYSTEM.DIHEDRAL>
0

>  <SCORE.SYSTEM.SOLV>
0

>  <SCORE.SYSTEM.norm>
0

>  <SCORE.heavy>
42

>  <SCORE.norm>
1.23769

>  <RMSD>
8.705

$$$$

 OpenBabel11021811393D
libRbt.so/2013.1/901 2013/11/27
 42 45  0  0  0  0  0  0  0  0999 V2000
   -2.7915    0.1553   -5.9364 C   0  0  2  0  0  0  0  0  0  0  0  0
   -2.5301   -1.1205   -6.5979 O   0  0  0  0  0  0  0  0  0  0  0  0
   -4.1973    0.7236   -6.3168 C   0  0  2  0  0  0  0  0  0  0  0  0
   -5.0501   -0.3069   -6.9523 N   0  3  0  0  0  0  0  0  0  0  0  0
   -4.0552    1.9656   -7.2475 C   0  0  1  0  0  0  0  0  0  0  0  0
   -5.3427    2.4810   -7.5792 O   0  0  0  0  0  0  0  0  0  0  0  0
   -3.2300    3.0967   -6.5773 C   0  0  2  0  0  0  0  0  0  0  0  0
   -2.8932    4.0638   -7.5658 O   0  0  0  0  0  0  0  0  0  0  0  0
   -1.9313    2.5344   -5.9135 C   0  0  2  0  0  0  0  0  0  0  0  0
   -1.7464    1.1284   -6.2799 O   0  0  0  0  0  0  0  0  0  0  0  0
   -1.9253    2.5889   -4.3685 C   0  0  0  0  0  0  0  0  0  0  0  0
   -3.0884   -4.8448   -4.4913 C   0  0  1  0  0  0  0  0  0  0  0  0
   -2.8460   -6.0976   -3.7415 N   0  3  0  0  0  0  0  0  0  0  0  0
   -2.7867   -3.5948   -3.6237 C   0  0  1  0  0  0  0  0  0  0  0  0
   -2.8811   -2.2413   -4.4106 C   0  0  1  0  0  0  0  0  0  0  0  0
   -2.2717   -1.2014   -3.5994 O   0  0  0  0  0  0  0  0  0  0  0  0
   -2.1272   -2.2694   -5.7909 C   0  0  1  0  0  0  0  0  0  0  0  0
   -2.4470   -3.5635   -6.6069 C   0  0  1  0  0  0  0  0  0  0  0  0
   -1.6282   -3.6629   -7.8323 N   0  3  0  0  0  0  0  0  0  0  0  0
   -2.2223   -4.8418   -5.7682 C   0  0  0  0  0  0  0  0  0  0  0  0
   -2.9468    0.0810   -3.4494 C   0  0  1  0  0  0  0  0  0  0  0  0
   -4.4417   -0.1726   -3.2951 C   0  0  1  0  0  0  0  0  0  0  0  0
   -4.4969   -0.5492   -1.8208 C   0  0  1  0  0  0  0  0  0  0  0  0
   -3.5187    0.4616   -1.2056 C   0  0  2  0  0  0  0  0  0  0  0  0
   -2.5287    0.7169   -2.2304 O   0  0  0  0  0  0  0  0  0  0  0  0
   -2.8368   -0.0611    0.0715 C   0  0  0  0  0  0  0  0  0  0  0  0
   -9.6078    0.2680   -0.9547 C   0  0  1  0  0  0  0  0  0  0  0  0
   -8.4837    1.1707   -0.3744 C   0  0  1  0  0  0  0  0  0  0  0  0
   -7.3822    1.5546   -1.4043 C   0  0  2  0  0  0  0  0  0  0  0  0
   -6.8119    0.2878   -2.1196 C   0  0  1  0  0  0  0  0  0  0  0  0
   -5.8414   -0.3999   -1.2803 O   0  0  0  0  0  0  0  0  0  0  0  0
   -9.2758   -0.1607   -2.4163 C   0  0  1  0  0  0  0  0  0  0  0  0
   -7.8972   -0.6525   -2.4821 O   0  0  0  0  0  0  0  0  0  0  0  0
  -10.2354   -1.2579   -2.9445 C   0  0  0  0  0  0  0  0  0  0  0  0
   -0.8290    1.8340   -3.7364 N   0  3  0  0  0  0  0  0  0  0  0  0
   -5.1651    1.0305   -3.5555 O   0  0  0  0  0  0  0  0  0  0  0  0
   -9.0800    2.3685    0.1216 O   0  0  0  0  0  0  0  0  0  0  0  0
   -9.7370   -0.8854   -0.1205 O   0  0  0  0  0  0  0  0  0  0  0  0
   -2.7177   -1.4730    0.0391 O   0  0  0  0  0  0  0  0  0  0  0  0
   -3.7127   -3.5555   -2.5382 O   0  0  0  0  0  0  0  0  0  0  0  0
  -10.7231   -2.1541   -1.8802 N   0  3  0  0  0  0  0  0  0  0  0  0
   -6.3217    2.3838   -0.7797 N   0  3  0  0  0  0  0  0  0  0  0  0
  1  2  1  6  0  0  0
  1  3  1  0  0  0  0
  1 10  1  0  0  0  0
  3  4  1  6  0  0  0
  3  5  1  0  0  0  0
  5  6  1  1  0  0  0
  5  7  1  0  0  0  0
  7  8  1  6  0  0  0
  7  9  1  0  0  0  0
  9 10  1  0  0  0  0
  9 11  1  1  0  0  0
 11 35  1  0  0  0  0
 12 13  1  1  0  0  0
 12 14  1  0  0  0  0
 12 20  1  0  0  0  0
 14 15  1  0  0  0  0
 14 40  1  1  0  0  0
 15 16  1  1  0  0  0
 15 17  1  0  0  0  0
 17  2  1  6  0  0  0
 17 18  1  0  0  0  0
 18 19  1  6  0  0  0
 18 20  1  0  0  0  0
 21 16  1  1  0  0  0
 21 22  1  0  0  0  0
 21 25  1  0  0  0  0
 22 23  1  0  0  0  0
 22 36  1  1  0  0  0
 23 24  1  0  0  0  0
 23 31  1  1  0  0  0
 24 25  1  0  0  0  0
 24 26  1  1  0  0  0
 26 39  1  0  0  0  0
 27 28  1  0  0  0  0
 27 32  1  0  0  0  0
 27 38  1  1  0  0  0
 28 29  1  0  0  0  0
 28 37  1  6  0  0  0
 29 30  1  0  0  0  0
 29 42  1  1  0  0  0
 30 31  1  1  0  0  0
 30 33  1  0  0  0  0
 32 33  1  0  0  0  0
 32 34  1  1  0  0  0
 34 41  1  0  0  0  0
M  CHG  6   4   1  13   1  19   1  35   1  41   1  42   1
M  END
>  <CHROM.1>
-127.03811932,36.21747537,-172.68294342,-67.91195644,-175.17080831,168.92970516
-158.38066000,68.70160743,-61.27547480,-134.74445002,40.07859831,-47.81405700
-66.52747179,-10.73824831,29.14521115,51.18025667,-49.16378087,-45.89673357
-33.80637286,-120.84337663,-31.12496287,22.88943201,-4.59949411,-0.33951101
-3.68984173,0.03882538,0.67688325,-0.26552424

>  <Name>


>  <RI>
0

>  <Rbt.Current_Directory>
/home/itssahil/PROJECTS/Mol_Feturizer/New_Systems/rnas/1ei2

>  <Rbt.Executable>
rbdock ($Id: //depot/dev/client3/rdock/2013.1/src/exe/rbdock.cxx#4 $)

>  <Rbt.Library>
libRbt.so (2013.1, Build901 2013/11/27)

>  <Rbt.Parameter_File>
/export/apps/rDock/src/rDock_2013.1_src/data/scripts/dock_solv.prm

>  <Rbt.Receptor>
prm/blind_docking_20.prm

>  <SCORE>
6.75767

>  <SCORE.INTER>
-25.9422

>  <SCORE.INTER.CONST>
1

>  <SCORE.INTER.POLAR>
-6.60817

>  <SCORE.INTER.ROT>
9

>  <SCORE.INTER.SOLV>
52.1436

>  <SCORE.INTER.VDW>
-22.2487

>  <SCORE.INTER.norm>
-0.617671

>  <SCORE.INTRA>
18.1355

>  <SCORE.INTRA.DIHEDRAL>
4.80082

>  <SCORE.INTRA.DIHEDRAL.0>
40.8761

>  <SCORE.INTRA.POLAR>
-1.16349

>  <SCORE.INTRA.POLAR.0>
-0.0268208

>  <SCORE.INTRA.REPUL>
-0.641615

>  <SCORE.INTRA.REPUL.0>
0.641615

>  <SCORE.INTRA.SOLV>
2.86094

>  <SCORE.INTRA.SOLV.lig_0>
-162.567

>  <SCORE.INTRA.VDW>
21.4685

>  <SCORE.INTRA.VDW.0>
-4.80338

>  <SCORE.INTRA.norm>
0.431797

>  <SCORE.RESTR>
14.5644

>  <SCORE.RESTR.CAVITY>
14.5644

>  <SCORE.RESTR.norm>
0.346771

>  <SCORE.SYSTEM>
0

>  <SCORE.SYSTEM.CONST>
0

>  <SCORE.SYSTEM.DIHEDRAL>
0

>  <SCORE.SYSTEM.SOLV>
0

>  <SCORE.SYSTEM.norm>
0

>  <SCORE.heavy>
42

>  <SCORE.norm>
0.160897

>  <RMSD>
8.726

$$$$

 OpenBabel11021811393D
libRbt.so/2013.1/901 2013/11/27
 42 45  0  0  0  0  0  0  0  0999 V2000
   -5.4918    2.7114   -6.5352 C   0  0  2  0  0  0  0  0  0  0  0  0
   -5.5520    2.9987   -5.1043 O   0  0  0  0  0  0  0  0  0  0  0  0
   -6.3461    1.4561   -6.9068 C   0  0  2  0  0  0  0  0  0  0  0  0
   -7.2731    1.0824   -5.8141 N   0  3  0  0  0  0  0  0  0  0  0  0
   -5.4258    0.2543   -7.2779 C   0  0  1  0  0  0  0  0  0  0  0  0
   -6.2159   -0.8810   -7.6247 O   0  0  0  0  0  0  0  0  0  0  0  0
   -4.4943    0.5894   -8.4735 C   0  0  2  0  0  0  0  0  0  0  0  0
   -3.4964   -0.4207   -8.5724 O   0  0  0  0  0  0  0  0  0  0  0  0
   -3.8231    1.9898   -8.2947 C   0  0  2  0  0  0  0  0  0  0  0  0
   -4.0982    2.5127   -6.9545 O   0  0  0  0  0  0  0  0  0  0  0  0
   -4.3085    3.0659   -9.2929 C   0  0  0  0  0  0  0  0  0  0  0  0
   -1.2920    2.8535   -4.4330 C   0  0  1  0  0  0  0  0  0  0  0  0
    0.0401    2.8370   -3.7882 N   0  3  0  0  0  0  0  0  0  0  0  0
   -2.0873    1.5567   -4.1296 C   0  0  1  0  0  0  0  0  0  0  0  0
   -3.5627    1.5810   -4.6612 C   0  0  1  0  0  0  0  0  0  0  0  0
   -4.2851    0.4813   -4.0451 O   0  0  0  0  0  0  0  0  0  0  0  0
   -4.3296    2.9086   -4.3099 C   0  0  1  0  0  0  0  0  0  0  0  0
   -3.4694    4.1788   -4.6090 C   0  0  1  0  0  0  0  0  0  0  0  0
   -4.1272    5.4164   -4.1426 N   0  3  0  0  0  0  0  0  0  0  0  0
   -2.0729    4.0946   -3.9529 C   0  0  0  0  0  0  0  0  0  0  0  0
   -3.9151    0.0385   -2.7072 C   0  0  1  0  0  0  0  0  0  0  0  0
   -5.1864   -0.1372   -1.8852 C   0  0  1  0  0  0  0  0  0  0  0  0
   -5.6370   -1.5046   -2.3809 C   0  0  1  0  0  0  0  0  0  0  0  0
   -4.3037   -2.2621   -2.4562 C   0  0  2  0  0  0  0  0  0  0  0  0
   -3.3060   -1.2615   -2.7708 O   0  0  0  0  0  0  0  0  0  0  0  0
   -4.2996   -3.3691   -3.5257 C   0  0  0  0  0  0  0  0  0  0  0  0
   -9.7598   -3.4523    0.2201 C   0  0  1  0  0  0  0  0  0  0  0  0
   -9.2653   -1.9798    0.2688 C   0  0  1  0  0  0  0  0  0  0  0  0
   -8.9182   -1.3799   -1.1243 C   0  0  2  0  0  0  0  0  0  0  0  0
   -7.9353   -2.3070   -1.9093 C   0  0  1  0  0  0  0  0  0  0  0  0
   -6.5650   -2.1324   -1.4500 O   0  0  0  0  0  0  0  0  0  0  0  0
   -9.6472   -4.0276   -1.2244 C   0  0  1  0  0  0  0  0  0  0  0  0
   -8.3198   -3.7305   -1.7687 O   0  0  0  0  0  0  0  0  0  0  0  0
   -9.8883   -5.5585   -1.2729 C   0  0  0  0  0  0  0  0  0  0  0  0
   -3.9799    4.4490   -8.9054 N   0  3  0  0  0  0  0  0  0  0  0  0
   -4.8626   -0.1652   -0.4949 O   0  0  0  0  0  0  0  0  0  0  0  0
  -10.2868   -1.1819    0.8658 O   0  0  0  0  0  0  0  0  0  0  0  0
   -8.9650   -4.2259    1.1217 O   0  0  0  0  0  0  0  0  0  0  0  0
   -3.0550   -3.4137   -4.2022 O   0  0  0  0  0  0  0  0  0  0  0  0
   -1.4073    0.4518   -4.7248 O   0  0  0  0  0  0  0  0  0  0  0  0
   -9.0927   -6.2963   -0.2746 N   0  3  0  0  0  0  0  0  0  0  0  0
   -8.4180    0.0122   -1.0055 N   0  3  0  0  0  0  0  0  0  0  0  0
  1  2  1  1  0  0  0
  1  3  1  0  0  0  0
  1 10  1  0  0  0  0
  3  4  1  1  0  0  0
  3  5  1  0  0  0  0
  5  6  1  6  0  0  0
  5  7  1  0  0  0  0
  7  8  1  1  0  0  0
  7  9  1  0  0  0  0
  9 10  1  0  0  0  0
  9 11  1  6  0  0  0
 11 35  1  0  0  0  0
 12 13  1  1  0  0  0
 12 14  1  0  0  0  0
 12 20  1  0  0  0  0
 14 15  1  0  0  0  0
 14 40  1  6  0  0  0
 15 16  1  1  0  0  0
 15 17  1  0  0  0  0
 17  2  1  6  0  0  0
 17 18  1  0  0  0  0
 18 19  1  1  0  0  0
 18 20  1  0  0  0  0
 21 16  1  6  0  0  0
 21 22  1  0  0  0  0
 21 25  1  0  0  0  0
 22 23  1  0  0  0  0
 22 36  1  1  0  0  0
 23 24  1  0  0  0  0
 23 31  1  1  0  0  0
 24 25  1  0  0  0  0
 24 26  1  6  0  0  0
 26 39  1  0  0  0  0
 27 28  1  0  0  0  0
 27 32  1  0  0  0  0
 27 38  1  1  0  0  0
 28 29  1  0  0  0  0
 28 37  1  6  0  0  0
 29 30  1  0  0  0  0
 29 42  1  1  0  0  0
 30 31  1  1  0  0  0
 30 33  1  0  0  0  0
 32 33  1  0  0  0  0
 32 34  1  1  0  0  0
 34 41  1  0  0  0  0
M  CHG  6   4   1  13   1  19   1  35   1  41   1  42   1
M  END
>  <CHROM.1>
116.15318970,-46.15873394,172.81660678,-178.68975349,178.13374693,163.71588237
-35.61773653,25.36035993,71.03046509,30.94327585,134.08442726,-74.00111257
-154.92914945,112.93716232,140.35297670,-43.17502687,70.04925484,165.18562554
46.60079516,-111.34620135,-49.54539353,155.16347532,-5.43921131,-0.06323167
-3.80317520,0.76572478,-0.74585882,-1.38747289

>  <Name>


>  <RI>
0

>  <Rbt.Current_Directory>
/home/itssahil/PROJECTS/Mol_Feturizer/New_Systems/rnas/1ei2

>  <Rbt.Executable>
rbdock ($Id: //depot/dev/client3/rdock/2013.1/src/exe/rbdock.cxx#4 $)

>  <Rbt.Library>
libRbt.so (2013.1, Build901 2013/11/27)

>  <Rbt.Parameter_File>
/export/apps/rDock/src/rDock_2013.1_src/data/scripts/dock_solv.prm

>  <Rbt.Receptor>
prm/blind_docking_100.prm

>  <SCORE>
90.3578

>  <SCORE.INTER>
73.7177

>  <SCORE.INTER.CONST>
1

>  <SCORE.INTER.POLAR>
-3.25536

>  <SCORE.INTER.ROT>
9

>  <SCORE.INTER.SOLV>
51.2641

>  <SCORE.INTER.VDW>
33.3083

>  <SCORE.INTER.norm>
1.75518

>  <SCORE.INTRA>
-3.29856

>  <SCORE.INTRA.DIHEDRAL>
7.59546

>  <SCORE.INTRA.DIHEDRAL.0>
40.8761

>  <SCORE.INTRA.POLAR>
-1.28106

>  <SCORE.INTRA.POLAR.0>
-0.0268208

>  <SCORE.INTRA.REPUL>
-0.641615

>  <SCORE.INTRA.REPUL.0>
0.641615

>  <SCORE.INTRA.SOLV>
-4.99752

>  <SCORE.INTRA.SOLV.lig_0>
-162.567

>  <SCORE.INTRA.VDW>
2.96616

>  <SCORE.INTRA.VDW.0>
-4.80338

>  <SCORE.INTRA.norm>
-0.0785371

>  <SCORE.RESTR>
19.9386

>  <SCORE.RESTR.CAVITY>
19.9386

>  <SCORE.RESTR.norm>
0.474729

>  <SCORE.SYSTEM>
0

>  <SCORE.SYSTEM.CONST>
0

>  <SCORE.SYSTEM.DIHEDRAL>
0

>  <SCORE.SYSTEM.SOLV>
0

>  <SCORE.SYSTEM.norm>
0

>  <SCORE.heavy>
42

>  <SCORE.norm>
2.15138

>  <RMSD>
8.729

$$$$

 OpenBabel11021811393D
libRbt.so/2013.1/901 2013/11/27
 42 45  0  0  0  0  0  0  0  0999 V2000
   -2.1465    1.8205   -5.5731 C   0  0  2  0  0  0  0  0  0  0  0  0
   -2.0620    0.4286   -5.1384 O   0  0  0  0  0  0  0  0  0  0  0  0
   -1.6015    2.7985   -4.4820 C   0  0  2  0  0  0  0  0  0  0  0  0
   -0.8210    2.0828   -3.4468 N   0  3  0  0  0  0  0  0  0  0  0  0
   -2.7679    3.6007   -3.8302 C   0  0  1  0  0  0  0  0  0  0  0  0
   -2.2578    4.4961   -2.8445 O   0  0  0  0  0  0  0  0  0  0  0  0
   -3.5589    4.4246   -4.8813 C   0  0  2  0  0  0  0  0  0  0  0  0
   -4.7633    4.8916   -4.2838 O   0  0  0  0  0  0  0  0  0  0  0  0
   -3.8860    3.5660   -6.1459 C   0  0  2  0  0  0  0  0  0  0  0  0
   -3.5347    2.1642   -5.9076 O   0  0  0  0  0  0  0  0  0  0  0  0
   -3.1318    3.9952   -7.4254 C   0  0  0  0  0  0  0  0  0  0  0  0
   -3.6738   -1.4733   -8.6604 C   0  0  1  0  0  0  0  0  0  0  0  0
   -4.3103   -2.4417   -9.5810 N   0  3  0  0  0  0  0  0  0  0  0  0
   -4.7003   -0.8787   -7.6610 C   0  0  1  0  0  0  0  0  0  0  0  0
   -4.0565    0.0398   -6.5648 C   0  0  1  0  0  0  0  0  0  0  0  0
   -5.0435    0.2621   -5.5221 O   0  0  0  0  0  0  0  0  0  0  0  0
   -2.7861   -0.5947   -5.8881 C   0  0  1  0  0  0  0  0  0  0  0  0
   -1.8034   -1.2022   -6.9408 C   0  0  1  0  0  0  0  0  0  0  0  0
   -0.6863   -1.9278   -6.3025 N   0  3  0  0  0  0  0  0  0  0  0  0
   -2.5227   -2.1709   -7.9063 C   0  0  0  0  0  0  0  0  0  0  0  0
   -4.6026    0.6101   -4.1777 C   0  0  1  0  0  0  0  0  0  0  0  0
   -5.8094    0.5776   -3.2475 C   0  0  1  0  0  0  0  0  0  0  0  0
   -5.9096   -0.9205   -2.9938 C   0  0  1  0  0  0  0  0  0  0  0  0
   -4.4323   -1.3079   -2.8364 C   0  0  2  0  0  0  0  0  0  0  0  0
   -3.6983   -0.3909   -3.6826 O   0  0  0  0  0  0  0  0  0  0  0  0
   -4.1432   -2.7610   -3.2537 C   0  0  0  0  0  0  0  0  0  0  0  0
   -9.9232   -1.4838    0.2409 C   0  0  1  0  0  0  0  0  0  0  0  0
   -9.6443   -0.4290   -0.8659 C   0  0  1  0  0  0  0  0  0  0  0  0
   -9.1277   -1.0333   -2.2035 C   0  0  2  0  0  0  0  0  0  0  0  0
   -7.9034   -1.9739   -1.9625 C   0  0  1  0  0  0  0  0  0  0  0  0
   -6.6766   -1.2094   -1.7896 O   0  0  0  0  0  0  0  0  0  0  0  0
   -9.4708   -2.9030   -0.2190 C   0  0  1  0  0  0  0  0  0  0  0  0
   -8.1165   -2.8306   -0.7732 O   0  0  0  0  0  0  0  0  0  0  0  0
   -9.4952   -3.9362    0.9369 C   0  0  0  0  0  0  0  0  0  0  0  0
   -3.7422    3.5219   -8.6803 N   0  3  0  0  0  0  0  0  0  0  0  0
   -5.5139    1.2929   -2.0477 O   0  0  0  0  0  0  0  0  0  0  0  0
  -10.8545    0.2813   -1.1251 O   0  0  0  0  0  0  0  0  0  0  0  0
   -9.2140   -1.0991    1.4208 O   0  0  0  0  0  0  0  0  0  0  0  0
   -3.9443   -2.8548   -4.6538 O   0  0  0  0  0  0  0  0  0  0  0  0
   -5.6597   -0.1133   -8.3898 O   0  0  0  0  0  0  0  0  0  0  0  0
   -8.9935   -5.2621    0.5316 N   0  3  0  0  0  0  0  0  0  0  0  0
   -8.8457    0.0263   -3.2035 N   0  3  0  0  0  0  0  0  0  0  0  0
  1  2  1  1  0  0  0
  1  3  1  0  0  0  0
  1 10  1  0  0  0  0
  3  4  1  1  0  0  0
  3  5  1  0  0  0  0
  5  6  1  1  0  0  0
  5  7  1  0  0  0  0
  7  8  1  1  0  0  0
  7  9  1  0  0  0  0
  9 10  1  0  0  0  0
  9 11  1  6  0  0  0
 11 35  1  0  0  0  0
 12 13  1  6  0  0  0
 12 14  1  0  0  0  0
 12 20  1  0  0  0  0
 14 15  1  0  0  0  0
 14 40  1  6  0  0  0
 15 16  1  1  0  0  0
 15 17  1  0  0  0  0
 17  2  1  6  0  0  0
 17 18  1  0  0  0  0
 18 19  1  1  0  0  0
 18 20  1  0  0  0  0
 21 16  1  6  0  0  0
 21 22  1  0  0  0  0
 21 25  1  0  0  0  0
 22 23  1  0  0  0  0
 22 36  1  1  0  0  0
 23 24  1  0  0  0  0
 23 31  1  1  0  0  0
 24 25  1  0  0  0  0
 24 26  1  6  0  0  0
 26 39  1  0  0  0  0
 27 28  1  0  0  0  0
 27 32  1  0  0  0  0
 27 38  1  1  0  0  0
 28 29  1  0  0  0  0
 28 37  1  6  0  0  0
 29 30  1  0  0  0  0
 29 42  1  6  0  0  0
 30 31  1  1  0  0  0
 30 33  1  0  0  0  0
 32 33  1  0  0  0  0
 32 34  1  1  0  0  0
 34 41  1  0  0  0  0
M  CHG  6   4   1  13   1  19   1  35   1  41   1  42   1
M  END
>  <CHROM.1>
166.58609637,-28.34506176,-36.24572369,-77.16565412,-57.42219076,-160.41492980
-83.06241660,56.33420617,-64.97700263,156.00746839,-171.53542097,169.56804917
-166.55820051,117.77202134,84.05312261,-77.77329939,53.10655314,156.42870312
164.60511460,-90.18794753,-176.60896808,-175.69678066,-5.14705032,-0.00547012
-4.08502245,0.09984171,0.84336468,0.39198210

>  <Name>


>  <RI>
0

>  <Rbt.Current_Directory>
/home/itssahil/PROJECTS/Mol_Feturizer/New_Systems/rnas/1ei2

>  <Rbt.Executable>
rbdock ($Id: //depot/dev/client3/rdock/2013.1/src/exe/rbdock.cxx#4 $)

>  <Rbt.Library>
libRbt.so (2013.1, Build901 2013/11/27)

>  <Rbt.Parameter_File>
/export/apps/rDock/src/rDock_2013.1_src/data/scripts/dock_solv.prm

>  <Rbt.Receptor>
prm/blind_docking_40.prm

>  <SCORE>
22.6385

>  <SCORE.INTER>
11.0984

>  <SCORE.INTER.CONST>
1

>  <SCORE.INTER.POLAR>
-4.97562

>  <SCORE.INTER.ROT>
9

>  <SCORE.INTER.SOLV>
45.4771

>  <SCORE.INTER.VDW>
-0.774693

>  <SCORE.INTER.norm>
0.264248

>  <SCORE.INTRA>
2.68763

>  <SCORE.INTRA.DIHEDRAL>
-9.29511

>  <SCORE.INTRA.DIHEDRAL.0>
40.8761

>  <SCORE.INTRA.POLAR>
-0.213391

>  <SCORE.INTRA.POLAR.0>
-0.0268208

>  <SCORE.INTRA.REPUL>
-0.641615

>  <SCORE.INTRA.REPUL.0>
0.641615

>  <SCORE.INTRA.SOLV>
-6.93365

>  <SCORE.INTRA.SOLV.lig_0>
-162.567

>  <SCORE.INTRA.VDW>
14.7356

>  <SCORE.INTRA.VDW.0>
-4.80338

>  <SCORE.INTRA.norm>
0.0639912

>  <SCORE.RESTR>
8.8524

>  <SCORE.RESTR.CAVITY>
8.8524

>  <SCORE.RESTR.norm>
0.210771

>  <SCORE.SYSTEM>
0

>  <SCORE.SYSTEM.CONST>
0

>  <SCORE.SYSTEM.DIHEDRAL>
0

>  <SCORE.SYSTEM.SOLV>
0

>  <SCORE.SYSTEM.norm>
0

>  <SCORE.heavy>
42

>  <SCORE.norm>
0.539011

>  <RMSD>
8.732

$$$$

 OpenBabel11021811393D
libRbt.so/2013.1/901 2013/11/27
 42 45  0  0  0  0  0  0  0  0999 V2000
   -1.8459    1.7042   -4.0622 C   0  0  2  0  0  0  0  0  0  0  0  0
   -2.0630    0.2613   -4.1288 O   0  0  0  0  0  0  0  0  0  0  0  0
   -1.0533    2.1086   -2.7769 C   0  0  2  0  0  0  0  0  0  0  0  0
   -0.4173    0.9353   -2.1350 N   0  3  0  0  0  0  0  0  0  0  0  0
   -1.9825    2.8474   -1.7671 C   0  0  1  0  0  0  0  0  0  0  0  0
   -1.2464    3.2200   -0.6040 O   0  0  0  0  0  0  0  0  0  0  0  0
   -2.6048    4.1274   -2.3867 C   0  0  2  0  0  0  0  0  0  0  0  0
   -3.6489    4.5861   -1.5352 O   0  0  0  0  0  0  0  0  0  0  0  0
   -3.1648    3.8496   -3.8194 C   0  0  2  0  0  0  0  0  0  0  0  0
   -3.1317    2.4131   -4.1033 O   0  0  0  0  0  0  0  0  0  0  0  0
   -2.3811    4.5397   -4.9595 C   0  0  0  0  0  0  0  0  0  0  0  0
   -3.5931    0.2781   -8.1634 C   0  0  1  0  0  0  0  0  0  0  0  0
   -4.1408   -0.1444   -9.4718 N   0  3  0  0  0  0  0  0  0  0  0  0
   -4.6338    0.1014   -7.0268 C   0  0  1  0  0  0  0  0  0  0  0  0
   -4.0620    0.3909   -5.5954 C   0  0  1  0  0  0  0  0  0  0  0  0
   -5.0099   -0.1149   -4.6173 O   0  0  0  0  0  0  0  0  0  0  0  0
   -2.6801   -0.3096   -5.3232 C   0  0  1  0  0  0  0  0  0  0  0  0
   -1.6840   -0.1223   -6.5130 C   0  0  1  0  0  0  0  0  0  0  0  0
   -0.4433   -0.9016   -6.3253 N   0  3  0  0  0  0  0  0  0  0  0  0
   -2.3161   -0.5336   -7.8618 C   0  0  0  0  0  0  0  0  0  0  0  0
   -5.1276    0.5443   -3.3233 C   0  0  1  0  0  0  0  0  0  0  0  0
   -6.4428    0.1203   -2.6804 C   0  0  1  0  0  0  0  0  0  0  0  0
   -6.0413   -1.2394   -2.1248 C   0  0  1  0  0  0  0  0  0  0  0  0
   -4.6347   -0.9495   -1.5819 C   0  0  2  0  0  0  0  0  0  0  0  0
   -4.0923    0.0821   -2.4404 O   0  0  0  0  0  0  0  0  0  0  0  0
   -3.7179   -2.1858   -1.5945 C   0  0  0  0  0  0  0  0  0  0  0  0
   -9.8127   -3.4421    0.7767 C   0  0  1  0  0  0  0  0  0  0  0  0
   -9.6589   -1.9033    0.6223 C   0  0  1  0  0  0  0  0  0  0  0  0
   -9.4179   -1.4327   -0.8411 C   0  0  2  0  0  0  0  0  0  0  0  0
   -8.2337   -2.2131   -1.4973 C   0  0  1  0  0  0  0  0  0  0  0  0
   -6.9487   -1.6768   -1.0726 O   0  0  0  0  0  0  0  0  0  0  0  0
   -9.5379   -4.1654   -0.5767 C   0  0  1  0  0  0  0  0  0  0  0  0
   -8.2960   -3.6546   -1.1626 O   0  0  0  0  0  0  0  0  0  0  0  0
   -9.4316   -5.7038   -0.4154 C   0  0  0  0  0  0  0  0  0  0  0  0
   -2.7765    4.1157   -6.3142 N   0  3  0  0  0  0  0  0  0  0  0  0
   -6.7861    1.0317   -1.6364 O   0  0  0  0  0  0  0  0  0  0  0  0
  -10.8471   -1.2816    1.1101 O   0  0  0  0  0  0  0  0  0  0  0  0
   -8.8895   -3.8909    1.7713 O   0  0  0  0  0  0  0  0  0  0  0  0
   -3.2689   -2.4686   -2.9087 O   0  0  0  0  0  0  0  0  0  0  0  0
   -5.7291    0.9847   -7.2665 O   0  0  0  0  0  0  0  0  0  0  0  0
   -9.7776   -6.4349   -1.6482 N   0  3  0  0  0  0  0  0  0  0  0  0
   -9.2425    0.0390   -0.9151 N   0  3  0  0  0  0  0  0  0  0  0  0
  1  2  1  1  0  0  0
  1  3  1  0  0  0  0
  1 10  1  0  0  0  0
  3  4  1  1  0  0  0
  3  5  1  0  0  0  0
  5  6  1  1  0  0  0
  5  7  1  0  0  0  0
  7  8  1  1  0  0  0
  7  9  1  0  0  0  0
  9 10  1  0  0  0  0
  9 11  1  6  0  0  0
 11 35  1  0  0  0  0
 12 13  1  6  0  0  0
 12 14  1  0  0  0  0
 12 20  1  0  0  0  0
 14 15  1  0  0  0  0
 14 40  1  6  0  0  0
 15 16  1  1  0  0  0
 15 17  1  0  0  0  0
 17  2  1  1  0  0  0
 17 18  1  0  0  0  0
 18 19  1  1  0  0  0
 18 20  1  0  0  0  0
 21 16  1  6  0  0  0
 21 22  1  0  0  0  0
 21 25  1  0  0  0  0
 22 23  1  0  0  0  0
 22 36  1  1  0  0  0
 23 24  1  0  0  0  0
 23 31  1  1  0  0  0
 24 25  1  0  0  0  0
 24 26  1  6  0  0  0
 26 39  1  0  0  0  0
 27 28  1  0  0  0  0
 27 32  1  0  0  0  0
 27 38  1  1  0  0  0
 28 29  1  0  0  0  0
 28 37  1  6  0  0  0
 29 30  1  0  0  0  0
 29 42  1  1  0  0  0
 30 31  1  1  0  0  0
 30 33  1  0  0  0  0
 32 33  1  0  0  0  0
 32 34  1  1  0  0  0
 34 41  1  0  0  0  0
M  CHG  6   4   1  13   1  19   1  35   1  41   1  42   1
M  END
>  <CHROM.1>
-174.44269671,-55.47052321,-164.14607554,-176.99568297,-49.17406628,171.04477297
-68.96552907,-42.27055652,65.21854419,-149.30180850,162.56129140,36.14082613
-42.22092375,77.79951271,75.52749908,60.25621726,176.94447080,179.55937847
-98.80210743,-123.74469163,154.11327584,96.43704295,-5.02492812,-0.15836516
-3.05974628,-0.16921033,0.78341722,1.03656021

>  <Name>


>  <RI>
0

>  <Rbt.Current_Directory>
/home/itssahil/PROJECTS/Mol_Feturizer/New_Systems/rnas/1ei2

>  <Rbt.Executable>
rbdock ($Id: //depot/dev/client3/rdock/2013.1/src/exe/rbdock.cxx#4 $)

>  <Rbt.Library>
libRbt.so (2013.1, Build901 2013/11/27)

>  <Rbt.Parameter_File>
/export/apps/rDock/src/rDock_2013.1_src/data/scripts/dock_solv.prm

>  <Rbt.Receptor>
prm/blind_docking_20.prm

>  <SCORE>
15.5197

>  <SCORE.INTER>
22.9767

>  <SCORE.INTER.CONST>
1

>  <SCORE.INTER.POLAR>
-5.89143

>  <SCORE.INTER.ROT>
9

>  <SCORE.INTER.SOLV>
58.7791

>  <SCORE.INTER.VDW>
5.76292

>  <SCORE.INTER.norm>
0.547065

>  <SCORE.INTRA>
-18.7551

>  <SCORE.INTRA.DIHEDRAL>
-13.1862

>  <SCORE.INTRA.DIHEDRAL.0>
40.8761

>  <SCORE.INTRA.POLAR>
-1.66776

>  <SCORE.INTRA.POLAR.0>
-0.0268208

>  <SCORE.INTRA.REPUL>
-0.634692

>  <SCORE.INTRA.REPUL.0>
0.641615

>  <SCORE.INTRA.SOLV>
-6.53008

>  <SCORE.INTRA.SOLV.lig_0>
-162.567

>  <SCORE.INTRA.VDW>
-0.053175

>  <SCORE.INTRA.VDW.0>
-4.80338

>  <SCORE.INTRA.norm>
-0.446551

>  <SCORE.RESTR>
11.2981

>  <SCORE.RESTR.CAVITY>
11.2981

>  <SCORE.RESTR.norm>
0.269002

>  <SCORE.SYSTEM>
0

>  <SCORE.SYSTEM.CONST>
0

>  <SCORE.SYSTEM.DIHEDRAL>
0

>  <SCORE.SYSTEM.SOLV>
0

>  <SCORE.SYSTEM.norm>
0

>  <SCORE.heavy>
42

>  <SCORE.norm>
0.369516

>  <RMSD>
8.740

$$$$

 OpenBabel11021811393D
libRbt.so/2013.1/901 2013/11/27
 42 45  0  0  0  0  0  0  0  0999 V2000
   -2.8258    1.5290   -4.8423 C   0  0  2  0  0  0  0  0  0  0  0  0
   -2.5526    0.6395   -5.9683 O   0  0  0  0  0  0  0  0  0  0  0  0
   -4.1545    2.3266   -5.0479 C   0  0  2  0  0  0  0  0  0  0  0  0
   -4.9794    1.7449   -6.1315 N   0  3  0  0  0  0  0  0  0  0  0  0
   -3.8556    3.8291   -5.3348 C   0  0  1  0  0  0  0  0  0  0  0  0
   -5.0746    4.5478   -5.5104 O   0  0  0  0  0  0  0  0  0  0  0  0
   -3.0573    4.4889   -4.1787 C   0  0  2  0  0  0  0  0  0  0  0  0
   -2.5713    5.7513   -4.6212 O   0  0  0  0  0  0  0  0  0  0  0  0
   -1.8653    3.5854   -3.7244 C   0  0  2  0  0  0  0  0  0  0  0  0
   -1.7062    2.4596   -4.6477 O   0  0  0  0  0  0  0  0  0  0  0  0
   -2.0247    2.9751   -2.3129 C   0  0  0  0  0  0  0  0  0  0  0  0
   -1.3926   -3.3929   -6.9752 C   0  0  1  0  0  0  0  0  0  0  0  0
   -0.8821   -4.7800   -6.9000 N   0  3  0  0  0  0  0  0  0  0  0  0
   -2.7138   -3.2287   -6.1792 C   0  0  1  0  0  0  0  0  0  0  0  0
   -3.2229   -1.7474   -6.0977 C   0  0  1  0  0  0  0  0  0  0  0  0
   -4.2558   -1.6780   -5.0782 O   0  0  0  0  0  0  0  0  0  0  0  0
   -2.0968   -0.7226   -5.7028 C   0  0  1  0  0  0  0  0  0  0  0  0
   -0.7822   -0.9547   -6.5157 C   0  0  1  0  0  0  0  0  0  0  0  0
    0.3211   -0.0934   -6.0435 N   0  3  0  0  0  0  0  0  0  0  0  0
   -0.3144   -2.4257   -6.4438 C   0  0  0  0  0  0  0  0  0  0  0  0
   -4.4003   -0.4657   -4.2832 C   0  0  1  0  0  0  0  0  0  0  0  0
   -5.8240   -0.4068   -3.7424 C   0  0  1  0  0  0  0  0  0  0  0  0
   -5.6978   -1.3542   -2.5571 C   0  0  1  0  0  0  0  0  0  0  0  0
   -4.3259   -0.9615   -1.9907 C   0  0  2  0  0  0  0  0  0  0  0  0
   -3.5449   -0.5292   -3.1303 O   0  0  0  0  0  0  0  0  0  0  0  0
   -3.6164   -2.1231   -1.2719 C   0  0  0  0  0  0  0  0  0  0  0  0
  -10.0270   -1.4519    0.4124 C   0  0  1  0  0  0  0  0  0  0  0  0
   -9.7661   -0.4255   -0.7250 C   0  0  1  0  0  0  0  0  0  0  0  0
   -9.2143   -1.0565   -2.0359 C   0  0  2  0  0  0  0  0  0  0  0  0
   -7.9652   -1.9508   -1.7498 C   0  0  1  0  0  0  0  0  0  0  0  0
   -6.7646   -1.1437   -1.5877 O   0  0  0  0  0  0  0  0  0  0  0  0
   -9.5259   -2.8707    0.0046 C   0  0  1  0  0  0  0  0  0  0  0  0
   -8.1675   -2.7747   -0.5358 O   0  0  0  0  0  0  0  0  0  0  0  0
   -9.5338   -3.8662    1.1933 C   0  0  0  0  0  0  0  0  0  0  0  0
   -3.3373    2.3543   -2.0620 N   0  3  0  0  0  0  0  0  0  0  0  0
   -6.1254    0.9232   -3.3195 O   0  0  0  0  0  0  0  0  0  0  0  0
  -10.9939    0.2386   -1.0216 O   0  0  0  0  0  0  0  0  0  0  0  0
   -9.3449   -1.0076    1.5872 O   0  0  0  0  0  0  0  0  0  0  0  0
   -3.2142   -3.1192   -2.1963 O   0  0  0  0  0  0  0  0  0  0  0  0
   -3.7245   -4.0238   -6.7987 O   0  0  0  0  0  0  0  0  0  0  0  0
   -8.9489   -5.1751    0.8490 N   0  3  0  0  0  0  0  0  0  0  0  0
   -8.9518   -0.0218   -3.0668 N   0  3  0  0  0  0  0  0  0  0  0  0
  1  2  1  6  0  0  0
  1  3  1  0  0  0  0
  1 10  1  0  0  0  0
  3  4  1  6  0  0  0
  3  5  1  0  0  0  0
  5  6  1  1  0  0  0
  5  7  1  0  0  0  0
  7  8  1  6  0  0  0
  7  9  1  0  0  0  0
  9 10  1  0  0  0  0
  9 11  1  1  0  0  0
 11 35  1  0  0  0  0
 12 13  1  1  0  0  0
 12 14  1  0  0  0  0
 12 20  1  0  0  0  0
 14 15  1  0  0  0  0
 14 40  1  6  0  0  0
 15 16  1  1  0  0  0
 15 17  1  0  0  0  0
 17  2  1  6  0  0  0
 17 18  1  0  0  0  0
 18 19  1  1  0  0  0
 18 20  1  0  0  0  0
 21 16  1  6  0  0  0
 21 22  1  0  0  0  0
 21 25  1  0  0  0  0
 22 23  1  0  0  0  0
 22 36  1  1  0  0  0
 23 24  1  0  0  0  0
 23 31  1  1  0  0  0
 24 25  1  0  0  0  0
 24 26  1  6  0  0  0
 26 39  1  0  0  0  0
 27 28  1  0  0  0  0
 27 32  1  0  0  0  0
 27 38  1  1  0  0  0
 28 29  1  0  0  0  0
 28 37  1  6  0  0  0
 29 30  1  0  0  0  0
 29 42  1  6  0  0  0
 30 31  1  1  0  0  0
 30 33  1  0  0  0  0
 32 33  1  0  0  0  0
 32 34  1  1  0  0  0
 34 41  1  0  0  0  0
M  CHG  6   4   1  13   1  19   1  35   1  41   1  42   1
M  END
>  <CHROM.1>
-136.14111842,110.78088439,74.89271391,-175.80147364,-178.31495115,47.67435472
87.38489785,57.55511778,59.41013088,146.91026368,156.78223718,119.21650648
79.42025889,91.69978372,69.12942486,178.38080189,42.69137262,54.09211579
71.66830901,-117.40911959,-174.84169140,54.30964272,-4.84836234,-0.38346434
-3.47483120,0.28503708,0.64087478,-0.00175758

>  <Name>


>  <RI>
0

>  <Rbt.Current_Directory>
/home/itssahil/PROJECTS/Mol_Feturizer/New_Systems/rnas/1ei2

>  <Rbt.Executable>
rbdock ($Id: //depot/dev/client3/rdock/2013.1/src/exe/rbdock.cxx#4 $)

>  <Rbt.Library>
libRbt.so (2013.1, Build901 2013/11/27)

>  <Rbt.Parameter_File>
/export/apps/rDock/src/rDock_2013.1_src/data/scripts/dock_solv.prm

>  <Rbt.Receptor>
prm/blind_docking_80.prm

>  <SCORE>
55.2528

>  <SCORE.INTER>
46.999

>  <SCORE.INTER.CONST>
1

>  <SCORE.INTER.POLAR>
-4.0202

>  <SCORE.INTER.ROT>
9

>  <SCORE.INTER.SOLV>
55.1224

>  <SCORE.INTER.VDW>
16.7592

>  <SCORE.INTER.norm>
1.11902

>  <SCORE.INTRA>
0.303501

>  <SCORE.INTRA.DIHEDRAL>
0.495433

>  <SCORE.INTRA.DIHEDRAL.0>
40.8761

>  <SCORE.INTRA.POLAR>
-1.34458

>  <SCORE.INTRA.POLAR.0>
-0.0268208

>  <SCORE.INTRA.REPUL>
-0.641615

>  <SCORE.INTRA.REPUL.0>
0.641615

>  <SCORE.INTRA.SOLV>
3.41689

>  <SCORE.INTRA.SOLV.lig_0>
-162.567

>  <SCORE.INTRA.VDW>
6.127

>  <SCORE.INTRA.VDW.0>
-4.80338

>  <SCORE.INTRA.norm>
0.00722622

>  <SCORE.RESTR>
7.95029

>  <SCORE.RESTR.CAVITY>
7.95029

>  <SCORE.RESTR.norm>
0.189293

>  <SCORE.SYSTEM>
0

>  <SCORE.SYSTEM.CONST>
0

>  <SCORE.SYSTEM.DIHEDRAL>
0

>  <SCORE.SYSTEM.SOLV>
0

>  <SCORE.SYSTEM.norm>
0

>  <SCORE.heavy>
42

>  <SCORE.norm>
1.31554

>  <RMSD>
8.742

$$$$

 OpenBabel11021811393D
libRbt.so/2013.1/901 2013/11/27
 42 45  0  0  0  0  0  0  0  0999 V2000
   -3.5644    0.1243   -6.6222 C   0  0  2  0  0  0  0  0  0  0  0  0
   -3.9319   -0.9525   -5.7062 O   0  0  0  0  0  0  0  0  0  0  0  0
   -2.0565    0.5114   -6.4803 C   0  0  2  0  0  0  0  0  0  0  0  0
   -1.2962   -0.5160   -5.7323 N   0  3  0  0  0  0  0  0  0  0  0  0
   -1.9080    1.9053   -5.7992 C   0  0  1  0  0  0  0  0  0  0  0  0
   -0.5295    2.2519   -5.6846 O   0  0  0  0  0  0  0  0  0  0  0  0
   -2.6305    3.0195   -6.6030 C   0  0  2  0  0  0  0  0  0  0  0  0
   -2.7068    4.1891   -5.7956 O   0  0  0  0  0  0  0  0  0  0  0  0
   -4.0648    2.5702   -7.0321 C   0  0  2  0  0  0  0  0  0  0  0  0
   -4.4098    1.3019   -6.3858 O   0  0  0  0  0  0  0  0  0  0  0  0
   -4.2399    2.3491   -8.5522 C   0  0  0  0  0  0  0  0  0  0  0  0
   -2.7449   -5.0534   -5.0785 C   0  0  1  0  0  0  0  0  0  0  0  0
   -1.9422   -6.2865   -4.9186 N   0  3  0  0  0  0  0  0  0  0  0  0
   -2.5364   -4.0803   -3.8886 C   0  0  1  0  0  0  0  0  0  0  0  0
   -3.2442   -2.6931   -4.0749 C   0  0  1  0  0  0  0  0  0  0  0  0
   -2.7171   -1.7772   -3.0777 O   0  0  0  0  0  0  0  0  0  0  0  0
   -2.9938   -2.0508   -5.4887 C   0  0  1  0  0  0  0  0  0  0  0  0
   -3.1901   -3.0842   -6.6447 C   0  0  1  0  0  0  0  0  0  0  0  0
   -2.8118   -2.5251   -7.9585 N   0  3  0  0  0  0  0  0  0  0  0  0
   -2.3681   -4.3716   -6.4103 C   0  0  0  0  0  0  0  0  0  0  0  0
   -2.9220   -0.3438   -3.2392 C   0  0  1  0  0  0  0  0  0  0  0  0
   -4.4080   -0.0878   -3.4611 C   0  0  1  0  0  0  0  0  0  0  0  0
   -4.9069   -0.1539   -2.0240 C   0  0  1  0  0  0  0  0  0  0  0  0
   -3.7966    0.5971   -1.2753 C   0  0  2  0  0  0  0  0  0  0  0  0
   -2.5832    0.3412   -2.0222 O   0  0  0  0  0  0  0  0  0  0  0  0
   -3.6305    0.1297    0.1818 C   0  0  0  0  0  0  0  0  0  0  0  0
   -9.5752   -1.0789   -0.9559 C   0  0  1  0  0  0  0  0  0  0  0  0
   -9.3176    0.4428   -1.1389 C   0  0  1  0  0  0  0  0  0  0  0  0
   -8.5997    0.8100   -2.4697 C   0  0  2  0  0  0  0  0  0  0  0  0
   -7.3001   -0.0361   -2.6622 C   0  0  1  0  0  0  0  0  0  0  0  0
   -6.1994    0.5013   -1.8754 O   0  0  0  0  0  0  0  0  0  0  0  0
   -8.9092   -1.8961   -2.1044 C   0  0  1  0  0  0  0  0  0  0  0  0
   -7.5252   -1.4505   -2.2847 O   0  0  0  0  0  0  0  0  0  0  0  0
   -8.9231   -3.4222   -1.8308 C   0  0  0  0  0  0  0  0  0  0  0  0
   -3.5906    1.1318   -9.0697 N   0  3  0  0  0  0  0  0  0  0  0  0
   -4.5959    1.2120   -4.0211 O   0  0  0  0  0  0  0  0  0  0  0  0
  -10.5733    1.1195   -1.0979 O   0  0  0  0  0  0  0  0  0  0  0  0
   -9.0401   -1.4789    0.3076 O   0  0  0  0  0  0  0  0  0  0  0  0
   -4.8877   -0.1729    0.7620 O   0  0  0  0  0  0  0  0  0  0  0  0
   -3.0402   -4.6925   -2.7017 O   0  0  0  0  0  0  0  0  0  0  0  0
  -10.2245   -3.9037   -1.3325 N   0  3  0  0  0  0  0  0  0  0  0  0
   -8.3503    2.2697   -2.5660 N   0  3  0  0  0  0  0  0  0  0  0  0
  1  2  1  1  0  0  0
  1  3  1  0  0  0  0
  1 10  1  0  0  0  0
  3  4  1  1  0  0  0
  3  5  1  0  0  0  0
  5  6  1  6  0  0  0
  5  7  1  0  0  0  0
  7  8  1  1  0  0  0
  7  9  1  0  0  0  0
  9 10  1  0  0  0  0
  9 11  1  6  0  0  0
 11 35  1  0  0  0  0
 12 13  1  1  0  0  0
 12 14  1  0  0  0  0
 12 20  1  0  0  0  0
 14 15  1  0  0  0  0
 14 40  1  1  0  0  0
 15 16  1  1  0  0  0
 15 17  1  0  0  0  0
 17  2  1  6  0  0  0
 17 18  1  0  0  0  0
 18 19  1  6  0  0  0
 18 20  1  0  0  0  0
 21 16  1  1  0  0  0
 21 22  1  0  0  0  0
 21 25  1  0  0  0  0
 22 23  1  0  0  0  0
 22 36  1  1  0  0  0
 23 24  1  0  0  0  0
 23 31  1  6  0  0  0
 24 25  1  0  0  0  0
 24 26  1  1  0  0  0
 26 39  1  0  0  0  0
 27 28  1  0  0  0  0
 27 32  1  0  0  0  0
 27 38  1  1  0  0  0
 28 29  1  0  0  0  0
 28 37  1  6  0  0  0
 29 30  1  0  0  0  0
 29 42  1  1  0  0  0
 30 31  1  1  0  0  0
 30 33  1  0  0  0  0
 32 33  1  0  0  0  0
 32 34  1  1  0  0  0
 34 41  1  0  0  0  0
M  CHG  6   4   1  13   1  19   1  35   1  41   1  42   1
M  END
>  <CHROM.1>
-39.61881089,154.17070774,-7.77438378,50.94103701,139.27922652,73.01051273
71.01994531,117.52376111,71.02298497,163.58505637,52.25481434,-178.36312122
-179.81406037,60.30150598,-37.10087034,-54.28370407,74.73601660,174.43495340
59.43255471,-176.67447421,44.85848399,22.54326560,-4.74076403,-0.59624923
-3.90950897,0.26330014,0.67983342,-0.27142076

>  <Name>


>  <RI>
0

>  <Rbt.Current_Directory>
/home/itssahil/PROJECTS/Mol_Feturizer/New_Systems/rnas/1ei2

>  <Rbt.Executable>
rbdock ($Id: //depot/dev/client3/rdock/2013.1/src/exe/rbdock.cxx#4 $)

>  <Rbt.Library>
libRbt.so (2013.1, Build901 2013/11/27)

>  <Rbt.Parameter_File>
/export/apps/rDock/src/rDock_2013.1_src/data/scripts/dock_solv.prm

>  <Rbt.Receptor>
prm/blind_docking_20.prm

>  <SCORE>
33.391

>  <SCORE.INTER>
-1.2388

>  <SCORE.INTER.CONST>
1

>  <SCORE.INTER.POLAR>
-7.75775

>  <SCORE.INTER.ROT>
9

>  <SCORE.INTER.SOLV>
45.7737

>  <SCORE.INTER.VDW>
0.175392

>  <SCORE.INTER.norm>
-0.0294952

>  <SCORE.INTRA>
21.2976

>  <SCORE.INTRA.DIHEDRAL>
-13.0618

>  <SCORE.INTRA.DIHEDRAL.0>
40.8761

>  <SCORE.INTRA.POLAR>
0.0267961

>  <SCORE.INTRA.POLAR.0>
-0.0268208

>  <SCORE.INTRA.REPUL>
-0.3921

>  <SCORE.INTRA.REPUL.0>
0.641615

>  <SCORE.INTRA.SOLV>
6.5324

>  <SCORE.INTRA.SOLV.lig_0>
-162.567

>  <SCORE.INTRA.VDW>
26.4318

>  <SCORE.INTRA.VDW.0>
-4.80338

>  <SCORE.INTRA.norm>
0.507087

>  <SCORE.RESTR>
13.3321

>  <SCORE.RESTR.CAVITY>
13.3321

>  <SCORE.RESTR.norm>
0.317432

>  <SCORE.SYSTEM>
0

>  <SCORE.SYSTEM.CONST>
0

>  <SCORE.SYSTEM.DIHEDRAL>
0

>  <SCORE.SYSTEM.SOLV>
0

>  <SCORE.SYSTEM.norm>
0

>  <SCORE.heavy>
42

>  <SCORE.norm>
0.795023

>  <RMSD>
8.743

$$$$

 OpenBabel11021811393D
libRbt.so/2013.1/901 2013/11/27
 42 45  0  0  0  0  0  0  0  0999 V2000
   -3.2470    1.8802   -3.5592 C   0  0  2  0  0  0  0  0  0  0  0  0
   -3.1414    1.9128   -5.0157 O   0  0  0  0  0  0  0  0  0  0  0  0
   -3.3440    3.3194   -2.9566 C   0  0  2  0  0  0  0  0  0  0  0  0
   -3.6592    4.3270   -3.9951 N   0  3  0  0  0  0  0  0  0  0  0  0
   -2.0267    3.6944   -2.2129 C   0  0  1  0  0  0  0  0  0  0  0  0
   -2.1308    5.0044   -1.6592 O   0  0  0  0  0  0  0  0  0  0  0  0
   -1.7092    2.6987   -1.0652 C   0  0  2  0  0  0  0  0  0  0  0  0
   -0.3735    2.9189   -0.6257 O   0  0  0  0  0  0  0  0  0  0  0  0
   -1.8813    1.2178   -1.5351 C   0  0  2  0  0  0  0  0  0  0  0  0
   -2.0973    1.1706   -2.9830 O   0  0  0  0  0  0  0  0  0  0  0  0
   -3.0736    0.4746   -0.8898 C   0  0  0  0  0  0  0  0  0  0  0  0
   -3.2833   -0.6321   -8.4975 C   0  0  1  0  0  0  0  0  0  0  0  0
   -3.1810   -1.7963   -9.4056 N   0  3  0  0  0  0  0  0  0  0  0  0
   -4.4117   -0.8242   -7.4506 C   0  0  1  0  0  0  0  0  0  0  0  0
   -4.4693    0.3092   -6.3679 C   0  0  1  0  0  0  0  0  0  0  0  0
   -5.3259   -0.1415   -5.2844 O   0  0  0  0  0  0  0  0  0  0  0  0
   -3.0640    0.6528   -5.7504 C   0  0  1  0  0  0  0  0  0  0  0  0
   -1.9629    0.8060   -6.8491 C   0  0  1  0  0  0  0  0  0  0  0  0
   -0.6174    0.9805   -6.2651 N   0  3  0  0  0  0  0  0  0  0  0  0
   -1.9254   -0.4125   -7.7987 C   0  0  0  0  0  0  0  0  0  0  0  0
   -5.0624    0.3107   -3.9246 C   0  0  1  0  0  0  0  0  0  0  0  0
   -6.2992    0.0421   -3.0756 C   0  0  1  0  0  0  0  0  0  0  0  0
   -6.1060   -1.4401   -2.7853 C   0  0  1  0  0  0  0  0  0  0  0  0
   -4.5955   -1.5098   -2.5194 C   0  0  2  0  0  0  0  0  0  0  0  0
   -4.0084   -0.4732   -3.3417 O   0  0  0  0  0  0  0  0  0  0  0  0
   -3.9843   -2.8773   -2.8739 C   0  0  0  0  0  0  0  0  0  0  0  0
   -9.6641   -3.2459    0.6271 C   0  0  1  0  0  0  0  0  0  0  0  0
   -9.3762   -1.7389    0.3794 C   0  0  1  0  0  0  0  0  0  0  0  0
   -9.2666   -1.3518   -1.1236 C   0  0  2  0  0  0  0  0  0  0  0  0
   -8.2543   -2.2770   -1.8726 C   0  0  1  0  0  0  0  0  0  0  0  0
   -6.8803   -1.8639   -1.6265 O   0  0  0  0  0  0  0  0  0  0  0  0
   -9.6279   -4.0446   -0.7112 C   0  0  1  0  0  0  0  0  0  0  0  0
   -8.4204   -3.6902   -1.4615 O   0  0  0  0  0  0  0  0  0  0  0  0
   -9.6582   -5.5785   -0.4868 C   0  0  0  0  0  0  0  0  0  0  0  0
   -3.1280    0.5700    0.5796 N   0  3  0  0  0  0  0  0  0  0  0  0
   -6.2431    0.8212   -1.8804 O   0  0  0  0  0  0  0  0  0  0  0  0
  -10.4287   -0.9772    0.9697 O   0  0  0  0  0  0  0  0  0  0  0  0
   -8.6780   -3.7520    1.5295 O   0  0  0  0  0  0  0  0  0  0  0  0
   -4.5784   -3.4078   -4.0461 O   0  0  0  0  0  0  0  0  0  0  0  0
   -5.6658   -0.8681   -8.1306 O   0  0  0  0  0  0  0  0  0  0  0  0
   -9.8196   -6.3383   -1.7400 N   0  3  0  0  0  0  0  0  0  0  0  0
   -8.9545    0.0894   -1.2907 N   0  3  0  0  0  0  0  0  0  0  0  0
  1  2  1  6  0  0  0
  1  3  1  0  0  0  0
  1 10  1  0  0  0  0
  3  4  1  6  0  0  0
  3  5  1  0  0  0  0
  5  6  1  1  0  0  0
  5  7  1  0  0  0  0
  7  8  1  6  0  0  0
  7  9  1  0  0  0  0
  9 10  1  0  0  0  0
  9 11  1  1  0  0  0
 11 35  1  0  0  0  0
 12 13  1  6  0  0  0
 12 14  1  0  0  0  0
 12 20  1  0  0  0  0
 14 15  1  0  0  0  0
 14 40  1  6  0  0  0
 15 16  1  1  0  0  0
 15 17  1  0  0  0  0
 17  2  1  6  0  0  0
 17 18  1  0  0  0  0
 18 19  1  1  0  0  0
 18 20  1  0  0  0  0
 21 16  1  6  0  0  0
 21 22  1  0  0  0  0
 21 25  1  0  0  0  0
 22 23  1  0  0  0  0
 22 36  1  1  0  0  0
 23 24  1  0  0  0  0
 23 31  1  1  0  0  0
 24 25  1  0  0  0  0
 24 26  1  6  0  0  0
 26 39  1  0  0  0  0
 27 28  1  0  0  0  0
 27 32  1  0  0  0  0
 27 38  1  1  0  0  0
 28 29  1  0  0  0  0
 28 37  1  6  0  0  0
 29 30  1  0  0  0  0
 29 42  1  1  0  0  0
 30 31  1  1  0  0  0
 30 33  1  0  0  0  0
 32 33  1  0  0  0  0
 32 34  1  1  0  0  0
 34 41  1  0  0  0  0
M  CHG  6   4   1  13   1  19   1  35   1  41   1  42   1
M  END
>  <CHROM.1>
-178.98432599,101.03231339,102.54886703,75.38623205,89.85336403,-50.35252063
38.78505940,123.52292231,167.44219680,148.91787396,163.70893997,-170.50189713
-38.13841457,87.17011849,37.93435849,67.93983006,-179.71528028,157.31923818
-158.67887512,-117.96190105,171.74615781,85.39678530,-5.08740684,-0.37869883
-3.04939080,-0.20233936,0.74737889,1.12952294

>  <Name>


>  <RI>
0

>  <Rbt.Current_Directory>
/home/itssahil/PROJECTS/Mol_Feturizer/New_Systems/rnas/1ei2

>  <Rbt.Executable>
rbdock ($Id: //depot/dev/client3/rdock/2013.1/src/exe/rbdock.cxx#4 $)

>  <Rbt.Library>
libRbt.so (2013.1, Build901 2013/11/27)

>  <Rbt.Parameter_File>
/export/apps/rDock/src/rDock_2013.1_src/data/scripts/dock_solv.prm

>  <Rbt.Receptor>
prm/blind_docking_80.prm

>  <SCORE>
49.6104

>  <SCORE.INTER>
32.7643

>  <SCORE.INTER.CONST>
1

>  <SCORE.INTER.POLAR>
-7.40843

>  <SCORE.INTER.ROT>
9

>  <SCORE.INTER.SOLV>
53.8577

>  <SCORE.INTER.VDW>
18.9851

>  <SCORE.INTER.norm>
0.780102

>  <SCORE.INTRA>
4.7596

>  <SCORE.INTRA.DIHEDRAL>
2.88634

>  <SCORE.INTRA.DIHEDRAL.0>
40.8761

>  <SCORE.INTRA.POLAR>
-1.53175

>  <SCORE.INTRA.POLAR.0>
-0.0268208

>  <SCORE.INTRA.REPUL>
-0.641615

>  <SCORE.INTRA.REPUL.0>
0.641615

>  <SCORE.INTRA.SOLV>
-8.0907

>  <SCORE.INTRA.SOLV.lig_0>
-162.567

>  <SCORE.INTRA.VDW>
15.7778

>  <SCORE.INTRA.VDW.0>
-4.80338

>  <SCORE.INTRA.norm>
0.113324

>  <SCORE.RESTR>
12.0866

>  <SCORE.RESTR.CAVITY>
12.0866

>  <SCORE.RESTR.norm>
0.287775

>  <SCORE.SYSTEM>
0

>  <SCORE.SYSTEM.CONST>
0

>  <SCORE.SYSTEM.DIHEDRAL>
0

>  <SCORE.SYSTEM.SOLV>
0

>  <SCORE.SYSTEM.norm>
0

>  <SCORE.heavy>
42

>  <SCORE.norm>
1.1812

>  <RMSD>
8.767

$$$$

 OpenBabel11021811393D
libRbt.so/2013.1/901 2013/11/27
 42 45  0  0  0  0  0  0  0  0999 V2000
   -2.8622    1.6598   -5.0534 C   0  0  2  0  0  0  0  0  0  0  0  0
   -2.5240    0.7436   -6.1396 O   0  0  0  0  0  0  0  0  0  0  0  0
   -4.0471    2.6022   -5.4430 C   0  0  2  0  0  0  0  0  0  0  0  0
   -4.7594    2.1159   -6.6468 N   0  3  0  0  0  0  0  0  0  0  0  0
   -3.5422    4.0608   -5.6583 C   0  0  1  0  0  0  0  0  0  0  0  0
   -4.6327    4.9125   -6.0030 O   0  0  0  0  0  0  0  0  0  0  0  0
   -2.8582    4.6277   -4.3854 C   0  0  2  0  0  0  0  0  0  0  0  0
   -2.1730    5.8266   -4.7304 O   0  0  0  0  0  0  0  0  0  0  0  0
   -1.8569    3.5959   -3.7721 C   0  0  2  0  0  0  0  0  0  0  0  0
   -1.6877    2.4581   -4.6788 O   0  0  0  0  0  0  0  0  0  0  0  0
   -2.2942    3.0094   -2.4101 C   0  0  0  0  0  0  0  0  0  0  0  0
   -1.3887   -3.3333   -6.9822 C   0  0  1  0  0  0  0  0  0  0  0  0
   -0.9111   -4.7273   -6.8448 N   0  3  0  0  0  0  0  0  0  0  0  0
   -2.7499   -3.1250   -6.2680 C   0  0  1  0  0  0  0  0  0  0  0  0
   -3.2332   -1.6330   -6.2511 C   0  0  1  0  0  0  0  0  0  0  0  0
   -4.3213   -1.5193   -5.2950 O   0  0  0  0  0  0  0  0  0  0  0  0
   -2.1114   -0.6197   -5.8161 C   0  0  1  0  0  0  0  0  0  0  0  0
   -0.7572   -0.8962   -6.5459 C   0  0  1  0  0  0  0  0  0  0  0  0
    0.3341   -0.0441   -6.0311 N   0  3  0  0  0  0  0  0  0  0  0  0
   -0.3237   -2.3733   -6.4124 C   0  0  0  0  0  0  0  0  0  0  0  0
   -4.3243   -0.4214   -4.3372 C   0  0  1  0  0  0  0  0  0  0  0  0
   -5.7375   -0.2586   -3.7901 C   0  0  1  0  0  0  0  0  0  0  0  0
   -5.7500   -1.3705   -2.7500 C   0  0  1  0  0  0  0  0  0  0  0  0
   -4.3484   -1.2379   -2.1373 C   0  0  2  0  0  0  0  0  0  0  0  0
   -3.5016   -0.7533   -3.2067 O   0  0  0  0  0  0  0  0  0  0  0  0
   -3.8020   -2.5690   -1.5904 C   0  0  0  0  0  0  0  0  0  0  0  0
   -9.9856   -1.5361    0.3467 C   0  0  1  0  0  0  0  0  0  0  0  0
   -9.7643   -0.4735   -0.7656 C   0  0  1  0  0  0  0  0  0  0  0  0
   -9.2607   -1.0619   -2.1151 C   0  0  2  0  0  0  0  0  0  0  0  0
   -8.0033   -1.9651   -1.9031 C   0  0  1  0  0  0  0  0  0  0  0  0
   -6.7966   -1.1639   -1.7581 O   0  0  0  0  0  0  0  0  0  0  0  0
   -9.5014   -2.9410   -0.1244 C   0  0  1  0  0  0  0  0  0  0  0  0
   -8.1630   -2.8278   -0.7097 O   0  0  0  0  0  0  0  0  0  0  0  0
   -9.4679   -3.9744    1.0310 C   0  0  0  0  0  0  0  0  0  0  0  0
   -3.7512    2.8574   -2.2516 N   0  3  0  0  0  0  0  0  0  0  0  0
   -5.8756    1.0267   -3.1839 O   0  0  0  0  0  0  0  0  0  0  0  0
  -11.0010    0.2001   -0.9964 O   0  0  0  0  0  0  0  0  0  0  0  0
   -9.2613   -1.1301    1.5101 O   0  0  0  0  0  0  0  0  0  0  0  0
   -3.6173   -3.5073   -2.6364 O   0  0  0  0  0  0  0  0  0  0  0  0
   -3.7389   -3.9163   -6.9259 O   0  0  0  0  0  0  0  0  0  0  0  0
   -8.8816   -5.2660    0.6285 N   0  3  0  0  0  0  0  0  0  0  0  0
   -9.0340    0.0056   -3.1208 N   0  3  0  0  0  0  0  0  0  0  0  0
  1  2  1  6  0  0  0
  1  3  1  0  0  0  0
  1 10  1  0  0  0  0
  3  4  1  6  0  0  0
  3  5  1  0  0  0  0
  5  6  1  1  0  0  0
  5  7  1  0  0  0  0
  7  8  1  6  0  0  0
  7  9  1  0  0  0  0
  9 10  1  0  0  0  0
  9 11  1  1  0  0  0
 11 35  1  0  0  0  0
 12 13  1  1  0  0  0
 12 14  1  0  0  0  0
 12 20  1  0  0  0  0
 14 15  1  0  0  0  0
 14 40  1  6  0  0  0
 15 16  1  1  0  0  0
 15 17  1  0  0  0  0
 17  2  1  6  0  0  0
 17 18  1  0  0  0  0
 18 19  1  1  0  0  0
 18 20  1  0  0  0  0
 21 16  1  6  0  0  0
 21 22  1  0  0  0  0
 21 25  1  0  0  0  0
 22 23  1  0  0  0  0
 22 36  1  1  0  0  0
 23 24  1  0  0  0  0
 23 31  1  1  0  0  0
 24 25  1  0  0  0  0
 24 26  1  6  0  0  0
 26 39  1  0  0  0  0
 27 28  1  0  0  0  0
 27 32  1  0  0  0  0
 27 38  1  1  0  0  0
 28 29  1  0  0  0  0
 28 37  1  6  0  0  0
 29 30  1  0  0  0  0
 29 42  1  6  0  0  0
 30 31  1  1  0  0  0
 30 33  1  0  0  0  0
 32 33  1  0  0  0  0
 32 34  1  1  0  0  0
 34 41  1  0  0  0  0
M  CHG  6   4   1  13   1  19   1  35   1  41   1  42   1
M  END
>  <CHROM.1>
-143.47332871,109.90278197,-167.07512337,63.69155632,157.56140645,33.01091704
-48.45655601,52.29242274,51.43538425,133.65879962,161.47597409,2.43596304
170.86520646,102.19075171,64.35179740,69.01281775,50.65841750,62.53775913
32.52209418,-119.08824983,-174.10210474,-48.62402975,-4.83234455,-0.34808398
-3.61400037,0.34511739,0.64442830,-0.00882752

>  <Name>


>  <RI>
0

>  <Rbt.Current_Directory>
/home/itssahil/PROJECTS/Mol_Feturizer/New_Systems/rnas/1ei2

>  <Rbt.Executable>
rbdock ($Id: //depot/dev/client3/rdock/2013.1/src/exe/rbdock.cxx#4 $)

>  <Rbt.Library>
libRbt.so (2013.1, Build901 2013/11/27)

>  <Rbt.Parameter_File>
/export/apps/rDock/src/rDock_2013.1_src/data/scripts/dock_solv.prm

>  <Rbt.Receptor>
prm/blind_docking_40.prm

>  <SCORE>
66.0095

>  <SCORE.INTER>
59.9

>  <SCORE.INTER.CONST>
1

>  <SCORE.INTER.POLAR>
-4.27961

>  <SCORE.INTER.ROT>
9

>  <SCORE.INTER.SOLV>
56.8431

>  <SCORE.INTER.VDW>
25.651

>  <SCORE.INTER.norm>
1.42619

>  <SCORE.INTRA>
-1.18571

>  <SCORE.INTRA.DIHEDRAL>
4.47698

>  <SCORE.INTRA.DIHEDRAL.0>
40.8761

>  <SCORE.INTRA.POLAR>
-0.944377

>  <SCORE.INTRA.POLAR.0>
-0.0268208

>  <SCORE.INTRA.REPUL>
-0.641615

>  <SCORE.INTRA.REPUL.0>
0.641615

>  <SCORE.INTRA.SOLV>
-0.789992

>  <SCORE.INTRA.SOLV.lig_0>
-162.567

>  <SCORE.INTRA.VDW>
3.38975

>  <SCORE.INTRA.VDW.0>
-4.80338

>  <SCORE.INTRA.norm>
-0.0282312

>  <SCORE.RESTR>
7.29528

>  <SCORE.RESTR.CAVITY>
7.29528

>  <SCORE.RESTR.norm>
0.173697

>  <SCORE.SYSTEM>
0

>  <SCORE.SYSTEM.CONST>
0

>  <SCORE.SYSTEM.DIHEDRAL>
0

>  <SCORE.SYSTEM.SOLV>
0

>  <SCORE.SYSTEM.norm>
0

>  <SCORE.heavy>
42

>  <SCORE.norm>
1.57166

>  <RMSD>
8.789

$$$$

 OpenBabel11021811393D
libRbt.so/2013.1/901 2013/11/27
 42 45  0  0  0  0  0  0  0  0999 V2000
   -3.8755    3.9591   -0.4195 C   0  0  2  0  0  0  0  0  0  0  0  0
   -4.1993    4.2635   -1.8110 O   0  0  0  0  0  0  0  0  0  0  0  0
   -2.9060    5.0222    0.1919 C   0  0  2  0  0  0  0  0  0  0  0  0
   -2.8344    6.2421   -0.6446 N   0  3  0  0  0  0  0  0  0  0  0  0
   -1.4849    4.4166    0.3983 C   0  0  1  0  0  0  0  0  0  0  0  0
   -0.6128    5.3918    0.9655 O   0  0  0  0  0  0  0  0  0  0  0  0
   -1.5160    3.1796    1.3355 C   0  0  2  0  0  0  0  0  0  0  0  0
   -0.2626    2.5106    1.2510 O   0  0  0  0  0  0  0  0  0  0  0  0
   -2.6723    2.2022    0.9467 C   0  0  2  0  0  0  0  0  0  0  0  0
   -3.2809    2.6199   -0.3184 O   0  0  0  0  0  0  0  0  0  0  0  0
   -3.8198    2.1229    1.9797 C   0  0  0  0  0  0  0  0  0  0  0  0
   -6.5034    2.8994   -5.1948 C   0  0  1  0  0  0  0  0  0  0  0  0
   -7.3933    2.1120   -6.0770 N   0  3  0  0  0  0  0  0  0  0  0  0
   -7.2941    3.5710   -4.0416 C   0  0  1  0  0  0  0  0  0  0  0  0
   -6.3844    4.2952   -2.9891 C   0  0  1  0  0  0  0  0  0  0  0  0
   -7.1921    4.5908   -1.8181 O   0  0  0  0  0  0  0  0  0  0  0  0
   -5.1639    3.4231   -2.5158 C   0  0  1  0  0  0  0  0  0  0  0  0
   -4.4245    2.7495   -3.7168 C   0  0  1  0  0  0  0  0  0  0  0  0
   -3.3735    1.8142   -3.2668 N   0  3  0  0  0  0  0  0  0  0  0  0
   -5.4009    1.9779   -4.6329 C   0  0  0  0  0  0  0  0  0  0  0  0
   -7.2089    3.6546   -0.7019 C   0  0  1  0  0  0  0  0  0  0  0  0
   -7.6367    4.4045    0.5541 C   0  0  1  0  0  0  0  0  0  0  0  0
   -9.1454    4.4274    0.3495 C   0  0  1  0  0  0  0  0  0  0  0  0
   -9.4071    3.0133   -0.1882 C   0  0  2  0  0  0  0  0  0  0  0  0
   -8.2120    2.6487   -0.9192 O   0  0  0  0  0  0  0  0  0  0  0  0
  -10.6366    2.9381   -1.1112 C   0  0  0  0  0  0  0  0  0  0  0  0
  -13.2787    6.2109    2.3879 C   0  0  1  0  0  0  0  0  0  0  0  0
  -12.2829    5.6524    3.4424 C   0  0  1  0  0  0  0  0  0  0  0  0
  -10.8343    6.2029    3.3021 C   0  0  2  0  0  0  0  0  0  0  0  0
  -10.3047    6.0329    1.8418 C   0  0  1  0  0  0  0  0  0  0  0  0
   -9.8515    4.6707    1.6001 O   0  0  0  0  0  0  0  0  0  0  0  0
  -12.5372    7.0916    1.3368 C   0  0  1  0  0  0  0  0  0  0  0  0
  -11.3501    6.3825    0.8525 O   0  0  0  0  0  0  0  0  0  0  0  0
  -13.4392    7.4606    0.1309 C   0  0  0  0  0  0  0  0  0  0  0  0
   -3.4297    1.5526    3.2812 N   0  3  0  0  0  0  0  0  0  0  0  0
   -7.2770    3.6512    1.7124 O   0  0  0  0  0  0  0  0  0  0  0  0
  -12.7714    5.9835    4.7417 O   0  0  0  0  0  0  0  0  0  0  0  0
  -13.9191    5.1080    1.7426 O   0  0  0  0  0  0  0  0  0  0  0  0
  -10.4303    3.6966   -2.2906 O   0  0  0  0  0  0  0  0  0  0  0  0
   -8.1948    4.5277   -4.5994 O   0  0  0  0  0  0  0  0  0  0  0  0
  -14.5995    8.2858    0.5140 N   0  3  0  0  0  0  0  0  0  0  0  0
   -9.9268    5.6039    4.3120 N   0  3  0  0  0  0  0  0  0  0  0  0
  1  2  1  6  0  0  0
  1  3  1  0  0  0  0
  1 10  1  0  0  0  0
  3  4  1  6  0  0  0
  3  5  1  0  0  0  0
  5  6  1  1  0  0  0
  5  7  1  0  0  0  0
  7  8  1  6  0  0  0
  7  9  1  0  0  0  0
  9 10  1  0  0  0  0
  9 11  1  1  0  0  0
 11 35  1  0  0  0  0
 12 13  1  1  0  0  0
 12 14  1  0  0  0  0
 12 20  1  0  0  0  0
 14 15  1  0  0  0  0
 14 40  1  6  0  0  0
 15 16  1  1  0  0  0
 15 17  1  0  0  0  0
 17  2  1  6  0  0  0
 17 18  1  0  0  0  0
 18 19  1  1  0  0  0
 18 20  1  0  0  0  0
 21 16  1  6  0  0  0
 21 22  1  0  0  0  0
 21 25  1  0  0  0  0
 22 23  1  0  0  0  0
 22 36  1  1  0  0  0
 23 24  1  0  0  0  0
 23 31  1  1  0  0  0
 24 25  1  0  0  0  0
 24 26  1  6  0  0  0
 26 39  1  0  0  0  0
 27 28  1  0  0  0  0
 27 32  1  0  0  0  0
 27 38  1  6  0  0  0
 28 29  1  0  0  0  0
 28 37  1  1  0  0  0
 29 30  1  0  0  0  0
 29 42  1  1  0  0  0
 30 31  1  6  0  0  0
 30 33  1  0  0  0  0
 32 33  1  0  0  0  0
 32 34  1  6  0  0  0
 34 41  1  0  0  0  0
M  CHG  6   4   1  13   1  19   1  35   1  41   1  42   1
M  END
>  <CHROM.1>
-176.01288977,119.87328850,-153.72059132,-161.84161646,174.47269050,-65.38288560
64.26783372,-63.83556848,-68.63151172,93.93882325,157.75242848,-153.68792938
-54.96513405,99.35066682,64.82322188,-168.17545388,54.30053566,63.13932009
66.62474872,-170.82418847,63.34237823,64.35566877,-7.32433342,4.24910982
-0.17430816,-0.31370927,-0.22988500,1.35461698

>  <Name>


>  <RI>
0

>  <Rbt.Current_Directory>
/home/itssahil/PROJECTS/Mol_Feturizer/New_Systems/rnas/1ei2

>  <Rbt.Executable>
rbdock ($Id: //depot/dev/client3/rdock/2013.1/src/exe/rbdock.cxx#4 $)

>  <Rbt.Library>
libRbt.so (2013.1, Build901 2013/11/27)

>  <Rbt.Parameter_File>
/export/apps/rDock/src/rDock_2013.1_src/data/scripts/dock_solv.prm

>  <Rbt.Receptor>
prm/pocket_docking_7.prm

>  <SCORE>
-52.7932

>  <SCORE.INTER>
-31.7192

>  <SCORE.INTER.CONST>
1

>  <SCORE.INTER.POLAR>
-5.76434

>  <SCORE.INTER.ROT>
9

>  <SCORE.INTER.SOLV>
19.0616

>  <SCORE.INTER.VDW>
-17.8855

>  <SCORE.INTER.norm>
-0.75522

>  <SCORE.INTRA>
-21.0739

>  <SCORE.INTRA.DIHEDRAL>
-14.1103

>  <SCORE.INTRA.DIHEDRAL.0>
40.8761

>  <SCORE.INTRA.POLAR>
-1.43153

>  <SCORE.INTRA.POLAR.0>
-0.0268208

>  <SCORE.INTRA.REPUL>
-0.603317

>  <SCORE.INTRA.REPUL.0>
0.641615

>  <SCORE.INTRA.SOLV>
-12.0413

>  <SCORE.INTRA.SOLV.lig_0>
-162.567

>  <SCORE.INTRA.VDW>
-0.114368

>  <SCORE.INTRA.VDW.0>
-4.80338

>  <SCORE.INTRA.norm>
-0.501761

>  <SCORE.RESTR>
0

>  <SCORE.RESTR.CAVITY>
0

>  <SCORE.RESTR.norm>
0

>  <SCORE.SYSTEM>
0

>  <SCORE.SYSTEM.CONST>
0

>  <SCORE.SYSTEM.DIHEDRAL>
0

>  <SCORE.SYSTEM.SOLV>
0

>  <SCORE.SYSTEM.norm>
0

>  <SCORE.heavy>
42

>  <SCORE.norm>
-1.25698

>  <RMSD>
8.790

$$$$

 OpenBabel11021811393D
libRbt.so/2013.1/901 2013/11/27
 42 45  0  0  0  0  0  0  0  0999 V2000
   -3.0713    2.0397   -4.2300 C   0  0  2  0  0  0  0  0  0  0  0  0
   -2.9368    1.3423   -5.5064 O   0  0  0  0  0  0  0  0  0  0  0  0
   -4.3173    2.9837   -4.2182 C   0  0  2  0  0  0  0  0  0  0  0  0
   -5.2407    2.6844   -5.3367 N   0  3  0  0  0  0  0  0  0  0  0  0
   -3.8761    4.4779   -4.2582 C   0  0  1  0  0  0  0  0  0  0  0  0
   -5.0201    5.3288   -4.2367 O   0  0  0  0  0  0  0  0  0  0  0  0
   -2.9682    4.8432   -3.0534 C   0  0  2  0  0  0  0  0  0  0  0  0
   -2.3721    6.1122   -3.2986 O   0  0  0  0  0  0  0  0  0  0  0  0
   -1.8591    3.7644   -2.8311 C   0  0  2  0  0  0  0  0  0  0  0  0
   -1.8544    2.8103   -3.9424 O   0  0  0  0  0  0  0  0  0  0  0  0
   -2.0243    2.9312   -1.5393 C   0  0  0  0  0  0  0  0  0  0  0  0
   -2.1646   -2.5213   -7.2661 C   0  0  1  0  0  0  0  0  0  0  0  0
   -1.8301   -3.9509   -7.4527 N   0  3  0  0  0  0  0  0  0  0  0  0
   -3.5291   -2.3448   -6.5497 C   0  0  1  0  0  0  0  0  0  0  0  0
   -3.8665   -0.8559   -6.1902 C   0  0  1  0  0  0  0  0  0  0  0  0
   -4.9791   -0.8556   -5.2559 O   0  0  0  0  0  0  0  0  0  0  0  0
   -2.6722   -0.0942   -5.5062 C   0  0  1  0  0  0  0  0  0  0  0  0
   -1.3205   -0.3322   -6.2540 C   0  0  1  0  0  0  0  0  0  0  0  0
   -0.1756    0.2581   -5.5312 N   0  3  0  0  0  0  0  0  0  0  0  0
   -1.0377   -1.8367   -6.4648 C   0  0  0  0  0  0  0  0  0  0  0  0
   -4.8606   -0.1306   -3.9977 C   0  0  1  0  0  0  0  0  0  0  0  0
   -6.1913   -0.2181   -3.2599 C   0  0  1  0  0  0  0  0  0  0  0  0
   -6.0663   -1.6074   -2.6495 C   0  0  1  0  0  0  0  0  0  0  0  0
   -4.5976   -1.6189   -2.2025 C   0  0  2  0  0  0  0  0  0  0  0  0
   -3.8976   -0.7752   -3.1479 O   0  0  0  0  0  0  0  0  0  0  0  0
   -3.9818   -3.0296   -2.1941 C   0  0  0  0  0  0  0  0  0  0  0  0
   -9.7489   -3.4256    0.5600 C   0  0  1  0  0  0  0  0  0  0  0  0
   -9.5309   -1.8946    0.4059 C   0  0  1  0  0  0  0  0  0  0  0  0
   -9.3986   -1.4171   -1.0691 C   0  0  2  0  0  0  0  0  0  0  0  0
   -8.3199   -2.2472   -1.8367 C   0  0  1  0  0  0  0  0  0  0  0  0
   -6.9761   -1.7820   -1.5253 O   0  0  0  0  0  0  0  0  0  0  0  0
   -9.6344   -4.1436   -0.8190 C   0  0  1  0  0  0  0  0  0  0  0  0
   -8.4257   -3.6881   -1.5104 O   0  0  0  0  0  0  0  0  0  0  0  0
   -9.5932   -5.6874   -0.6815 C   0  0  0  0  0  0  0  0  0  0  0  0
   -1.1019    1.7874   -1.4296 N   0  3  0  0  0  0  0  0  0  0  0  0
   -6.2526    0.7924   -2.2530 O   0  0  0  0  0  0  0  0  0  0  0  0
  -10.6370   -1.2204    1.0047 O   0  0  0  0  0  0  0  0  0  0  0  0
   -8.7642   -3.9335    1.4630 O   0  0  0  0  0  0  0  0  0  0  0  0
   -2.5662   -2.9633   -2.2149 O   0  0  0  0  0  0  0  0  0  0  0  0
   -4.5603   -2.8536   -7.3953 O   0  0  0  0  0  0  0  0  0  0  0  0
   -9.8013   -6.3832   -1.9647 N   0  3  0  0  0  0  0  0  0  0  0  0
   -9.1554    0.0448   -1.1458 N   0  3  0  0  0  0  0  0  0  0  0  0
  1  2  1  6  0  0  0
  1  3  1  0  0  0  0
  1 10  1  0  0  0  0
  3  4  1  6  0  0  0
  3  5  1  0  0  0  0
  5  6  1  1  0  0  0
  5  7  1  0  0  0  0
  7  8  1  6  0  0  0
  7  9  1  0  0  0  0
  9 10  1  0  0  0  0
  9 11  1  1  0  0  0
 11 35  1  0  0  0  0
 12 13  1  1  0  0  0
 12 14  1  0  0  0  0
 12 20  1  0  0  0  0
 14 15  1  0  0  0  0
 14 40  1  6  0  0  0
 15 16  1  1  0  0  0
 15 17  1  0  0  0  0
 17  2  1  6  0  0  0
 17 18  1  0  0  0  0
 18 19  1  1  0  0  0
 18 20  1  0  0  0  0
 21 16  1  6  0  0  0
 21 22  1  0  0  0  0
 21 25  1  0  0  0  0
 22 23  1  0  0  0  0
 22 36  1  1  0  0  0
 23 24  1  0  0  0  0
 23 31  1  1  0  0  0
 24 25  1  0  0  0  0
 24 26  1  6  0  0  0
 26 39  1  0  0  0  0
 27 28  1  0  0  0  0
 27 32  1  0  0  0  0
 27 38  1  1  0  0  0
 28 29  1  0  0  0  0
 28 37  1  6  0  0  0
 29 30  1  0  0  0  0
 29 42  1  1  0  0  0
 30 31  1  1  0  0  0
 30 33  1  0  0  0  0
 32 33  1  0  0  0  0
 32 34  1  1  0  0  0
 34 41  1  0  0  0  0
M  CHG  6   4   1  13   1  19   1  35   1  41   1  42   1
M  END
>  <CHROM.1>
-133.49268931,117.26495740,102.30275825,-161.47469190,-57.62227035,171.32050905
170.72929828,-47.41102980,-152.13158767,127.12824354,176.25717279,-78.72666002
157.28717878,87.57385159,160.68120194,-66.05972770,176.48639655,75.97430638
61.04214840,-134.50758544,166.60334671,-157.84662399,-5.02985796,-0.46605875
-3.24681986,0.41351112,0.68880224,0.31743488

>  <Name>


>  <RI>
0

>  <Rbt.Current_Directory>
/home/itssahil/PROJECTS/Mol_Feturizer/New_Systems/rnas/1ei2

>  <Rbt.Executable>
rbdock ($Id: //depot/dev/client3/rdock/2013.1/src/exe/rbdock.cxx#4 $)

>  <Rbt.Library>
libRbt.so (2013.1, Build901 2013/11/27)

>  <Rbt.Parameter_File>
/export/apps/rDock/src/rDock_2013.1_src/data/scripts/dock_solv.prm

>  <Rbt.Receptor>
prm/blind_docking_100.prm

>  <SCORE>
60.3859

>  <SCORE.INTER>
51.6086

>  <SCORE.INTER.CONST>
1

>  <SCORE.INTER.POLAR>
-5.33124

>  <SCORE.INTER.ROT>
9

>  <SCORE.INTER.SOLV>
58.4955

>  <SCORE.INTER.VDW>
23.078

>  <SCORE.INTER.norm>
1.22878

>  <SCORE.INTRA>
-2.47533

>  <SCORE.INTRA.DIHEDRAL>
5.44006

>  <SCORE.INTRA.DIHEDRAL.0>
40.8761

>  <SCORE.INTRA.POLAR>
-0.377647

>  <SCORE.INTRA.POLAR.0>
-0.0268208

>  <SCORE.INTRA.REPUL>
-0.641615

>  <SCORE.INTRA.REPUL.0>
0.641615

>  <SCORE.INTRA.SOLV>
-6.86847

>  <SCORE.INTRA.SOLV.lig_0>
-162.567

>  <SCORE.INTRA.VDW>
2.73095

>  <SCORE.INTRA.VDW.0>
-4.80338

>  <SCORE.INTRA.norm>
-0.0589365

>  <SCORE.RESTR>
11.2526

>  <SCORE.RESTR.CAVITY>
11.2526

>  <SCORE.RESTR.norm>
0.267918

>  <SCORE.SYSTEM>
0

>  <SCORE.SYSTEM.CONST>
0

>  <SCORE.SYSTEM.DIHEDRAL>
0

>  <SCORE.SYSTEM.SOLV>
0

>  <SCORE.SYSTEM.norm>
0

>  <SCORE.heavy>
42

>  <SCORE.norm>
1.43776

>  <RMSD>
8.792

$$$$

 OpenBabel11021811393D
libRbt.so/2013.1/901 2013/11/27
 42 45  0  0  0  0  0  0  0  0999 V2000
   -4.2739   -0.6361   -6.0086 C   0  0  2  0  0  0  0  0  0  0  0  0
   -5.0109   -0.0141   -4.9115 O   0  0  0  0  0  0  0  0  0  0  0  0
   -3.7018   -2.0322   -5.5994 C   0  0  2  0  0  0  0  0  0  0  0  0
   -4.3280   -2.5366   -4.3558 N   0  3  0  0  0  0  0  0  0  0  0  0
   -2.1524   -1.9679   -5.4442 C   0  0  1  0  0  0  0  0  0  0  0  0
   -1.6414   -3.2487   -5.0811 O   0  0  0  0  0  0  0  0  0  0  0  0
   -1.4598   -1.5161   -6.7578 C   0  0  2  0  0  0  0  0  0  0  0  0
   -0.1016   -1.2000   -6.4729 O   0  0  0  0  0  0  0  0  0  0  0  0
   -2.1791   -0.2760   -7.3809 C   0  0  2  0  0  0  0  0  0  0  0  0
   -3.1838    0.2436   -6.4504 O   0  0  0  0  0  0  0  0  0  0  0  0
   -2.9181   -0.5630   -8.7082 C   0  0  0  0  0  0  0  0  0  0  0  0
   -2.9605    3.7819   -4.9876 C   0  0  1  0  0  0  0  0  0  0  0  0
   -2.4562    5.1263   -4.6286 N   0  3  0  0  0  0  0  0  0  0  0  0
   -2.3558    2.6843   -4.0733 C   0  0  1  0  0  0  0  0  0  0  0  0
   -2.9667    1.2589   -4.3078 C   0  0  1  0  0  0  0  0  0  0  0  0
   -2.5707    0.4075   -3.1991 O   0  0  0  0  0  0  0  0  0  0  0  0
   -4.5385    1.2573   -4.3695 C   0  0  1  0  0  0  0  0  0  0  0  0
   -5.0902    2.4009   -5.2810 C   0  0  1  0  0  0  0  0  0  0  0  0
   -6.5632    2.4947   -5.2226 N   0  3  0  0  0  0  0  0  0  0  0  0
   -4.5007    3.7767   -4.8968 C   0  0  0  0  0  0  0  0  0  0  0  0
   -2.8862    0.8109   -1.8351 C   0  0  1  0  0  0  0  0  0  0  0  0
   -4.3664    1.1672   -1.7644 C   0  0  1  0  0  0  0  0  0  0  0  0
   -4.9707   -0.2262   -1.6567 C   0  0  1  0  0  0  0  0  0  0  0  0
   -3.9933   -0.9146   -0.6933 C   0  0  2  0  0  0  0  0  0  0  0  0
   -2.7066   -0.2991   -0.9404 O   0  0  0  0  0  0  0  0  0  0  0  0
   -3.9039   -2.4357   -0.9113 C   0  0  0  0  0  0  0  0  0  0  0  0
   -9.6415   -2.0546   -0.6447 C   0  0  1  0  0  0  0  0  0  0  0  0
   -9.4391   -0.5257   -0.4521 C   0  0  1  0  0  0  0  0  0  0  0  0
   -8.7314    0.1768   -1.6467 C   0  0  2  0  0  0  0  0  0  0  0  0
   -7.4014   -0.5521   -2.0228 C   0  0  1  0  0  0  0  0  0  0  0  0
   -6.3231   -0.1829   -1.1172 O   0  0  0  0  0  0  0  0  0  0  0  0
   -8.9432   -2.5465   -1.9488 C   0  0  1  0  0  0  0  0  0  0  0  0
   -7.5758   -2.0228   -2.0005 O   0  0  0  0  0  0  0  0  0  0  0  0
   -8.9022   -4.0930   -2.0518 C   0  0  0  0  0  0  0  0  0  0  0  0
   -2.2271   -0.0646   -9.9104 N   0  3  0  0  0  0  0  0  0  0  0  0
   -4.6216    1.9405   -0.5916 O   0  0  0  0  0  0  0  0  0  0  0  0
  -10.7187    0.0770   -0.2633 O   0  0  0  0  0  0  0  0  0  0  0  0
   -9.0956   -2.7292    0.4909 O   0  0  0  0  0  0  0  0  0  0  0  0
   -3.0520   -2.7406   -2.0021 O   0  0  0  0  0  0  0  0  0  0  0  0
   -0.9486    2.6197   -4.3034 O   0  0  0  0  0  0  0  0  0  0  0  0
   -9.8527   -4.7540   -1.1388 N   0  3  0  0  0  0  0  0  0  0  0  0
   -8.5351    1.6242   -1.3850 N   0  3  0  0  0  0  0  0  0  0  0  0
  1  2  1  1  0  0  0
  1  3  1  0  0  0  0
  1 10  1  0  0  0  0
  3  4  1  1  0  0  0
  3  5  1  0  0  0  0
  5  6  1  6  0  0  0
  5  7  1  0  0  0  0
  7  8  1  1  0  0  0
  7  9  1  0  0  0  0
  9 10  1  0  0  0  0
  9 11  1  6  0  0  0
 11 35  1  0  0  0  0
 12 13  1  1  0  0  0
 12 14  1  0  0  0  0
 12 20  1  0  0  0  0
 14 15  1  0  0  0  0
 14 40  1  6  0  0  0
 15 16  1  1  0  0  0
 15 17  1  0  0  0  0
 17  2  1  6  0  0  0
 17 18  1  0  0  0  0
 18 19  1  1  0  0  0
 18 20  1  0  0  0  0
 21 16  1  6  0  0  0
 21 22  1  0  0  0  0
 21 25  1  0  0  0  0
 22 23  1  0  0  0  0
 22 36  1  1  0  0  0
 23 24  1  0  0  0  0
 23 31  1  1  0  0  0
 24 25  1  0  0  0  0
 24 26  1  6  0  0  0
 26 39  1  0  0  0  0
 27 28  1  0  0  0  0
 27 32  1  0  0  0  0
 27 38  1  1  0  0  0
 28 29  1  0  0  0  0
 28 37  1  6  0  0  0
 29 30  1  0  0  0  0
 29 42  1  1  0  0  0
 30 31  1  1  0  0  0
 30 33  1  0  0  0  0
 32 33  1  0  0  0  0
 32 34  1  1  0  0  0
 34 41  1  0  0  0  0
M  CHG  6   4   1  13   1  19   1  35   1  41   1  42   1
M  END
>  <CHROM.1>
118.11769432,-39.01504563,-137.56270279,122.42474624,-51.71289495,-104.41009964
-54.11916617,-138.05128873,87.17812275,56.07441759,50.60860870,51.85109551
-50.89662093,112.41847429,80.40376685,-176.61332319,-124.12552876,75.78815968
-93.22010120,-151.31229261,17.04163699,91.14280308,-4.85105092,-0.20949909
-3.48267387,-0.16847713,-0.70894153,-2.98165347

>  <Name>


>  <RI>
0

>  <Rbt.Current_Directory>
/home/itssahil/PROJECTS/Mol_Feturizer/New_Systems/rnas/1ei2

>  <Rbt.Executable>
rbdock ($Id: //depot/dev/client3/rdock/2013.1/src/exe/rbdock.cxx#4 $)

>  <Rbt.Library>
libRbt.so (2013.1, Build901 2013/11/27)

>  <Rbt.Parameter_File>
/export/apps/rDock/src/rDock_2013.1_src/data/scripts/dock_solv.prm

>  <Rbt.Receptor>
prm/blind_docking_80.prm

>  <SCORE>
72.2134

>  <SCORE.INTER>
42.4513

>  <SCORE.INTER.CONST>
1

>  <SCORE.INTER.POLAR>
-3.54444

>  <SCORE.INTER.ROT>
9

>  <SCORE.INTER.SOLV>
46.9247

>  <SCORE.INTER.VDW>
14.8741

>  <SCORE.INTER.norm>
1.01074

>  <SCORE.INTRA>
17.1097

>  <SCORE.INTRA.DIHEDRAL>
18.8891

>  <SCORE.INTRA.DIHEDRAL.0>
40.8761

>  <SCORE.INTRA.POLAR>
-1.11955

>  <SCORE.INTRA.POLAR.0>
-0.0268208

>  <SCORE.INTRA.REPUL>
-0.270706

>  <SCORE.INTRA.REPUL.0>
0.641615

>  <SCORE.INTRA.SOLV>
-2.27552

>  <SCORE.INTRA.SOLV.lig_0>
-162.567

>  <SCORE.INTRA.VDW>
13.9629

>  <SCORE.INTRA.VDW.0>
-4.80338

>  <SCORE.INTRA.norm>
0.407374

>  <SCORE.RESTR>
12.6525

>  <SCORE.RESTR.CAVITY>
12.6525

>  <SCORE.RESTR.norm>
0.301249

>  <SCORE.SYSTEM>
0

>  <SCORE.SYSTEM.CONST>
0

>  <SCORE.SYSTEM.DIHEDRAL>
0

>  <SCORE.SYSTEM.SOLV>
0

>  <SCORE.SYSTEM.norm>
0

>  <SCORE.heavy>
42

>  <SCORE.norm>
1.71937

>  <RMSD>
8.802

$$$$

 OpenBabel11021811393D
libRbt.so/2013.1/901 2013/11/27
 42 45  0  0  0  0  0  0  0  0999 V2000
   -2.2353    3.7665    1.6599 C   0  0  2  0  0  0  0  0  0  0  0  0
   -2.1108    4.2036    0.2717 O   0  0  0  0  0  0  0  0  0  0  0  0
   -1.1582    4.4366    2.5734 C   0  0  2  0  0  0  0  0  0  0  0  0
   -0.5176    5.5929    1.9056 N   0  3  0  0  0  0  0  0  0  0  0  0
   -0.0849    3.3957    3.0131 C   0  0  1  0  0  0  0  0  0  0  0  0
    0.8859    4.0159    3.8536 O   0  0  0  0  0  0  0  0  0  0  0  0
   -0.7172    2.2070    3.7856 C   0  0  2  0  0  0  0  0  0  0  0  0
    0.2507    1.1698    3.9002 O   0  0  0  0  0  0  0  0  0  0  0  0
   -1.9926    1.6715    3.0575 C   0  0  2  0  0  0  0  0  0  0  0  0
   -2.1253    2.3042    1.7432 O   0  0  0  0  0  0  0  0  0  0  0  0
   -3.3183    1.9370    3.8073 C   0  0  0  0  0  0  0  0  0  0  0  0
   -4.1416    4.2059   -3.5356 C   0  0  1  0  0  0  0  0  0  0  0  0
   -5.1386    3.9940   -4.6087 N   0  3  0  0  0  0  0  0  0  0  0  0
   -4.6526    5.2165   -2.4754 C   0  0  1  0  0  0  0  0  0  0  0  0
   -3.7028    5.3674   -1.2365 C   0  0  1  0  0  0  0  0  0  0  0  0
   -4.4284    6.0687   -0.1912 O   0  0  0  0  0  0  0  0  0  0  0  0
   -3.2292    3.9898   -0.6431 C   0  0  1  0  0  0  0  0  0  0  0  0
   -2.7536    3.0038   -1.7587 C   0  0  1  0  0  0  0  0  0  0  0  0
   -2.4502    1.6622   -1.2204 N   0  3  0  0  0  0  0  0  0  0  0  0
   -3.8081    2.8507   -2.8778 C   0  0  0  0  0  0  0  0  0  0  0  0
   -5.3673    5.3355    0.6476 C   0  0  1  0  0  0  0  0  0  0  0  0
   -5.6034    6.1338    1.9242 C   0  0  1  0  0  0  0  0  0  0  0  0
   -6.6138    7.1538    1.4173 C   0  0  1  0  0  0  0  0  0  0  0  0
   -7.5097    6.2850    0.5230 C   0  0  2  0  0  0  0  0  0  0  0  0
   -6.6453    5.2502   -0.0039 O   0  0  0  0  0  0  0  0  0  0  0  0
   -8.1556    7.0740   -0.6301 C   0  0  0  0  0  0  0  0  0  0  0  0
  -10.5255    9.3140    4.0305 C   0  0  1  0  0  0  0  0  0  0  0  0
   -9.0723    9.5902    4.5074 C   0  0  1  0  0  0  0  0  0  0  0  0
   -8.0921    9.9811    3.3639 C   0  0  2  0  0  0  0  0  0  0  0  0
   -8.1432    8.9431    2.1970 C   0  0  1  0  0  0  0  0  0  0  0  0
   -7.3623    7.7557    2.5124 O   0  0  0  0  0  0  0  0  0  0  0  0
  -10.6157    9.3546    2.4747 C   0  0  1  0  0  0  0  0  0  0  0  0
   -9.5385    8.5452    1.8995 O   0  0  0  0  0  0  0  0  0  0  0  0
  -11.9795    8.8396    1.9467 C   0  0  0  0  0  0  0  0  0  0  0  0
   -3.3270    1.4830    5.2091 N   0  3  0  0  0  0  0  0  0  0  0  0
   -6.1707    5.2879    2.9249 O   0  0  0  0  0  0  0  0  0  0  0  0
   -9.1060   10.6519    5.4603 O   0  0  0  0  0  0  0  0  0  0  0  0
  -10.9229    8.0287    4.5135 O   0  0  0  0  0  0  0  0  0  0  0  0
   -8.9802    6.2330   -1.4183 O   0  0  0  0  0  0  0  0  0  0  0  0
   -4.8005    6.4944   -3.0938 O   0  0  0  0  0  0  0  0  0  0  0  0
  -12.0774    8.8802    0.4761 N   0  3  0  0  0  0  0  0  0  0  0  0
   -6.7166   10.1945    3.8786 N   0  3  0  0  0  0  0  0  0  0  0  0
  1  2  1  6  0  0  0
  1  3  1  0  0  0  0
  1 10  1  0  0  0  0
  3  4  1  6  0  0  0
  3  5  1  0  0  0  0
  5  6  1  1  0  0  0
  5  7  1  0  0  0  0
  7  8  1  6  0  0  0
  7  9  1  0  0  0  0
  9 10  1  0  0  0  0
  9 11  1  1  0  0  0
 11 35  1  0  0  0  0
 12 13  1  6  0  0  0
 12 14  1  0  0  0  0
 12 20  1  0  0  0  0
 14 15  1  0  0  0  0
 14 40  1  6  0  0  0
 15 16  1  1  0  0  0
 15 17  1  0  0  0  0
 17  2  1  1  0  0  0
 17 18  1  0  0  0  0
 18 19  1  1  0  0  0
 18 20  1  0  0  0  0
 21 16  1  6  0  0  0
 21 22  1  0  0  0  0
 21 25  1  0  0  0  0
 22 23  1  0  0  0  0
 22 36  1  1  0  0  0
 23 24  1  0  0  0  0
 23 31  1  1  0  0  0
 24 25  1  0  0  0  0
 24 26  1  6  0  0  0
 26 39  1  0  0  0  0
 27 28  1  0  0  0  0
 27 32  1  0  0  0  0
 27 38  1  6  0  0  0
 28 29  1  0  0  0  0
 28 37  1  1  0  0  0
 29 30  1  0  0  0  0
 29 42  1  1  0  0  0
 30 31  1  1  0  0  0
 30 33  1  0  0  0  0
 32 33  1  0  0  0  0
 32 34  1  1  0  0  0
 34 41  1  0  0  0  0
M  CHG  6   4   1  13   1  19   1  35   1  41   1  42   1
M  END
>  <CHROM.1>
-163.08006938,121.55499446,56.52322641,-172.15966802,-177.32390215,-52.49337844
-165.85050359,76.30358422,166.90415506,80.39194915,160.17094371,-156.54102167
-176.29561141,166.96892968,-179.49387560,-57.20325964,59.09394730,66.62006804
-77.80840406,-142.01787552,179.72118160,72.50436481,-5.35704292,5.65854050
1.34841845,-0.23504575,-0.60925320,1.36718300

>  <Name>


>  <RI>
0

>  <Rbt.Current_Directory>
/home/itssahil/PROJECTS/Mol_Feturizer/New_Systems/rnas/1ei2

>  <Rbt.Executable>
rbdock ($Id: //depot/dev/client3/rdock/2013.1/src/exe/rbdock.cxx#4 $)

>  <Rbt.Library>
libRbt.so (2013.1, Build901 2013/11/27)

>  <Rbt.Parameter_File>
/export/apps/rDock/src/rDock_2013.1_src/data/scripts/dock_solv.prm

>  <Rbt.Receptor>
prm/pocket_docking_8.prm

>  <SCORE>
-50.8848

>  <SCORE.INTER>
-27.7582

>  <SCORE.INTER.CONST>
1

>  <SCORE.INTER.POLAR>
-5.38092

>  <SCORE.INTER.ROT>
9

>  <SCORE.INTER.SOLV>
18.5426

>  <SCORE.INTER.VDW>
-16.3499

>  <SCORE.INTER.norm>
-0.660909

>  <SCORE.INTRA>
-23.1266

>  <SCORE.INTRA.DIHEDRAL>
-16.765

>  <SCORE.INTRA.DIHEDRAL.0>
40.8761

>  <SCORE.INTRA.POLAR>
-1.14571

>  <SCORE.INTRA.POLAR.0>
-0.0268208

>  <SCORE.INTRA.REPUL>
-0.641615

>  <SCORE.INTRA.REPUL.0>
0.641615

>  <SCORE.INTRA.SOLV>
-13.2189

>  <SCORE.INTRA.SOLV.lig_0>
-162.567

>  <SCORE.INTRA.VDW>
-1.03113

>  <SCORE.INTRA.VDW.0>
-4.80338

>  <SCORE.INTRA.norm>
-0.550633

>  <SCORE.RESTR>
0

>  <SCORE.RESTR.CAVITY>
0

>  <SCORE.RESTR.norm>
0

>  <SCORE.SYSTEM>
0

>  <SCORE.SYSTEM.CONST>
0

>  <SCORE.SYSTEM.DIHEDRAL>
0

>  <SCORE.SYSTEM.SOLV>
0

>  <SCORE.SYSTEM.norm>
0

>  <SCORE.heavy>
42

>  <SCORE.norm>
-1.21154

>  <RMSD>
8.805

$$$$

 OpenBabel11021811393D
libRbt.so/2013.1/901 2013/11/27
 42 45  0  0  0  0  0  0  0  0999 V2000
   -3.8472    0.2696   -7.9649 C   0  0  2  0  0  0  0  0  0  0  0  0
   -4.1659   -0.5961   -6.8324 O   0  0  0  0  0  0  0  0  0  0  0  0
   -4.6164    1.6282   -7.8855 C   0  0  2  0  0  0  0  0  0  0  0  0
   -5.1893    1.8543   -6.5387 N   0  3  0  0  0  0  0  0  0  0  0  0
   -5.7317    1.6934   -8.9721 C   0  0  1  0  0  0  0  0  0  0  0  0
   -6.4192    2.9405   -8.8964 O   0  0  0  0  0  0  0  0  0  0  0  0
   -5.1518    1.5372  -10.4034 C   0  0  2  0  0  0  0  0  0  0  0  0
   -6.2262    1.3148  -11.3100 O   0  0  0  0  0  0  0  0  0  0  0  0
   -4.1346    0.3526  -10.4772 C   0  0  2  0  0  0  0  0  0  0  0  0
   -4.1600   -0.4117   -9.2280 O   0  0  0  0  0  0  0  0  0  0  0  0
   -2.6658    0.7811  -10.6988 C   0  0  0  0  0  0  0  0  0  0  0  0
   -2.7102   -4.3137   -5.1953 C   0  0  1  0  0  0  0  0  0  0  0  0
   -1.8276   -5.4092   -4.7357 N   0  3  0  0  0  0  0  0  0  0  0  0
   -2.5758   -3.0583   -4.2942 C   0  0  1  0  0  0  0  0  0  0  0  0
   -3.3740   -1.8146   -4.8195 C   0  0  1  0  0  0  0  0  0  0  0  0
   -2.9164   -0.6421   -4.0935 O   0  0  0  0  0  0  0  0  0  0  0  0
   -3.1576   -1.5378   -6.3527 C   0  0  1  0  0  0  0  0  0  0  0  0
   -3.2761   -2.8420   -7.2059 C   0  0  1  0  0  0  0  0  0  0  0  0
   -2.9272   -2.6114   -8.6226 N   0  3  0  0  0  0  0  0  0  0  0  0
   -2.3711   -3.9695   -6.6606 C   0  0  0  0  0  0  0  0  0  0  0  0
   -2.8423   -0.6813   -2.6390 C   0  0  1  0  0  0  0  0  0  0  0  0
   -2.7247    0.7470   -2.1203 C   0  0  1  0  0  0  0  0  0  0  0  0
   -4.1841    1.1759   -2.1888 C   0  0  1  0  0  0  0  0  0  0  0  0
   -4.9019   -0.0846   -1.6856 C   0  0  2  0  0  0  0  0  0  0  0  0
   -4.0704   -1.1954   -2.0981 O   0  0  0  0  0  0  0  0  0  0  0  0
   -6.3200   -0.2410   -2.2633 C   0  0  0  0  0  0  0  0  0  0  0  0
   -3.7949    4.8032    1.5265 C   0  0  1  0  0  0  0  0  0  0  0  0
   -5.1950    4.3016    1.0755 C   0  0  1  0  0  0  0  0  0  0  0  0
   -5.3098    2.7539    0.9642 C   0  0  2  0  0  0  0  0  0  0  0  0
   -4.1602    2.1643    0.0853 C   0  0  1  0  0  0  0  0  0  0  0  0
   -4.4448    2.3257   -1.3333 O   0  0  0  0  0  0  0  0  0  0  0  0
   -2.7850    3.6192    1.6188 C   0  0  1  0  0  0  0  0  0  0  0  0
   -2.8649    2.8101    0.4001 O   0  0  0  0  0  0  0  0  0  0  0  0
   -1.3245    4.1004    1.8177 C   0  0  0  0  0  0  0  0  0  0  0  0
   -1.7527   -0.3249  -11.0370 N   0  3  0  0  0  0  0  0  0  0  0  0
   -2.2454    0.7346   -0.7755 O   0  0  0  0  0  0  0  0  0  0  0  0
   -6.1627    4.7629    2.0175 O   0  0  0  0  0  0  0  0  0  0  0  0
   -3.3349    5.7703    0.5799 O   0  0  0  0  0  0  0  0  0  0  0  0
   -6.8845   -1.4854   -1.8871 O   0  0  0  0  0  0  0  0  0  0  0  0
   -3.0454   -3.3807   -2.9854 O   0  0  0  0  0  0  0  0  0  0  0  0
   -1.1349    4.8555    3.0698 N   0  3  0  0  0  0  0  0  0  0  0  0
   -6.6560    2.3427    0.4945 N   0  3  0  0  0  0  0  0  0  0  0  0
  1  2  1  1  0  0  0
  1  3  1  0  0  0  0
  1 10  1  0  0  0  0
  3  4  1  1  0  0  0
  3  5  1  0  0  0  0
  5  6  1  6  0  0  0
  5  7  1  0  0  0  0
  7  8  1  6  0  0  0
  7  9  1  0  0  0  0
  9 10  1  0  0  0  0
  9 11  1  1  0  0  0
 11 35  1  0  0  0  0
 12 13  1  1  0  0  0
 12 14  1  0  0  0  0
 12 20  1  0  0  0  0
 14 15  1  0  0  0  0
 14 40  1  1  0  0  0
 15 16  1  1  0  0  0
 15 17  1  0  0  0  0
 17  2  1  6  0  0  0
 17 18  1  0  0  0  0
 18 19  1  6  0  0  0
 18 20  1  0  0  0  0
 21 16  1  6  0  0  0
 21 22  1  0  0  0  0
 21 25  1  0  0  0  0
 22 23  1  0  0  0  0
 22 36  1  1  0  0  0
 23 24  1  0  0  0  0
 23 31  1  1  0  0  0
 24 25  1  0  0  0  0
 24 26  1  6  0  0  0
 26 39  1  0  0  0  0
 27 28  1  0  0  0  0
 27 32  1  0  0  0  0
 27 38  1  6  0  0  0
 28 29  1  0  0  0  0
 28 37  1  1  0  0  0
 29 30  1  0  0  0  0
 29 42  1  6  0  0  0
 30 31  1  6  0  0  0
 30 33  1  0  0  0  0
 32 33  1  0  0  0  0
 32 34  1  6  0  0  0
 34 41  1  0  0  0  0
M  CHG  6   4   1  13   1  19   1  35   1  41   1  42   1
M  END
>  <CHROM.1>
-150.08915861,151.91737533,-66.40548706,-65.31509264,64.66049980,-168.32562925
43.92080032,41.84496757,-65.37630572,-49.60313648,-164.20372938,56.55457865
53.67750507,-59.01067774,173.65471183,41.98238624,66.02537063,-68.29963389
-101.19231628,-135.80445229,61.66775767,56.37490710,-3.90833043,0.60937471
-3.99694924,1.57484700,1.23107213,-1.96418181

>  <Name>


>  <RI>
0

>  <Rbt.Current_Directory>
/home/itssahil/PROJECTS/Mol_Feturizer/New_Systems/rnas/1ei2

>  <Rbt.Executable>
rbdock ($Id: //depot/dev/client3/rdock/2013.1/src/exe/rbdock.cxx#4 $)

>  <Rbt.Library>
libRbt.so (2013.1, Build901 2013/11/27)

>  <Rbt.Parameter_File>
/export/apps/rDock/src/rDock_2013.1_src/data/scripts/dock_solv.prm

>  <Rbt.Receptor>
prm/pocket_docking_7.prm

>  <SCORE>
-54.3936

>  <SCORE.INTER>
-40.3086

>  <SCORE.INTER.CONST>
1

>  <SCORE.INTER.POLAR>
-6.64644

>  <SCORE.INTER.ROT>
9

>  <SCORE.INTER.SOLV>
21.3706

>  <SCORE.INTER.VDW>
-21.4412

>  <SCORE.INTER.norm>
-0.95973

>  <SCORE.INTRA>
-14.2678

>  <SCORE.INTRA.DIHEDRAL>
-18.3954

>  <SCORE.INTRA.DIHEDRAL.0>
40.8761

>  <SCORE.INTRA.POLAR>
-1.1369

>  <SCORE.INTRA.POLAR.0>
-0.0268208

>  <SCORE.INTRA.REPUL>
-0.52426

>  <SCORE.INTRA.REPUL.0>
0.641615

>  <SCORE.INTRA.SOLV>
-4.20341

>  <SCORE.INTRA.SOLV.lig_0>
-162.567

>  <SCORE.INTRA.VDW>
3.51837

>  <SCORE.INTRA.VDW.0>
-4.80338

>  <SCORE.INTRA.norm>
-0.339709

>  <SCORE.RESTR>
0.182854

>  <SCORE.RESTR.CAVITY>
0.182854

>  <SCORE.RESTR.norm>
0.00435366

>  <SCORE.SYSTEM>
0

>  <SCORE.SYSTEM.CONST>
0

>  <SCORE.SYSTEM.DIHEDRAL>
0

>  <SCORE.SYSTEM.SOLV>
0

>  <SCORE.SYSTEM.norm>
0

>  <SCORE.heavy>
42

>  <SCORE.norm>
-1.29509

>  <RMSD>
8.819

$$$$

 OpenBabel11021811393D
libRbt.so/2013.1/901 2013/11/27
 42 45  0  0  0  0  0  0  0  0999 V2000
   -3.5806    0.4444   -6.5011 C   0  0  2  0  0  0  0  0  0  0  0  0
   -3.6314   -0.7627   -7.3222 O   0  0  0  0  0  0  0  0  0  0  0  0
   -4.7691    1.4084   -6.8206 C   0  0  2  0  0  0  0  0  0  0  0  0
   -5.8310    0.7286   -7.5974 N   0  3  0  0  0  0  0  0  0  0  0  0
   -4.2631    2.6736   -7.5771 C   0  0  1  0  0  0  0  0  0  0  0  0
   -5.3538    3.5496   -7.8539 O   0  0  0  0  0  0  0  0  0  0  0  0
   -3.2032    3.4525   -6.7530 C   0  0  2  0  0  0  0  0  0  0  0  0
   -2.5788    4.4103   -7.6007 O   0  0  0  0  0  0  0  0  0  0  0  0
   -2.1297    2.4875   -6.1532 C   0  0  2  0  0  0  0  0  0  0  0  0
   -2.3023    1.1397   -6.6999 O   0  0  0  0  0  0  0  0  0  0  0  0
   -2.1824    2.3462   -4.6145 C   0  0  0  0  0  0  0  0  0  0  0  0
   -2.9464   -4.8489   -6.1166 C   0  0  1  0  0  0  0  0  0  0  0  0
   -2.2974   -6.1327   -5.7688 N   0  3  0  0  0  0  0  0  0  0  0  0
   -2.6428   -3.7533   -5.0612 C   0  0  1  0  0  0  0  0  0  0  0  0
   -3.1790   -2.3324   -5.4527 C   0  0  1  0  0  0  0  0  0  0  0  0
   -2.5628   -1.3560   -4.5707 O   0  0  0  0  0  0  0  0  0  0  0  0
   -2.8329   -1.9216   -6.9311 C   0  0  1  0  0  0  0  0  0  0  0  0
   -3.1321   -3.0732   -7.9445 C   0  0  1  0  0  0  0  0  0  0  0  0
   -2.6704   -2.7452   -9.3087 N   0  3  0  0  0  0  0  0  0  0  0  0
   -2.4715   -4.4025   -7.5150 C   0  0  0  0  0  0  0  0  0  0  0  0
   -3.3855   -0.3218   -3.9572 C   0  0  1  0  0  0  0  0  0  0  0  0
   -4.8514   -0.7015   -4.1303 C   0  0  1  0  0  0  0  0  0  0  0  0
   -5.0008   -1.7090   -2.9984 C   0  0  1  0  0  0  0  0  0  0  0  0
   -4.2004   -1.0345   -1.8751 C   0  0  2  0  0  0  0  0  0  0  0  0
   -3.1541   -0.2865   -2.5394 O   0  0  0  0  0  0  0  0  0  0  0  0
   -3.5860   -2.0409   -0.8857 C   0  0  0  0  0  0  0  0  0  0  0  0
   -8.3005    1.2829   -1.6290 C   0  0  1  0  0  0  0  0  0  0  0  0
   -8.9578   -0.0739   -2.0063 C   0  0  1  0  0  0  0  0  0  0  0  0
   -8.3760   -1.2965   -1.2395 C   0  0  2  0  0  0  0  0  0  0  0  0
   -6.8181   -1.3439   -1.3514 C   0  0  1  0  0  0  0  0  0  0  0  0
   -6.3976   -1.8974   -2.6304 O   0  0  0  0  0  0  0  0  0  0  0  0
   -7.0965    1.0662   -0.6628 C   0  0  1  0  0  0  0  0  0  0  0  0
   -6.2315    0.0062   -1.1870 O   0  0  0  0  0  0  0  0  0  0  0  0
   -6.2593    2.3555   -0.4608 C   0  0  0  0  0  0  0  0  0  0  0  0
   -2.3599    3.6178   -3.8915 N   0  3  0  0  0  0  0  0  0  0  0  0
   -5.6754    0.4458   -3.9220 O   0  0  0  0  0  0  0  0  0  0  0  0
  -10.3555    0.0119   -1.7318 O   0  0  0  0  0  0  0  0  0  0  0  0
   -7.8598    1.9208   -2.8298 O   0  0  0  0  0  0  0  0  0  0  0  0
   -2.6565   -2.8884   -1.5387 O   0  0  0  0  0  0  0  0  0  0  0  0
   -3.2334   -4.1364   -3.8195 O   0  0  0  0  0  0  0  0  0  0  0  0
   -5.4455    2.7016   -1.6406 N   0  3  0  0  0  0  0  0  0  0  0  0
   -9.0183   -2.5627   -1.6713 N   0  3  0  0  0  0  0  0  0  0  0  0
  1  2  1  6  0  0  0
  1  3  1  0  0  0  0
  1 10  1  0  0  0  0
  3  4  1  6  0  0  0
  3  5  1  0  0  0  0
  5  6  1  1  0  0  0
  5  7  1  0  0  0  0
  7  8  1  6  0  0  0
  7  9  1  0  0  0  0
  9 10  1  0  0  0  0
  9 11  1  1  0  0  0
 11 35  1  0  0  0  0
 12 13  1  1  0  0  0
 12 14  1  0  0  0  0
 12 20  1  0  0  0  0
 14 15  1  0  0  0  0
 14 40  1  1  0  0  0
 15 16  1  1  0  0  0
 15 17  1  0  0  0  0
 17  2  1  6  0  0  0
 17 18  1  0  0  0  0
 18 19  1  6  0  0  0
 18 20  1  0  0  0  0
 21 16  1  6  0  0  0
 21 22  1  0  0  0  0
 21 25  1  0  0  0  0
 22 23  1  0  0  0  0
 22 36  1  1  0  0  0
 23 24  1  0  0  0  0
 23 31  1  1  0  0  0
 24 25  1  0  0  0  0
 24 26  1  1  0  0  0
 26 39  1  0  0  0  0
 27 28  1  0  0  0  0
 27 32  1  0  0  0  0
 27 38  1  6  0  0  0
 28 29  1  0  0  0  0
 28 37  1  1  0  0  0
 29 30  1  0  0  0  0
 29 42  1  6  0  0  0
 30 31  1  6  0  0  0
 30 33  1  0  0  0  0
 32 33  1  0  0  0  0
 32 34  1  6  0  0  0
 34 41  1  0  0  0  0
M  CHG  6   4   1  13   1  19   1  35   1  41   1  42   1
M  END
>  <CHROM.1>
-163.88394865,55.18717230,-179.78867490,65.83179202,51.52251803,-43.71444224
-164.51168649,-124.24618637,171.23369329,-134.28318643,13.66805331,-69.72673753
159.08586839,-108.57899963,62.47123811,168.02275489,-61.06743259,-58.72778467
70.30993053,165.84070617,-72.85770434,-15.42866625,-4.62632881,-0.35263089
-4.35620894,0.04294910,0.88411464,-0.28493138

>  <Name>


>  <RI>
0

>  <Rbt.Current_Directory>
/home/itssahil/PROJECTS/Mol_Feturizer/New_Systems/rnas/1ei2

>  <Rbt.Executable>
rbdock ($Id: //depot/dev/client3/rdock/2013.1/src/exe/rbdock.cxx#4 $)

>  <Rbt.Library>
libRbt.so (2013.1, Build901 2013/11/27)

>  <Rbt.Parameter_File>
/export/apps/rDock/src/rDock_2013.1_src/data/scripts/dock_solv.prm

>  <Rbt.Receptor>
prm/blind_docking_20.prm

>  <SCORE>
-12.9566

>  <SCORE.INTER>
-25.4588

>  <SCORE.INTER.CONST>
1

>  <SCORE.INTER.POLAR>
-4.51099

>  <SCORE.INTER.ROT>
9

>  <SCORE.INTER.SOLV>
36.9048

>  <SCORE.INTER.VDW>
-23.8375

>  <SCORE.INTER.norm>
-0.606162

>  <SCORE.INTRA>
-7.11492

>  <SCORE.INTRA.DIHEDRAL>
-6.29209

>  <SCORE.INTRA.DIHEDRAL.0>
40.8761

>  <SCORE.INTRA.POLAR>
-2.97921

>  <SCORE.INTRA.POLAR.0>
-0.0268208

>  <SCORE.INTRA.REPUL>
-0.641615

>  <SCORE.INTRA.REPUL.0>
0.641615

>  <SCORE.INTRA.SOLV>
-0.905549

>  <SCORE.INTRA.SOLV.lig_0>
-162.567

>  <SCORE.INTRA.VDW>
9.82129

>  <SCORE.INTRA.VDW.0>
-4.80338

>  <SCORE.INTRA.norm>
-0.169403

>  <SCORE.RESTR>
19.6171

>  <SCORE.RESTR.CAVITY>
19.6171

>  <SCORE.RESTR.norm>
0.467074

>  <SCORE.SYSTEM>
0

>  <SCORE.SYSTEM.CONST>
0

>  <SCORE.SYSTEM.DIHEDRAL>
0

>  <SCORE.SYSTEM.SOLV>
0

>  <SCORE.SYSTEM.norm>
0

>  <SCORE.heavy>
42

>  <SCORE.norm>
-0.308491

>  <RMSD>
8.821

$$$$

 OpenBabel11021811393D
libRbt.so/2013.1/901 2013/11/27
 42 45  0  0  0  0  0  0  0  0999 V2000
   -2.0175    1.7317   -4.0961 C   0  0  2  0  0  0  0  0  0  0  0  0
   -2.2255    0.2919   -4.2285 O   0  0  0  0  0  0  0  0  0  0  0  0
   -1.2736    2.0862   -2.7676 C   0  0  2  0  0  0  0  0  0  0  0  0
   -0.6559    0.8899   -2.1509 N   0  3  0  0  0  0  0  0  0  0  0  0
   -2.2420    2.7808   -1.7633 C   0  0  1  0  0  0  0  0  0  0  0  0
   -1.5501    3.1083   -0.5602 O   0  0  0  0  0  0  0  0  0  0  0  0
   -2.8473    4.0828   -2.3530 C   0  0  2  0  0  0  0  0  0  0  0  0
   -3.9236    4.5035   -1.5222 O   0  0  0  0  0  0  0  0  0  0  0  0
   -3.3540    3.8614   -3.8151 C   0  0  2  0  0  0  0  0  0  0  0  0
   -3.3041    2.4376   -4.1553 O   0  0  0  0  0  0  0  0  0  0  0  0
   -2.5328    4.5994   -4.8973 C   0  0  0  0  0  0  0  0  0  0  0  0
   -3.6938    0.4676   -8.2823 C   0  0  1  0  0  0  0  0  0  0  0  0
   -4.2304    0.0980   -9.6111 N   0  3  0  0  0  0  0  0  0  0  0  0
   -4.7550    0.2779   -7.1670 C   0  0  1  0  0  0  0  0  0  0  0  0
   -4.1989    0.5102   -5.7190 C   0  0  1  0  0  0  0  0  0  0  0  0
   -5.1719   -0.0053   -4.7711 O   0  0  0  0  0  0  0  0  0  0  0  0
   -2.8364   -0.2280   -5.4492 C   0  0  1  0  0  0  0  0  0  0  0  0
   -1.8186   -0.0251   -6.6180 C   0  0  1  0  0  0  0  0  0  0  0  0
   -0.5976   -0.8364   -6.4371 N   0  3  0  0  0  0  0  0  0  0  0  0
   -2.4388   -0.3804   -7.9880 C   0  0  0  0  0  0  0  0  0  0  0  0
   -5.1391    0.4511   -3.3879 C   0  0  1  0  0  0  0  0  0  0  0  0
   -6.4198   -0.0017   -2.6968 C   0  0  1  0  0  0  0  0  0  0  0  0
   -6.0593   -1.4490   -2.3901 C   0  0  1  0  0  0  0  0  0  0  0  0
   -4.5967   -1.3161   -1.9423 C   0  0  2  0  0  0  0  0  0  0  0  0
   -4.0644   -0.1923   -2.6835 O   0  0  0  0  0  0  0  0  0  0  0  0
   -3.7636   -2.5794   -2.2243 C   0  0  0  0  0  0  0  0  0  0  0  0
   -9.5391   -4.3941    0.0921 C   0  0  1  0  0  0  0  0  0  0  0  0
   -9.2766   -2.9469    0.5944 C   0  0  1  0  0  0  0  0  0  0  0  0
   -9.2575   -1.8764   -0.5347 C   0  0  2  0  0  0  0  0  0  0  0  0
   -8.2841   -2.2874   -1.6859 C   0  0  1  0  0  0  0  0  0  0  0  0
   -6.9009   -1.9984   -1.3358 O   0  0  0  0  0  0  0  0  0  0  0  0
   -9.5754   -4.4424   -1.4656 C   0  0  1  0  0  0  0  0  0  0  0  0
   -8.4161   -3.7276   -2.0057 O   0  0  0  0  0  0  0  0  0  0  0  0
   -9.5818   -5.8929   -2.0134 C   0  0  0  0  0  0  0  0  0  0  0  0
   -2.7478    4.1044   -6.2685 N   0  3  0  0  0  0  0  0  0  0  0  0
   -6.6163    0.7533   -1.5011 O   0  0  0  0  0  0  0  0  0  0  0  0
  -10.2983   -2.6034    1.5296 O   0  0  0  0  0  0  0  0  0  0  0  0
   -8.4986   -5.2398    0.5871 O   0  0  0  0  0  0  0  0  0  0  0  0
   -3.5864   -2.7672   -3.6178 O   0  0  0  0  0  0  0  0  0  0  0  0
   -5.8278    1.1916   -7.3944 O   0  0  0  0  0  0  0  0  0  0  0  0
  -10.7260   -6.6849   -1.5261 N   0  3  0  0  0  0  0  0  0  0  0  0
   -8.9657   -0.5251    0.0048 N   0  3  0  0  0  0  0  0  0  0  0  0
  1  2  1  1  0  0  0
  1  3  1  0  0  0  0
  1 10  1  0  0  0  0
  3  4  1  1  0  0  0
  3  5  1  0  0  0  0
  5  6  1  1  0  0  0
  5  7  1  0  0  0  0
  7  8  1  1  0  0  0
  7  9  1  0  0  0  0
  9 10  1  0  0  0  0
  9 11  1  6  0  0  0
 11 35  1  0  0  0  0
 12 13  1  6  0  0  0
 12 14  1  0  0  0  0
 12 20  1  0  0  0  0
 14 15  1  0  0  0  0
 14 40  1  6  0  0  0
 15 16  1  1  0  0  0
 15 17  1  0  0  0  0
 17  2  1  1  0  0  0
 17 18  1  0  0  0  0
 18 19  1  1  0  0  0
 18 20  1  0  0  0  0
 21 16  1  6  0  0  0
 21 22  1  0  0  0  0
 21 25  1  0  0  0  0
 22 23  1  0  0  0  0
 22 36  1  1  0  0  0
 23 24  1  0  0  0  0
 23 31  1  1  0  0  0
 24 25  1  0  0  0  0
 24 26  1  6  0  0  0
 26 39  1  0  0  0  0
 27 28  1  0  0  0  0
 27 32  1  0  0  0  0
 27 38  1  6  0  0  0
 28 29  1  0  0  0  0
 28 37  1  1  0  0  0
 29 30  1  0  0  0  0
 29 42  1  1  0  0  0
 30 31  1  1  0  0  0
 30 33  1  0  0  0  0
 32 33  1  0  0  0  0
 32 34  1  1  0  0  0
 34 41  1  0  0  0  0
M  CHG  6   4   1  13   1  19   1  35   1  41   1  42   1
M  END
>  <CHROM.1>
-176.40515483,-53.57005314,-154.42693905,72.69537822,69.41472949,163.34262908
167.69411824,72.57901384,65.91358344,-160.05704981,168.10272102,-84.79303654
76.89705199,72.48934880,68.24971450,-57.49772401,-57.16468725,-177.20732540
-19.78207381,-139.28862444,58.54421901,-163.62382500,-5.09752062,-0.34351029
-3.22798520,-0.14216930,0.82682835,1.09913857

>  <Name>


>  <RI>
0

>  <Rbt.Current_Directory>
/home/itssahil/PROJECTS/Mol_Feturizer/New_Systems/rnas/1ei2

>  <Rbt.Executable>
rbdock ($Id: //depot/dev/client3/rdock/2013.1/src/exe/rbdock.cxx#4 $)

>  <Rbt.Library>
libRbt.so (2013.1, Build901 2013/11/27)

>  <Rbt.Parameter_File>
/export/apps/rDock/src/rDock_2013.1_src/data/scripts/dock_solv.prm

>  <Rbt.Receptor>
prm/blind_docking_80.prm

>  <SCORE>
41.4102

>  <SCORE.INTER>
49.208

>  <SCORE.INTER.CONST>
1

>  <SCORE.INTER.POLAR>
-4.47174

>  <SCORE.INTER.ROT>
9

>  <SCORE.INTER.SOLV>
57.6964

>  <SCORE.INTER.VDW>
18.879

>  <SCORE.INTER.norm>
1.17162

>  <SCORE.INTRA>
-19.5608

>  <SCORE.INTRA.DIHEDRAL>
-20.3137

>  <SCORE.INTRA.DIHEDRAL.0>
40.8761

>  <SCORE.INTRA.POLAR>
-1.43385

>  <SCORE.INTRA.POLAR.0>
-0.0268208

>  <SCORE.INTRA.REPUL>
-0.605071

>  <SCORE.INTRA.REPUL.0>
0.641615

>  <SCORE.INTRA.SOLV>
-5.47046

>  <SCORE.INTRA.SOLV.lig_0>
-162.567

>  <SCORE.INTRA.VDW>
1.23169

>  <SCORE.INTRA.VDW.0>
-4.80338

>  <SCORE.INTRA.norm>
-0.465734

>  <SCORE.RESTR>
11.763

>  <SCORE.RESTR.CAVITY>
11.763

>  <SCORE.RESTR.norm>
0.280072

>  <SCORE.SYSTEM>
0

>  <SCORE.SYSTEM.CONST>
0

>  <SCORE.SYSTEM.DIHEDRAL>
0

>  <SCORE.SYSTEM.SOLV>
0

>  <SCORE.SYSTEM.norm>
0

>  <SCORE.heavy>
42

>  <SCORE.norm>
0.985957

>  <RMSD>
8.824

$$$$

 OpenBabel11021811393D
libRbt.so/2013.1/901 2013/11/27
 42 45  0  0  0  0  0  0  0  0999 V2000
   -4.7697   -0.2840   -6.6919 C   0  0  2  0  0  0  0  0  0  0  0  0
   -5.3841    0.2053   -5.4603 O   0  0  0  0  0  0  0  0  0  0  0  0
   -3.7422   -1.4274   -6.4079 C   0  0  2  0  0  0  0  0  0  0  0  0
   -3.8957   -1.9732   -5.0398 N   0  3  0  0  0  0  0  0  0  0  0  0
   -2.2843   -0.9263   -6.6363 C   0  0  1  0  0  0  0  0  0  0  0  0
   -1.3573   -1.9801   -6.3843 O   0  0  0  0  0  0  0  0  0  0  0  0
   -2.0699   -0.4187   -8.0874 C   0  0  2  0  0  0  0  0  0  0  0  0
   -0.8328    0.2824   -8.1482 O   0  0  0  0  0  0  0  0  0  0  0  0
   -3.2382    0.5160   -8.5399 C   0  0  2  0  0  0  0  0  0  0  0  0
   -4.1101    0.8191   -7.4027 O   0  0  0  0  0  0  0  0  0  0  0  0
   -4.1456   -0.0787   -9.6414 C   0  0  0  0  0  0  0  0  0  0  0  0
   -3.1131    3.8648   -5.1955 C   0  0  1  0  0  0  0  0  0  0  0  0
   -2.5136    5.1271   -4.7080 N   0  3  0  0  0  0  0  0  0  0  0  0
   -2.5376    2.6347   -4.4460 C   0  0  1  0  0  0  0  0  0  0  0  0
   -3.2429    1.2831   -4.8142 C   0  0  1  0  0  0  0  0  0  0  0  0
   -2.8524    0.2854   -3.8329 O   0  0  0  0  0  0  0  0  0  0  0  0
   -4.8131    1.3753   -4.7981 C   0  0  1  0  0  0  0  0  0  0  0  0
   -5.3329    2.6478   -5.5422 C   0  0  1  0  0  0  0  0  0  0  0  0
   -6.7937    2.8149   -5.4007 N   0  3  0  0  0  0  0  0  0  0  0  0
   -4.6456    3.9336   -5.0302 C   0  0  0  0  0  0  0  0  0  0  0  0
   -3.0254    0.5671   -2.4139 C   0  0  1  0  0  0  0  0  0  0  0  0
   -4.5174    0.6147   -2.1069 C   0  0  1  0  0  0  0  0  0  0  0  0
   -4.8161   -0.8749   -2.0059 C   0  0  1  0  0  0  0  0  0  0  0  0
   -3.5868   -1.3866   -1.2413 C   0  0  2  0  0  0  0  0  0  0  0  0
   -2.4978   -0.5157   -1.6301 O   0  0  0  0  0  0  0  0  0  0  0  0
   -3.2390   -2.8494   -1.5704 C   0  0  0  0  0  0  0  0  0  0  0  0
   -9.8132   -1.5940   -0.6707 C   0  0  1  0  0  0  0  0  0  0  0  0
   -9.1720   -0.4220   -1.4648 C   0  0  1  0  0  0  0  0  0  0  0  0
   -8.1687   -0.8741   -2.5649 C   0  0  2  0  0  0  0  0  0  0  0  0
   -7.0957   -1.8502   -1.9838 C   0  0  1  0  0  0  0  0  0  0  0  0
   -6.0512   -1.1249   -1.2752 O   0  0  0  0  0  0  0  0  0  0  0  0
   -9.1740   -2.9559   -1.0792 C   0  0  1  0  0  0  0  0  0  0  0  0
   -7.7139   -2.8357   -1.0670 O   0  0  0  0  0  0  0  0  0  0  0  0
   -9.5990   -4.1150   -0.1412 C   0  0  0  0  0  0  0  0  0  0  0  0
   -4.8386    0.9253  -10.4678 N   0  3  0  0  0  0  0  0  0  0  0  0
   -4.7333    1.2775   -0.8609 O   0  0  0  0  0  0  0  0  0  0  0  0
  -10.2173    0.3274   -2.0828 O   0  0  0  0  0  0  0  0  0  0  0  0
   -9.6154   -1.3559    0.7247 O   0  0  0  0  0  0  0  0  0  0  0  0
   -3.4480   -3.1215   -2.9455 O   0  0  0  0  0  0  0  0  0  0  0  0
   -1.1479    2.5206   -4.7512 O   0  0  0  0  0  0  0  0  0  0  0  0
   -8.5261   -5.1037    0.0713 N   0  3  0  0  0  0  0  0  0  0  0  0
   -7.5650    0.2903   -3.2592 N   0  3  0  0  0  0  0  0  0  0  0  0
  1  2  1  1  0  0  0
  1  3  1  0  0  0  0
  1 10  1  0  0  0  0
  3  4  1  1  0  0  0
  3  5  1  0  0  0  0
  5  6  1  6  0  0  0
  5  7  1  0  0  0  0
  7  8  1  1  0  0  0
  7  9  1  0  0  0  0
  9 10  1  0  0  0  0
  9 11  1  6  0  0  0
 11 35  1  0  0  0  0
 12 13  1  1  0  0  0
 12 14  1  0  0  0  0
 12 20  1  0  0  0  0
 14 15  1  0  0  0  0
 14 40  1  6  0  0  0
 15 16  1  1  0  0  0
 15 17  1  0  0  0  0
 17  2  1  6  0  0  0
 17 18  1  0  0  0  0
 18 19  1  1  0  0  0
 18 20  1  0  0  0  0
 21 16  1  6  0  0  0
 21 22  1  0  0  0  0
 21 25  1  0  0  0  0
 22 23  1  0  0  0  0
 22 36  1  1  0  0  0
 23 24  1  0  0  0  0
 23 31  1  1  0  0  0
 24 25  1  0  0  0  0
 24 26  1  6  0  0  0
 26 39  1  0  0  0  0
 27 28  1  0  0  0  0
 27 32  1  0  0  0  0
 27 38  1  1  0  0  0
 28 29  1  0  0  0  0
 28 37  1  6  0  0  0
 29 30  1  0  0  0  0
 29 42  1  1  0  0  0
 30 31  1  1  0  0  0
 30 33  1  0  0  0  0
 32 33  1  0  0  0  0
 32 34  1  1  0  0  0
 34 41  1  0  0  0  0
M  CHG  6   4   1  13   1  19   1  35   1  41   1  42   1
M  END
>  <CHROM.1>
94.77219861,-41.82719934,60.38152375,173.12025666,61.85057441,-154.82072298
73.99849756,110.86001250,74.71051835,53.13142725,68.24749866,-165.24371951
-25.59202359,121.22175698,38.08776474,177.70773497,60.85701038,102.10622293
172.37406901,-98.66950513,-145.05199026,-75.83905894,-5.00024390,-0.13667358
-3.96786515,-0.69921944,-0.64026829,2.68322414

>  <Name>


>  <RI>
0

>  <Rbt.Current_Directory>
/home/itssahil/PROJECTS/Mol_Feturizer/New_Systems/rnas/1ei2

>  <Rbt.Executable>
rbdock ($Id: //depot/dev/client3/rdock/2013.1/src/exe/rbdock.cxx#4 $)

>  <Rbt.Library>
libRbt.so (2013.1, Build901 2013/11/27)

>  <Rbt.Parameter_File>
/export/apps/rDock/src/rDock_2013.1_src/data/scripts/dock_solv.prm

>  <Rbt.Receptor>
prm/blind_docking_100.prm

>  <SCORE>
-1.21529

>  <SCORE.INTER>
-7.06607

>  <SCORE.INTER.CONST>
1

>  <SCORE.INTER.POLAR>
-3.56571

>  <SCORE.INTER.ROT>
9

>  <SCORE.INTER.SOLV>
39.627

>  <SCORE.INTER.VDW>
-15.634

>  <SCORE.INTER.norm>
-0.16824

>  <SCORE.INTRA>
-6.78026

>  <SCORE.INTRA.DIHEDRAL>
1.57252

>  <SCORE.INTRA.DIHEDRAL.0>
40.8761

>  <SCORE.INTRA.POLAR>
-2.35487

>  <SCORE.INTRA.POLAR.0>
-0.0268208

>  <SCORE.INTRA.REPUL>
-0.567791

>  <SCORE.INTRA.REPUL.0>
0.641615

>  <SCORE.INTRA.SOLV>
5.17057

>  <SCORE.INTRA.SOLV.lig_0>
-162.567

>  <SCORE.INTRA.VDW>
0.693697

>  <SCORE.INTRA.VDW.0>
-4.80338

>  <SCORE.INTRA.norm>
-0.161435

>  <SCORE.RESTR>
12.631

>  <SCORE.RESTR.CAVITY>
12.631

>  <SCORE.RESTR.norm>
0.300739

>  <SCORE.SYSTEM>
0

>  <SCORE.SYSTEM.CONST>
0

>  <SCORE.SYSTEM.DIHEDRAL>
0

>  <SCORE.SYSTEM.SOLV>
0

>  <SCORE.SYSTEM.norm>
0

>  <SCORE.heavy>
42

>  <SCORE.norm>
-0.0289354

>  <RMSD>
8.830

$$$$

 OpenBabel11021811393D
libRbt.so/2013.1/901 2013/11/27
 42 45  0  0  0  0  0  0  0  0999 V2000
   -3.0027    1.6797   -6.8147 C   0  0  2  0  0  0  0  0  0  0  0  0
   -2.1323    1.0264   -5.8404 O   0  0  0  0  0  0  0  0  0  0  0  0
   -3.0598    3.2258   -6.5903 C   0  0  2  0  0  0  0  0  0  0  0  0
   -1.9714    3.6896   -5.6995 N   0  3  0  0  0  0  0  0  0  0  0  0
   -4.4484    3.6484   -6.0227 C   0  0  1  0  0  0  0  0  0  0  0  0
   -4.4920    5.0609   -5.8319 O   0  0  0  0  0  0  0  0  0  0  0  0
   -5.6069    3.2442   -6.9735 C   0  0  2  0  0  0  0  0  0  0  0  0
   -6.8404    3.3903   -6.2785 O   0  0  0  0  0  0  0  0  0  0  0  0
   -5.4440    1.7717   -7.4721 C   0  0  2  0  0  0  0  0  0  0  0  0
   -4.3556    1.1120   -6.7474 O   0  0  0  0  0  0  0  0  0  0  0  0
   -5.1137    1.6368   -8.9764 C   0  0  0  0  0  0  0  0  0  0  0  0
   -2.0093   -3.0049   -7.3745 C   0  0  1  0  0  0  0  0  0  0  0  0
   -1.9288   -4.4791   -7.4766 N   0  3  0  0  0  0  0  0  0  0  0  0
   -3.3403   -2.5516   -6.7192 C   0  0  1  0  0  0  0  0  0  0  0  0
   -3.4179   -1.0088   -6.4475 C   0  0  1  0  0  0  0  0  0  0  0  0
   -4.5385   -0.7608   -5.5565 O   0  0  0  0  0  0  0  0  0  0  0  0
   -2.1270   -0.4319   -5.7584 C   0  0  1  0  0  0  0  0  0  0  0  0
   -0.8187   -0.9452   -6.4424 C   0  0  1  0  0  0  0  0  0  0  0  0
    0.3923   -0.5258   -5.7078 N   0  3  0  0  0  0  0  0  0  0  0  0
   -0.8016   -2.4853   -6.5669 C   0  0  0  0  0  0  0  0  0  0  0  0
   -4.3288    0.0038   -4.3342 C   0  0  1  0  0  0  0  0  0  0  0  0
   -5.6720    0.1804   -3.6358 C   0  0  1  0  0  0  0  0  0  0  0  0
   -5.7960   -1.1739   -2.9510 C   0  0  1  0  0  0  0  0  0  0  0  0
   -4.3606   -1.4044   -2.4573 C   0  0  2  0  0  0  0  0  0  0  0  0
   -3.5074   -0.7433   -3.4219 O   0  0  0  0  0  0  0  0  0  0  0  0
   -3.9907   -2.8952   -2.3566 C   0  0  0  0  0  0  0  0  0  0  0  0
   -9.9455   -1.4841    0.2458 C   0  0  1  0  0  0  0  0  0  0  0  0
   -9.7097   -0.4154   -0.8577 C   0  0  1  0  0  0  0  0  0  0  0  0
   -9.2097   -0.9990   -2.2107 C   0  0  2  0  0  0  0  0  0  0  0  0
   -7.9630   -1.9179   -2.0029 C   0  0  1  0  0  0  0  0  0  0  0  0
   -6.7477   -1.1314   -1.8491 O   0  0  0  0  0  0  0  0  0  0  0  0
   -9.4759   -2.8907   -0.2352 C   0  0  1  0  0  0  0  0  0  0  0  0
   -8.1351   -2.7879   -0.8167 O   0  0  0  0  0  0  0  0  0  0  0  0
   -9.4566   -3.9333    0.9123 C   0  0  0  0  0  0  0  0  0  0  0  0
   -4.0221    2.5105   -9.4414 N   0  3  0  0  0  0  0  0  0  0  0  0
   -5.5860    1.2419   -2.6848 O   0  0  0  0  0  0  0  0  0  0  0  0
  -10.9383    0.2737   -1.0859 O   0  0  0  0  0  0  0  0  0  0  0  0
   -9.2193   -1.0952    1.4139 O   0  0  0  0  0  0  0  0  0  0  0  0
   -4.5833   -3.6352   -3.4100 O   0  0  0  0  0  0  0  0  0  0  0  0
   -4.4215   -2.9177   -7.5761 O   0  0  0  0  0  0  0  0  0  0  0  0
   -8.9253   -5.2419    0.4892 N   0  3  0  0  0  0  0  0  0  0  0  0
   -8.9688    0.0737   -3.2075 N   0  3  0  0  0  0  0  0  0  0  0  0
  1  2  1  1  0  0  0
  1  3  1  0  0  0  0
  1 10  1  0  0  0  0
  3  4  1  1  0  0  0
  3  5  1  0  0  0  0
  5  6  1  6  0  0  0
  5  7  1  0  0  0  0
  7  8  1  1  0  0  0
  7  9  1  0  0  0  0
  9 10  1  0  0  0  0
  9 11  1  6  0  0  0
 11 35  1  0  0  0  0
 12 13  1  1  0  0  0
 12 14  1  0  0  0  0
 12 20  1  0  0  0  0
 14 15  1  0  0  0  0
 14 40  1  6  0  0  0
 15 16  1  1  0  0  0
 15 17  1  0  0  0  0
 17  2  1  6  0  0  0
 17 18  1  0  0  0  0
 18 19  1  1  0  0  0
 18 20  1  0  0  0  0
 21 16  1  6  0  0  0
 21 22  1  0  0  0  0
 21 25  1  0  0  0  0
 22 23  1  0  0  0  0
 22 36  1  1  0  0  0
 23 24  1  0  0  0  0
 23 31  1  1  0  0  0
 24 25  1  0  0  0  0
 24 26  1  6  0  0  0
 26 39  1  0  0  0  0
 27 28  1  0  0  0  0
 27 32  1  0  0  0  0
 27 38  1  1  0  0  0
 28 29  1  0  0  0  0
 28 37  1  6  0  0  0
 29 30  1  0  0  0  0
 29 42  1  6  0  0  0
 30 31  1  1  0  0  0
 30 33  1  0  0  0  0
 32 33  1  0  0  0  0
 32 34  1  1  0  0  0
 34 41  1  0  0  0  0
M  CHG  6   4   1  13   1  19   1  35   1  41   1  42   1
M  END
>  <CHROM.1>
170.13011801,-18.04480507,35.56447884,-166.21251812,-52.26904629,48.18700955
-44.75843228,70.97696065,-58.15492037,127.26660108,176.80869096,136.70432096
-46.31315507,113.83863130,36.51626849,64.83876183,53.84905910,82.79129755
-80.89595812,-109.27811217,-176.01010162,-47.18601081,-5.24244545,-0.39441907
-4.34008884,0.61190550,0.64990494,-0.44006275

>  <Name>


>  <RI>
0

>  <Rbt.Current_Directory>
/home/itssahil/PROJECTS/Mol_Feturizer/New_Systems/rnas/1ei2

>  <Rbt.Executable>
rbdock ($Id: //depot/dev/client3/rdock/2013.1/src/exe/rbdock.cxx#4 $)

>  <Rbt.Library>
libRbt.so (2013.1, Build901 2013/11/27)

>  <Rbt.Parameter_File>
/export/apps/rDock/src/rDock_2013.1_src/data/scripts/dock_solv.prm

>  <Rbt.Receptor>
prm/blind_docking_40.prm

>  <SCORE>
61.6361

>  <SCORE.INTER>
41.9488

>  <SCORE.INTER.CONST>
1

>  <SCORE.INTER.POLAR>
-5.00239

>  <SCORE.INTER.ROT>
9

>  <SCORE.INTER.SOLV>
57.2091

>  <SCORE.INTER.VDW>
15.9708

>  <SCORE.INTER.norm>
0.998782

>  <SCORE.INTRA>
6.10395

>  <SCORE.INTRA.DIHEDRAL>
-0.397653

>  <SCORE.INTRA.DIHEDRAL.0>
40.8761

>  <SCORE.INTRA.POLAR>
0.0268208

>  <SCORE.INTRA.POLAR.0>
-0.0268208

>  <SCORE.INTRA.REPUL>
-0.641615

>  <SCORE.INTRA.REPUL.0>
0.641615

>  <SCORE.INTRA.SOLV>
-7.87555

>  <SCORE.INTRA.SOLV.lig_0>
-162.567

>  <SCORE.INTRA.VDW>
13.3574

>  <SCORE.INTRA.VDW.0>
-4.80338

>  <SCORE.INTRA.norm>
0.145332

>  <SCORE.RESTR>
13.5833

>  <SCORE.RESTR.CAVITY>
13.5833

>  <SCORE.RESTR.norm>
0.323412

>  <SCORE.SYSTEM>
0

>  <SCORE.SYSTEM.CONST>
0

>  <SCORE.SYSTEM.DIHEDRAL>
0

>  <SCORE.SYSTEM.SOLV>
0

>  <SCORE.SYSTEM.norm>
0

>  <SCORE.heavy>
42

>  <SCORE.norm>
1.46753

>  <RMSD>
8.835

$$$$

 OpenBabel11021811393D
libRbt.so/2013.1/901 2013/11/27
 42 45  0  0  0  0  0  0  0  0999 V2000
   -4.0611    0.5141   -5.7050 C   0  0  2  0  0  0  0  0  0  0  0  0
   -4.7348    1.5051   -6.5403 O   0  0  0  0  0  0  0  0  0  0  0  0
   -2.5157    0.7472   -5.6679 C   0  0  2  0  0  0  0  0  0  0  0  0
   -2.1526    2.0887   -6.1795 N   0  3  0  0  0  0  0  0  0  0  0  0
   -1.7723   -0.3634   -6.4697 C   0  0  1  0  0  0  0  0  0  0  0  0
   -0.3639   -0.1460   -6.4202 O   0  0  0  0  0  0  0  0  0  0  0  0
   -2.0719   -1.7788   -5.9074 C   0  0  2  0  0  0  0  0  0  0  0  0
   -1.6106   -2.7487   -6.8413 O   0  0  0  0  0  0  0  0  0  0  0  0
   -3.6005   -1.9729   -5.6445 C   0  0  2  0  0  0  0  0  0  0  0  0
   -4.3532   -0.8411   -6.1902 O   0  0  0  0  0  0  0  0  0  0  0  0
   -3.9865   -2.0764   -4.1510 C   0  0  0  0  0  0  0  0  0  0  0  0
   -8.5406    2.2631   -8.4273 C   0  0  1  0  0  0  0  0  0  0  0  0
   -9.9807    2.2448   -8.7680 N   0  3  0  0  0  0  0  0  0  0  0  0
   -8.2858    2.9691   -7.0698 C   0  0  1  0  0  0  0  0  0  0  0  0
   -6.7966    2.8872   -6.5843 C   0  0  1  0  0  0  0  0  0  0  0  0
   -6.7525    3.2833   -5.1871 O   0  0  0  0  0  0  0  0  0  0  0  0
   -6.1866    1.4410   -6.6871 C   0  0  1  0  0  0  0  0  0  0  0  0
   -6.4996    0.7696   -8.0633 C   0  0  1  0  0  0  0  0  0  0  0  0
   -6.0577   -0.6392   -8.1062 N   0  3  0  0  0  0  0  0  0  0  0  0
   -8.0081    0.8154   -8.3951 C   0  0  0  0  0  0  0  0  0  0  0  0
   -5.6470    4.1020   -4.7070 C   0  0  1  0  0  0  0  0  0  0  0  0
   -6.2091    5.1995   -3.8113 C   0  0  1  0  0  0  0  0  0  0  0  0
   -6.3953    4.4182   -2.5178 C   0  0  1  0  0  0  0  0  0  0  0  0
   -5.1194    3.5649   -2.4844 C   0  0  2  0  0  0  0  0  0  0  0  0
   -4.7817    3.3172   -3.8701 O   0  0  0  0  0  0  0  0  0  0  0  0
   -5.3060    2.2317   -1.7379 C   0  0  0  0  0  0  0  0  0  0  0  0
   -5.4989    5.0590    2.3370 C   0  0  1  0  0  0  0  0  0  0  0  0
   -6.1985    6.2784    1.6743 C   0  0  1  0  0  0  0  0  0  0  0  0
   -7.4629    5.9118    0.8448 C   0  0  2  0  0  0  0  0  0  0  0  0
   -7.1535    4.7774   -0.1844 C   0  0  1  0  0  0  0  0  0  0  0  0
   -6.4847    5.3044   -1.3652 O   0  0  0  0  0  0  0  0  0  0  0  0
   -6.1626    3.7240    1.8815 C   0  0  1  0  0  0  0  0  0  0  0  0
   -6.3109    3.7222    0.4239 O   0  0  0  0  0  0  0  0  0  0  0  0
   -5.3459    2.4788    2.3135 C   0  0  0  0  0  0  0  0  0  0  0  0
   -3.4057   -3.2354   -3.4504 N   0  3  0  0  0  0  0  0  0  0  0  0
   -5.2439    6.2407   -3.6595 O   0  0  0  0  0  0  0  0  0  0  0  0
   -6.5782    7.1923    2.7024 O   0  0  0  0  0  0  0  0  0  0  0  0
   -4.1184    5.0741    1.9671 O   0  0  0  0  0  0  0  0  0  0  0  0
   -4.0839    1.5175   -1.6659 O   0  0  0  0  0  0  0  0  0  0  0  0
   -8.6494    4.3439   -7.1924 O   0  0  0  0  0  0  0  0  0  0  0  0
   -5.8886    1.2202    1.7700 N   0  3  0  0  0  0  0  0  0  0  0  0
   -8.0608    7.1121    0.2092 N   0  3  0  0  0  0  0  0  0  0  0  0
  1  2  1  6  0  0  0
  1  3  1  0  0  0  0
  1 10  1  0  0  0  0
  3  4  1  6  0  0  0
  3  5  1  0  0  0  0
  5  6  1  1  0  0  0
  5  7  1  0  0  0  0
  7  8  1  6  0  0  0
  7  9  1  0  0  0  0
  9 10  1  0  0  0  0
  9 11  1  1  0  0  0
 11 35  1  0  0  0  0
 12 13  1  1  0  0  0
 12 14  1  0  0  0  0
 12 20  1  0  0  0  0
 14 15  1  0  0  0  0
 14 40  1  6  0  0  0
 15 16  1  1  0  0  0
 15 17  1  0  0  0  0
 17  2  1  6  0  0  0
 17 18  1  0  0  0  0
 18 19  1  1  0  0  0
 18 20  1  0  0  0  0
 21 16  1  1  0  0  0
 21 22  1  0  0  0  0
 21 25  1  0  0  0  0
 22 23  1  0  0  0  0
 22 36  1  1  0  0  0
 23 24  1  0  0  0  0
 23 31  1  1  0  0  0
 24 25  1  0  0  0  0
 24 26  1  1  0  0  0
 26 39  1  0  0  0  0
 27 28  1  0  0  0  0
 27 32  1  0  0  0  0
 27 38  1  6  0  0  0
 28 29  1  0  0  0  0
 28 37  1  1  0  0  0
 29 30  1  0  0  0  0
 29 42  1  6  0  0  0
 30 31  1  6  0  0  0
 30 33  1  0  0  0  0
 32 33  1  0  0  0  0
 32 34  1  6  0  0  0
 34 41  1  0  0  0  0
M  CHG  6   4   1  13   1  19   1  35   1  41   1  42   1
M  END
>  <CHROM.1>
-179.85000805,136.93118146,24.57563448,-167.55536551,177.69919520,-62.74376286
53.09014253,121.51893583,-177.75128957,-140.64873348,136.00121222,-176.93453792
-56.90206611,157.19685003,-176.55541022,178.47327489,173.04478276,173.51950955
57.01075316,-167.27268767,-174.06755623,-46.63335420,-5.41489960,2.38173337
-3.64179009,-1.30899204,-0.77257674,1.15509090

>  <Name>


>  <RI>
0

>  <Rbt.Current_Directory>
/home/itssahil/PROJECTS/Mol_Feturizer/New_Systems/rnas/1ei2

>  <Rbt.Executable>
rbdock ($Id: //depot/dev/client3/rdock/2013.1/src/exe/rbdock.cxx#4 $)

>  <Rbt.Library>
libRbt.so (2013.1, Build901 2013/11/27)

>  <Rbt.Parameter_File>
/export/apps/rDock/src/rDock_2013.1_src/data/scripts/dock_solv.prm

>  <Rbt.Receptor>
prm/pocket_docking_7.prm

>  <SCORE>
-49.5588

>  <SCORE.INTER>
-32.7953

>  <SCORE.INTER.CONST>
1

>  <SCORE.INTER.POLAR>
-5.65146

>  <SCORE.INTER.ROT>
9

>  <SCORE.INTER.SOLV>
31.4135

>  <SCORE.INTER.VDW>
-23.0965

>  <SCORE.INTER.norm>
-0.78084

>  <SCORE.INTRA>
-16.7635

>  <SCORE.INTRA.DIHEDRAL>
-12.1519

>  <SCORE.INTRA.DIHEDRAL.0>
40.8761

>  <SCORE.INTRA.POLAR>
-0.749847

>  <SCORE.INTRA.POLAR.0>
-0.0268208

>  <SCORE.INTRA.REPUL>
-0.641615

>  <SCORE.INTRA.REPUL.0>
0.641615

>  <SCORE.INTRA.SOLV>
-9.60862

>  <SCORE.INTRA.SOLV.lig_0>
-162.567

>  <SCORE.INTRA.VDW>
-0.125727

>  <SCORE.INTRA.VDW.0>
-4.80338

>  <SCORE.INTRA.norm>
-0.399132

>  <SCORE.RESTR>
0

>  <SCORE.RESTR.CAVITY>
0

>  <SCORE.RESTR.norm>
0

>  <SCORE.SYSTEM>
0

>  <SCORE.SYSTEM.CONST>
0

>  <SCORE.SYSTEM.DIHEDRAL>
0

>  <SCORE.SYSTEM.SOLV>
0

>  <SCORE.SYSTEM.norm>
0

>  <SCORE.heavy>
42

>  <SCORE.norm>
-1.17997

>  <RMSD>
8.846

$$$$

 OpenBabel11021811393D
libRbt.so/2013.1/901 2013/11/27
 42 45  0  0  0  0  0  0  0  0999 V2000
   -3.0306   -3.7422   -5.3272 C   0  0  2  0  0  0  0  0  0  0  0  0
   -4.0923   -2.8286   -4.9127 O   0  0  0  0  0  0  0  0  0  0  0  0
   -2.2593   -3.2006   -6.5744 C   0  0  2  0  0  0  0  0  0  0  0  0
   -2.5424   -1.7666   -6.8122 N   0  3  0  0  0  0  0  0  0  0  0  0
   -2.6006   -4.0427   -7.8407 C   0  0  1  0  0  0  0  0  0  0  0  0
   -1.8838   -3.5459   -8.9690 O   0  0  0  0  0  0  0  0  0  0  0  0
   -2.2420   -5.5409   -7.6505 C   0  0  2  0  0  0  0  0  0  0  0  0
   -2.8352   -6.2902   -8.7052 O   0  0  0  0  0  0  0  0  0  0  0  0
   -2.7422   -6.0728   -6.2683 C   0  0  2  0  0  0  0  0  0  0  0  0
   -3.5884   -5.0693   -5.6186 O   0  0  0  0  0  0  0  0  0  0  0  0
   -1.6154   -6.4114   -5.2654 C   0  0  0  0  0  0  0  0  0  0  0  0
   -5.0705   -1.1218   -1.0722 C   0  0  1  0  0  0  0  0  0  0  0  0
   -4.9987   -0.3864    0.2102 N   0  3  0  0  0  0  0  0  0  0  0  0
   -5.0758   -0.1535   -2.2841 C   0  0  1  0  0  0  0  0  0  0  0  0
   -4.9993   -0.8783   -3.6728 C   0  0  1  0  0  0  0  0  0  0  0  0
   -4.6853    0.1144   -4.6861 O   0  0  0  0  0  0  0  0  0  0  0  0
   -3.8869   -1.9887   -3.7355 C   0  0  1  0  0  0  0  0  0  0  0  0
   -3.9117   -2.9145   -2.4765 C   0  0  1  0  0  0  0  0  0  0  0  0
   -2.7778   -3.8611   -2.4619 N   0  3  0  0  0  0  0  0  0  0  0  0
   -3.8809   -2.1000   -1.1637 C   0  0  0  0  0  0  0  0  0  0  0  0
   -3.2949    0.4714   -4.9357 C   0  0  1  0  0  0  0  0  0  0  0  0
   -3.1956    1.0958   -6.3225 C   0  0  1  0  0  0  0  0  0  0  0  0
   -3.6645    2.5107   -6.0115 C   0  0  1  0  0  0  0  0  0  0  0  0
   -2.9691    2.7800   -4.6694 C   0  0  2  0  0  0  0  0  0  0  0  0
   -2.8768    1.4922   -4.0148 O   0  0  0  0  0  0  0  0  0  0  0  0
   -3.7398    3.7724   -3.7804 C   0  0  0  0  0  0  0  0  0  0  0  0
   -5.5156    0.8003   -8.6312 C   0  0  1  0  0  0  0  0  0  0  0  0
   -6.0011    1.9878   -7.7540 C   0  0  1  0  0  0  0  0  0  0  0  0
   -5.4473    3.3728   -8.1969 C   0  0  2  0  0  0  0  0  0  0  0  0
   -3.8914    3.3400   -8.3373 C   0  0  1  0  0  0  0  0  0  0  0  0
   -3.2421    3.4526   -7.0392 O   0  0  0  0  0  0  0  0  0  0  0  0
   -4.4568    1.2762   -9.6718 C   0  0  1  0  0  0  0  0  0  0  0  0
   -3.4430    2.0942   -9.0011 O   0  0  0  0  0  0  0  0  0  0  0  0
   -3.7625    0.0929  -10.3941 C   0  0  0  0  0  0  0  0  0  0  0  0
   -1.9699   -7.4447   -4.2766 N   0  3  0  0  0  0  0  0  0  0  0  0
   -1.8376    1.0795   -6.7633 O   0  0  0  0  0  0  0  0  0  0  0  0
   -7.4266    2.0307   -7.8045 O   0  0  0  0  0  0  0  0  0  0  0  0
   -4.9510   -0.1939   -7.7735 O   0  0  0  0  0  0  0  0  0  0  0  0
   -3.4856    5.1091   -4.1771 O   0  0  0  0  0  0  0  0  0  0  0  0
   -6.2707    0.6263   -2.2430 O   0  0  0  0  0  0  0  0  0  0  0  0
   -4.7157   -0.9226  -10.8778 N   0  3  0  0  0  0  0  0  0  0  0  0
   -5.9170    4.4567   -7.2987 N   0  3  0  0  0  0  0  0  0  0  0  0
  1  2  1  6  0  0  0
  1  3  1  0  0  0  0
  1 10  1  0  0  0  0
  3  4  1  6  0  0  0
  3  5  1  0  0  0  0
  5  6  1  6  0  0  0
  5  7  1  0  0  0  0
  7  8  1  6  0  0  0
  7  9  1  0  0  0  0
  9 10  1  0  0  0  0
  9 11  1  1  0  0  0
 11 35  1  0  0  0  0
 12 13  1  1  0  0  0
 12 14  1  0  0  0  0
 12 20  1  0  0  0  0
 14 15  1  0  0  0  0
 14 40  1  6  0  0  0
 15 16  1  6  0  0  0
 15 17  1  0  0  0  0
 17  2  1  6  0  0  0
 17 18  1  0  0  0  0
 18 19  1  6  0  0  0
 18 20  1  0  0  0  0
 21 16  1  1  0  0  0
 21 22  1  0  0  0  0
 21 25  1  0  0  0  0
 22 23  1  0  0  0  0
 22 36  1  1  0  0  0
 23 24  1  0  0  0  0
 23 31  1  6  0  0  0
 24 25  1  0  0  0  0
 24 26  1  1  0  0  0
 26 39  1  0  0  0  0
 27 28  1  0  0  0  0
 27 32  1  0  0  0  0
 27 38  1  1  0  0  0
 28 29  1  0  0  0  0
 28 37  1  6  0  0  0
 29 30  1  0  0  0  0
 29 42  1  1  0  0  0
 30 31  1  1  0  0  0
 30 33  1  0  0  0  0
 32 33  1  0  0  0  0
 32 34  1  1  0  0  0
 34 41  1  0  0  0  0
M  CHG  6   4   1  13   1  19   1  35   1  41   1  42   1
M  END
>  <CHROM.1>
-103.91933966,167.32507428,48.97331884,-151.48098679,50.86336391,-152.88949194
-101.57826595,146.33512197,-70.34003766,85.21023247,159.32947706,36.58430132
169.63708651,70.16162972,-80.80149843,-69.91967141,38.45005804,-54.96875245
159.23079643,52.95158251,47.14508964,170.03087138,-3.83412739,-0.68076760
-5.85076166,-0.41627053,1.32790603,-1.30954687

>  <Name>


>  <RI>
0

>  <Rbt.Current_Directory>
/home/itssahil/PROJECTS/Mol_Feturizer/New_Systems/rnas/1ei2

>  <Rbt.Executable>
rbdock ($Id: //depot/dev/client3/rdock/2013.1/src/exe/rbdock.cxx#4 $)

>  <Rbt.Library>
libRbt.so (2013.1, Build901 2013/11/27)

>  <Rbt.Parameter_File>
/export/apps/rDock/src/rDock_2013.1_src/data/scripts/dock_solv.prm

>  <Rbt.Receptor>
prm/blind_docking_80.prm

>  <SCORE>
-0.0807441

>  <SCORE.INTER>
-10.3777

>  <SCORE.INTER.CONST>
1

>  <SCORE.INTER.POLAR>
-3.40459

>  <SCORE.INTER.ROT>
9

>  <SCORE.INTER.SOLV>
42.0349

>  <SCORE.INTER.VDW>
-19.1814

>  <SCORE.INTER.norm>
-0.247087

>  <SCORE.INTRA>
-10.004

>  <SCORE.INTRA.DIHEDRAL>
-9.27965

>  <SCORE.INTRA.DIHEDRAL.0>
40.8761

>  <SCORE.INTRA.POLAR>
-1.61558

>  <SCORE.INTRA.POLAR.0>
-0.0268208

>  <SCORE.INTRA.REPUL>
-0.556055

>  <SCORE.INTRA.REPUL.0>
0.641615

>  <SCORE.INTRA.SOLV>
1.97933

>  <SCORE.INTRA.SOLV.lig_0>
-162.567

>  <SCORE.INTRA.VDW>
1.91938

>  <SCORE.INTRA.VDW.0>
-4.80338

>  <SCORE.INTRA.norm>
-0.238191

>  <SCORE.RESTR>
20.3009

>  <SCORE.RESTR.CAVITY>
20.3009

>  <SCORE.RESTR.norm>
0.483356

>  <SCORE.SYSTEM>
0

>  <SCORE.SYSTEM.CONST>
0

>  <SCORE.SYSTEM.DIHEDRAL>
0

>  <SCORE.SYSTEM.SOLV>
0

>  <SCORE.SYSTEM.norm>
0

>  <SCORE.heavy>
42

>  <SCORE.norm>
-0.00192248

>  <RMSD>
8.851

$$$$

 OpenBabel11021811393D
libRbt.so/2013.1/901 2013/11/27
 42 45  0  0  0  0  0  0  0  0999 V2000
   -4.0715    1.0329   -6.7877 C   0  0  2  0  0  0  0  0  0  0  0  0
   -4.3851    2.1089   -5.8510 O   0  0  0  0  0  0  0  0  0  0  0  0
   -4.1602    1.5171   -8.2715 C   0  0  2  0  0  0  0  0  0  0  0  0
   -4.1871    2.9949   -8.3637 N   0  3  0  0  0  0  0  0  0  0  0  0
   -5.4064    0.9024   -8.9773 C   0  0  1  0  0  0  0  0  0  0  0  0
   -5.4709    1.3429  -10.3320 O   0  0  0  0  0  0  0  0  0  0  0  0
   -5.3684   -0.6493   -8.9655 C   0  0  2  0  0  0  0  0  0  0  0  0
   -6.6464   -1.1406   -9.3542 O   0  0  0  0  0  0  0  0  0  0  0  0
   -4.9916   -1.1969   -7.5508 C   0  0  2  0  0  0  0  0  0  0  0  0
   -4.9764   -0.1043   -6.5754 O   0  0  0  0  0  0  0  0  0  0  0  0
   -3.6032   -1.8726   -7.4733 C   0  0  0  0  0  0  0  0  0  0  0  0
   -0.7233    2.5175   -3.6052 C   0  0  1  0  0  0  0  0  0  0  0  0
    0.2508    2.7373   -2.5128 N   0  3  0  0  0  0  0  0  0  0  0  0
   -1.5196    1.2020   -3.4016 C   0  0  1  0  0  0  0  0  0  0  0  0
   -2.6700    0.9911   -4.4467 C   0  0  1  0  0  0  0  0  0  0  0  0
   -3.5295   -0.0771   -3.9659 O   0  0  0  0  0  0  0  0  0  0  0  0
   -3.5673    2.2667   -4.6511 C   0  0  1  0  0  0  0  0  0  0  0  0
   -2.7119    3.5636   -4.8217 C   0  0  1  0  0  0  0  0  0  0  0  0
   -3.5501    4.7791   -4.8643 N   0  3  0  0  0  0  0  0  0  0  0  0
   -1.6802    3.7253   -3.6827 C   0  0  0  0  0  0  0  0  0  0  0  0
   -3.5072   -0.4370   -2.5543 C   0  0  1  0  0  0  0  0  0  0  0  0
   -4.8487   -0.0611   -1.9363 C   0  0  1  0  0  0  0  0  0  0  0  0
   -5.6902   -1.2482   -2.3847 C   0  0  1  0  0  0  0  0  0  0  0  0
   -4.7134   -2.4152   -2.1819 C   0  0  2  0  0  0  0  0  0  0  0  0
   -3.3954   -1.8626   -2.4124 O   0  0  0  0  0  0  0  0  0  0  0  0
   -4.9710   -3.5899   -3.1427 C   0  0  0  0  0  0  0  0  0  0  0  0
  -10.2166   -2.6640   -0.1384 C   0  0  1  0  0  0  0  0  0  0  0  0
  -10.0241   -1.3325   -0.9164 C   0  0  1  0  0  0  0  0  0  0  0  0
   -9.2755   -1.4910   -2.2713 C   0  0  2  0  0  0  0  0  0  0  0  0
   -7.9315   -2.2663   -2.0864 C   0  0  1  0  0  0  0  0  0  0  0  0
   -6.8870   -1.3951   -1.5673 O   0  0  0  0  0  0  0  0  0  0  0  0
   -9.4711   -3.8342   -0.8490 C   0  0  1  0  0  0  0  0  0  0  0  0
   -8.1037   -3.4197   -1.1733 O   0  0  0  0  0  0  0  0  0  0  0  0
   -9.4234   -5.1193    0.0173 C   0  0  0  0  0  0  0  0  0  0  0  0
   -2.7528   -1.3930   -6.3696 N   0  3  0  0  0  0  0  0  0  0  0  0
   -4.7286   -0.0119   -0.5144 O   0  0  0  0  0  0  0  0  0  0  0  0
  -11.3108   -0.7703   -1.1708 O   0  0  0  0  0  0  0  0  0  0  0  0
   -9.7104   -2.4902    1.1869 O   0  0  0  0  0  0  0  0  0  0  0  0
   -3.9184   -4.5367   -3.0770 O   0  0  0  0  0  0  0  0  0  0  0  0
   -0.6162    0.1005   -3.4909 O   0  0  0  0  0  0  0  0  0  0  0  0
   -8.1385   -5.2899    0.7200 N   0  3  0  0  0  0  0  0  0  0  0  0
   -9.0915   -0.1816   -2.9451 N   0  3  0  0  0  0  0  0  0  0  0  0
  1  2  1  1  0  0  0
  1  3  1  0  0  0  0
  1 10  1  0  0  0  0
  3  4  1  1  0  0  0
  3  5  1  0  0  0  0
  5  6  1  6  0  0  0
  5  7  1  0  0  0  0
  7  8  1  1  0  0  0
  7  9  1  0  0  0  0
  9 10  1  0  0  0  0
  9 11  1  6  0  0  0
 11 35  1  0  0  0  0
 12 13  1  1  0  0  0
 12 14  1  0  0  0  0
 12 20  1  0  0  0  0
 14 15  1  0  0  0  0
 14 40  1  6  0  0  0
 15 16  1  1  0  0  0
 15 17  1  0  0  0  0
 17  2  1  6  0  0  0
 17 18  1  0  0  0  0
 18 19  1  1  0  0  0
 18 20  1  0  0  0  0
 21 16  1  6  0  0  0
 21 22  1  0  0  0  0
 21 25  1  0  0  0  0
 22 23  1  0  0  0  0
 22 36  1  1  0  0  0
 23 24  1  0  0  0  0
 23 31  1  1  0  0  0
 24 25  1  0  0  0  0
 24 26  1  6  0  0  0
 26 39  1  0  0  0  0
 27 28  1  0  0  0  0
 27 32  1  0  0  0  0
 27 38  1  1  0  0  0
 28 29  1  0  0  0  0
 28 37  1  6  0  0  0
 29 30  1  0  0  0  0
 29 42  1  1  0  0  0
 30 31  1  1  0  0  0
 30 33  1  0  0  0  0
 32 33  1  0  0  0  0
 32 34  1  1  0  0  0
 34 41  1  0  0  0  0
M  CHG  6   4   1  13   1  19   1  35   1  41   1  42   1
M  END
>  <CHROM.1>
-137.49894920,-13.00705053,-137.42197868,52.63555600,73.92734432,129.90562552
-85.43356283,146.77455053,-70.08934157,19.79689083,112.56957900,-13.40791414
-46.26217708,165.12004591,170.06837229,-70.08051504,53.54373465,-63.47615700
47.25228297,-120.87707996,-99.31161643,-19.56075076,-5.27699944,-0.45418156
-3.89143469,0.80142777,-0.51162219,-1.33862682

>  <Name>


>  <RI>
0

>  <Rbt.Current_Directory>
/home/itssahil/PROJECTS/Mol_Feturizer/New_Systems/rnas/1ei2

>  <Rbt.Executable>
rbdock ($Id: //depot/dev/client3/rdock/2013.1/src/exe/rbdock.cxx#4 $)

>  <Rbt.Library>
libRbt.so (2013.1, Build901 2013/11/27)

>  <Rbt.Parameter_File>
/export/apps/rDock/src/rDock_2013.1_src/data/scripts/dock_solv.prm

>  <Rbt.Receptor>
prm/blind_docking_80.prm

>  <SCORE>
136.62

>  <SCORE.INTER>
124.966

>  <SCORE.INTER.CONST>
1

>  <SCORE.INTER.POLAR>
-4.582

>  <SCORE.INTER.ROT>
9

>  <SCORE.INTER.SOLV>
56.4071

>  <SCORE.INTER.VDW>
70.1814

>  <SCORE.INTER.norm>
2.97537

>  <SCORE.INTRA>
2.28845

>  <SCORE.INTRA.DIHEDRAL>
17.4066

>  <SCORE.INTRA.DIHEDRAL.0>
40.8761

>  <SCORE.INTRA.POLAR>
-1.75957

>  <SCORE.INTRA.POLAR.0>
-0.0268208

>  <SCORE.INTRA.REPUL>
-0.641615

>  <SCORE.INTRA.REPUL.0>
0.641615

>  <SCORE.INTRA.SOLV>
-3.47056

>  <SCORE.INTRA.SOLV.lig_0>
-162.567

>  <SCORE.INTRA.VDW>
4.51101

>  <SCORE.INTRA.VDW.0>
-4.80338

>  <SCORE.INTRA.norm>
0.054487

>  <SCORE.RESTR>
9.36612

>  <SCORE.RESTR.CAVITY>
9.36612

>  <SCORE.RESTR.norm>
0.223003

>  <SCORE.SYSTEM>
0

>  <SCORE.SYSTEM.CONST>
0

>  <SCORE.SYSTEM.DIHEDRAL>
0

>  <SCORE.SYSTEM.SOLV>
0

>  <SCORE.SYSTEM.norm>
0

>  <SCORE.heavy>
42

>  <SCORE.norm>
3.25286

>  <RMSD>
8.853

$$$$

 OpenBabel11021811393D
libRbt.so/2013.1/901 2013/11/27
 42 45  0  0  0  0  0  0  0  0999 V2000
   -2.3679    1.5279   -4.4512 C   0  0  2  0  0  0  0  0  0  0  0  0
   -2.3981    0.0678   -4.4209 O   0  0  0  0  0  0  0  0  0  0  0  0
   -1.5638    2.1123   -3.2446 C   0  0  2  0  0  0  0  0  0  0  0  0
   -0.7450    1.0735   -2.5786 N   0  3  0  0  0  0  0  0  0  0  0  0
   -2.5232    2.7915   -2.2213 C   0  0  1  0  0  0  0  0  0  0  0  0
   -1.7779    3.3293   -1.1311 O   0  0  0  0  0  0  0  0  0  0  0  0
   -3.3411    3.9391   -2.8720 C   0  0  2  0  0  0  0  0  0  0  0  0
   -4.3867    4.3161   -1.9830 O   0  0  0  0  0  0  0  0  0  0  0  0
   -3.9398    3.4998   -4.2475 C   0  0  2  0  0  0  0  0  0  0  0  0
   -3.7354    2.0637   -4.4503 O   0  0  0  0  0  0  0  0  0  0  0  0
   -3.3182    4.2081   -5.4732 C   0  0  0  0  0  0  0  0  0  0  0  0
   -3.8371   -0.4760   -8.4524 C   0  0  1  0  0  0  0  0  0  0  0  0
   -4.3787   -1.0718   -9.6942 N   0  3  0  0  0  0  0  0  0  0  0  0
   -4.9104   -0.4175   -7.3340 C   0  0  1  0  0  0  0  0  0  0  0  0
   -4.3547    0.0653   -5.9491 C   0  0  1  0  0  0  0  0  0  0  0  0
   -5.3500   -0.2304   -4.9327 O   0  0  0  0  0  0  0  0  0  0  0  0
   -3.0197   -0.6527   -5.5290 C   0  0  1  0  0  0  0  0  0  0  0  0
   -1.9892   -0.7069   -6.7029 C   0  0  1  0  0  0  0  0  0  0  0  0
   -0.7975   -1.5088   -6.3581 N   0  3  0  0  0  0  0  0  0  0  0  0
   -2.6135   -1.2937   -7.9889 C   0  0  0  0  0  0  0  0  0  0  0  0
   -5.1857    0.3070   -3.5885 C   0  0  1  0  0  0  0  0  0  0  0  0
   -6.4699    0.0583   -2.8062 C   0  0  1  0  0  0  0  0  0  0  0  0
   -6.2656   -1.3991   -2.4155 C   0  0  1  0  0  0  0  0  0  0  0  0
   -4.7747   -1.4160   -2.0493 C   0  0  2  0  0  0  0  0  0  0  0  0
   -4.1564   -0.4153   -2.8929 O   0  0  0  0  0  0  0  0  0  0  0  0
   -4.1133   -2.7865   -2.2809 C   0  0  0  0  0  0  0  0  0  0  0  0
   -9.7219   -3.8176    0.6412 C   0  0  1  0  0  0  0  0  0  0  0  0
   -9.5314   -2.2787    0.7461 C   0  0  1  0  0  0  0  0  0  0  0  0
   -9.4981   -1.5478   -0.6271 C   0  0  2  0  0  0  0  0  0  0  0  0
   -8.4608   -2.2066   -1.5924 C   0  0  1  0  0  0  0  0  0  0  0  0
   -7.1053   -1.7732   -1.2856 O   0  0  0  0  0  0  0  0  0  0  0  0
   -9.6867   -4.2806   -0.8469 C   0  0  1  0  0  0  0  0  0  0  0  0
   -8.5294   -3.6843   -1.5190 O   0  0  0  0  0  0  0  0  0  0  0  0
   -9.6194   -5.8233   -0.9861 C   0  0  0  0  0  0  0  0  0  0  0  0
   -1.8457    4.2604   -5.4649 N   0  3  0  0  0  0  0  0  0  0  0  0
   -6.5085    0.9072   -1.6588 O   0  0  0  0  0  0  0  0  0  0  0  0
  -10.6050   -1.7445    1.5198 O   0  0  0  0  0  0  0  0  0  0  0  0
   -8.6764   -4.4536    1.3797 O   0  0  0  0  0  0  0  0  0  0  0  0
   -2.7851   -2.6336   -2.7511 O   0  0  0  0  0  0  0  0  0  0  0  0
   -5.9500    0.4714   -7.7420 O   0  0  0  0  0  0  0  0  0  0  0  0
   -9.8587   -6.5251    0.2884 N   0  3  0  0  0  0  0  0  0  0  0  0
   -9.2768   -0.0900   -0.4598 N   0  3  0  0  0  0  0  0  0  0  0  0
  1  2  1  1  0  0  0
  1  3  1  0  0  0  0
  1 10  1  0  0  0  0
  3  4  1  1  0  0  0
  3  5  1  0  0  0  0
  5  6  1  1  0  0  0
  5  7  1  0  0  0  0
  7  8  1  1  0  0  0
  7  9  1  0  0  0  0
  9 10  1  0  0  0  0
  9 11  1  6  0  0  0
 11 35  1  0  0  0  0
 12 13  1  6  0  0  0
 12 14  1  0  0  0  0
 12 20  1  0  0  0  0
 14 15  1  0  0  0  0
 14 40  1  6  0  0  0
 15 16  1  1  0  0  0
 15 17  1  0  0  0  0
 17  2  1  1  0  0  0
 17 18  1  0  0  0  0
 18 19  1  1  0  0  0
 18 20  1  0  0  0  0
 21 16  1  6  0  0  0
 21 22  1  0  0  0  0
 21 25  1  0  0  0  0
 22 23  1  0  0  0  0
 22 36  1  1  0  0  0
 23 24  1  0  0  0  0
 23 31  1  1  0  0  0
 24 25  1  0  0  0  0
 24 26  1  6  0  0  0
 26 39  1  0  0  0  0
 27 28  1  0  0  0  0
 27 32  1  0  0  0  0
 27 38  1  1  0  0  0
 28 29  1  0  0  0  0
 28 37  1  1  0  0  0
 29 30  1  0  0  0  0
 29 42  1  1  0  0  0
 30 31  1  1  0  0  0
 30 33  1  0  0  0  0
 32 33  1  0  0  0  0
 32 34  1  1  0  0  0
 34 41  1  0  0  0  0
M  CHG  6   4   1  13   1  19   1  35   1  41   1  42   1
M  END
>  <CHROM.1>
-175.35940950,-42.23069962,125.92787787,-48.07777165,-57.56326787,46.59278503
-144.67400105,-47.11296565,89.46840270,-170.10832674,170.10501603,62.72478620
72.18900150,85.90470922,143.39424109,-30.32055726,77.22031748,-171.98387397
-122.08241049,-135.19154105,10.85535044,-58.11662853,-5.22921032,-0.43539181
-3.21692345,-0.08059851,0.83550666,0.85664522

>  <Name>


>  <RI>
0

>  <Rbt.Current_Directory>
/home/itssahil/PROJECTS/Mol_Feturizer/New_Systems/rnas/1ei2

>  <Rbt.Executable>
rbdock ($Id: //depot/dev/client3/rdock/2013.1/src/exe/rbdock.cxx#4 $)

>  <Rbt.Library>
libRbt.so (2013.1, Build901 2013/11/27)

>  <Rbt.Parameter_File>
/export/apps/rDock/src/rDock_2013.1_src/data/scripts/dock_solv.prm

>  <Rbt.Receptor>
prm/blind_docking_20.prm

>  <SCORE>
46.3403

>  <SCORE.INTER>
40.999

>  <SCORE.INTER.CONST>
1

>  <SCORE.INTER.POLAR>
-4.36674

>  <SCORE.INTER.ROT>
9

>  <SCORE.INTER.SOLV>
51.7478

>  <SCORE.INTER.VDW>
15.0392

>  <SCORE.INTER.norm>
0.976167

>  <SCORE.INTRA>
-5.99786

>  <SCORE.INTRA.DIHEDRAL>
0.206018

>  <SCORE.INTRA.DIHEDRAL.0>
40.8761

>  <SCORE.INTRA.POLAR>
-2.58298

>  <SCORE.INTRA.POLAR.0>
-0.0268208

>  <SCORE.INTRA.REPUL>
-0.641615

>  <SCORE.INTRA.REPUL.0>
0.641615

>  <SCORE.INTRA.SOLV>
-1.58062

>  <SCORE.INTRA.SOLV.lig_0>
-162.567

>  <SCORE.INTRA.VDW>
6.67966

>  <SCORE.INTRA.VDW.0>
-4.80338

>  <SCORE.INTRA.norm>
-0.142806

>  <SCORE.RESTR>
11.3392

>  <SCORE.RESTR.CAVITY>
11.3392

>  <SCORE.RESTR.norm>
0.26998

>  <SCORE.SYSTEM>
0

>  <SCORE.SYSTEM.CONST>
0

>  <SCORE.SYSTEM.DIHEDRAL>
0

>  <SCORE.SYSTEM.SOLV>
0

>  <SCORE.SYSTEM.norm>
0

>  <SCORE.heavy>
42

>  <SCORE.norm>
1.10334

>  <RMSD>
8.868

$$$$

 OpenBabel11021811393D
libRbt.so/2013.1/901 2013/11/27
 42 45  0  0  0  0  0  0  0  0999 V2000
   -3.9745    1.9626   -6.7092 C   0  0  2  0  0  0  0  0  0  0  0  0
   -2.6011    1.4769   -6.8165 O   0  0  0  0  0  0  0  0  0  0  0  0
   -4.7165    1.8994   -8.0837 C   0  0  2  0  0  0  0  0  0  0  0  0
   -3.9910    1.0528   -9.0584 N   0  3  0  0  0  0  0  0  0  0  0  0
   -4.9332    3.3318   -8.6584 C   0  0  1  0  0  0  0  0  0  0  0  0
   -5.6195    3.2619   -9.9065 O   0  0  0  0  0  0  0  0  0  0  0  0
   -5.7593    4.2219   -7.6916 C   0  0  2  0  0  0  0  0  0  0  0  0
   -5.6735    5.5735   -8.1291 O   0  0  0  0  0  0  0  0  0  0  0  0
   -5.2379    4.1000   -6.2231 C   0  0  2  0  0  0  0  0  0  0  0  0
   -3.9873    3.3380   -6.1942 O   0  0  0  0  0  0  0  0  0  0  0  0
   -6.2086    3.3855   -5.2549 C   0  0  0  0  0  0  0  0  0  0  0  0
   -1.5921   -2.7160   -6.6698 C   0  0  1  0  0  0  0  0  0  0  0  0
   -1.1663   -4.0544   -6.2032 N   0  3  0  0  0  0  0  0  0  0  0  0
   -2.9592   -2.3091   -6.0602 C   0  0  1  0  0  0  0  0  0  0  0  0
   -3.3904   -0.8397   -6.3993 C   0  0  1  0  0  0  0  0  0  0  0  0
   -4.4928   -0.4771   -5.5251 O   0  0  0  0  0  0  0  0  0  0  0  0
   -2.2429    0.2131   -6.1776 C   0  0  1  0  0  0  0  0  0  0  0  0
   -0.8848   -0.2635   -6.7870 C   0  0  1  0  0  0  0  0  0  0  0  0
    0.2250    0.6518   -6.4516 N   0  3  0  0  0  0  0  0  0  0  0  0
   -0.5059   -1.6824   -6.3063 C   0  0  0  0  0  0  0  0  0  0  0  0
   -4.2133    0.1259   -4.2286 C   0  0  1  0  0  0  0  0  0  0  0  0
   -5.5231    0.2523   -3.4596 C   0  0  1  0  0  0  0  0  0  0  0  0
   -5.6651   -1.1718   -2.9398 C   0  0  1  0  0  0  0  0  0  0  0  0
   -4.2205   -1.5005   -2.5369 C   0  0  2  0  0  0  0  0  0  0  0  0
   -3.3830   -0.7497   -3.4482 O   0  0  0  0  0  0  0  0  0  0  0  0
   -3.8953   -3.0019   -2.6331 C   0  0  0  0  0  0  0  0  0  0  0  0
   -9.8562   -1.4477    0.1762 C   0  0  1  0  0  0  0  0  0  0  0  0
   -9.5357   -0.3939   -0.9202 C   0  0  1  0  0  0  0  0  0  0  0  0
   -9.0128   -1.0029   -2.2531 C   0  0  2  0  0  0  0  0  0  0  0  0
   -7.8146   -1.9733   -1.9988 C   0  0  1  0  0  0  0  0  0  0  0  0
   -6.5732   -1.2386   -1.8029 O   0  0  0  0  0  0  0  0  0  0  0  0
   -9.4301   -2.8746   -0.2848 C   0  0  1  0  0  0  0  0  0  0  0  0
   -8.0661   -2.8311   -0.8178 O   0  0  0  0  0  0  0  0  0  0  0  0
   -9.4964   -3.9131    0.8647 C   0  0  0  0  0  0  0  0  0  0  0  0
   -6.7084    2.0873   -5.7410 N   0  3  0  0  0  0  0  0  0  0  0  0
   -5.3676    1.1864   -2.3910 O   0  0  0  0  0  0  0  0  0  0  0  0
  -10.7248    0.3461   -1.1938 O   0  0  0  0  0  0  0  0  0  0  0  0
   -9.1565   -1.0860    1.3689 O   0  0  0  0  0  0  0  0  0  0  0  0
   -2.5605   -3.2567   -2.2303 O   0  0  0  0  0  0  0  0  0  0  0  0
   -3.9619   -3.2012   -6.5461 O   0  0  0  0  0  0  0  0  0  0  0  0
   -8.9513   -5.2284    0.4815 N   0  3  0  0  0  0  0  0  0  0  0  0
   -8.6907    0.0550   -3.2427 N   0  3  0  0  0  0  0  0  0  0  0  0
  1  2  1  6  0  0  0
  1  3  1  0  0  0  0
  1 10  1  0  0  0  0
  3  4  1  6  0  0  0
  3  5  1  0  0  0  0
  5  6  1  6  0  0  0
  5  7  1  0  0  0  0
  7  8  1  6  0  0  0
  7  9  1  0  0  0  0
  9 10  1  0  0  0  0
  9 11  1  1  0  0  0
 11 35  1  0  0  0  0
 12 13  1  1  0  0  0
 12 14  1  0  0  0  0
 12 20  1  0  0  0  0
 14 15  1  0  0  0  0
 14 40  1  6  0  0  0
 15 16  1  1  0  0  0
 15 17  1  0  0  0  0
 17  2  1  6  0  0  0
 17 18  1  0  0  0  0
 18 19  1  1  0  0  0
 18 20  1  0  0  0  0
 21 16  1  6  0  0  0
 21 22  1  0  0  0  0
 21 25  1  0  0  0  0
 22 23  1  0  0  0  0
 22 36  1  1  0  0  0
 23 24  1  0  0  0  0
 23 31  1  1  0  0  0
 24 25  1  0  0  0  0
 24 26  1  6  0  0  0
 26 39  1  0  0  0  0
 27 28  1  0  0  0  0
 27 32  1  0  0  0  0
 27 38  1  1  0  0  0
 28 29  1  0  0  0  0
 28 37  1  6  0  0  0
 29 30  1  0  0  0  0
 29 42  1  6  0  0  0
 30 31  1  1  0  0  0
 30 33  1  0  0  0  0
 32 33  1  0  0  0  0
 32 34  1  1  0  0  0
 34 41  1  0  0  0  0
M  CHG  6   4   1  13   1  19   1  35   1  41   1  42   1
M  END
>  <CHROM.1>
-110.67866653,41.31660641,-169.04705211,-173.23439871,-170.88656935,50.58862728
79.14849032,-56.56615316,-175.54982805,89.20715444,-173.46331114,140.63174061
81.95006091,114.18257878,-179.01211903,90.39180481,56.43430925,73.66679793
-52.92848878,-101.04569473,-173.46675834,-51.33672783,-5.30548260,-0.20697800
-4.40237798,0.86136293,0.53930913,-0.66530036

>  <Name>


>  <RI>
0

>  <Rbt.Current_Directory>
/home/itssahil/PROJECTS/Mol_Feturizer/New_Systems/rnas/1ei2

>  <Rbt.Executable>
rbdock ($Id: //depot/dev/client3/rdock/2013.1/src/exe/rbdock.cxx#4 $)

>  <Rbt.Library>
libRbt.so (2013.1, Build901 2013/11/27)

>  <Rbt.Parameter_File>
/export/apps/rDock/src/rDock_2013.1_src/data/scripts/dock_solv.prm

>  <Rbt.Receptor>
prm/blind_docking_60.prm

>  <SCORE>
16.8834

>  <SCORE.INTER>
7.99168

>  <SCORE.INTER.CONST>
1

>  <SCORE.INTER.POLAR>
-6.53936

>  <SCORE.INTER.ROT>
9

>  <SCORE.INTER.SOLV>
52.1781

>  <SCORE.INTER.VDW>
0.132945

>  <SCORE.INTER.norm>
0.190278

>  <SCORE.INTRA>
-6.25486

>  <SCORE.INTRA.DIHEDRAL>
-3.72119

>  <SCORE.INTRA.DIHEDRAL.0>
40.8761

>  <SCORE.INTRA.POLAR>
-0.354154

>  <SCORE.INTRA.POLAR.0>
-0.0268208

>  <SCORE.INTRA.REPUL>
-0.641615

>  <SCORE.INTRA.REPUL.0>
0.641615

>  <SCORE.INTRA.SOLV>
-0.115934

>  <SCORE.INTRA.SOLV.lig_0>
-162.567

>  <SCORE.INTRA.VDW>
0.0758977

>  <SCORE.INTRA.VDW.0>
-4.80338

>  <SCORE.INTRA.norm>
-0.148925

>  <SCORE.RESTR>
15.1466

>  <SCORE.RESTR.CAVITY>
15.1466

>  <SCORE.RESTR.norm>
0.360633

>  <SCORE.SYSTEM>
0

>  <SCORE.SYSTEM.CONST>
0

>  <SCORE.SYSTEM.DIHEDRAL>
0

>  <SCORE.SYSTEM.SOLV>
0

>  <SCORE.SYSTEM.norm>
0

>  <SCORE.heavy>
42

>  <SCORE.norm>
0.401986

>  <RMSD>
8.869

$$$$

 OpenBabel11021811393D
libRbt.so/2013.1/901 2013/11/27
 42 45  0  0  0  0  0  0  0  0999 V2000
   -3.4764    0.3891   -5.8201 C   0  0  2  0  0  0  0  0  0  0  0  0
   -3.7116   -0.9226   -6.4182 O   0  0  0  0  0  0  0  0  0  0  0  0
   -4.7090    1.3336   -6.0007 C   0  0  2  0  0  0  0  0  0  0  0  0
   -5.9194    0.5819   -6.4044 N   0  3  0  0  0  0  0  0  0  0  0  0
   -4.3940    2.4580   -7.0328 C   0  0  1  0  0  0  0  0  0  0  0  0
   -5.5213    3.3185   -7.1814 O   0  0  0  0  0  0  0  0  0  0  0  0
   -3.1748    3.3147   -6.5979 C   0  0  2  0  0  0  0  0  0  0  0  0
   -2.7648    4.1181   -7.6988 O   0  0  0  0  0  0  0  0  0  0  0  0
   -1.9896    2.4138   -6.1213 C   0  0  2  0  0  0  0  0  0  0  0  0
   -2.2799    1.0068   -6.4066 O   0  0  0  0  0  0  0  0  0  0  0  0
   -1.6865    2.5003   -4.6077 C   0  0  0  0  0  0  0  0  0  0  0  0
   -2.8128   -5.0124   -5.3762 C   0  0  1  0  0  0  0  0  0  0  0  0
   -2.0966   -6.2654   -5.0484 N   0  3  0  0  0  0  0  0  0  0  0  0
   -2.6631   -3.9592   -4.2472 C   0  0  1  0  0  0  0  0  0  0  0  0
   -3.2742   -2.5593   -4.6034 C   0  0  1  0  0  0  0  0  0  0  0  0
   -2.7930   -1.5934   -3.6307 O   0  0  0  0  0  0  0  0  0  0  0  0
   -2.8589   -2.0432   -6.0301 C   0  0  1  0  0  0  0  0  0  0  0  0
   -3.0029   -3.1544   -7.1199 C   0  0  1  0  0  0  0  0  0  0  0  0
   -2.4743   -2.7191   -8.4287 N   0  3  0  0  0  0  0  0  0  0  0  0
   -2.2774   -4.4564   -6.7122 C   0  0  0  0  0  0  0  0  0  0  0  0
   -3.4719   -0.3115   -3.4946 C   0  0  1  0  0  0  0  0  0  0  0  0
   -4.9621   -0.5692   -3.3053 C   0  0  1  0  0  0  0  0  0  0  0  0
   -4.9861   -0.9145   -1.8225 C   0  0  1  0  0  0  0  0  0  0  0  0
   -4.0014    0.1142   -1.2484 C   0  0  2  0  0  0  0  0  0  0  0  0
   -3.0333    0.3524   -2.2980 O   0  0  0  0  0  0  0  0  0  0  0  0
   -3.2916   -0.3777    0.0257 C   0  0  0  0  0  0  0  0  0  0  0  0
  -10.0039   -1.5431   -0.5120 C   0  0  1  0  0  0  0  0  0  0  0  0
   -9.4412   -0.1410   -0.8761 C   0  0  1  0  0  0  0  0  0  0  0  0
   -8.5565   -0.1244   -2.1560 C   0  0  2  0  0  0  0  0  0  0  0  0
   -7.4345   -1.2095   -2.0810 C   0  0  1  0  0  0  0  0  0  0  0  0
   -6.3204   -0.7605   -1.2586 O   0  0  0  0  0  0  0  0  0  0  0  0
   -9.4154   -2.6382   -1.4526 C   0  0  1  0  0  0  0  0  0  0  0  0
   -7.9611   -2.4825   -1.5370 O   0  0  0  0  0  0  0  0  0  0  0  0
   -9.7485   -4.0740   -0.9714 C   0  0  0  0  0  0  0  0  0  0  0  0
   -2.7605    3.1115   -3.8051 N   0  3  0  0  0  0  0  0  0  0  0  0
   -5.6970    0.6244   -3.5767 O   0  0  0  0  0  0  0  0  0  0  0  0
  -10.5404    0.7478   -1.0715 O   0  0  0  0  0  0  0  0  0  0  0  0
   -9.6648   -1.8271    0.8472 O   0  0  0  0  0  0  0  0  0  0  0  0
   -2.0749    0.3205    0.2280 O   0  0  0  0  0  0  0  0  0  0  0  0
   -3.3076   -4.4514   -3.0725 O   0  0  0  0  0  0  0  0  0  0  0  0
   -9.1851   -4.3789    0.3566 N   0  3  0  0  0  0  0  0  0  0  0  0
   -8.0210    1.2328   -2.4271 N   0  3  0  0  0  0  0  0  0  0  0  0
  1  2  1  6  0  0  0
  1  3  1  0  0  0  0
  1 10  1  0  0  0  0
  3  4  1  6  0  0  0
  3  5  1  0  0  0  0
  5  6  1  1  0  0  0
  5  7  1  0  0  0  0
  7  8  1  6  0  0  0
  7  9  1  0  0  0  0
  9 10  1  0  0  0  0
  9 11  1  1  0  0  0
 11 35  1  0  0  0  0
 12 13  1  1  0  0  0
 12 14  1  0  0  0  0
 12 20  1  0  0  0  0
 14 15  1  0  0  0  0
 14 40  1  1  0  0  0
 15 16  1  1  0  0  0
 15 17  1  0  0  0  0
 17  2  1  6  0  0  0
 17 18  1  0  0  0  0
 18 19  1  6  0  0  0
 18 20  1  0  0  0  0
 21 16  1  1  0  0  0
 21 22  1  0  0  0  0
 21 25  1  0  0  0  0
 22 23  1  0  0  0  0
 22 36  1  1  0  0  0
 23 24  1  0  0  0  0
 23 31  1  1  0  0  0
 24 25  1  0  0  0  0
 24 26  1  1  0  0  0
 26 39  1  0  0  0  0
 27 28  1  0  0  0  0
 27 32  1  0  0  0  0
 27 38  1  1  0  0  0
 28 29  1  0  0  0  0
 28 37  1  6  0  0  0
 29 30  1  0  0  0  0
 29 42  1  1  0  0  0
 30 31  1  1  0  0  0
 30 33  1  0  0  0  0
 32 33  1  0  0  0  0
 32 34  1  1  0  0  0
 34 41  1  0  0  0  0
M  CHG  6   4   1  13   1  19   1  35   1  41   1  42   1
M  END
>  <CHROM.1>
-162.63985850,76.00509461,94.23498553,63.84913685,161.01331405,15.77672054
-52.20908433,114.99898297,-174.03912358,-163.31104031,51.78826064,57.49776509
-52.48403208,40.31936267,157.52804071,-52.18576899,62.31094176,173.81698541
49.17078708,-131.30299307,-61.78027073,47.35582055,-4.95953843,-0.70198542
-3.71747059,0.40705688,0.69920548,-0.22757469

>  <Name>


>  <RI>
0

>  <Rbt.Current_Directory>
/home/itssahil/PROJECTS/Mol_Feturizer/New_Systems/rnas/1ei2

>  <Rbt.Executable>
rbdock ($Id: //depot/dev/client3/rdock/2013.1/src/exe/rbdock.cxx#4 $)

>  <Rbt.Library>
libRbt.so (2013.1, Build901 2013/11/27)

>  <Rbt.Parameter_File>
/export/apps/rDock/src/rDock_2013.1_src/data/scripts/dock_solv.prm

>  <Rbt.Receptor>
prm/blind_docking_20.prm

>  <SCORE>
-27.7149

>  <SCORE.INTER>
-29.2019

>  <SCORE.INTER.CONST>
1

>  <SCORE.INTER.POLAR>
-5.19487

>  <SCORE.INTER.ROT>
9

>  <SCORE.INTER.SOLV>
41.3203

>  <SCORE.INTER.VDW>
-25.5252

>  <SCORE.INTER.norm>
-0.695284

>  <SCORE.INTRA>
-7.44112

>  <SCORE.INTRA.DIHEDRAL>
-12.2969

>  <SCORE.INTRA.DIHEDRAL.0>
40.8761

>  <SCORE.INTRA.POLAR>
-2.71451

>  <SCORE.INTRA.POLAR.0>
-0.0268208

>  <SCORE.INTRA.REPUL>
-0.5793

>  <SCORE.INTRA.REPUL.0>
0.641615

>  <SCORE.INTRA.SOLV>
1.8359

>  <SCORE.INTRA.SOLV.lig_0>
-162.567

>  <SCORE.INTRA.VDW>
9.91523

>  <SCORE.INTRA.VDW.0>
-4.80338

>  <SCORE.INTRA.norm>
-0.17717

>  <SCORE.RESTR>
8.92818

>  <SCORE.RESTR.CAVITY>
8.92818

>  <SCORE.RESTR.norm>
0.212576

>  <SCORE.SYSTEM>
0

>  <SCORE.SYSTEM.CONST>
0

>  <SCORE.SYSTEM.DIHEDRAL>
0

>  <SCORE.SYSTEM.SOLV>
0

>  <SCORE.SYSTEM.norm>
0

>  <SCORE.heavy>
42

>  <SCORE.norm>
-0.659878

>  <RMSD>
8.874

$$$$

 OpenBabel11021811393D
libRbt.so/2013.1/901 2013/11/27
 42 45  0  0  0  0  0  0  0  0999 V2000
   -2.9997    1.4134   -4.4833 C   0  0  2  0  0  0  0  0  0  0  0  0
   -2.9816    0.4418   -5.5738 O   0  0  0  0  0  0  0  0  0  0  0  0
   -4.3049    2.2737   -4.5002 C   0  0  2  0  0  0  0  0  0  0  0  0
   -5.3425    1.6759   -5.3714 N   0  3  0  0  0  0  0  0  0  0  0  0
   -3.9947    3.7354   -4.9431 C   0  0  1  0  0  0  0  0  0  0  0  0
   -5.1904    4.5125   -4.9449 O   0  0  0  0  0  0  0  0  0  0  0  0
   -2.9661    4.4171   -4.0015 C   0  0  2  0  0  0  0  0  0  0  0  0
   -2.5124    5.6190   -4.6139 O   0  0  0  0  0  0  0  0  0  0  0  0
   -1.7540    3.4746   -3.7082 C   0  0  2  0  0  0  0  0  0  0  0  0
   -1.8214    2.2867   -4.5624 O   0  0  0  0  0  0  0  0  0  0  0  0
   -1.6771    2.9628   -2.2514 C   0  0  0  0  0  0  0  0  0  0  0  0
   -1.7157   -3.5488   -6.6189 C   0  0  1  0  0  0  0  0  0  0  0  0
   -1.0522   -4.8718   -6.6100 N   0  3  0  0  0  0  0  0  0  0  0  0
   -2.7597   -3.4280   -5.4780 C   0  0  1  0  0  0  0  0  0  0  0  0
   -3.3871   -1.9968   -5.3441 C   0  0  1  0  0  0  0  0  0  0  0  0
   -4.0817   -1.9232   -4.0701 O   0  0  0  0  0  0  0  0  0  0  0  0
   -2.3180   -0.8432   -5.3690 C   0  0  1  0  0  0  0  0  0  0  0  0
   -1.2774   -1.0335   -6.5196 C   0  0  1  0  0  0  0  0  0  0  0  0
   -0.1892   -0.0369   -6.4535 N   0  3  0  0  0  0  0  0  0  0  0  0
   -0.6461   -2.4437   -6.4958 C   0  0  0  0  0  0  0  0  0  0  0  0
   -4.7326   -0.6803   -3.6774 C   0  0  1  0  0  0  0  0  0  0  0  0
   -6.1220   -1.0077   -3.1433 C   0  0  1  0  0  0  0  0  0  0  0  0
   -5.7667   -1.4488   -1.7299 C   0  0  1  0  0  0  0  0  0  0  0  0
   -4.6922   -0.4218   -1.3454 C   0  0  2  0  0  0  0  0  0  0  0  0
   -4.0229   -0.0786   -2.5823 O   0  0  0  0  0  0  0  0  0  0  0  0
   -3.6755   -0.9670   -0.3263 C   0  0  0  0  0  0  0  0  0  0  0  0
   -9.8634   -3.2672    0.7476 C   0  0  1  0  0  0  0  0  0  0  0  0
   -9.7133   -1.7213    0.6915 C   0  0  1  0  0  0  0  0  0  0  0  0
   -9.3999   -1.1646   -0.7273 C   0  0  2  0  0  0  0  0  0  0  0  0
   -8.1774   -1.8999   -1.3650 C   0  0  1  0  0  0  0  0  0  0  0  0
   -6.9203   -1.3838   -0.8429 O   0  0  0  0  0  0  0  0  0  0  0  0
   -9.5131   -3.9086   -0.6294 C   0  0  1  0  0  0  0  0  0  0  0  0
   -8.2463   -3.3588   -1.1187 O   0  0  0  0  0  0  0  0  0  0  0  0
   -9.4040   -5.4534   -0.5528 C   0  0  0  0  0  0  0  0  0  0  0  0
   -0.8166    1.7813   -2.0652 N   0  3  0  0  0  0  0  0  0  0  0  0
   -6.9272    0.1713   -3.1368 O   0  0  0  0  0  0  0  0  0  0  0  0
  -10.9299   -1.1345    1.1518 O   0  0  0  0  0  0  0  0  0  0  0  0
   -8.9899   -3.7695    1.7614 O   0  0  0  0  0  0  0  0  0  0  0  0
   -3.1278   -2.1974   -0.7676 O   0  0  0  0  0  0  0  0  0  0  0  0
   -3.8100   -4.3648   -5.7162 O   0  0  0  0  0  0  0  0  0  0  0  0
   -8.2317   -5.9080    0.2173 N   0  3  0  0  0  0  0  0  0  0  0  0
   -9.2320    0.3097   -0.7060 N   0  3  0  0  0  0  0  0  0  0  0  0
  1  2  1  6  0  0  0
  1  3  1  0  0  0  0
  1 10  1  0  0  0  0
  3  4  1  6  0  0  0
  3  5  1  0  0  0  0
  5  6  1  1  0  0  0
  5  7  1  0  0  0  0
  7  8  1  6  0  0  0
  7  9  1  0  0  0  0
  9 10  1  0  0  0  0
  9 11  1  1  0  0  0
 11 35  1  0  0  0  0
 12 13  1  1  0  0  0
 12 14  1  0  0  0  0
 12 20  1  0  0  0  0
 14 15  1  0  0  0  0
 14 40  1  6  0  0  0
 15 16  1  1  0  0  0
 15 17  1  0  0  0  0
 17  2  1  6  0  0  0
 17 18  1  0  0  0  0
 18 19  1  1  0  0  0
 18 20  1  0  0  0  0
 21 16  1  1  0  0  0
 21 22  1  0  0  0  0
 21 25  1  0  0  0  0
 22 23  1  0  0  0  0
 22 36  1  1  0  0  0
 23 24  1  0  0  0  0
 23 31  1  1  0  0  0
 24 25  1  0  0  0  0
 24 26  1  1  0  0  0
 26 39  1  0  0  0  0
 27 28  1  0  0  0  0
 27 32  1  0  0  0  0
 27 38  1  1  0  0  0
 28 29  1  0  0  0  0
 28 37  1  6  0  0  0
 29 30  1  0  0  0  0
 29 42  1  1  0  0  0
 30 31  1  1  0  0  0
 30 33  1  0  0  0  0
 32 33  1  0  0  0  0
 32 34  1  1  0  0  0
 34 41  1  0  0  0  0
M  CHG  6   4   1  13   1  19   1  35   1  41   1  42   1
M  END
>  <CHROM.1>
-147.59012840,111.62416904,-150.71508617,-179.78909050,174.44871958,162.12714184
178.29120728,-48.29909319,65.93765052,178.54544560,134.22841567,-143.52006788
-61.03658626,44.05695956,52.13230171,154.78216525,86.75302168,-165.13833548
36.78445367,-150.71815434,-69.04155807,-105.17523211,-4.88627160,-0.69227544
-3.02243551,0.40109674,0.66231797,0.06871491

>  <Name>


>  <RI>
0

>  <Rbt.Current_Directory>
/home/itssahil/PROJECTS/Mol_Feturizer/New_Systems/rnas/1ei2

>  <Rbt.Executable>
rbdock ($Id: //depot/dev/client3/rdock/2013.1/src/exe/rbdock.cxx#4 $)

>  <Rbt.Library>
libRbt.so (2013.1, Build901 2013/11/27)

>  <Rbt.Parameter_File>
/export/apps/rDock/src/rDock_2013.1_src/data/scripts/dock_solv.prm

>  <Rbt.Receptor>
prm/blind_docking_40.prm

>  <SCORE>
32.4578

>  <SCORE.INTER>
33.6615

>  <SCORE.INTER.CONST>
1

>  <SCORE.INTER.POLAR>
-6.40184

>  <SCORE.INTER.ROT>
9

>  <SCORE.INTER.SOLV>
61.2438

>  <SCORE.INTER.VDW>
13.7658

>  <SCORE.INTER.norm>
0.801464

>  <SCORE.INTRA>
-7.59577

>  <SCORE.INTRA.DIHEDRAL>
-1.00613

>  <SCORE.INTRA.DIHEDRAL.0>
40.8761

>  <SCORE.INTRA.POLAR>
-1.773

>  <SCORE.INTRA.POLAR.0>
-0.0268208

>  <SCORE.INTRA.REPUL>
-0.601842

>  <SCORE.INTRA.REPUL.0>
0.641615

>  <SCORE.INTRA.SOLV>
-1.14083

>  <SCORE.INTRA.SOLV.lig_0>
-162.567

>  <SCORE.INTRA.VDW>
2.51511

>  <SCORE.INTRA.VDW.0>
-4.80338

>  <SCORE.INTRA.norm>
-0.180852

>  <SCORE.RESTR>
6.39207

>  <SCORE.RESTR.CAVITY>
6.39207

>  <SCORE.RESTR.norm>
0.152192

>  <SCORE.SYSTEM>
0

>  <SCORE.SYSTEM.CONST>
0

>  <SCORE.SYSTEM.DIHEDRAL>
0

>  <SCORE.SYSTEM.SOLV>
0

>  <SCORE.SYSTEM.norm>
0

>  <SCORE.heavy>
42

>  <SCORE.norm>
0.772804

>  <RMSD>
8.885

$$$$

 OpenBabel11021811393D
libRbt.so/2013.1/901 2013/11/27
 42 45  0  0  0  0  0  0  0  0999 V2000
   -2.9086    0.2124   -6.4899 C   0  0  2  0  0  0  0  0  0  0  0  0
   -1.8979   -0.0908   -5.4798 O   0  0  0  0  0  0  0  0  0  0  0  0
   -3.1414    1.7521   -6.6274 C   0  0  2  0  0  0  0  0  0  0  0  0
   -2.0595    2.5288   -5.9798 N   0  3  0  0  0  0  0  0  0  0  0  0
   -4.5287    2.1534   -6.0413 C   0  0  1  0  0  0  0  0  0  0  0  0
   -4.7338    3.5575   -6.1816 O   0  0  0  0  0  0  0  0  0  0  0  0
   -5.6916    1.4124   -6.7540 C   0  0  2  0  0  0  0  0  0  0  0  0
   -6.8821    1.5938   -5.9954 O   0  0  0  0  0  0  0  0  0  0  0  0
   -5.3824   -0.1120   -6.9093 C   0  0  2  0  0  0  0  0  0  0  0  0
   -4.1725   -0.4594   -6.1605 O   0  0  0  0  0  0  0  0  0  0  0  0
   -5.1437   -0.5731   -8.3656 C   0  0  0  0  0  0  0  0  0  0  0  0
   -2.2497   -4.3777   -5.8236 C   0  0  1  0  0  0  0  0  0  0  0  0
   -2.0725   -5.8335   -5.6242 N   0  3  0  0  0  0  0  0  0  0  0  0
   -2.9541   -3.7184   -4.6089 C   0  0  1  0  0  0  0  0  0  0  0  0
   -3.0345   -2.1545   -4.6970 C   0  0  1  0  0  0  0  0  0  0  0  0
   -3.4061   -1.6448   -3.3882 O   0  0  0  0  0  0  0  0  0  0  0  0
   -1.6703   -1.4822   -5.0984 C   0  0  1  0  0  0  0  0  0  0  0  0
   -0.9939   -2.2057   -6.3075 C   0  0  1  0  0  0  0  0  0  0  0  0
    0.3537   -1.6711   -6.5903 N   0  3  0  0  0  0  0  0  0  0  0  0
   -0.8724   -3.7280   -6.0714 C   0  0  0  0  0  0  0  0  0  0  0  0
   -4.0117   -0.3243   -3.2768 C   0  0  1  0  0  0  0  0  0  0  0  0
   -5.5273   -0.4808   -3.3142 C   0  0  1  0  0  0  0  0  0  0  0  0
   -5.7881   -0.8922   -1.8716 C   0  0  1  0  0  0  0  0  0  0  0  0
   -4.8312    0.0337   -1.1072 C   0  0  2  0  0  0  0  0  0  0  0  0
   -3.7079    0.2490   -1.9946 O   0  0  0  0  0  0  0  0  0  0  0  0
   -4.3468   -0.5678    0.2243 C   0  0  0  0  0  0  0  0  0  0  0  0
  -10.2761   -2.4411   -0.0841 C   0  0  1  0  0  0  0  0  0  0  0  0
  -10.2583   -1.0068   -0.6825 C   0  0  1  0  0  0  0  0  0  0  0  0
   -9.5859   -0.9109   -2.0824 C   0  0  2  0  0  0  0  0  0  0  0  0
   -8.1664   -1.5642   -2.0728 C   0  0  1  0  0  0  0  0  0  0  0  0
   -7.1768   -0.6673   -1.4936 O   0  0  0  0  0  0  0  0  0  0  0  0
   -9.4715   -3.4274   -0.9841 C   0  0  1  0  0  0  0  0  0  0  0  0
   -8.1721   -2.8383   -1.3177 O   0  0  0  0  0  0  0  0  0  0  0  0
   -9.2493   -4.8030   -0.3042 C   0  0  0  0  0  0  0  0  0  0  0  0
   -6.3613   -0.6314   -9.1935 N   0  3  0  0  0  0  0  0  0  0  0  0
   -6.1351    0.7748   -3.6185 O   0  0  0  0  0  0  0  0  0  0  0  0
  -11.6054   -0.5489   -0.7926 O   0  0  0  0  0  0  0  0  0  0  0  0
   -9.7050   -2.3915    1.2252 O   0  0  0  0  0  0  0  0  0  0  0  0
   -2.9759   -0.9198    0.1509 O   0  0  0  0  0  0  0  0  0  0  0  0
   -4.2801   -4.2374   -4.5103 O   0  0  0  0  0  0  0  0  0  0  0  0
   -9.6802   -5.9347   -1.1454 N   0  3  0  0  0  0  0  0  0  0  0  0
   -9.5679    0.4870   -2.5802 N   0  3  0  0  0  0  0  0  0  0  0  0
  1  2  1  1  0  0  0
  1  3  1  0  0  0  0
  1 10  1  0  0  0  0
  3  4  1  1  0  0  0
  3  5  1  0  0  0  0
  5  6  1  6  0  0  0
  5  7  1  0  0  0  0
  7  8  1  1  0  0  0
  7  9  1  0  0  0  0
  9 10  1  0  0  0  0
  9 11  1  6  0  0  0
 11 35  1  0  0  0  0
 12 13  1  1  0  0  0
 12 14  1  0  0  0  0
 12 20  1  0  0  0  0
 14 15  1  0  0  0  0
 14 40  1  6  0  0  0
 15 16  1  1  0  0  0
 15 17  1  0  0  0  0
 17  2  1  6  0  0  0
 17 18  1  0  0  0  0
 18 19  1  1  0  0  0
 18 20  1  0  0  0  0
 21 16  1  1  0  0  0
 21 22  1  0  0  0  0
 21 25  1  0  0  0  0
 22 23  1  0  0  0  0
 22 36  1  1  0  0  0
 23 24  1  0  0  0  0
 23 31  1  1  0  0  0
 24 25  1  0  0  0  0
 24 26  1  1  0  0  0
 26 39  1  0  0  0  0
 27 28  1  0  0  0  0
 27 32  1  0  0  0  0
 27 38  1  1  0  0  0
 28 29  1  0  0  0  0
 28 37  1  6  0  0  0
 29 30  1  0  0  0  0
 29 42  1  1  0  0  0
 30 31  1  1  0  0  0
 30 33  1  0  0  0  0
 32 33  1  0  0  0  0
 32 34  1  1  0  0  0
 34 41  1  0  0  0  0
M  CHG  6   4   1  13   1  19   1  35   1  41   1  42   1
M  END
>  <CHROM.1>
172.45231609,-52.58597834,96.19091965,-70.17975824,74.08152086,-73.11693837
73.70222537,-175.41294125,-71.33592665,-158.07721256,92.72049482,-103.76017757
166.44162790,71.80314919,109.55903330,66.23525470,62.27477185,135.42963812
101.14311184,-156.94380197,127.26560142,-33.73579767,-5.36244642,-1.12571351
-3.80405788,0.47849738,0.53136948,-0.54911947

>  <Name>


>  <RI>
0

>  <Rbt.Current_Directory>
/home/itssahil/PROJECTS/Mol_Feturizer/New_Systems/rnas/1ei2

>  <Rbt.Executable>
rbdock ($Id: //depot/dev/client3/rdock/2013.1/src/exe/rbdock.cxx#4 $)

>  <Rbt.Library>
libRbt.so (2013.1, Build901 2013/11/27)

>  <Rbt.Parameter_File>
/export/apps/rDock/src/rDock_2013.1_src/data/scripts/dock_solv.prm

>  <Rbt.Receptor>
prm/blind_docking_40.prm

>  <SCORE>
54.2353

>  <SCORE.INTER>
51.3812

>  <SCORE.INTER.CONST>
1

>  <SCORE.INTER.POLAR>
-9.71459

>  <SCORE.INTER.ROT>
9

>  <SCORE.INTER.SOLV>
63.4258

>  <SCORE.INTER.VDW>
35.8942

>  <SCORE.INTER.norm>
1.22336

>  <SCORE.INTRA>
-8.80203

>  <SCORE.INTRA.DIHEDRAL>
-0.456511

>  <SCORE.INTRA.DIHEDRAL.0>
40.8761

>  <SCORE.INTRA.POLAR>
-0.403468

>  <SCORE.INTRA.POLAR.0>
-0.0268208

>  <SCORE.INTRA.REPUL>
-0.638188

>  <SCORE.INTRA.REPUL.0>
0.641615

>  <SCORE.INTRA.SOLV>
-11.5398

>  <SCORE.INTRA.SOLV.lig_0>
-162.567

>  <SCORE.INTRA.VDW>
1.75885

>  <SCORE.INTRA.VDW.0>
-4.80338

>  <SCORE.INTRA.norm>
-0.209572

>  <SCORE.RESTR>
11.6561

>  <SCORE.RESTR.CAVITY>
11.6561

>  <SCORE.RESTR.norm>
0.277527

>  <SCORE.SYSTEM>
0

>  <SCORE.SYSTEM.CONST>
0

>  <SCORE.SYSTEM.DIHEDRAL>
0

>  <SCORE.SYSTEM.SOLV>
0

>  <SCORE.SYSTEM.norm>
0

>  <SCORE.heavy>
42

>  <SCORE.norm>
1.29132

>  <RMSD>
8.898

$$$$

 OpenBabel11021811393D
libRbt.so/2013.1/901 2013/11/27
 42 45  0  0  0  0  0  0  0  0999 V2000
   -3.9228    0.1781   -6.3799 C   0  0  2  0  0  0  0  0  0  0  0  0
   -3.7724   -1.1220   -7.0286 O   0  0  0  0  0  0  0  0  0  0  0  0
   -5.0803    1.0108   -7.0207 C   0  0  2  0  0  0  0  0  0  0  0  0
   -5.9565    0.1685   -7.8667 N   0  3  0  0  0  0  0  0  0  0  0  0
   -4.5088    2.2044   -7.8440 C   0  0  1  0  0  0  0  0  0  0  0  0
   -5.5735    2.9620   -8.4149 O   0  0  0  0  0  0  0  0  0  0  0  0
   -3.6474    3.1506   -6.9654 C   0  0  2  0  0  0  0  0  0  0  0  0
   -2.9292    4.0368   -7.8166 O   0  0  0  0  0  0  0  0  0  0  0  0
   -2.6521    2.3437   -6.0700 C   0  0  2  0  0  0  0  0  0  0  0  0
   -2.6632    0.9299   -6.4524 O   0  0  0  0  0  0  0  0  0  0  0  0
   -2.9675    2.3908   -4.5572 C   0  0  0  0  0  0  0  0  0  0  0  0
   -2.7284   -4.9334   -5.2957 C   0  0  1  0  0  0  0  0  0  0  0  0
   -1.9692   -6.0755   -4.7393 N   0  3  0  0  0  0  0  0  0  0  0  0
   -2.6829   -3.7048   -4.3498 C   0  0  1  0  0  0  0  0  0  0  0  0
   -3.3430   -2.4168   -4.9543 C   0  0  1  0  0  0  0  0  0  0  0  0
   -2.9550   -1.2811   -4.1353 O   0  0  0  0  0  0  0  0  0  0  0  0
   -2.8862   -2.1164   -6.4292 C   0  0  1  0  0  0  0  0  0  0  0  0
   -2.9251   -3.3955   -7.3266 C   0  0  1  0  0  0  0  0  0  0  0  0
   -2.3569   -3.1494   -8.6677 N   0  3  0  0  0  0  0  0  0  0  0  0
   -2.1580   -4.5724   -6.6830 C   0  0  0  0  0  0  0  0  0  0  0  0
   -3.9647   -0.3160   -3.7208 C   0  0  1  0  0  0  0  0  0  0  0  0
   -5.3242   -1.0051   -3.7220 C   0  0  1  0  0  0  0  0  0  0  0  0
   -5.2531   -1.7363   -2.3883 C   0  0  1  0  0  0  0  0  0  0  0  0
   -4.5951   -0.6795   -1.4897 C   0  0  2  0  0  0  0  0  0  0  0  0
   -3.7303    0.0872   -2.3615 O   0  0  0  0  0  0  0  0  0  0  0  0
   -3.7781   -1.2925   -0.3383 C   0  0  0  0  0  0  0  0  0  0  0  0
   -9.5434    0.2880   -2.3741 C   0  0  1  0  0  0  0  0  0  0  0  0
   -9.6519   -1.1997   -1.9379 C   0  0  1  0  0  0  0  0  0  0  0  0
   -8.7218   -1.5831   -0.7508 C   0  0  2  0  0  0  0  0  0  0  0  0
   -7.2449   -1.1560   -1.0300 C   0  0  1  0  0  0  0  0  0  0  0  0
   -6.5782   -2.1058   -1.9091 O   0  0  0  0  0  0  0  0  0  0  0  0
   -8.4020    1.0118   -1.5971 C   0  0  1  0  0  0  0  0  0  0  0  0
   -7.1869    0.1942   -1.6361 O   0  0  0  0  0  0  0  0  0  0  0  0
   -8.0910    2.4170   -2.1740 C   0  0  0  0  0  0  0  0  0  0  0  0
   -3.1342    3.7494   -4.0114 N   0  3  0  0  0  0  0  0  0  0  0  0
   -6.3624   -0.0250   -3.7269 O   0  0  0  0  0  0  0  0  0  0  0  0
  -11.0030   -1.4599   -1.5595 O   0  0  0  0  0  0  0  0  0  0  0  0
   -9.2856    0.3293   -3.7794 O   0  0  0  0  0  0  0  0  0  0  0  0
   -2.8367   -2.2308   -0.8302 O   0  0  0  0  0  0  0  0  0  0  0  0
   -3.3576   -4.0351   -3.1361 O   0  0  0  0  0  0  0  0  0  0  0  0
   -8.9547    3.4716   -1.6122 N   0  3  0  0  0  0  0  0  0  0  0  0
   -8.8453   -3.0218   -0.4085 N   0  3  0  0  0  0  0  0  0  0  0  0
  1  2  1  6  0  0  0
  1  3  1  0  0  0  0
  1 10  1  0  0  0  0
  3  4  1  6  0  0  0
  3  5  1  0  0  0  0
  5  6  1  1  0  0  0
  5  7  1  0  0  0  0
  7  8  1  6  0  0  0
  7  9  1  0  0  0  0
  9 10  1  0  0  0  0
  9 11  1  1  0  0  0
 11 35  1  0  0  0  0
 12 13  1  1  0  0  0
 12 14  1  0  0  0  0
 12 20  1  0  0  0  0
 14 15  1  0  0  0  0
 14 40  1  1  0  0  0
 15 16  1  1  0  0  0
 15 17  1  0  0  0  0
 17  2  1  6  0  0  0
 17 18  1  0  0  0  0
 18 19  1  6  0  0  0
 18 20  1  0  0  0  0
 21 16  1  1  0  0  0
 21 22  1  0  0  0  0
 21 25  1  0  0  0  0
 22 23  1  0  0  0  0
 22 36  1  1  0  0  0
 23 24  1  0  0  0  0
 23 31  1  1  0  0  0
 24 25  1  0  0  0  0
 24 26  1  1  0  0  0
 26 39  1  0  0  0  0
 27 28  1  0  0  0  0
 27 32  1  0  0  0  0
 27 38  1  6  0  0  0
 28 29  1  0  0  0  0
 28 37  1  1  0  0  0
 29 30  1  0  0  0  0
 29 42  1  6  0  0  0
 30 31  1  6  0  0  0
 30 33  1  0  0  0  0
 32 33  1  0  0  0  0
 32 34  1  6  0  0  0
 34 41  1  0  0  0  0
M  CHG  6   4   1  13   1  19   1  35   1  41   1  42   1
M  END
>  <CHROM.1>
-170.39560222,57.57197988,89.39737485,-166.11840170,173.36478795,-52.23359533
-14.84726386,141.64820978,-63.35030158,-133.79174493,24.73241279,-90.77956113
74.31526422,-92.00028089,53.31411371,-57.69807611,61.16832409,84.68773349
-108.05740577,172.27856221,86.26290320,73.11305346,-5.10625389,-0.54934093
-4.18562720,0.26932848,0.71812824,-0.50618759

>  <Name>


>  <RI>
0

>  <Rbt.Current_Directory>
/home/itssahil/PROJECTS/Mol_Feturizer/New_Systems/rnas/1ei2

>  <Rbt.Executable>
rbdock ($Id: //depot/dev/client3/rdock/2013.1/src/exe/rbdock.cxx#4 $)

>  <Rbt.Library>
libRbt.so (2013.1, Build901 2013/11/27)

>  <Rbt.Parameter_File>
/export/apps/rDock/src/rDock_2013.1_src/data/scripts/dock_solv.prm

>  <Rbt.Receptor>
prm/blind_docking_40.prm

>  <SCORE>
-12.7866

>  <SCORE.INTER>
-25.6464

>  <SCORE.INTER.CONST>
1

>  <SCORE.INTER.POLAR>
-5.13168

>  <SCORE.INTER.ROT>
9

>  <SCORE.INTER.SOLV>
42.9516

>  <SCORE.INTER.VDW>
-23.9092

>  <SCORE.INTER.norm>
-0.610629

>  <SCORE.INTRA>
-4.85111

>  <SCORE.INTRA.DIHEDRAL>
-4.73099

>  <SCORE.INTRA.DIHEDRAL.0>
40.8761

>  <SCORE.INTRA.POLAR>
-1.09773

>  <SCORE.INTRA.POLAR.0>
-0.0268208

>  <SCORE.INTRA.REPUL>
-0.13295

>  <SCORE.INTRA.REPUL.0>
0.641615

>  <SCORE.INTRA.SOLV>
-9.71751

>  <SCORE.INTRA.SOLV.lig_0>
-162.567

>  <SCORE.INTRA.VDW>
6.77019

>  <SCORE.INTRA.VDW.0>
-4.80338

>  <SCORE.INTRA.norm>
-0.115503

>  <SCORE.RESTR>
17.7109

>  <SCORE.RESTR.CAVITY>
17.7109

>  <SCORE.RESTR.norm>
0.421689

>  <SCORE.SYSTEM>
0

>  <SCORE.SYSTEM.CONST>
0

>  <SCORE.SYSTEM.DIHEDRAL>
0

>  <SCORE.SYSTEM.SOLV>
0

>  <SCORE.SYSTEM.norm>
0

>  <SCORE.heavy>
42

>  <SCORE.norm>
-0.304443

>  <RMSD>
8.912

$$$$

 OpenBabel11021811393D
libRbt.so/2013.1/901 2013/11/27
 42 45  0  0  0  0  0  0  0  0999 V2000
   -2.4624    1.4697   -5.7521 C   0  0  2  0  0  0  0  0  0  0  0  0
   -2.0778    0.5834   -4.6565 O   0  0  0  0  0  0  0  0  0  0  0  0
   -2.0899    2.9570   -5.4473 C   0  0  2  0  0  0  0  0  0  0  0  0
   -1.1413    3.0622   -4.3150 N   0  3  0  0  0  0  0  0  0  0  0  0
   -3.3713    3.7988   -5.1670 C   0  0  1  0  0  0  0  0  0  0  0  0
   -3.0198    5.1548   -4.9006 O   0  0  0  0  0  0  0  0  0  0  0  0
   -4.3530    3.7718   -6.3690 C   0  0  2  0  0  0  0  0  0  0  0  0
   -5.6047    4.3031   -5.9488 O   0  0  0  0  0  0  0  0  0  0  0  0
   -4.5434    2.3190   -6.9135 C   0  0  2  0  0  0  0  0  0  0  0  0
   -3.9030    1.3562   -6.0145 O   0  0  0  0  0  0  0  0  0  0  0  0
   -3.9413    2.0757   -8.3166 C   0  0  0  0  0  0  0  0  0  0  0  0
   -1.9513   -2.9820   -7.0838 C   0  0  1  0  0  0  0  0  0  0  0  0
   -1.7403   -4.3707   -7.5502 N   0  3  0  0  0  0  0  0  0  0  0  0
   -3.0817   -2.9030   -6.0243 C   0  0  1  0  0  0  0  0  0  0  0  0
   -3.2492   -1.4813   -5.3834 C   0  0  1  0  0  0  0  0  0  0  0  0
   -4.0892   -1.6109   -4.2051 O   0  0  0  0  0  0  0  0  0  0  0  0
   -1.8876   -0.8392   -4.9274 C   0  0  1  0  0  0  0  0  0  0  0  0
   -0.7803   -0.9744   -6.0222 C   0  0  1  0  0  0  0  0  0  0  0  0
    0.5356   -0.5071   -5.5406 N   0  3  0  0  0  0  0  0  0  0  0  0
   -0.6288   -2.4331   -6.5091 C   0  0  0  0  0  0  0  0  0  0  0  0
   -4.8804   -0.4721   -3.7580 C   0  0  1  0  0  0  0  0  0  0  0  0
   -6.1926   -0.9896   -3.1807 C   0  0  1  0  0  0  0  0  0  0  0  0
   -5.7263   -1.4076   -1.7928 C   0  0  1  0  0  0  0  0  0  0  0  0
   -4.7804   -0.2560   -1.4234 C   0  0  2  0  0  0  0  0  0  0  0  0
   -4.2119    0.1961   -2.6756 O   0  0  0  0  0  0  0  0  0  0  0  0
   -3.6612   -0.6827   -0.4567 C   0  0  0  0  0  0  0  0  0  0  0  0
   -9.8504   -3.2669    0.7530 C   0  0  1  0  0  0  0  0  0  0  0  0
   -9.6856   -1.7291    0.5994 C   0  0  1  0  0  0  0  0  0  0  0  0
   -9.3222   -1.2701   -0.8422 C   0  0  2  0  0  0  0  0  0  0  0  0
   -8.0860   -2.0539   -1.3895 C   0  0  1  0  0  0  0  0  0  0  0  0
   -6.8420   -1.5120   -0.8621 O   0  0  0  0  0  0  0  0  0  0  0  0
   -9.4614   -4.0008   -0.5662 C   0  0  1  0  0  0  0  0  0  0  0  0
   -8.1749   -3.4926   -1.0493 O   0  0  0  0  0  0  0  0  0  0  0  0
   -9.3677   -5.5376   -0.3838 C   0  0  0  0  0  0  0  0  0  0  0  0
   -4.2190    0.7410   -8.8758 N   0  3  0  0  0  0  0  0  0  0  0  0
   -7.1439    0.0732   -3.1152 O   0  0  0  0  0  0  0  0  0  0  0  0
  -10.9114   -1.1054    0.9799 O   0  0  0  0  0  0  0  0  0  0  0  0
   -9.0141   -3.7060    1.8258 O   0  0  0  0  0  0  0  0  0  0  0  0
   -2.5760    0.2275   -0.5067 O   0  0  0  0  0  0  0  0  0  0  0  0
   -4.3149   -3.2723   -6.6409 O   0  0  0  0  0  0  0  0  0  0  0  0
   -8.2271   -5.9470    0.4560 N   0  3  0  0  0  0  0  0  0  0  0  0
   -9.1426    0.2013   -0.9133 N   0  3  0  0  0  0  0  0  0  0  0  0
  1  2  1  1  0  0  0
  1  3  1  0  0  0  0
  1 10  1  0  0  0  0
  3  4  1  1  0  0  0
  3  5  1  0  0  0  0
  5  6  1  6  0  0  0
  5  7  1  0  0  0  0
  7  8  1  1  0  0  0
  7  9  1  0  0  0  0
  9 10  1  0  0  0  0
  9 11  1  6  0  0  0
 11 35  1  0  0  0  0
 12 13  1  1  0  0  0
 12 14  1  0  0  0  0
 12 20  1  0  0  0  0
 14 15  1  0  0  0  0
 14 40  1  6  0  0  0
 15 16  1  1  0  0  0
 15 17  1  0  0  0  0
 17  2  1  6  0  0  0
 17 18  1  0  0  0  0
 18 19  1  1  0  0  0
 18 20  1  0  0  0  0
 21 16  1  1  0  0  0
 21 22  1  0  0  0  0
 21 25  1  0  0  0  0
 22 23  1  0  0  0  0
 22 36  1  1  0  0  0
 23 24  1  0  0  0  0
 23 31  1  1  0  0  0
 24 25  1  0  0  0  0
 24 26  1  1  0  0  0
 26 39  1  0  0  0  0
 27 28  1  0  0  0  0
 27 32  1  0  0  0  0
 27 38  1  1  0  0  0
 28 29  1  0  0  0  0
 28 37  1  6  0  0  0
 29 30  1  0  0  0  0
 29 42  1  1  0  0  0
 30 31  1  1  0  0  0
 30 33  1  0  0  0  0
 32 33  1  0  0  0  0
 32 34  1  1  0  0  0
 34 41  1  0  0  0  0
M  CHG  6   4   1  13   1  19   1  35   1  41   1  42   1
M  END
>  <CHROM.1>
-157.90209150,-63.85311449,-18.91930989,-72.39640228,66.10151972,-175.13170211
174.75723972,-153.01081916,-70.41966553,-153.22800194,145.32695357,-5.55935292
-45.58455847,37.95535166,159.51253180,-134.36698027,112.43197707,-175.90107496
-75.88778149,-139.26116203,-68.86541457,38.77783799,-4.97909810,-0.61873455
-3.57019769,0.47823910,0.73401574,-0.10164760

>  <Name>


>  <RI>
0

>  <Rbt.Current_Directory>
/home/itssahil/PROJECTS/Mol_Feturizer/New_Systems/rnas/1ei2

>  <Rbt.Executable>
rbdock ($Id: //depot/dev/client3/rdock/2013.1/src/exe/rbdock.cxx#4 $)

>  <Rbt.Library>
libRbt.so (2013.1, Build901 2013/11/27)

>  <Rbt.Parameter_File>
/export/apps/rDock/src/rDock_2013.1_src/data/scripts/dock_solv.prm

>  <Rbt.Receptor>
prm/blind_docking_40.prm

>  <SCORE>
72.6484

>  <SCORE.INTER>
76.0636

>  <SCORE.INTER.CONST>
1

>  <SCORE.INTER.POLAR>
-3.75934

>  <SCORE.INTER.ROT>
9

>  <SCORE.INTER.SOLV>
57.8131

>  <SCORE.INTER.VDW>
34.3692

>  <SCORE.INTER.norm>
1.81104

>  <SCORE.INTRA>
-10.3372

>  <SCORE.INTRA.DIHEDRAL>
3.87165

>  <SCORE.INTRA.DIHEDRAL.0>
40.8761

>  <SCORE.INTRA.POLAR>
-2.28009

>  <SCORE.INTRA.POLAR.0>
-0.0268208

>  <SCORE.INTRA.REPUL>
-0.641615

>  <SCORE.INTRA.REPUL.0>
0.641615

>  <SCORE.INTRA.SOLV>
-6.30139

>  <SCORE.INTRA.SOLV.lig_0>
-162.567

>  <SCORE.INTRA.VDW>
1.83806

>  <SCORE.INTRA.VDW.0>
-4.80338

>  <SCORE.INTRA.norm>
-0.246123

>  <SCORE.RESTR>
6.92191

>  <SCORE.RESTR.CAVITY>
6.92191

>  <SCORE.RESTR.norm>
0.164807

>  <SCORE.SYSTEM>
0

>  <SCORE.SYSTEM.CONST>
0

>  <SCORE.SYSTEM.DIHEDRAL>
0

>  <SCORE.SYSTEM.SOLV>
0

>  <SCORE.SYSTEM.norm>
0

>  <SCORE.heavy>
42

>  <SCORE.norm>
1.72972

>  <RMSD>
8.920

$$$$

 OpenBabel11021811393D
libRbt.so/2013.1/901 2013/11/27
 42 45  0  0  0  0  0  0  0  0999 V2000
   -3.2556    0.6514   -7.3328 C   0  0  2  0  0  0  0  0  0  0  0  0
   -3.7842   -0.7054   -7.2172 O   0  0  0  0  0  0  0  0  0  0  0  0
   -1.8273    0.7679   -6.7083 C   0  0  2  0  0  0  0  0  0  0  0  0
   -1.2207   -0.5634   -6.4784 N   0  3  0  0  0  0  0  0  0  0  0  0
   -1.8717    1.5849   -5.3818 C   0  0  1  0  0  0  0  0  0  0  0  0
   -0.5624    1.6931   -4.8273 O   0  0  0  0  0  0  0  0  0  0  0  0
   -2.4316    3.0154   -5.6045 C   0  0  2  0  0  0  0  0  0  0  0  0
   -2.7166    3.5970   -4.3371 O   0  0  0  0  0  0  0  0  0  0  0  0
   -3.7235    2.9884   -6.4842 C   0  0  2  0  0  0  0  0  0  0  0  0
   -4.1655    1.6070   -6.6877 O   0  0  0  0  0  0  0  0  0  0  0  0
   -3.5543    3.6060   -7.8914 C   0  0  0  0  0  0  0  0  0  0  0  0
   -3.3048   -4.3100   -4.8941 C   0  0  1  0  0  0  0  0  0  0  0  0
   -2.7223   -5.4257   -4.1154 N   0  3  0  0  0  0  0  0  0  0  0  0
   -3.2152   -2.9683   -4.1207 C   0  0  1  0  0  0  0  0  0  0  0  0
   -3.6798   -1.7248   -4.9559 C   0  0  1  0  0  0  0  0  0  0  0  0
   -3.2495   -0.5242   -4.2600 O   0  0  0  0  0  0  0  0  0  0  0  0
   -3.0643   -1.6810   -6.4028 C   0  0  1  0  0  0  0  0  0  0  0  0
   -3.1570   -3.0660   -7.1211 C   0  0  1  0  0  0  0  0  0  0  0  0
   -2.4487   -3.0669   -8.4174 N   0  3  0  0  0  0  0  0  0  0  0  0
   -2.5781   -4.2044   -6.2511 C   0  0  0  0  0  0  0  0  0  0  0  0
   -4.2247    0.5105   -3.9421 C   0  0  1  0  0  0  0  0  0  0  0  0
   -5.5662   -0.1565   -3.6619 C   0  0  1  0  0  0  0  0  0  0  0  0
   -5.3446   -0.6063   -2.2242 C   0  0  1  0  0  0  0  0  0  0  0  0
   -4.6122    0.6049   -1.6295 C   0  0  2  0  0  0  0  0  0  0  0  0
   -3.8553    1.1762   -2.7233 O   0  0  0  0  0  0  0  0  0  0  0  0
   -3.6697    0.2298   -0.4718 C   0  0  0  0  0  0  0  0  0  0  0  0
   -9.8406   -2.5645   -0.3657 C   0  0  1  0  0  0  0  0  0  0  0  0
   -9.7679   -1.2457   -1.1848 C   0  0  1  0  0  0  0  0  0  0  0  0
   -8.8764   -1.3364   -2.4569 C   0  0  2  0  0  0  0  0  0  0  0  0
   -7.4588   -1.8974   -2.1140 C   0  0  1  0  0  0  0  0  0  0  0  0
   -6.6064   -0.8642   -1.5436 O   0  0  0  0  0  0  0  0  0  0  0  0
   -8.8685   -3.6342   -0.9495 C   0  0  1  0  0  0  0  0  0  0  0  0
   -7.5504   -3.0326   -1.1671 O   0  0  0  0  0  0  0  0  0  0  0  0
   -8.7200   -4.8685   -0.0229 C   0  0  0  0  0  0  0  0  0  0  0  0
   -4.5533    4.6351   -8.2293 N   0  3  0  0  0  0  0  0  0  0  0  0
   -6.6140    0.8092   -3.7526 O   0  0  0  0  0  0  0  0  0  0  0  0
  -11.0915   -0.8893   -1.5815 O   0  0  0  0  0  0  0  0  0  0  0  0
   -9.4958   -2.2736    0.9906 O   0  0  0  0  0  0  0  0  0  0  0  0
   -4.0039   -1.0404    0.0606 O   0  0  0  0  0  0  0  0  0  0  0  0
   -4.0264   -3.0589   -2.9497 O   0  0  0  0  0  0  0  0  0  0  0  0
   -9.3772   -6.0730   -0.5624 N   0  3  0  0  0  0  0  0  0  0  0  0
   -8.8189   -0.0374   -3.1720 N   0  3  0  0  0  0  0  0  0  0  0  0
  1  2  1  1  0  0  0
  1  3  1  0  0  0  0
  1 10  1  0  0  0  0
  3  4  1  1  0  0  0
  3  5  1  0  0  0  0
  5  6  1  6  0  0  0
  5  7  1  0  0  0  0
  7  8  1  1  0  0  0
  7  9  1  0  0  0  0
  9 10  1  0  0  0  0
  9 11  1  6  0  0  0
 11 35  1  0  0  0  0
 12 13  1  1  0  0  0
 12 14  1  0  0  0  0
 12 20  1  0  0  0  0
 14 15  1  0  0  0  0
 14 40  1  1  0  0  0
 15 16  1  1  0  0  0
 15 17  1  0  0  0  0
 17  2  1  6  0  0  0
 17 18  1  0  0  0  0
 18 19  1  6  0  0  0
 18 20  1  0  0  0  0
 21 16  1  1  0  0  0
 21 22  1  0  0  0  0
 21 25  1  0  0  0  0
 22 23  1  0  0  0  0
 22 36  1  1  0  0  0
 23 24  1  0  0  0  0
 23 31  1  1  0  0  0
 24 25  1  0  0  0  0
 24 26  1  1  0  0  0
 26 39  1  0  0  0  0
 27 28  1  0  0  0  0
 27 32  1  0  0  0  0
 27 38  1  1  0  0  0
 28 29  1  0  0  0  0
 28 37  1  6  0  0  0
 29 30  1  0  0  0  0
 29 42  1  1  0  0  0
 30 31  1  1  0  0  0
 30 33  1  0  0  0  0
 32 33  1  0  0  0  0
 32 34  1  1  0  0  0
 34 41  1  0  0  0  0
M  CHG  6   4   1  13   1  19   1  35   1  41   1  42   1
M  END
>  <CHROM.1>
9.02973633,95.27997948,-59.56875569,-62.52908379,-169.75834819,-127.62257641
26.45536339,65.52715233,173.46089464,-126.46474955,33.04463380,-61.57042904
176.78488709,60.36443202,-18.88485043,100.08924831,60.79349595,-55.41681579
-11.68170367,-123.27623683,108.56775287,86.79861211,-5.00133944,-0.81807542
-3.86672596,-0.55147058,-0.68382481,2.96910357

>  <Name>


>  <RI>
0

>  <Rbt.Current_Directory>
/home/itssahil/PROJECTS/Mol_Feturizer/New_Systems/rnas/1ei2

>  <Rbt.Executable>
rbdock ($Id: //depot/dev/client3/rdock/2013.1/src/exe/rbdock.cxx#4 $)

>  <Rbt.Library>
libRbt.so (2013.1, Build901 2013/11/27)

>  <Rbt.Parameter_File>
/export/apps/rDock/src/rDock_2013.1_src/data/scripts/dock_solv.prm

>  <Rbt.Receptor>
prm/blind_docking_40.prm

>  <SCORE>
68.8396

>  <SCORE.INTER>
12.4114

>  <SCORE.INTER.CONST>
1

>  <SCORE.INTER.POLAR>
-5.02553

>  <SCORE.INTER.ROT>
9

>  <SCORE.INTER.SOLV>
54.5466

>  <SCORE.INTER.VDW>
-2.75617

>  <SCORE.INTER.norm>
0.29551

>  <SCORE.INTRA>
49.3174

>  <SCORE.INTRA.DIHEDRAL>
15.6425

>  <SCORE.INTRA.DIHEDRAL.0>
40.8761

>  <SCORE.INTRA.POLAR>
-0.504009

>  <SCORE.INTRA.POLAR.0>
-0.0268208

>  <SCORE.INTRA.REPUL>
-0.481795

>  <SCORE.INTRA.REPUL.0>
0.641615

>  <SCORE.INTRA.SOLV>
0.252767

>  <SCORE.INTRA.SOLV.lig_0>
-162.567

>  <SCORE.INTRA.VDW>
45.4924

>  <SCORE.INTRA.VDW.0>
-4.80338

>  <SCORE.INTRA.norm>
1.17422

>  <SCORE.RESTR>
7.11071

>  <SCORE.RESTR.CAVITY>
7.11071

>  <SCORE.RESTR.norm>
0.169303

>  <SCORE.SYSTEM>
0

>  <SCORE.SYSTEM.CONST>
0

>  <SCORE.SYSTEM.DIHEDRAL>
0

>  <SCORE.SYSTEM.SOLV>
0

>  <SCORE.SYSTEM.norm>
0

>  <SCORE.heavy>
42

>  <SCORE.norm>
1.63904

>  <RMSD>
8.923

$$$$

 OpenBabel11021811393D
libRbt.so/2013.1/901 2013/11/27
 42 45  0  0  0  0  0  0  0  0999 V2000
   -3.1441   -0.7640   -4.6113 C   0  0  2  0  0  0  0  0  0  0  0  0
   -2.6066    0.3071   -3.7761 O   0  0  0  0  0  0  0  0  0  0  0  0
   -3.8424   -1.8682   -3.7529 C   0  0  2  0  0  0  0  0  0  0  0  0
   -4.1022   -1.4037   -2.3709 N   0  3  0  0  0  0  0  0  0  0  0  0
   -2.9926   -3.1745   -3.7399 C   0  0  1  0  0  0  0  0  0  0  0  0
   -3.6442   -4.1769   -2.9628 O   0  0  0  0  0  0  0  0  0  0  0  0
   -2.7682   -3.7303   -5.1718 C   0  0  2  0  0  0  0  0  0  0  0  0
   -1.7619   -4.7355   -5.1192 O   0  0  0  0  0  0  0  0  0  0  0  0
   -2.3420   -2.5967   -6.1600 C   0  0  2  0  0  0  0  0  0  0  0  0
   -2.0745   -1.3598   -5.4226 O   0  0  0  0  0  0  0  0  0  0  0  0
   -3.4009   -2.2478   -7.2311 C   0  0  0  0  0  0  0  0  0  0  0  0
   -3.3790    4.5500   -3.6289 C   0  0  1  0  0  0  0  0  0  0  0  0
   -4.0518    5.8638   -3.5212 N   0  3  0  0  0  0  0  0  0  0  0  0
   -3.3818    3.7963   -2.2732 C   0  0  1  0  0  0  0  0  0  0  0  0
   -2.8164    2.3359   -2.3605 C   0  0  1  0  0  0  0  0  0  0  0  0
   -3.1681    1.6391   -1.1351 O   0  0  0  0  0  0  0  0  0  0  0  0
   -3.4069    1.5102   -3.5621 C   0  0  1  0  0  0  0  0  0  0  0  0
   -3.4049    2.3296   -4.8931 C   0  0  1  0  0  0  0  0  0  0  0  0
   -4.0932    1.6132   -5.9862 N   0  3  0  0  0  0  0  0  0  0  0  0
   -4.0770    3.7101   -4.7188 C   0  0  0  0  0  0  0  0  0  0  0  0
   -2.1255    0.9833   -0.3569 C   0  0  1  0  0  0  0  0  0  0  0  0
   -1.0907    2.0275    0.0453 C   0  0  1  0  0  0  0  0  0  0  0  0
   -1.7984    2.6584    1.2367 C   0  0  1  0  0  0  0  0  0  0  0  0
   -2.3942    1.4260    1.9320 C   0  0  2  0  0  0  0  0  0  0  0  0
   -2.6732    0.4797    0.8726 O   0  0  0  0  0  0  0  0  0  0  0  0
   -3.6818    1.7399    2.7148 C   0  0  0  0  0  0  0  0  0  0  0  0
    1.0068    3.2220    5.4488 C   0  0  1  0  0  0  0  0  0  0  0  0
    0.8885    4.4786    4.5421 C   0  0  1  0  0  0  0  0  0  0  0  0
   -0.5677    4.8138    4.1080 C   0  0  2  0  0  0  0  0  0  0  0  0
   -1.2718    3.5666    3.4831 C   0  0  1  0  0  0  0  0  0  0  0  0
   -0.8641    3.3685    2.0997 O   0  0  0  0  0  0  0  0  0  0  0  0
   -0.3709    2.5055    5.5861 C   0  0  1  0  0  0  0  0  0  0  0  0
   -0.9729    2.3418    4.2604 O   0  0  0  0  0  0  0  0  0  0  0  0
   -0.2519    1.1181    6.2680 C   0  0  0  0  0  0  0  0  0  0  0  0
   -3.1017   -2.7692   -8.5764 N   0  3  0  0  0  0  0  0  0  0  0  0
    0.1203    1.3811    0.4381 O   0  0  0  0  0  0  0  0  0  0  0  0
    1.4203    5.5967    5.2517 O   0  0  0  0  0  0  0  0  0  0  0  0
    1.9673    2.3358    4.8698 O   0  0  0  0  0  0  0  0  0  0  0  0
   -4.7865    1.8747    1.8373 O   0  0  0  0  0  0  0  0  0  0  0  0
   -2.5957    4.5333   -1.3370 O   0  0  0  0  0  0  0  0  0  0  0  0
   -1.5517    0.4376    6.4142 N   0  3  0  0  0  0  0  0  0  0  0  0
   -0.6079    5.9990    3.2158 N   0  3  0  0  0  0  0  0  0  0  0  0
  1  2  1  1  0  0  0
  1  3  1  0  0  0  0
  1 10  1  0  0  0  0
  3  4  1  1  0  0  0
  3  5  1  0  0  0  0
  5  6  1  1  0  0  0
  5  7  1  0  0  0  0
  7  8  1  1  0  0  0
  7  9  1  0  0  0  0
  9 10  1  0  0  0  0
  9 11  1  6  0  0  0
 11 35  1  0  0  0  0
 12 13  1  1  0  0  0
 12 14  1  0  0  0  0
 12 20  1  0  0  0  0
 14 15  1  0  0  0  0
 14 40  1  1  0  0  0
 15 16  1  1  0  0  0
 15 17  1  0  0  0  0
 17  2  1  6  0  0  0
 17 18  1  0  0  0  0
 18 19  1  6  0  0  0
 18 20  1  0  0  0  0
 21 16  1  6  0  0  0
 21 22  1  0  0  0  0
 21 25  1  0  0  0  0
 22 23  1  0  0  0  0
 22 36  1  1  0  0  0
 23 24  1  0  0  0  0
 23 31  1  1  0  0  0
 24 25  1  0  0  0  0
 24 26  1  6  0  0  0
 26 39  1  0  0  0  0
 27 28  1  0  0  0  0
 27 32  1  0  0  0  0
 27 38  1  6  0  0  0
 28 29  1  0  0  0  0
 28 37  1  1  0  0  0
 29 30  1  0  0  0  0
 29 42  1  6  0  0  0
 30 31  1  6  0  0  0
 30 33  1  0  0  0  0
 32 33  1  0  0  0  0
 32 34  1  6  0  0  0
 34 41  1  0  0  0  0
M  CHG  6   4   1  13   1  19   1  35   1  41   1  42   1
M  END
>  <CHROM.1>
-95.47774974,165.26231332,-179.55866259,45.47728519,-57.20918668,-104.28489273
-171.39937741,178.04644174,173.84025582,-126.64771511,58.78457814,48.75937271
174.53626200,-157.03799093,76.97928039,58.66143532,59.62383779,175.15867374
57.40523769,-154.60561045,179.45189084,-116.96336482,-2.13445607,1.31784782
-0.66063876,-2.48675061,-1.24573995,0.22923887

>  <Name>


>  <RI>
0

>  <Rbt.Current_Directory>
/home/itssahil/PROJECTS/Mol_Feturizer/New_Systems/rnas/1ei2

>  <Rbt.Executable>
rbdock ($Id: //depot/dev/client3/rdock/2013.1/src/exe/rbdock.cxx#4 $)

>  <Rbt.Library>
libRbt.so (2013.1, Build901 2013/11/27)

>  <Rbt.Parameter_File>
/export/apps/rDock/src/rDock_2013.1_src/data/scripts/dock_solv.prm

>  <Rbt.Receptor>
prm/pocket_docking_7.prm

>  <SCORE>
-53.5182

>  <SCORE.INTER>
-40.8641

>  <SCORE.INTER.CONST>
1

>  <SCORE.INTER.POLAR>
-5.83984

>  <SCORE.INTER.ROT>
9

>  <SCORE.INTER.SOLV>
28.8991

>  <SCORE.INTER.VDW>
-27.0096

>  <SCORE.INTER.norm>
-0.972954

>  <SCORE.INTRA>
-12.6541

>  <SCORE.INTRA.DIHEDRAL>
-11.5505

>  <SCORE.INTRA.DIHEDRAL.0>
40.8761

>  <SCORE.INTRA.POLAR>
-0.00575813

>  <SCORE.INTRA.POLAR.0>
-0.0268208

>  <SCORE.INTRA.REPUL>
-0.641615

>  <SCORE.INTRA.REPUL.0>
0.641615

>  <SCORE.INTRA.SOLV>
-9.44659

>  <SCORE.INTRA.SOLV.lig_0>
-162.567

>  <SCORE.INTRA.VDW>
1.07209

>  <SCORE.INTRA.VDW.0>
-4.80338

>  <SCORE.INTRA.norm>
-0.301288

>  <SCORE.RESTR>
0

>  <SCORE.RESTR.CAVITY>
0

>  <SCORE.RESTR.norm>
0

>  <SCORE.SYSTEM>
0

>  <SCORE.SYSTEM.CONST>
0

>  <SCORE.SYSTEM.DIHEDRAL>
0

>  <SCORE.SYSTEM.SOLV>
0

>  <SCORE.SYSTEM.norm>
0

>  <SCORE.heavy>
42

>  <SCORE.norm>
-1.27424

>  <RMSD>
8.926

$$$$

 OpenBabel11021811393D
libRbt.so/2013.1/901 2013/11/27
 42 45  0  0  0  0  0  0  0  0999 V2000
   -4.2896    0.7864   -5.7306 C   0  0  2  0  0  0  0  0  0  0  0  0
   -4.4095   -0.5631   -6.2765 O   0  0  0  0  0  0  0  0  0  0  0  0
   -5.2582    1.7844   -6.4446 C   0  0  2  0  0  0  0  0  0  0  0  0
   -6.2920    1.0743   -7.2321 N   0  3  0  0  0  0  0  0  0  0  0  0
   -4.4618    2.7707   -7.3512 C   0  0  1  0  0  0  0  0  0  0  0  0
   -5.3544    3.6819   -7.9887 O   0  0  0  0  0  0  0  0  0  0  0  0
   -3.4214    3.5877   -6.5392 C   0  0  2  0  0  0  0  0  0  0  0  0
   -2.5437    4.2421   -7.4487 O   0  0  0  0  0  0  0  0  0  0  0  0
   -2.6048    2.6674   -5.5750 C   0  0  2  0  0  0  0  0  0  0  0  0
   -2.9043    1.2599   -5.8482 O   0  0  0  0  0  0  0  0  0  0  0  0
   -2.8951    2.8936   -4.0734 C   0  0  0  0  0  0  0  0  0  0  0  0
   -2.2398   -4.2804   -6.5832 C   0  0  1  0  0  0  0  0  0  0  0  0
   -1.1584   -5.2816   -6.7195 N   0  3  0  0  0  0  0  0  0  0  0  0
   -2.1636   -3.5423   -5.2210 C   0  0  1  0  0  0  0  0  0  0  0  0
   -3.1918   -2.3662   -5.0808 C   0  0  1  0  0  0  0  0  0  0  0  0
   -2.8105   -1.5648   -3.9304 O   0  0  0  0  0  0  0  0  0  0  0  0
   -3.2239   -1.4143   -6.3326 C   0  0  1  0  0  0  0  0  0  0  0  0
   -3.2711   -2.2133   -7.6751 C   0  0  1  0  0  0  0  0  0  0  0  0
   -3.1511   -1.3283   -8.8516 N   0  3  0  0  0  0  0  0  0  0  0  0
   -2.1518   -3.2759   -7.7510 C   0  0  0  0  0  0  0  0  0  0  0  0
   -3.5058   -0.3123   -3.6651 C   0  0  1  0  0  0  0  0  0  0  0  0
   -4.9833   -0.6145   -3.4451 C   0  0  1  0  0  0  0  0  0  0  0  0
   -4.9468   -1.0805   -1.9959 C   0  0  1  0  0  0  0  0  0  0  0  0
   -3.9593   -0.0827   -1.3741 C   0  0  2  0  0  0  0  0  0  0  0  0
   -3.0347    0.2600   -2.4340 O   0  0  0  0  0  0  0  0  0  0  0  0
   -3.1946   -0.6630   -0.1708 C   0  0  0  0  0  0  0  0  0  0  0  0
   -9.9200   -1.7038   -0.4467 C   0  0  1  0  0  0  0  0  0  0  0  0
   -9.4093   -0.4312   -1.1782 C   0  0  1  0  0  0  0  0  0  0  0  0
   -8.5102   -0.7263   -2.4134 C   0  0  2  0  0  0  0  0  0  0  0  0
   -7.3468   -1.7020   -2.0446 C   0  0  1  0  0  0  0  0  0  0  0  0
   -6.2618   -1.0000   -1.3744 O   0  0  0  0  0  0  0  0  0  0  0  0
   -9.2764   -2.9878   -1.0531 C   0  0  1  0  0  0  0  0  0  0  0  0
   -7.8285   -2.8001   -1.1751 O   0  0  0  0  0  0  0  0  0  0  0  0
   -9.5576   -4.2512   -0.1995 C   0  0  0  0  0  0  0  0  0  0  0  0
   -1.7852    3.5082   -3.3240 N   0  3  0  0  0  0  0  0  0  0  0  0
   -5.7481    0.5823   -3.5909 O   0  0  0  0  0  0  0  0  0  0  0  0
  -10.5408    0.3240   -1.6093 O   0  0  0  0  0  0  0  0  0  0  0  0
   -9.5866   -1.5930    0.9388 O   0  0  0  0  0  0  0  0  0  0  0  0
   -2.0584    0.1272    0.1347 O   0  0  0  0  0  0  0  0  0  0  0  0
   -2.4037   -4.4836   -4.1752 O   0  0  0  0  0  0  0  0  0  0  0  0
   -9.6182   -5.4852   -1.0042 N   0  3  0  0  0  0  0  0  0  0  0  0
   -8.0263    0.5273   -3.0432 N   0  3  0  0  0  0  0  0  0  0  0  0
  1  2  1  6  0  0  0
  1  3  1  0  0  0  0
  1 10  1  0  0  0  0
  3  4  1  6  0  0  0
  3  5  1  0  0  0  0
  5  6  1  1  0  0  0
  5  7  1  0  0  0  0
  7  8  1  6  0  0  0
  7  9  1  0  0  0  0
  9 10  1  0  0  0  0
  9 11  1  1  0  0  0
 11 35  1  0  0  0  0
 12 13  1  6  0  0  0
 12 14  1  0  0  0  0
 12 20  1  0  0  0  0
 14 15  1  0  0  0  0
 14 40  1  1  0  0  0
 15 16  1  1  0  0  0
 15 17  1  0  0  0  0
 17  2  1  1  0  0  0
 17 18  1  0  0  0  0
 18 19  1  6  0  0  0
 18 20  1  0  0  0  0
 21 16  1  1  0  0  0
 21 22  1  0  0  0  0
 21 25  1  0  0  0  0
 22 23  1  0  0  0  0
 22 36  1  1  0  0  0
 23 24  1  0  0  0  0
 23 31  1  1  0  0  0
 24 25  1  0  0  0  0
 24 26  1  1  0  0  0
 26 39  1  0  0  0  0
 27 28  1  0  0  0  0
 27 32  1  0  0  0  0
 27 38  1  1  0  0  0
 28 29  1  0  0  0  0
 28 37  1  6  0  0  0
 29 30  1  0  0  0  0
 29 42  1  1  0  0  0
 30 31  1  1  0  0  0
 30 33  1  0  0  0  0
 32 33  1  0  0  0  0
 32 34  1  1  0  0  0
 34 41  1  0  0  0  0
M  CHG  6   4   1  13   1  19   1  35   1  41   1  42   1
M  END
>  <CHROM.1>
146.61168610,96.66580995,-88.90249247,-67.24996629,-41.49609158,-110.49038452
98.48012506,38.17899273,70.93064094,172.70828215,60.46393010,-162.75037584
-37.65295216,55.22819886,163.81832563,-64.97684971,173.74880177,73.71954841
-40.06299449,-122.14843133,149.82596227,-157.28594732,-4.98598271,-0.59734329
-3.98135629,0.47754409,0.71649339,-0.22510345

>  <Name>


>  <RI>
0

>  <Rbt.Current_Directory>
/home/itssahil/PROJECTS/Mol_Feturizer/New_Systems/rnas/1ei2

>  <Rbt.Executable>
rbdock ($Id: //depot/dev/client3/rdock/2013.1/src/exe/rbdock.cxx#4 $)

>  <Rbt.Library>
libRbt.so (2013.1, Build901 2013/11/27)

>  <Rbt.Parameter_File>
/export/apps/rDock/src/rDock_2013.1_src/data/scripts/dock_solv.prm

>  <Rbt.Receptor>
prm/blind_docking_20.prm

>  <SCORE>
-5.20421

>  <SCORE.INTER>
-19.1139

>  <SCORE.INTER.CONST>
1

>  <SCORE.INTER.POLAR>
-6.02018

>  <SCORE.INTER.ROT>
9

>  <SCORE.INTER.SOLV>
47.2052

>  <SCORE.INTER.VDW>
-18.0104

>  <SCORE.INTER.norm>
-0.455092

>  <SCORE.INTRA>
4.76201

>  <SCORE.INTRA.DIHEDRAL>
-1.19271

>  <SCORE.INTRA.DIHEDRAL.0>
40.8761

>  <SCORE.INTRA.POLAR>
-0.217438

>  <SCORE.INTRA.POLAR.0>
-0.0268208

>  <SCORE.INTRA.REPUL>
-0.641615

>  <SCORE.INTRA.REPUL.0>
0.641615

>  <SCORE.INTRA.SOLV>
-6.78569

>  <SCORE.INTRA.SOLV.lig_0>
-162.567

>  <SCORE.INTRA.VDW>
12.6986

>  <SCORE.INTRA.VDW.0>
-4.80338

>  <SCORE.INTRA.norm>
0.113381

>  <SCORE.RESTR>
9.14763

>  <SCORE.RESTR.CAVITY>
9.14763

>  <SCORE.RESTR.norm>
0.217801

>  <SCORE.SYSTEM>
0

>  <SCORE.SYSTEM.CONST>
0

>  <SCORE.SYSTEM.DIHEDRAL>
0

>  <SCORE.SYSTEM.SOLV>
0

>  <SCORE.SYSTEM.norm>
0

>  <SCORE.heavy>
42

>  <SCORE.norm>
-0.12391

>  <RMSD>
8.928

$$$$

 OpenBabel11021811393D
libRbt.so/2013.1/901 2013/11/27
 42 45  0  0  0  0  0  0  0  0999 V2000
   -2.5754    0.2162   -6.7581 C   0  0  2  0  0  0  0  0  0  0  0  0
   -1.7849   -0.0392   -5.5566 O   0  0  0  0  0  0  0  0  0  0  0  0
   -3.0610    1.7007   -6.8231 C   0  0  2  0  0  0  0  0  0  0  0  0
   -2.3262    2.5588   -5.8655 N   0  3  0  0  0  0  0  0  0  0  0  0
   -4.5962    1.7891   -6.5697 C   0  0  1  0  0  0  0  0  0  0  0  0
   -5.0289    3.1459   -6.6415 O   0  0  0  0  0  0  0  0  0  0  0  0
   -5.4003    0.9606   -7.6073 C   0  0  2  0  0  0  0  0  0  0  0  0
   -6.7452    0.8450   -7.1564 O   0  0  0  0  0  0  0  0  0  0  0  0
   -4.7775   -0.4595   -7.8047 C   0  0  2  0  0  0  0  0  0  0  0  0
   -3.7284   -0.6922   -6.8094 O   0  0  0  0  0  0  0  0  0  0  0  0
   -4.1269   -0.6880   -9.1884 C   0  0  0  0  0  0  0  0  0  0  0  0
   -2.3066   -4.3212   -5.6665 C   0  0  1  0  0  0  0  0  0  0  0  0
   -2.1867   -5.7698   -5.3880 N   0  3  0  0  0  0  0  0  0  0  0  0
   -2.9820   -3.5694   -4.4897 C   0  0  1  0  0  0  0  0  0  0  0  0
   -3.0007   -2.0106   -4.6629 C   0  0  1  0  0  0  0  0  0  0  0  0
   -3.3493   -1.4161   -3.3838 O   0  0  0  0  0  0  0  0  0  0  0  0
   -1.6117   -1.4157   -5.0999 C   0  0  1  0  0  0  0  0  0  0  0  0
   -0.9669   -2.2301   -6.2677 C   0  0  1  0  0  0  0  0  0  0  0  0
    0.4003   -1.7655   -6.5790 N   0  3  0  0  0  0  0  0  0  0  0  0
   -0.9052   -3.7409   -5.9490 C   0  0  0  0  0  0  0  0  0  0  0  0
   -3.9056   -0.0701   -3.3449 C   0  0  1  0  0  0  0  0  0  0  0  0
   -5.4157   -0.1740   -3.1672 C   0  0  1  0  0  0  0  0  0  0  0  0
   -5.4910   -0.4153   -1.6657 C   0  0  1  0  0  0  0  0  0  0  0  0
   -4.4207    0.5528   -1.1418 C   0  0  2  0  0  0  0  0  0  0  0  0
   -3.4212    0.6285   -2.1863 O   0  0  0  0  0  0  0  0  0  0  0  0
   -3.7767    0.0831    0.1750 C   0  0  0  0  0  0  0  0  0  0  0  0
  -10.2441   -1.0095    0.3209 C   0  0  1  0  0  0  0  0  0  0  0  0
   -9.9380    0.2545   -0.5300 C   0  0  1  0  0  0  0  0  0  0  0  0
   -9.1949   -0.0428   -1.8644 C   0  0  2  0  0  0  0  0  0  0  0  0
   -7.9199   -0.9122   -1.6190 C   0  0  1  0  0  0  0  0  0  0  0  0
   -6.8117   -0.0997   -1.1384 O   0  0  0  0  0  0  0  0  0  0  0  0
   -9.5912   -2.2756   -0.3122 C   0  0  1  0  0  0  0  0  0  0  0  0
   -8.1923   -1.9928   -0.6433 O   0  0  0  0  0  0  0  0  0  0  0  0
   -9.6549   -3.5076    0.6271 C   0  0  0  0  0  0  0  0  0  0  0  0
   -3.2807   -1.8914   -9.2728 N   0  3  0  0  0  0  0  0  0  0  0  0
   -6.0309    1.0622   -3.5301 O   0  0  0  0  0  0  0  0  0  0  0  0
  -11.1727    0.9032   -0.8318 O   0  0  0  0  0  0  0  0  0  0  0  0
   -9.7351   -0.8002    1.6401 O   0  0  0  0  0  0  0  0  0  0  0  0
   -4.7517   -0.0510    1.1948 O   0  0  0  0  0  0  0  0  0  0  0  0
   -4.3273   -4.0294   -4.3632 O   0  0  0  0  0  0  0  0  0  0  0  0
   -9.1543   -4.7401   -0.0089 N   0  3  0  0  0  0  0  0  0  0  0  0
   -8.8998    1.2058   -2.6101 N   0  3  0  0  0  0  0  0  0  0  0  0
  1  2  1  1  0  0  0
  1  3  1  0  0  0  0
  1 10  1  0  0  0  0
  3  4  1  1  0  0  0
  3  5  1  0  0  0  0
  5  6  1  6  0  0  0
  5  7  1  0  0  0  0
  7  8  1  1  0  0  0
  7  9  1  0  0  0  0
  9 10  1  0  0  0  0
  9 11  1  6  0  0  0
 11 35  1  0  0  0  0
 12 13  1  1  0  0  0
 12 14  1  0  0  0  0
 12 20  1  0  0  0  0
 14 15  1  0  0  0  0
 14 40  1  6  0  0  0
 15 16  1  1  0  0  0
 15 17  1  0  0  0  0
 17  2  1  6  0  0  0
 17 18  1  0  0  0  0
 18 19  1  1  0  0  0
 18 20  1  0  0  0  0
 21 16  1  1  0  0  0
 21 22  1  0  0  0  0
 21 25  1  0  0  0  0
 22 23  1  0  0  0  0
 22 36  1  1  0  0  0
 23 24  1  0  0  0  0
 23 31  1  1  0  0  0
 24 25  1  0  0  0  0
 24 26  1  1  0  0  0
 26 39  1  0  0  0  0
 27 28  1  0  0  0  0
 27 32  1  0  0  0  0
 27 38  1  1  0  0  0
 28 29  1  0  0  0  0
 28 37  1  6  0  0  0
 29 30  1  0  0  0  0
 29 42  1  1  0  0  0
 30 31  1  1  0  0  0
 30 33  1  0  0  0  0
 32 33  1  0  0  0  0
 32 34  1  1  0  0  0
 34 41  1  0  0  0  0
M  CHG  6   4   1  13   1  19   1  35   1  41   1  42   1
M  END
>  <CHROM.1>
160.47498010,-64.97813779,-66.61276441,-71.89622577,-55.69673890,166.74999882
156.00336313,69.19286076,-75.93853157,-157.90354602,100.86417471,138.70083574
62.08933447,63.95340836,-59.74353257,35.72353521,167.75112648,171.22941406
165.55504446,-140.30096427,174.64443117,-169.14928195,-5.16811016,-0.80877350
-3.76274232,0.44386242,0.67528325,-0.67045353

>  <Name>


>  <RI>
0

>  <Rbt.Current_Directory>
/home/itssahil/PROJECTS/Mol_Feturizer/New_Systems/rnas/1ei2

>  <Rbt.Executable>
rbdock ($Id: //depot/dev/client3/rdock/2013.1/src/exe/rbdock.cxx#4 $)

>  <Rbt.Library>
libRbt.so (2013.1, Build901 2013/11/27)

>  <Rbt.Parameter_File>
/export/apps/rDock/src/rDock_2013.1_src/data/scripts/dock_solv.prm

>  <Rbt.Receptor>
prm/blind_docking_80.prm

>  <SCORE>
24.085

>  <SCORE.INTER>
26.9526

>  <SCORE.INTER.CONST>
1

>  <SCORE.INTER.POLAR>
-5.60068

>  <SCORE.INTER.ROT>
9

>  <SCORE.INTER.SOLV>
53.3812

>  <SCORE.INTER.VDW>
9.24357

>  <SCORE.INTER.norm>
0.641728

>  <SCORE.INTRA>
-17.1737

>  <SCORE.INTRA.DIHEDRAL>
-13.9644

>  <SCORE.INTRA.DIHEDRAL.0>
40.8761

>  <SCORE.INTRA.POLAR>
-1.09338

>  <SCORE.INTRA.POLAR.0>
-0.0268208

>  <SCORE.INTRA.REPUL>
-0.531123

>  <SCORE.INTRA.REPUL.0>
0.641615

>  <SCORE.INTRA.SOLV>
-8.25279

>  <SCORE.INTRA.SOLV.lig_0>
-162.567

>  <SCORE.INTRA.VDW>
0.308017

>  <SCORE.INTRA.VDW.0>
-4.80338

>  <SCORE.INTRA.norm>
-0.408897

>  <SCORE.RESTR>
14.3061

>  <SCORE.RESTR.CAVITY>
14.3061

>  <SCORE.RESTR.norm>
0.340621

>  <SCORE.SYSTEM>
0

>  <SCORE.SYSTEM.CONST>
0

>  <SCORE.SYSTEM.DIHEDRAL>
0

>  <SCORE.SYSTEM.SOLV>
0

>  <SCORE.SYSTEM.norm>
0

>  <SCORE.heavy>
42

>  <SCORE.norm>
0.573453

>  <RMSD>
8.930

$$$$

 OpenBabel11021811393D
libRbt.so/2013.1/901 2013/11/27
 42 45  0  0  0  0  0  0  0  0999 V2000
   -3.4015    0.0848   -5.8016 C   0  0  2  0  0  0  0  0  0  0  0  0
   -3.4832   -1.1827   -6.5229 O   0  0  0  0  0  0  0  0  0  0  0  0
   -4.5932    1.0302   -6.1619 C   0  0  2  0  0  0  0  0  0  0  0  0
   -5.6813    0.2999   -6.8517 N   0  3  0  0  0  0  0  0  0  0  0  0
   -4.1024    2.2278   -7.0302 C   0  0  1  0  0  0  0  0  0  0  0  0
   -5.1957    3.0879   -7.3438 O   0  0  0  0  0  0  0  0  0  0  0  0
   -3.0143    3.0607   -6.3010 C   0  0  2  0  0  0  0  0  0  0  0  0
   -2.4096    3.9437   -7.2393 O   0  0  0  0  0  0  0  0  0  0  0  0
   -1.9293    2.1374   -5.6580 C   0  0  2  0  0  0  0  0  0  0  0  0
   -2.1255    0.7521   -6.0913 O   0  0  0  0  0  0  0  0  0  0  0  0
   -1.9377    2.1181   -4.1121 C   0  0  0  0  0  0  0  0  0  0  0  0
   -2.7612   -5.2359   -5.2307 C   0  0  1  0  0  0  0  0  0  0  0  0
   -2.0996   -6.4963   -4.8254 N   0  3  0  0  0  0  0  0  0  0  0  0
   -2.5654   -4.1230   -4.1680 C   0  0  1  0  0  0  0  0  0  0  0  0
   -3.1156   -2.7225   -4.6105 C   0  0  1  0  0  0  0  0  0  0  0  0
   -2.5923   -1.7205   -3.6977 O   0  0  0  0  0  0  0  0  0  0  0  0
   -2.6794   -2.3132   -6.0653 C   0  0  1  0  0  0  0  0  0  0  0  0
   -2.8721   -3.4818   -7.0852 C   0  0  1  0  0  0  0  0  0  0  0  0
   -2.3261   -3.1507   -8.4172 N   0  3  0  0  0  0  0  0  0  0  0  0
   -2.2033   -4.7865   -6.5972 C   0  0  0  0  0  0  0  0  0  0  0  0
   -3.2668   -0.4344   -3.5793 C   0  0  1  0  0  0  0  0  0  0  0  0
   -4.7605   -0.6837   -3.4081 C   0  0  1  0  0  0  0  0  0  0  0  0
   -4.8060   -1.0189   -1.9235 C   0  0  1  0  0  0  0  0  0  0  0  0
   -3.8240    0.0089   -1.3433 C   0  0  2  0  0  0  0  0  0  0  0  0
   -2.8408    0.2353   -2.3814 O   0  0  0  0  0  0  0  0  0  0  0  0
   -3.1335   -0.4779   -0.0565 C   0  0  0  0  0  0  0  0  0  0  0  0
   -9.8220   -1.5106   -0.4831 C   0  0  1  0  0  0  0  0  0  0  0  0
   -9.3024   -0.3005   -1.3084 C   0  0  1  0  0  0  0  0  0  0  0  0
   -8.3705   -0.6917   -2.4915 C   0  0  2  0  0  0  0  0  0  0  0  0
   -7.2096   -1.6215   -2.0122 C   0  0  1  0  0  0  0  0  0  0  0  0
   -6.1469   -0.8547   -1.3784 O   0  0  0  0  0  0  0  0  0  0  0  0
   -9.1543   -2.8357   -0.9614 C   0  0  1  0  0  0  0  0  0  0  0  0
   -7.7051   -2.6456   -1.0639 O   0  0  0  0  0  0  0  0  0  0  0  0
   -9.4477   -4.0241   -0.0098 C   0  0  0  0  0  0  0  0  0  0  0  0
   -2.1701    3.4324   -3.4876 N   0  3  0  0  0  0  0  0  0  0  0  0
   -5.4860    0.5116   -3.6973 O   0  0  0  0  0  0  0  0  0  0  0  0
  -10.4281    0.4045   -1.8300 O   0  0  0  0  0  0  0  0  0  0  0  0
   -9.5242   -1.2787    0.8954 O   0  0  0  0  0  0  0  0  0  0  0  0
   -2.7953   -1.8508   -0.1528 O   0  0  0  0  0  0  0  0  0  0  0  0
   -3.2296   -4.5140   -2.9666 O   0  0  0  0  0  0  0  0  0  0  0  0
   -8.3421   -4.9979    0.0493 N   0  3  0  0  0  0  0  0  0  0  0  0
   -7.8799    0.5079   -3.2144 N   0  3  0  0  0  0  0  0  0  0  0  0
  1  2  1  6  0  0  0
  1  3  1  0  0  0  0
  1 10  1  0  0  0  0
  3  4  1  6  0  0  0
  3  5  1  0  0  0  0
  5  6  1  1  0  0  0
  5  7  1  0  0  0  0
  7  8  1  6  0  0  0
  7  9  1  0  0  0  0
  9 10  1  0  0  0  0
  9 11  1  1  0  0  0
 11 35  1  0  0  0  0
 12 13  1  1  0  0  0
 12 14  1  0  0  0  0
 12 20  1  0  0  0  0
 14 15  1  0  0  0  0
 14 40  1  1  0  0  0
 15 16  1  1  0  0  0
 15 17  1  0  0  0  0
 17  2  1  6  0  0  0
 17 18  1  0  0  0  0
 18 19  1  6  0  0  0
 18 20  1  0  0  0  0
 21 16  1  1  0  0  0
 21 22  1  0  0  0  0
 21 25  1  0  0  0  0
 22 23  1  0  0  0  0
 22 36  1  1  0  0  0
 23 24  1  0  0  0  0
 23 31  1  1  0  0  0
 24 25  1  0  0  0  0
 24 26  1  1  0  0  0
 26 39  1  0  0  0  0
 27 28  1  0  0  0  0
 27 32  1  0  0  0  0
 27 38  1  1  0  0  0
 28 29  1  0  0  0  0
 28 37  1  6  0  0  0
 29 30  1  0  0  0  0
 29 42  1  1  0  0  0
 30 31  1  1  0  0  0
 30 33  1  0  0  0  0
 32 33  1  0  0  0  0
 32 34  1  1  0  0  0
 34 41  1  0  0  0  0
M  CHG  6   4   1  13   1  19   1  35   1  41   1  42   1
M  END
>  <CHROM.1>
-163.93401219,62.47255347,-85.29624626,66.07209399,81.44252866,-40.11738820
-176.82419545,-121.75015991,-178.86589009,-159.40635086,47.96046645,159.41113669
112.59029188,57.03189280,39.76102293,57.69761473,45.20462577,167.11314693
-23.22918352,-124.63774907,-147.94926095,154.19428102,-4.79156938,-0.95979309
-3.72283036,0.46660374,0.68954303,-0.27180659

>  <Name>


>  <RI>
0

>  <Rbt.Current_Directory>
/home/itssahil/PROJECTS/Mol_Feturizer/New_Systems/rnas/1ei2

>  <Rbt.Executable>
rbdock ($Id: //depot/dev/client3/rdock/2013.1/src/exe/rbdock.cxx#4 $)

>  <Rbt.Library>
libRbt.so (2013.1, Build901 2013/11/27)

>  <Rbt.Parameter_File>
/export/apps/rDock/src/rDock_2013.1_src/data/scripts/dock_solv.prm

>  <Rbt.Receptor>
prm/blind_docking_20.prm

>  <SCORE>
-10.4369

>  <SCORE.INTER>
-25.9178

>  <SCORE.INTER.CONST>
1

>  <SCORE.INTER.POLAR>
-6.55927

>  <SCORE.INTER.ROT>
9

>  <SCORE.INTER.SOLV>
49.2987

>  <SCORE.INTER.VDW>
-21.4472

>  <SCORE.INTER.norm>
-0.617091

>  <SCORE.INTRA>
10.3523

>  <SCORE.INTRA.DIHEDRAL>
-3.6902

>  <SCORE.INTRA.DIHEDRAL.0>
40.8761

>  <SCORE.INTRA.POLAR>
-0.847971

>  <SCORE.INTRA.POLAR.0>
-0.0268208

>  <SCORE.INTRA.REPUL>
-0.641615

>  <SCORE.INTRA.REPUL.0>
0.641615

>  <SCORE.INTRA.SOLV>
-2.7929

>  <SCORE.INTRA.SOLV.lig_0>
-162.567

>  <SCORE.INTRA.VDW>
19.685

>  <SCORE.INTRA.VDW.0>
-4.80338

>  <SCORE.INTRA.norm>
0.246484

>  <SCORE.RESTR>
5.12863

>  <SCORE.RESTR.CAVITY>
5.12863

>  <SCORE.RESTR.norm>
0.12211

>  <SCORE.SYSTEM>
0

>  <SCORE.SYSTEM.CONST>
0

>  <SCORE.SYSTEM.DIHEDRAL>
0

>  <SCORE.SYSTEM.SOLV>
0

>  <SCORE.SYSTEM.norm>
0

>  <SCORE.heavy>
42

>  <SCORE.norm>
-0.248497

>  <RMSD>
8.933

$$$$

 OpenBabel11021811393D
libRbt.so/2013.1/901 2013/11/27
 42 45  0  0  0  0  0  0  0  0999 V2000
   -2.0795   -0.3423   -6.1096 C   0  0  2  0  0  0  0  0  0  0  0  0
   -1.7888    1.0765   -5.9198 O   0  0  0  0  0  0  0  0  0  0  0  0
   -1.8639   -0.7806   -7.5946 C   0  0  2  0  0  0  0  0  0  0  0  0
   -1.0943    0.2295   -8.3566 N   0  3  0  0  0  0  0  0  0  0  0  0
   -3.2303   -1.0645   -8.2884 C   0  0  1  0  0  0  0  0  0  0  0  0
   -3.0204   -1.4730   -9.6384 O   0  0  0  0  0  0  0  0  0  0  0  0
   -4.0284   -2.1764   -7.5562 C   0  0  2  0  0  0  0  0  0  0  0  0
   -5.3624   -2.1834   -8.0523 O   0  0  0  0  0  0  0  0  0  0  0  0
   -4.0331   -1.9468   -6.0100 C   0  0  2  0  0  0  0  0  0  0  0  0
   -3.4566   -0.6381   -5.6933 O   0  0  0  0  0  0  0  0  0  0  0  0
   -3.2234   -2.9887   -5.2044 C   0  0  0  0  0  0  0  0  0  0  0  0
   -2.1069    3.8057   -2.5925 C   0  0  1  0  0  0  0  0  0  0  0  0
   -2.6403    4.6665   -1.5133 N   0  3  0  0  0  0  0  0  0  0  0  0
   -2.3224    2.3016   -2.2800 C   0  0  1  0  0  0  0  0  0  0  0  0
   -1.9131    1.3468   -3.4550 C   0  0  1  0  0  0  0  0  0  0  0  0
   -2.4552    0.0276   -3.1775 O   0  0  0  0  0  0  0  0  0  0  0  0
   -2.4707    1.8045   -4.8528 C   0  0  1  0  0  0  0  0  0  0  0  0
   -2.2512    3.3323   -5.0993 C   0  0  1  0  0  0  0  0  0  0  0  0
   -2.9042    3.7929   -6.3416 N   0  3  0  0  0  0  0  0  0  0  0  0
   -2.7832    4.1858   -3.9261 C   0  0  0  0  0  0  0  0  0  0  0  0
   -2.6656   -0.3867   -1.7966 C   0  0  1  0  0  0  0  0  0  0  0  0
   -4.0264    0.1245   -1.3385 C   0  0  1  0  0  0  0  0  0  0  0  0
   -4.9301   -0.9338   -1.9564 C   0  0  1  0  0  0  0  0  0  0  0  0
   -4.1301   -2.2174   -1.6924 C   0  0  2  0  0  0  0  0  0  0  0  0
   -2.7384   -1.8198   -1.7193 O   0  0  0  0  0  0  0  0  0  0  0  0
   -4.3883   -3.3142   -2.7410 C   0  0  0  0  0  0  0  0  0  0  0  0
   -9.9439   -1.6070   -0.5521 C   0  0  1  0  0  0  0  0  0  0  0  0
   -9.3493   -0.2580   -1.0441 C   0  0  1  0  0  0  0  0  0  0  0  0
   -8.4453   -0.3843   -2.3043 C   0  0  2  0  0  0  0  0  0  0  0  0
   -7.3453   -1.4758   -2.1030 C   0  0  1  0  0  0  0  0  0  0  0  0
   -6.2354   -0.9664   -1.3106 O   0  0  0  0  0  0  0  0  0  0  0  0
   -9.3621   -2.8003   -1.3693 C   0  0  1  0  0  0  0  0  0  0  0  0
   -7.9039   -2.6790   -1.4442 O   0  0  0  0  0  0  0  0  0  0  0  0
   -9.7294   -4.1750   -0.7536 C   0  0  0  0  0  0  0  0  0  0  0  0
   -1.9193   -3.3367   -5.7957 N   0  3  0  0  0  0  0  0  0  0  0  0
   -4.0952    0.1037    0.0874 O   0  0  0  0  0  0  0  0  0  0  0  0
  -10.4285    0.6258   -1.3453 O   0  0  0  0  0  0  0  0  0  0  0  0
   -9.6306   -1.7600    0.8340 O   0  0  0  0  0  0  0  0  0  0  0  0
   -3.4462   -4.3655   -2.6152 O   0  0  0  0  0  0  0  0  0  0  0  0
   -1.5553    1.9583   -1.1263 O   0  0  0  0  0  0  0  0  0  0  0  0
   -8.7725   -4.6155    0.2781 N   0  3  0  0  0  0  0  0  0  0  0  0
   -7.8802    0.9297   -2.6997 N   0  3  0  0  0  0  0  0  0  0  0  0
  1  2  1  6  0  0  0
  1  3  1  0  0  0  0
  1 10  1  0  0  0  0
  3  4  1  6  0  0  0
  3  5  1  0  0  0  0
  5  6  1  6  0  0  0
  5  7  1  0  0  0  0
  7  8  1  6  0  0  0
  7  9  1  0  0  0  0
  9 10  1  0  0  0  0
  9 11  1  1  0  0  0
 11 35  1  0  0  0  0
 12 13  1  1  0  0  0
 12 14  1  0  0  0  0
 12 20  1  0  0  0  0
 14 15  1  0  0  0  0
 14 40  1  1  0  0  0
 15 16  1  1  0  0  0
 15 17  1  0  0  0  0
 17  2  1  6  0  0  0
 17 18  1  0  0  0  0
 18 19  1  6  0  0  0
 18 20  1  0  0  0  0
 21 16  1  6  0  0  0
 21 22  1  0  0  0  0
 21 25  1  0  0  0  0
 22 23  1  0  0  0  0
 22 36  1  1  0  0  0
 23 24  1  0  0  0  0
 23 31  1  1  0  0  0
 24 25  1  0  0  0  0
 24 26  1  6  0  0  0
 26 39  1  0  0  0  0
 27 28  1  0  0  0  0
 27 32  1  0  0  0  0
 27 38  1  1  0  0  0
 28 29  1  0  0  0  0
 28 37  1  6  0  0  0
 29 30  1  0  0  0  0
 29 42  1  1  0  0  0
 30 31  1  1  0  0  0
 30 33  1  0  0  0  0
 32 33  1  0  0  0  0
 32 34  1  1  0  0  0
 34 41  1  0  0  0  0
M  CHG  6   4   1  13   1  19   1  35   1  41   1  42   1
M  END
>  <CHROM.1>
152.24938658,71.47132359,35.32279919,32.04734588,62.07682822,43.00147144
-54.43200651,63.04110502,-55.41089818,-28.16609695,85.05666558,60.37517305
-164.48947982,154.75035077,168.41304031,-46.68500551,178.14672322,173.79085397
59.85568746,-118.32725984,-86.99919610,-157.18448844,-4.61746115,-0.49292869
-3.47956338,0.21357936,-0.73258966,-2.37530678

>  <Name>


>  <RI>
0

>  <Rbt.Current_Directory>
/home/itssahil/PROJECTS/Mol_Feturizer/New_Systems/rnas/1ei2

>  <Rbt.Executable>
rbdock ($Id: //depot/dev/client3/rdock/2013.1/src/exe/rbdock.cxx#4 $)

>  <Rbt.Library>
libRbt.so (2013.1, Build901 2013/11/27)

>  <Rbt.Parameter_File>
/export/apps/rDock/src/rDock_2013.1_src/data/scripts/dock_solv.prm

>  <Rbt.Receptor>
prm/blind_docking_80.prm

>  <SCORE>
-2.02974

>  <SCORE.INTER>
-5.68806

>  <SCORE.INTER.CONST>
1

>  <SCORE.INTER.POLAR>
-4.81459

>  <SCORE.INTER.ROT>
9

>  <SCORE.INTER.SOLV>
48.8304

>  <SCORE.INTER.VDW>
-13.6202

>  <SCORE.INTER.norm>
-0.13543

>  <SCORE.INTRA>
-4.8244

>  <SCORE.INTRA.DIHEDRAL>
-8.1828

>  <SCORE.INTRA.DIHEDRAL.0>
40.8761

>  <SCORE.INTRA.POLAR>
-0.41729

>  <SCORE.INTRA.POLAR.0>
-0.0268208

>  <SCORE.INTRA.REPUL>
-0.641615

>  <SCORE.INTRA.REPUL.0>
0.641615

>  <SCORE.INTRA.SOLV>
-4.71895

>  <SCORE.INTRA.SOLV.lig_0>
-162.567

>  <SCORE.INTRA.VDW>
6.25333

>  <SCORE.INTRA.VDW.0>
-4.80338

>  <SCORE.INTRA.norm>
-0.114867

>  <SCORE.RESTR>
8.48272

>  <SCORE.RESTR.CAVITY>
8.48272

>  <SCORE.RESTR.norm>
0.201969

>  <SCORE.SYSTEM>
0

>  <SCORE.SYSTEM.CONST>
0

>  <SCORE.SYSTEM.DIHEDRAL>
0

>  <SCORE.SYSTEM.SOLV>
0

>  <SCORE.SYSTEM.norm>
0

>  <SCORE.heavy>
42

>  <SCORE.norm>
-0.0483273

>  <RMSD>
8.943

$$$$

 OpenBabel11021811393D
libRbt.so/2013.1/901 2013/11/27
 42 45  0  0  0  0  0  0  0  0999 V2000
   -3.0929    1.5499   -4.6465 C   0  0  2  0  0  0  0  0  0  0  0  0
   -3.0351    0.6055   -5.7593 O   0  0  0  0  0  0  0  0  0  0  0  0
   -4.3962    2.4122   -4.6902 C   0  0  2  0  0  0  0  0  0  0  0  0
   -5.4013    1.8376   -5.6136 N   0  3  0  0  0  0  0  0  0  0  0  0
   -4.0692    3.8840   -5.0849 C   0  0  1  0  0  0  0  0  0  0  0  0
   -5.2636    4.6625   -5.1115 O   0  0  0  0  0  0  0  0  0  0  0  0
   -3.0757    4.5406   -4.0894 C   0  0  2  0  0  0  0  0  0  0  0  0
   -2.5991    5.7568   -4.6547 O   0  0  0  0  0  0  0  0  0  0  0  0
   -1.8757    3.5895   -3.7751 C   0  0  2  0  0  0  0  0  0  0  0  0
   -1.9121    2.4232   -4.6604 O   0  0  0  0  0  0  0  0  0  0  0  0
   -1.8529    3.0417   -2.3295 C   0  0  0  0  0  0  0  0  0  0  0  0
   -1.5724   -3.2896   -6.9032 C   0  0  1  0  0  0  0  0  0  0  0  0
   -0.9215   -4.6187   -6.8864 N   0  3  0  0  0  0  0  0  0  0  0  0
   -2.8279   -3.2592   -5.9927 C   0  0  1  0  0  0  0  0  0  0  0  0
   -3.4729   -1.8364   -5.8525 C   0  0  1  0  0  0  0  0  0  0  0  0
   -4.4136   -1.8717   -4.7458 O   0  0  0  0  0  0  0  0  0  0  0  0
   -2.4242   -0.7043   -5.5481 C   0  0  1  0  0  0  0  0  0  0  0  0
   -1.1699   -0.8028   -6.4753 C   0  0  1  0  0  0  0  0  0  0  0  0
   -0.1206    0.1642   -6.0934 N   0  3  0  0  0  0  0  0  0  0  0  0
   -0.5533   -2.2197   -6.4591 C   0  0  0  0  0  0  0  0  0  0  0  0
   -4.6206   -0.6754   -3.9403 C   0  0  1  0  0  0  0  0  0  0  0  0
   -6.0383   -0.7057   -3.3818 C   0  0  1  0  0  0  0  0  0  0  0  0
   -5.8406   -1.6515   -2.2050 C   0  0  1  0  0  0  0  0  0  0  0  0
   -4.4876   -1.1808   -1.6526 C   0  0  2  0  0  0  0  0  0  0  0  0
   -3.7483   -0.6949   -2.7984 O   0  0  0  0  0  0  0  0  0  0  0  0
   -3.7007   -2.3022   -0.9508 C   0  0  0  0  0  0  0  0  0  0  0  0
   -9.8131   -3.4562    0.3614 C   0  0  1  0  0  0  0  0  0  0  0  0
   -9.5314   -1.9415    0.5650 C   0  0  1  0  0  0  0  0  0  0  0  0
   -9.3275   -1.1497   -0.7589 C   0  0  2  0  0  0  0  0  0  0  0  0
   -8.2541   -1.8331   -1.6659 C   0  0  1  0  0  0  0  0  0  0  0  0
   -6.9057   -1.5118   -1.2211 O   0  0  0  0  0  0  0  0  0  0  0  0
   -9.6761   -3.8487   -1.1411 C   0  0  1  0  0  0  0  0  0  0  0  0
   -8.4265   -3.3041   -1.6784 O   0  0  0  0  0  0  0  0  0  0  0  0
   -9.6988   -5.3839   -1.3570 C   0  0  0  0  0  0  0  0  0  0  0  0
   -0.9368    1.9062   -2.1225 N   0  3  0  0  0  0  0  0  0  0  0  0
   -6.4136    0.6011   -2.9457 O   0  0  0  0  0  0  0  0  0  0  0  0
  -10.6320   -1.3705    1.2715 O   0  0  0  0  0  0  0  0  0  0  0  0
   -8.8820   -4.1992    1.1514 O   0  0  0  0  0  0  0  0  0  0  0  0
   -2.8934   -3.0088   -1.8769 O   0  0  0  0  0  0  0  0  0  0  0  0
   -3.8050   -4.1510   -6.5289 O   0  0  0  0  0  0  0  0  0  0  0  0
   -8.9798   -6.1221   -0.3023 N   0  3  0  0  0  0  0  0  0  0  0  0
   -9.0260    0.2791   -0.4949 N   0  3  0  0  0  0  0  0  0  0  0  0
  1  2  1  6  0  0  0
  1  3  1  0  0  0  0
  1 10  1  0  0  0  0
  3  4  1  6  0  0  0
  3  5  1  0  0  0  0
  5  6  1  1  0  0  0
  5  7  1  0  0  0  0
  7  8  1  6  0  0  0
  7  9  1  0  0  0  0
  9 10  1  0  0  0  0
  9 11  1  1  0  0  0
 11 35  1  0  0  0  0
 12 13  1  1  0  0  0
 12 14  1  0  0  0  0
 12 20  1  0  0  0  0
 14 15  1  0  0  0  0
 14 40  1  6  0  0  0
 15 16  1  1  0  0  0
 15 17  1  0  0  0  0
 17  2  1  6  0  0  0
 17 18  1  0  0  0  0
 18 19  1  1  0  0  0
 18 20  1  0  0  0  0
 21 16  1  6  0  0  0
 21 22  1  0  0  0  0
 21 25  1  0  0  0  0
 22 23  1  0  0  0  0
 22 36  1  1  0  0  0
 23 24  1  0  0  0  0
 23 31  1  1  0  0  0
 24 25  1  0  0  0  0
 24 26  1  6  0  0  0
 26 39  1  0  0  0  0
 27 28  1  0  0  0  0
 27 32  1  0  0  0  0
 27 38  1  1  0  0  0
 28 29  1  0  0  0  0
 28 37  1  6  0  0  0
 29 30  1  0  0  0  0
 29 42  1  1  0  0  0
 30 31  1  1  0  0  0
 30 33  1  0  0  0  0
 32 33  1  0  0  0  0
 32 34  1  1  0  0  0
 34 41  1  0  0  0  0
M  CHG  6   4   1  13   1  19   1  35   1  41   1  42   1
M  END
>  <CHROM.1>
-145.33942408,120.86267680,-138.33534986,-151.79193578,-66.86696317,165.71163347
-81.92814572,-175.10520939,61.15245604,147.71202360,151.52019800,-13.89126328
-41.96738171,62.42530587,88.30131179,-53.29244609,66.68300080,93.51928475
-97.79101906,-158.25889712,-38.19044166,-91.53960502,-4.89561095,-0.71332532
-3.29224319,0.43309182,0.65460236,0.08916685

>  <Name>


>  <RI>
0

>  <Rbt.Current_Directory>
/home/itssahil/PROJECTS/Mol_Feturizer/New_Systems/rnas/1ei2

>  <Rbt.Executable>
rbdock ($Id: //depot/dev/client3/rdock/2013.1/src/exe/rbdock.cxx#4 $)

>  <Rbt.Library>
libRbt.so (2013.1, Build901 2013/11/27)

>  <Rbt.Parameter_File>
/export/apps/rDock/src/rDock_2013.1_src/data/scripts/dock_solv.prm

>  <Rbt.Receptor>
prm/blind_docking_60.prm

>  <SCORE>
41.3038

>  <SCORE.INTER>
38.2102

>  <SCORE.INTER.CONST>
1

>  <SCORE.INTER.POLAR>
-7.1792

>  <SCORE.INTER.ROT>
9

>  <SCORE.INTER.SOLV>
59.2077

>  <SCORE.INTER.VDW>
20.0682

>  <SCORE.INTER.norm>
0.909766

>  <SCORE.INTRA>
-3.17362

>  <SCORE.INTRA.DIHEDRAL>
6.35956

>  <SCORE.INTRA.DIHEDRAL.0>
40.8761

>  <SCORE.INTRA.POLAR>
-2.04087

>  <SCORE.INTRA.POLAR.0>
-0.0268208

>  <SCORE.INTRA.REPUL>
-0.641615

>  <SCORE.INTRA.REPUL.0>
0.641615

>  <SCORE.INTRA.SOLV>
-1.30183

>  <SCORE.INTRA.SOLV.lig_0>
-162.567

>  <SCORE.INTRA.VDW>
4.44456

>  <SCORE.INTRA.VDW.0>
-4.80338

>  <SCORE.INTRA.norm>
-0.0755623

>  <SCORE.RESTR>
6.26725

>  <SCORE.RESTR.CAVITY>
6.26725

>  <SCORE.RESTR.norm>
0.14922

>  <SCORE.SYSTEM>
0

>  <SCORE.SYSTEM.CONST>
0

>  <SCORE.SYSTEM.DIHEDRAL>
0

>  <SCORE.SYSTEM.SOLV>
0

>  <SCORE.SYSTEM.norm>
0

>  <SCORE.heavy>
42

>  <SCORE.norm>
0.983424

>  <RMSD>
8.944

$$$$

 OpenBabel11021811393D
libRbt.so/2013.1/901 2013/11/27
 42 45  0  0  0  0  0  0  0  0999 V2000
   -4.2554    0.8026   -5.8291 C   0  0  2  0  0  0  0  0  0  0  0  0
   -4.4156   -0.5341   -6.3958 O   0  0  0  0  0  0  0  0  0  0  0  0
   -5.3178    1.7995   -6.3962 C   0  0  2  0  0  0  0  0  0  0  0  0
   -6.4245    1.0898   -7.0778 N   0  3  0  0  0  0  0  0  0  0  0  0
   -4.6499    2.8254   -7.3608 C   0  0  1  0  0  0  0  0  0  0  0  0
   -5.6263    3.7350   -7.8634 O   0  0  0  0  0  0  0  0  0  0  0  0
   -3.5355    3.6414   -6.6526 C   0  0  2  0  0  0  0  0  0  0  0  0
   -2.7816    4.3372   -7.6391 O   0  0  0  0  0  0  0  0  0  0  0  0
   -2.5961    2.7124   -5.8170 C   0  0  2  0  0  0  0  0  0  0  0  0
   -2.9016    1.3070   -6.0938 O   0  0  0  0  0  0  0  0  0  0  0  0
   -2.7123    2.8927   -4.2860 C   0  0  0  0  0  0  0  0  0  0  0  0
   -2.3684   -4.3094   -6.8149 C   0  0  1  0  0  0  0  0  0  0  0  0
   -1.3185   -5.3422   -6.9621 N   0  3  0  0  0  0  0  0  0  0  0  0
   -2.3219   -3.6462   -5.4135 C   0  0  1  0  0  0  0  0  0  0  0  0
   -3.3126   -2.4411   -5.2511 C   0  0  1  0  0  0  0  0  0  0  0  0
   -2.9505   -1.7152   -4.0457 O   0  0  0  0  0  0  0  0  0  0  0  0
   -3.2596   -1.4252   -6.4508 C   0  0  1  0  0  0  0  0  0  0  0  0
   -3.2802   -2.1513   -7.8348 C   0  0  1  0  0  0  0  0  0  0  0  0
   -3.0808   -1.2117   -8.9569 N   0  3  0  0  0  0  0  0  0  0  0  0
   -2.1971   -3.2499   -7.9233 C   0  0  0  0  0  0  0  0  0  0  0  0
   -3.5673   -0.4240   -3.7720 C   0  0  1  0  0  0  0  0  0  0  0  0
   -5.0571   -0.6387   -3.5329 C   0  0  1  0  0  0  0  0  0  0  0  0
   -5.0294   -1.1064   -2.0841 C   0  0  1  0  0  0  0  0  0  0  0  0
   -3.9769   -0.1688   -1.4755 C   0  0  2  0  0  0  0  0  0  0  0  0
   -3.0475    0.1192   -2.5473 O   0  0  0  0  0  0  0  0  0  0  0  0
   -3.2323   -0.7935   -0.2819 C   0  0  0  0  0  0  0  0  0  0  0  0
   -9.9828   -1.6968   -0.5344 C   0  0  1  0  0  0  0  0  0  0  0  0
   -9.4132   -0.2914   -0.8747 C   0  0  1  0  0  0  0  0  0  0  0  0
   -8.5968   -0.2404   -2.1983 C   0  0  2  0  0  0  0  0  0  0  0  0
   -7.4934   -1.3466   -2.2241 C   0  0  1  0  0  0  0  0  0  0  0  0
   -6.3292   -0.9488   -1.4458 O   0  0  0  0  0  0  0  0  0  0  0  0
   -9.4655   -2.7646   -1.5456 C   0  0  1  0  0  0  0  0  0  0  0  0
   -8.0148   -2.6306   -1.7013 O   0  0  0  0  0  0  0  0  0  0  0  0
   -9.8001   -4.2120   -1.1019 C   0  0  0  0  0  0  0  0  0  0  0  0
   -2.7599    4.2962   -3.8395 N   0  3  0  0  0  0  0  0  0  0  0  0
   -5.7518    0.6012   -3.6694 O   0  0  0  0  0  0  0  0  0  0  0  0
  -10.5040    0.6229   -0.9777 O   0  0  0  0  0  0  0  0  0  0  0  0
   -9.5782   -2.0389    0.7931 O   0  0  0  0  0  0  0  0  0  0  0  0
   -2.8921   -2.1432   -0.5488 O   0  0  0  0  0  0  0  0  0  0  0  0
   -2.6378   -4.6307   -4.4294 O   0  0  0  0  0  0  0  0  0  0  0  0
   -8.8113   -4.7658   -0.1588 N   0  3  0  0  0  0  0  0  0  0  0  0
   -8.0505    1.1169   -2.4461 N   0  3  0  0  0  0  0  0  0  0  0  0
  1  2  1  6  0  0  0
  1  3  1  0  0  0  0
  1 10  1  0  0  0  0
  3  4  1  6  0  0  0
  3  5  1  0  0  0  0
  5  6  1  1  0  0  0
  5  7  1  0  0  0  0
  7  8  1  6  0  0  0
  7  9  1  0  0  0  0
  9 10  1  0  0  0  0
  9 11  1  1  0  0  0
 11 35  1  0  0  0  0
 12 13  1  1  0  0  0
 12 14  1  0  0  0  0
 12 20  1  0  0  0  0
 14 15  1  0  0  0  0
 14 40  1  1  0  0  0
 15 16  1  1  0  0  0
 15 17  1  0  0  0  0
 17  2  1  6  0  0  0
 17 18  1  0  0  0  0
 18 19  1  6  0  0  0
 18 20  1  0  0  0  0
 21 16  1  1  0  0  0
 21 22  1  0  0  0  0
 21 25  1  0  0  0  0
 22 23  1  0  0  0  0
 22 36  1  1  0  0  0
 23 24  1  0  0  0  0
 23 31  1  1  0  0  0
 24 25  1  0  0  0  0
 24 26  1  1  0  0  0
 26 39  1  0  0  0  0
 27 28  1  0  0  0  0
 27 32  1  0  0  0  0
 27 38  1  1  0  0  0
 28 29  1  0  0  0  0
 28 37  1  6  0  0  0
 29 30  1  0  0  0  0
 29 42  1  1  0  0  0
 30 31  1  1  0  0  0
 30 33  1  0  0  0  0
 32 33  1  0  0  0  0
 32 34  1  1  0  0  0
 34 41  1  0  0  0  0
M  CHG  6   4   1  13   1  19   1  35   1  41   1  42   1
M  END
>  <CHROM.1>
154.63384616,99.39643822,-45.03155097,-71.77280242,-54.75862439,-44.08411867
68.82848985,157.06151729,-47.54145350,169.96127645,65.58537673,-151.26731059
-47.03902255,43.29688127,42.77230564,-50.69141360,170.39816651,178.81852230
41.29934771,-131.43662059,-84.35448137,121.45067926,-5.08838068,-0.58189836
-4.07901578,0.50971120,0.73476375,-0.30107555

>  <Name>


>  <RI>
0

>  <Rbt.Current_Directory>
/home/itssahil/PROJECTS/Mol_Feturizer/New_Systems/rnas/1ei2

>  <Rbt.Executable>
rbdock ($Id: //depot/dev/client3/rdock/2013.1/src/exe/rbdock.cxx#4 $)

>  <Rbt.Library>
libRbt.so (2013.1, Build901 2013/11/27)

>  <Rbt.Parameter_File>
/export/apps/rDock/src/rDock_2013.1_src/data/scripts/dock_solv.prm

>  <Rbt.Receptor>
prm/blind_docking_40.prm

>  <SCORE>
-10.1035

>  <SCORE.INTER>
-16.6692

>  <SCORE.INTER.CONST>
1

>  <SCORE.INTER.POLAR>
-4.14204

>  <SCORE.INTER.ROT>
9

>  <SCORE.INTER.SOLV>
41.145

>  <SCORE.INTER.VDW>
-20.621

>  <SCORE.INTER.norm>
-0.396886

>  <SCORE.INTRA>
-2.80108

>  <SCORE.INTRA.DIHEDRAL>
-8.7419

>  <SCORE.INTRA.DIHEDRAL.0>
40.8761

>  <SCORE.INTRA.POLAR>
-1.29479

>  <SCORE.INTRA.POLAR.0>
-0.0268208

>  <SCORE.INTRA.REPUL>
-0.641615

>  <SCORE.INTRA.REPUL.0>
0.641615

>  <SCORE.INTRA.SOLV>
-3.08804

>  <SCORE.INTRA.SOLV.lig_0>
-162.567

>  <SCORE.INTRA.VDW>
10.7242

>  <SCORE.INTRA.VDW.0>
-4.80338

>  <SCORE.INTRA.norm>
-0.0666923

>  <SCORE.RESTR>
9.36684

>  <SCORE.RESTR.CAVITY>
9.36684

>  <SCORE.RESTR.norm>
0.22302

>  <SCORE.SYSTEM>
0

>  <SCORE.SYSTEM.CONST>
0

>  <SCORE.SYSTEM.DIHEDRAL>
0

>  <SCORE.SYSTEM.SOLV>
0

>  <SCORE.SYSTEM.norm>
0

>  <SCORE.heavy>
42

>  <SCORE.norm>
-0.240558

>  <RMSD>
8.946

$$$$

 OpenBabel11021811393D
libRbt.so/2013.1/901 2013/11/27
 42 45  0  0  0  0  0  0  0  0999 V2000
   -2.9523    0.2256   -6.6108 C   0  0  2  0  0  0  0  0  0  0  0  0
   -1.9679   -0.0300   -5.5624 O   0  0  0  0  0  0  0  0  0  0  0  0
   -3.2012    1.7566   -6.8060 C   0  0  2  0  0  0  0  0  0  0  0  0
   -2.1491    2.5692   -6.1533 N   0  3  0  0  0  0  0  0  0  0  0  0
   -4.6102    2.1572   -6.2739 C   0  0  1  0  0  0  0  0  0  0  0  0
   -4.8296    3.5530   -6.4665 O   0  0  0  0  0  0  0  0  0  0  0  0
   -5.7419    1.3770   -6.9951 C   0  0  2  0  0  0  0  0  0  0  0  0
   -6.9564    1.5664   -6.2777 O   0  0  0  0  0  0  0  0  0  0  0  0
   -5.4082   -0.1472   -7.0907 C   0  0  2  0  0  0  0  0  0  0  0  0
   -4.2164   -0.4527   -6.2961 O   0  0  0  0  0  0  0  0  0  0  0  0
   -5.1208   -0.6522   -8.5234 C   0  0  0  0  0  0  0  0  0  0  0  0
   -2.2978   -4.3289   -5.7378 C   0  0  1  0  0  0  0  0  0  0  0  0
   -2.1177   -5.7746   -5.4774 N   0  3  0  0  0  0  0  0  0  0  0  0
   -3.0217   -3.6244   -4.5606 C   0  0  1  0  0  0  0  0  0  0  0  0
   -3.1071   -2.0657   -4.7128 C   0  0  1  0  0  0  0  0  0  0  0  0
   -3.4990   -1.5054   -3.4309 O   0  0  0  0  0  0  0  0  0  0  0  0
   -1.7401   -1.4040   -5.1220 C   0  0  1  0  0  0  0  0  0  0  0  0
   -1.0440   -2.1725   -6.2915 C   0  0  1  0  0  0  0  0  0  0  0  0
    0.3054   -1.6436   -6.5770 N   0  3  0  0  0  0  0  0  0  0  0  0
   -0.9197   -3.6834   -5.9925 C   0  0  0  0  0  0  0  0  0  0  0  0
   -4.4080   -0.3674   -3.3919 C   0  0  1  0  0  0  0  0  0  0  0  0
   -5.8049   -0.8734   -3.0523 C   0  0  1  0  0  0  0  0  0  0  0  0
   -5.6755   -1.0191   -1.5422 C   0  0  1  0  0  0  0  0  0  0  0  0
   -4.8811    0.2427   -1.1758 C   0  0  2  0  0  0  0  0  0  0  0  0
   -4.0406    0.5185   -2.3217 O   0  0  0  0  0  0  0  0  0  0  0  0
   -4.0164    0.0647    0.0851 C   0  0  0  0  0  0  0  0  0  0  0  0
  -10.3558   -2.3836    0.3510 C   0  0  1  0  0  0  0  0  0  0  0  0
  -10.1460   -1.0405   -0.4022 C   0  0  1  0  0  0  0  0  0  0  0  0
   -9.3272   -1.1718   -1.7188 C   0  0  2  0  0  0  0  0  0  0  0  0
   -7.9816   -1.9276   -1.4739 C   0  0  1  0  0  0  0  0  0  0  0  0
   -6.9793   -1.0458   -0.8933 O   0  0  0  0  0  0  0  0  0  0  0  0
   -9.5560   -3.5337   -0.3329 C   0  0  1  0  0  0  0  0  0  0  0  0
   -8.1810   -3.0938   -0.5829 O   0  0  0  0  0  0  0  0  0  0  0  0
   -9.5312   -4.8275    0.5212 C   0  0  0  0  0  0  0  0  0  0  0  0
   -6.3248   -0.9821   -9.3062 N   0  3  0  0  0  0  0  0  0  0  0  0
   -6.7747    0.1146   -3.4016 O   0  0  0  0  0  0  0  0  0  0  0  0
  -11.4273   -0.4961   -0.7159 O   0  0  0  0  0  0  0  0  0  0  0  0
   -9.9204   -2.2166    1.7021 O   0  0  0  0  0  0  0  0  0  0  0  0
   -2.7812   -0.5535   -0.2322 O   0  0  0  0  0  0  0  0  0  0  0  0
   -4.3469   -4.1450   -4.4596 O   0  0  0  0  0  0  0  0  0  0  0  0
   -8.3345   -5.6533    0.2766 N   0  3  0  0  0  0  0  0  0  0  0  0
   -9.1308    0.1479   -2.3687 N   0  3  0  0  0  0  0  0  0  0  0  0
  1  2  1  1  0  0  0
  1  3  1  0  0  0  0
  1 10  1  0  0  0  0
  3  4  1  1  0  0  0
  3  5  1  0  0  0  0
  5  6  1  6  0  0  0
  5  7  1  0  0  0  0
  7  8  1  1  0  0  0
  7  9  1  0  0  0  0
  9 10  1  0  0  0  0
  9 11  1  6  0  0  0
 11 35  1  0  0  0  0
 12 13  1  1  0  0  0
 12 14  1  0  0  0  0
 12 20  1  0  0  0  0
 14 15  1  0  0  0  0
 14 40  1  6  0  0  0
 15 16  1  1  0  0  0
 15 17  1  0  0  0  0
 17  2  1  6  0  0  0
 17 18  1  0  0  0  0
 18 19  1  1  0  0  0
 18 20  1  0  0  0  0
 21 16  1  1  0  0  0
 21 22  1  0  0  0  0
 21 25  1  0  0  0  0
 22 23  1  0  0  0  0
 22 36  1  1  0  0  0
 23 24  1  0  0  0  0
 23 31  1  1  0  0  0
 24 25  1  0  0  0  0
 24 26  1  1  0  0  0
 26 39  1  0  0  0  0
 27 28  1  0  0  0  0
 27 32  1  0  0  0  0
 27 38  1  1  0  0  0
 28 29  1  0  0  0  0
 28 37  1  6  0  0  0
 29 30  1  0  0  0  0
 29 42  1  1  0  0  0
 30 31  1  1  0  0  0
 30 33  1  0  0  0  0
 32 33  1  0  0  0  0
 32 34  1  1  0  0  0
 34 41  1  0  0  0  0
M  CHG  6   4   1  13   1  19   1  35   1  41   1  42   1
M  END
>  <CHROM.1>
172.02583294,-53.42312613,86.35645450,-171.53443648,-167.42319191,-83.39906538
-54.12363206,-52.27806076,-175.17422966,-142.26575447,101.09843204,-99.72693255
-44.65405922,47.47972234,83.28763287,136.05409907,175.40307868,157.54954781
-70.95390358,-129.45981978,-152.30441387,177.69052465,-5.35942762,-1.14423139
-3.69069417,0.60437790,0.55060611,-0.66350010

>  <Name>


>  <RI>
0

>  <Rbt.Current_Directory>
/home/itssahil/PROJECTS/Mol_Feturizer/New_Systems/rnas/1ei2

>  <Rbt.Executable>
rbdock ($Id: //depot/dev/client3/rdock/2013.1/src/exe/rbdock.cxx#4 $)

>  <Rbt.Library>
libRbt.so (2013.1, Build901 2013/11/27)

>  <Rbt.Parameter_File>
/export/apps/rDock/src/rDock_2013.1_src/data/scripts/dock_solv.prm

>  <Rbt.Receptor>
prm/blind_docking_80.prm

>  <SCORE>
63.1681

>  <SCORE.INTER>
62.6944

>  <SCORE.INTER.CONST>
1

>  <SCORE.INTER.POLAR>
-6.1231

>  <SCORE.INTER.ROT>
9

>  <SCORE.INTER.SOLV>
59.5542

>  <SCORE.INTER.VDW>
32.7552

>  <SCORE.INTER.norm>
1.49272

>  <SCORE.INTRA>
-9.23418

>  <SCORE.INTRA.DIHEDRAL>
-0.632753

>  <SCORE.INTRA.DIHEDRAL.0>
40.8761

>  <SCORE.INTRA.POLAR>
-1.1881

>  <SCORE.INTRA.POLAR.0>
-0.0268208

>  <SCORE.INTRA.REPUL>
-0.43699

>  <SCORE.INTRA.REPUL.0>
0.641615

>  <SCORE.INTRA.SOLV>
-9.3351

>  <SCORE.INTRA.SOLV.lig_0>
-162.567

>  <SCORE.INTRA.VDW>
1.97425

>  <SCORE.INTRA.VDW.0>
-4.80338

>  <SCORE.INTRA.norm>
-0.219861

>  <SCORE.RESTR>
9.70789

>  <SCORE.RESTR.CAVITY>
9.70789

>  <SCORE.RESTR.norm>
0.23114

>  <SCORE.SYSTEM>
0

>  <SCORE.SYSTEM.CONST>
0

>  <SCORE.SYSTEM.DIHEDRAL>
0

>  <SCORE.SYSTEM.SOLV>
0

>  <SCORE.SYSTEM.norm>
0

>  <SCORE.heavy>
42

>  <SCORE.norm>
1.504

>  <RMSD>
8.951

$$$$

 OpenBabel11021811393D
libRbt.so/2013.1/901 2013/11/27
 42 45  0  0  0  0  0  0  0  0999 V2000
   -2.6202    1.7154   -6.3574 C   0  0  2  0  0  0  0  0  0  0  0  0
   -2.2291    0.5559   -5.5596 O   0  0  0  0  0  0  0  0  0  0  0  0
   -2.2303    3.0560   -5.6541 C   0  0  2  0  0  0  0  0  0  0  0  0
   -1.2658    2.8352   -4.5523 N   0  3  0  0  0  0  0  0  0  0  0  0
   -3.5002    3.7919   -5.1299 C   0  0  1  0  0  0  0  0  0  0  0  0
   -3.1330    5.0174   -4.4999 O   0  0  0  0  0  0  0  0  0  0  0  0
   -4.4980    4.1075   -6.2763 C   0  0  2  0  0  0  0  0  0  0  0  0
   -5.7391    4.5061   -5.7051 O   0  0  0  0  0  0  0  0  0  0  0  0
   -4.7087    2.8662   -7.2027 C   0  0  2  0  0  0  0  0  0  0  0  0
   -4.0652    1.6870   -6.6190 O   0  0  0  0  0  0  0  0  0  0  0  0
   -4.1275    3.0226   -8.6268 C   0  0  0  0  0  0  0  0  0  0  0  0
   -3.0411   -2.4728   -8.5240 C   0  0  1  0  0  0  0  0  0  0  0  0
   -3.3021   -3.7686   -9.1897 N   0  3  0  0  0  0  0  0  0  0  0  0
   -4.2301   -2.0456   -7.6240 C   0  0  1  0  0  0  0  0  0  0  0  0
   -3.9501   -0.7559   -6.7766 C   0  0  1  0  0  0  0  0  0  0  0  0
   -4.9809   -0.6495   -5.7582 O   0  0  0  0  0  0  0  0  0  0  0  0
   -2.5590   -0.7824   -6.0429 C   0  0  1  0  0  0  0  0  0  0  0  0
   -1.4059   -1.2472   -6.9901 C   0  0  1  0  0  0  0  0  0  0  0  0
   -0.1287   -1.4158   -6.2675 N   0  3  0  0  0  0  0  0  0  0  0  0
   -1.7438   -2.5798   -7.6957 C   0  0  0  0  0  0  0  0  0  0  0  0
   -4.7252    0.1334   -4.5563 C   0  0  1  0  0  0  0  0  0  0  0  0
   -6.0119    0.2078   -3.7428 C   0  0  1  0  0  0  0  0  0  0  0  0
   -5.9704   -1.1496   -3.0542 C   0  0  1  0  0  0  0  0  0  0  0  0
   -4.4838   -1.2665   -2.6884 C   0  0  2  0  0  0  0  0  0  0  0  0
   -3.7719   -0.5446   -3.7217 O   0  0  0  0  0  0  0  0  0  0  0  0
   -3.9921   -2.7238   -2.6252 C   0  0  0  0  0  0  0  0  0  0  0  0
   -9.9550   -1.4538    0.3292 C   0  0  1  0  0  0  0  0  0  0  0  0
   -9.7499   -0.4190   -0.8120 C   0  0  1  0  0  0  0  0  0  0  0  0
   -9.2943   -1.0442   -2.1621 C   0  0  2  0  0  0  0  0  0  0  0  0
   -8.0450   -1.9622   -1.9661 C   0  0  1  0  0  0  0  0  0  0  0  0
   -6.8227   -1.1771   -1.8732 O   0  0  0  0  0  0  0  0  0  0  0  0
   -9.5057   -2.8760   -0.1245 C   0  0  1  0  0  0  0  0  0  0  0  0
   -8.1832   -2.7964   -0.7500 O   0  0  0  0  0  0  0  0  0  0  0  0
   -9.4545   -3.8846    1.0520 C   0  0  0  0  0  0  0  0  0  0  0  0
   -3.2452    4.1900   -8.8001 N   0  3  0  0  0  0  0  0  0  0  0  0
   -5.9258    1.2761   -2.7994 O   0  0  0  0  0  0  0  0  0  0  0  0
  -10.9825    0.2687   -1.0223 O   0  0  0  0  0  0  0  0  0  0  0  0
   -9.1914   -1.0342    1.4623 O   0  0  0  0  0  0  0  0  0  0  0  0
   -2.6886   -2.7938   -2.0733 O   0  0  0  0  0  0  0  0  0  0  0  0
   -5.3692   -1.8084   -8.4509 O   0  0  0  0  0  0  0  0  0  0  0  0
   -8.8988   -5.1933    0.6616 N   0  3  0  0  0  0  0  0  0  0  0  0
   -9.0806   -0.0023   -3.1970 N   0  3  0  0  0  0  0  0  0  0  0  0
  1  2  1  1  0  0  0
  1  3  1  0  0  0  0
  1 10  1  0  0  0  0
  3  4  1  1  0  0  0
  3  5  1  0  0  0  0
  5  6  1  6  0  0  0
  5  7  1  0  0  0  0
  7  8  1  1  0  0  0
  7  9  1  0  0  0  0
  9 10  1  0  0  0  0
  9 11  1  6  0  0  0
 11 35  1  0  0  0  0
 12 13  1  1  0  0  0
 12 14  1  0  0  0  0
 12 20  1  0  0  0  0
 14 15  1  0  0  0  0
 14 40  1  6  0  0  0
 15 16  1  1  0  0  0
 15 17  1  0  0  0  0
 17  2  1  6  0  0  0
 17 18  1  0  0  0  0
 18 19  1  1  0  0  0
 18 20  1  0  0  0  0
 21 16  1  6  0  0  0
 21 22  1  0  0  0  0
 21 25  1  0  0  0  0
 22 23  1  0  0  0  0
 22 36  1  1  0  0  0
 23 24  1  0  0  0  0
 23 31  1  1  0  0  0
 24 25  1  0  0  0  0
 24 26  1  6  0  0  0
 26 39  1  0  0  0  0
 27 28  1  0  0  0  0
 27 32  1  0  0  0  0
 27 38  1  1  0  0  0
 28 29  1  0  0  0  0
 28 37  1  6  0  0  0
 29 30  1  0  0  0  0
 29 42  1  6  0  0  0
 30 31  1  1  0  0  0
 30 33  1  0  0  0  0
 32 33  1  0  0  0  0
 32 34  1  1  0  0  0
 34 41  1  0  0  0  0
M  CHG  6   4   1  13   1  19   1  35   1  41   1  42   1
M  END
>  <CHROM.1>
177.84849442,-35.48982433,-14.98105603,63.39396086,-53.47493351,11.51862987
-49.75975858,48.94708102,-47.35058561,157.74485570,173.64707816,16.46124306
-55.31393842,108.51527044,-170.30904583,105.32948790,51.20832718,76.82701072
-79.08248526,-103.33535416,-174.07000207,67.78900906,-5.20340861,-0.19002155
-4.31150116,0.45141271,0.78466312,-0.14363375

>  <Name>


>  <RI>
0

>  <Rbt.Current_Directory>
/home/itssahil/PROJECTS/Mol_Feturizer/New_Systems/rnas/1ei2

>  <Rbt.Executable>
rbdock ($Id: //depot/dev/client3/rdock/2013.1/src/exe/rbdock.cxx#4 $)

>  <Rbt.Library>
libRbt.so (2013.1, Build901 2013/11/27)

>  <Rbt.Parameter_File>
/export/apps/rDock/src/rDock_2013.1_src/data/scripts/dock_solv.prm

>  <Rbt.Receptor>
prm/blind_docking_80.prm

>  <SCORE>
56.6169

>  <SCORE.INTER>
47.7952

>  <SCORE.INTER.CONST>
1

>  <SCORE.INTER.POLAR>
-5.82312

>  <SCORE.INTER.ROT>
9

>  <SCORE.INTER.SOLV>
58.5706

>  <SCORE.INTER.VDW>
22.1504

>  <SCORE.INTER.norm>
1.13798

>  <SCORE.INTRA>
-2.84971

>  <SCORE.INTRA.DIHEDRAL>
-1.20556

>  <SCORE.INTRA.DIHEDRAL.0>
40.8761

>  <SCORE.INTRA.POLAR>
-0.391934

>  <SCORE.INTRA.POLAR.0>
-0.0268208

>  <SCORE.INTRA.REPUL>
-0.641615

>  <SCORE.INTRA.REPUL.0>
0.641615

>  <SCORE.INTRA.SOLV>
-9.20688

>  <SCORE.INTRA.SOLV.lig_0>
-162.567

>  <SCORE.INTRA.VDW>
6.89716

>  <SCORE.INTRA.VDW.0>
-4.80338

>  <SCORE.INTRA.norm>
-0.0678501

>  <SCORE.RESTR>
11.6714

>  <SCORE.RESTR.CAVITY>
11.6714

>  <SCORE.RESTR.norm>
0.27789

>  <SCORE.SYSTEM>
0

>  <SCORE.SYSTEM.CONST>
0

>  <SCORE.SYSTEM.DIHEDRAL>
0

>  <SCORE.SYSTEM.SOLV>
0

>  <SCORE.SYSTEM.norm>
0

>  <SCORE.heavy>
42

>  <SCORE.norm>
1.34802

>  <RMSD>
8.954

$$$$

 OpenBabel11021811393D
libRbt.so/2013.1/901 2013/11/27
 42 45  0  0  0  0  0  0  0  0999 V2000
   -3.0350    1.5906   -4.8452 C   0  0  2  0  0  0  0  0  0  0  0  0
   -2.9310    0.6190   -5.9310 O   0  0  0  0  0  0  0  0  0  0  0  0
   -4.1868    2.6166   -5.0992 C   0  0  2  0  0  0  0  0  0  0  0  0
   -5.1025    2.1572   -6.1685 N   0  3  0  0  0  0  0  0  0  0  0  0
   -3.6064    4.0216   -5.4427 C   0  0  1  0  0  0  0  0  0  0  0  0
   -4.6657    4.9507   -5.6621 O   0  0  0  0  0  0  0  0  0  0  0  0
   -2.7023    4.5658   -4.3044 C   0  0  2  0  0  0  0  0  0  0  0  0
   -1.9831    5.6933   -4.7914 O   0  0  0  0  0  0  0  0  0  0  0  0
   -1.7060    3.4723   -3.7994 C   0  0  2  0  0  0  0  0  0  0  0  0
   -1.7598    2.2991   -4.6745 O   0  0  0  0  0  0  0  0  0  0  0  0
   -1.9847    2.9631   -2.3665 C   0  0  0  0  0  0  0  0  0  0  0  0
   -1.4863   -3.3311   -6.8951 C   0  0  1  0  0  0  0  0  0  0  0  0
   -0.8688   -4.6733   -6.8079 N   0  3  0  0  0  0  0  0  0  0  0  0
   -2.7982   -3.2535   -6.0710 C   0  0  1  0  0  0  0  0  0  0  0  0
   -3.4180   -1.8143   -6.0032 C   0  0  1  0  0  0  0  0  0  0  0  0
   -4.4303   -1.8049   -4.9610 O   0  0  0  0  0  0  0  0  0  0  0  0
   -2.3658   -0.6988   -5.6528 C   0  0  1  0  0  0  0  0  0  0  0  0
   -1.0556   -0.8449   -6.4924 C   0  0  1  0  0  0  0  0  0  0  0  0
   -0.0118    0.1073   -6.0613 N   0  3  0  0  0  0  0  0  0  0  0  0
   -0.4743   -2.2740   -6.4061 C   0  0  0  0  0  0  0  0  0  0  0  0
   -4.5287   -0.6600   -4.0653 C   0  0  1  0  0  0  0  0  0  0  0  0
   -5.9044   -0.6736   -3.4096 C   0  0  1  0  0  0  0  0  0  0  0  0
   -5.6675   -1.7055   -2.3153 C   0  0  1  0  0  0  0  0  0  0  0  0
   -4.2604   -1.3271   -1.8314 C   0  0  2  0  0  0  0  0  0  0  0  0
   -3.5814   -0.7924   -2.9928 O   0  0  0  0  0  0  0  0  0  0  0  0
   -3.4767   -2.5242   -1.2639 C   0  0  0  0  0  0  0  0  0  0  0  0
   -9.6665   -3.3094    0.3997 C   0  0  1  0  0  0  0  0  0  0  0  0
   -9.2161   -1.8448    0.6593 C   0  0  1  0  0  0  0  0  0  0  0  0
   -8.9981   -1.0086   -0.6347 C   0  0  2  0  0  0  0  0  0  0  0  0
   -8.0510   -1.7493   -1.6327 C   0  0  1  0  0  0  0  0  0  0  0  0
   -6.6551   -1.5928   -1.2504 O   0  0  0  0  0  0  0  0  0  0  0  0
   -9.6492   -3.6330   -1.1252 C   0  0  1  0  0  0  0  0  0  0  0  0
   -8.3784   -3.1920   -1.7058 O   0  0  0  0  0  0  0  0  0  0  0  0
   -9.8452   -5.1439   -1.4126 C   0  0  0  0  0  0  0  0  0  0  0  0
   -3.2479    2.2188   -2.2192 N   0  3  0  0  0  0  0  0  0  0  0  0
   -6.1913    0.6135   -2.8620 O   0  0  0  0  0  0  0  0  0  0  0  0
  -10.2124   -1.2022    1.4536 O   0  0  0  0  0  0  0  0  0  0  0  0
   -8.7798   -4.1855    1.0992 O   0  0  0  0  0  0  0  0  0  0  0  0
   -3.0971   -3.4158   -2.2981 O   0  0  0  0  0  0  0  0  0  0  0  0
   -3.7581   -4.1354   -6.6527 O   0  0  0  0  0  0  0  0  0  0  0  0
   -9.2118   -6.0074   -0.3991 N   0  3  0  0  0  0  0  0  0  0  0  0
   -8.5340    0.3655   -0.3201 N   0  3  0  0  0  0  0  0  0  0  0  0
  1  2  1  6  0  0  0
  1  3  1  0  0  0  0
  1 10  1  0  0  0  0
  3  4  1  6  0  0  0
  3  5  1  0  0  0  0
  5  6  1  1  0  0  0
  5  7  1  0  0  0  0
  7  8  1  6  0  0  0
  7  9  1  0  0  0  0
  9 10  1  0  0  0  0
  9 11  1  1  0  0  0
 11 35  1  0  0  0  0
 12 13  1  1  0  0  0
 12 14  1  0  0  0  0
 12 20  1  0  0  0  0
 14 15  1  0  0  0  0
 14 40  1  6  0  0  0
 15 16  1  1  0  0  0
 15 17  1  0  0  0  0
 17  2  1  6  0  0  0
 17 18  1  0  0  0  0
 18 19  1  1  0  0  0
 18 20  1  0  0  0  0
 21 16  1  6  0  0  0
 21 22  1  0  0  0  0
 21 25  1  0  0  0  0
 22 23  1  0  0  0  0
 22 36  1  1  0  0  0
 23 24  1  0  0  0  0
 23 31  1  1  0  0  0
 24 25  1  0  0  0  0
 24 26  1  6  0  0  0
 26 39  1  0  0  0  0
 27 28  1  0  0  0  0
 27 32  1  0  0  0  0
 27 38  1  1  0  0  0
 28 29  1  0  0  0  0
 28 37  1  1  0  0  0
 29 30  1  0  0  0  0
 29 42  1  1  0  0  0
 30 31  1  1  0  0  0
 30 33  1  0  0  0  0
 32 33  1  0  0  0  0
 32 34  1  1  0  0  0
 34 41  1  0  0  0  0
M  CHG  6   4   1  13   1  19   1  35   1  41   1  42   1
M  END
>  <CHROM.1>
-153.82140311,121.12400198,54.20679974,61.65742505,142.52585944,66.34775658
79.26814909,-177.61773216,67.11617568,138.64060199,161.14800577,109.41099713
-45.91178446,58.79725683,71.06874707,-54.89922258,-82.41583270,179.43153724
-121.18015350,-154.52088075,-35.31176933,-83.16437272,-4.80576984,-0.68007628
-3.39136305,0.43924431,0.68795836,0.09070814

>  <Name>


>  <RI>
0

>  <Rbt.Current_Directory>
/home/itssahil/PROJECTS/Mol_Feturizer/New_Systems/rnas/1ei2

>  <Rbt.Executable>
rbdock ($Id: //depot/dev/client3/rdock/2013.1/src/exe/rbdock.cxx#4 $)

>  <Rbt.Library>
libRbt.so (2013.1, Build901 2013/11/27)

>  <Rbt.Parameter_File>
/export/apps/rDock/src/rDock_2013.1_src/data/scripts/dock_solv.prm

>  <Rbt.Receptor>
prm/blind_docking_20.prm

>  <SCORE>
59.6531

>  <SCORE.INTER>
55.9149

>  <SCORE.INTER.CONST>
1

>  <SCORE.INTER.POLAR>
-6.07866

>  <SCORE.INTER.ROT>
9

>  <SCORE.INTER.SOLV>
55.3533

>  <SCORE.INTER.VDW>
29.4877

>  <SCORE.INTER.norm>
1.33131

>  <SCORE.INTRA>
-2.29878

>  <SCORE.INTRA.DIHEDRAL>
-0.205952

>  <SCORE.INTRA.DIHEDRAL.0>
40.8761

>  <SCORE.INTRA.POLAR>
-2.42868

>  <SCORE.INTRA.POLAR.0>
-0.0268208

>  <SCORE.INTRA.REPUL>
-0.641615

>  <SCORE.INTRA.REPUL.0>
0.641615

>  <SCORE.INTRA.SOLV>
4.70544

>  <SCORE.INTRA.SOLV.lig_0>
-162.567

>  <SCORE.INTRA.VDW>
6.91707

>  <SCORE.INTRA.VDW.0>
-4.80338

>  <SCORE.INTRA.norm>
-0.0547329

>  <SCORE.RESTR>
6.03705

>  <SCORE.RESTR.CAVITY>
6.03705

>  <SCORE.RESTR.norm>
0.143739

>  <SCORE.SYSTEM>
0

>  <SCORE.SYSTEM.CONST>
0

>  <SCORE.SYSTEM.DIHEDRAL>
0

>  <SCORE.SYSTEM.SOLV>
0

>  <SCORE.SYSTEM.norm>
0

>  <SCORE.heavy>
42

>  <SCORE.norm>
1.42031

>  <RMSD>
8.959

$$$$

 OpenBabel11021811393D
libRbt.so/2013.1/901 2013/11/27
 42 45  0  0  0  0  0  0  0  0999 V2000
   -3.2401   -0.3025   -6.3221 C   0  0  2  0  0  0  0  0  0  0  0  0
   -4.4527    0.2796   -5.7526 O   0  0  0  0  0  0  0  0  0  0  0  0
   -3.5629   -1.2292   -7.5390 C   0  0  2  0  0  0  0  0  0  0  0  0
   -4.9423   -1.0194   -8.0354 N   0  3  0  0  0  0  0  0  0  0  0  0
   -3.3376   -2.7256   -7.1661 C   0  0  1  0  0  0  0  0  0  0  0  0
   -3.6252   -3.5598   -8.2862 O   0  0  0  0  0  0  0  0  0  0  0  0
   -1.8768   -2.9936   -6.7150 C   0  0  2  0  0  0  0  0  0  0  0  0
   -1.8118   -4.2850   -6.1204 O   0  0  0  0  0  0  0  0  0  0  0  0
   -1.3892   -1.9107   -5.6987 C   0  0  2  0  0  0  0  0  0  0  0  0
   -2.5093   -1.0573   -5.2958 O   0  0  0  0  0  0  0  0  0  0  0  0
   -0.2932   -0.9664   -6.2440 C   0  0  0  0  0  0  0  0  0  0  0  0
   -3.1714    4.2036   -4.4956 C   0  0  1  0  0  0  0  0  0  0  0  0
   -3.0029    5.4620   -3.7350 N   0  3  0  0  0  0  0  0  0  0  0  0
   -2.5513    2.9967   -3.7439 C   0  0  1  0  0  0  0  0  0  0  0  0
   -2.8305    1.6138   -4.4291 C   0  0  1  0  0  0  0  0  0  0  0  0
   -2.4937    0.5629   -3.4840 O   0  0  0  0  0  0  0  0  0  0  0  0
   -4.3352    1.4160   -4.8425 C   0  0  1  0  0  0  0  0  0  0  0  0
   -4.9133    2.6732   -5.5692 C   0  0  1  0  0  0  0  0  0  0  0  0
   -6.3627    2.5483   -5.8249 N   0  3  0  0  0  0  0  0  0  0  0  0
   -4.6731    3.9666   -4.7584 C   0  0  0  0  0  0  0  0  0  0  0  0
   -2.8169    0.7343   -2.0737 C   0  0  1  0  0  0  0  0  0  0  0  0
   -4.3331    0.7779   -1.9251 C   0  0  1  0  0  0  0  0  0  0  0  0
   -4.6483   -0.7109   -1.9755 C   0  0  1  0  0  0  0  0  0  0  0  0
   -3.5110   -1.2978   -1.1273 C   0  0  2  0  0  0  0  0  0  0  0  0
   -2.3821   -0.4138   -1.3269 O   0  0  0  0  0  0  0  0  0  0  0  0
   -3.1371   -2.7348   -1.5330 C   0  0  0  0  0  0  0  0  0  0  0  0
   -9.7853   -1.2538   -1.2953 C   0  0  1  0  0  0  0  0  0  0  0  0
   -8.9817   -0.0662   -1.8946 C   0  0  1  0  0  0  0  0  0  0  0  0
   -7.8781   -0.4919   -2.9055 C   0  0  2  0  0  0  0  0  0  0  0  0
   -6.9457   -1.5874   -2.2954 C   0  0  1  0  0  0  0  0  0  0  0  0
   -5.9561   -1.0009   -1.4032 O   0  0  0  0  0  0  0  0  0  0  0  0
   -9.1824   -2.6174   -1.7509 C   0  0  1  0  0  0  0  0  0  0  0  0
   -7.7306   -2.6019   -1.5546 O   0  0  0  0  0  0  0  0  0  0  0  0
   -9.7890   -3.8197   -0.9825 C   0  0  0  0  0  0  0  0  0  0  0  0
   -0.7616   -0.0167   -7.2686 N   0  3  0  0  0  0  0  0  0  0  0  0
   -4.6783    1.3434   -0.6603 O   0  0  0  0  0  0  0  0  0  0  0  0
   -9.8957    0.8052   -2.5592 O   0  0  0  0  0  0  0  0  0  0  0  0
   -9.7487   -1.1507    0.1298 O   0  0  0  0  0  0  0  0  0  0  0  0
   -3.1435   -2.8798   -2.9428 O   0  0  0  0  0  0  0  0  0  0  0  0
   -1.1390    3.1857   -3.6590 O   0  0  0  0  0  0  0  0  0  0  0  0
   -9.2446   -3.9630    0.3802 N   0  3  0  0  0  0  0  0  0  0  0  0
   -7.1245    0.6822   -3.4114 N   0  3  0  0  0  0  0  0  0  0  0  0
  1  2  1  1  0  0  0
  1  3  1  0  0  0  0
  1 10  1  0  0  0  0
  3  4  1  1  0  0  0
  3  5  1  0  0  0  0
  5  6  1  6  0  0  0
  5  7  1  0  0  0  0
  7  8  1  1  0  0  0
  7  9  1  0  0  0  0
  9 10  1  0  0  0  0
  9 11  1  6  0  0  0
 11 35  1  0  0  0  0
 12 13  1  1  0  0  0
 12 14  1  0  0  0  0
 12 20  1  0  0  0  0
 14 15  1  0  0  0  0
 14 40  1  6  0  0  0
 15 16  1  1  0  0  0
 15 17  1  0  0  0  0
 17  2  1  6  0  0  0
 17 18  1  0  0  0  0
 18 19  1  1  0  0  0
 18 20  1  0  0  0  0
 21 16  1  6  0  0  0
 21 22  1  0  0  0  0
 21 25  1  0  0  0  0
 22 23  1  0  0  0  0
 22 36  1  1  0  0  0
 23 24  1  0  0  0  0
 23 31  1  1  0  0  0
 24 25  1  0  0  0  0
 24 26  1  6  0  0  0
 26 39  1  0  0  0  0
 27 28  1  0  0  0  0
 27 32  1  0  0  0  0
 27 38  1  1  0  0  0
 28 29  1  0  0  0  0
 28 37  1  6  0  0  0
 29 30  1  0  0  0  0
 29 42  1  1  0  0  0
 30 31  1  1  0  0  0
 30 33  1  0  0  0  0
 32 33  1  0  0  0  0
 32 34  1  1  0  0  0
 34 41  1  0  0  0  0
M  CHG  6   4   1  13   1  19   1  35   1  41   1  42   1
M  END
>  <CHROM.1>
-164.73684429,-11.35225061,162.83297956,66.37146801,-55.14678607,70.51101777
72.02339317,47.90784799,-175.06791761,39.12006468,65.28485648,-159.27112042
68.01296580,117.98173086,40.55808338,51.26343731,-35.52303132,-74.94698999
59.39538569,-95.49604188,-77.03787344,179.74961258,-4.72986277,-0.31999998
-3.76441613,-0.07504784,-0.66836476,-2.90565048

>  <Name>


>  <RI>
0

>  <Rbt.Current_Directory>
/home/itssahil/PROJECTS/Mol_Feturizer/New_Systems/rnas/1ei2

>  <Rbt.Executable>
rbdock ($Id: //depot/dev/client3/rdock/2013.1/src/exe/rbdock.cxx#4 $)

>  <Rbt.Library>
libRbt.so (2013.1, Build901 2013/11/27)

>  <Rbt.Parameter_File>
/export/apps/rDock/src/rDock_2013.1_src/data/scripts/dock_solv.prm

>  <Rbt.Receptor>
prm/blind_docking_40.prm

>  <SCORE>
-5.62415

>  <SCORE.INTER>
-14.1256

>  <SCORE.INTER.CONST>
1

>  <SCORE.INTER.POLAR>
-4.0197

>  <SCORE.INTER.ROT>
9

>  <SCORE.INTER.SOLV>
40.9694

>  <SCORE.INTER.VDW>
-19.2746

>  <SCORE.INTER.norm>
-0.336325

>  <SCORE.INTRA>
-1.71074

>  <SCORE.INTRA.DIHEDRAL>
-9.07479

>  <SCORE.INTRA.DIHEDRAL.0>
40.8761

>  <SCORE.INTRA.POLAR>
-0.845668

>  <SCORE.INTRA.POLAR.0>
-0.0268208

>  <SCORE.INTRA.REPUL>
-0.161405

>  <SCORE.INTRA.REPUL.0>
0.641615

>  <SCORE.INTRA.SOLV>
6.14496

>  <SCORE.INTRA.SOLV.lig_0>
-162.567

>  <SCORE.INTRA.VDW>
3.43647

>  <SCORE.INTRA.VDW.0>
-4.80338

>  <SCORE.INTRA.norm>
-0.0407319

>  <SCORE.RESTR>
10.2122

>  <SCORE.RESTR.CAVITY>
10.2122

>  <SCORE.RESTR.norm>
0.243148

>  <SCORE.SYSTEM>
0

>  <SCORE.SYSTEM.CONST>
0

>  <SCORE.SYSTEM.DIHEDRAL>
0

>  <SCORE.SYSTEM.SOLV>
0

>  <SCORE.SYSTEM.norm>
0

>  <SCORE.heavy>
42

>  <SCORE.norm>
-0.133908

>  <RMSD>
8.959

$$$$

 OpenBabel11021811393D
libRbt.so/2013.1/901 2013/11/27
 42 45  0  0  0  0  0  0  0  0999 V2000
   -2.1231    1.4326   -4.6485 C   0  0  2  0  0  0  0  0  0  0  0  0
   -2.3921    0.0110   -4.4475 O   0  0  0  0  0  0  0  0  0  0  0  0
   -1.3601    2.0518   -3.4326 C   0  0  2  0  0  0  0  0  0  0  0  0
   -0.7910    1.0047   -2.5535 N   0  3  0  0  0  0  0  0  0  0  0  0
   -2.2946    2.9987   -2.6209 C   0  0  1  0  0  0  0  0  0  0  0  0
   -1.5851    3.5650   -1.5212 O   0  0  0  0  0  0  0  0  0  0  0  0
   -2.8467    4.1543   -3.4979 C   0  0  2  0  0  0  0  0  0  0  0  0
   -3.9012    4.7995   -2.7928 O   0  0  0  0  0  0  0  0  0  0  0  0
   -3.3677    3.6239   -4.8729 C   0  0  2  0  0  0  0  0  0  0  0  0
   -3.3791    2.1593   -4.8762 O   0  0  0  0  0  0  0  0  0  0  0  0
   -2.5201    4.0581   -6.0909 C   0  0  0  0  0  0  0  0  0  0  0  0
   -3.7467   -0.7298   -8.4768 C   0  0  1  0  0  0  0  0  0  0  0  0
   -4.2787   -1.3815   -9.6945 N   0  3  0  0  0  0  0  0  0  0  0  0
   -4.8454   -0.5623   -7.3947 C   0  0  1  0  0  0  0  0  0  0  0  0
   -4.3074   -0.0149   -6.0269 C   0  0  1  0  0  0  0  0  0  0  0  0
   -5.3390   -0.2100   -5.0227 O   0  0  0  0  0  0  0  0  0  0  0  0
   -3.0121   -0.7538   -5.5264 C   0  0  1  0  0  0  0  0  0  0  0  0
   -1.9546   -0.9189   -6.6654 C   0  0  1  0  0  0  0  0  0  0  0  0
   -0.8039   -1.7409   -6.2388 N   0  3  0  0  0  0  0  0  0  0  0  0
   -2.5678   -1.5613   -7.9299 C   0  0  0  0  0  0  0  0  0  0  0  0
   -5.1106    0.2500   -3.6592 C   0  0  1  0  0  0  0  0  0  0  0  0
   -6.3785    0.0116   -2.8477 C   0  0  1  0  0  0  0  0  0  0  0  0
   -6.2217   -1.4711   -2.5385 C   0  0  1  0  0  0  0  0  0  0  0  0
   -4.7219   -1.5654   -2.2239 C   0  0  2  0  0  0  0  0  0  0  0  0
   -4.0902   -0.5471   -3.0361 O   0  0  0  0  0  0  0  0  0  0  0  0
   -4.1247   -2.9469   -2.5468 C   0  0  0  0  0  0  0  0  0  0  0  0
   -9.7413   -3.6242    0.6878 C   0  0  1  0  0  0  0  0  0  0  0  0
   -9.5403   -2.0861    0.5913 C   0  0  1  0  0  0  0  0  0  0  0  0
   -9.4521   -1.5472   -0.8657 C   0  0  2  0  0  0  0  0  0  0  0  0
   -8.3878   -2.3348   -1.6955 C   0  0  1  0  0  0  0  0  0  0  0  0
   -7.0399   -1.8702   -1.4013 O   0  0  0  0  0  0  0  0  0  0  0  0
   -9.6583   -4.2838   -0.7223 C   0  0  1  0  0  0  0  0  0  0  0  0
   -8.4727   -3.7888   -1.4264 O   0  0  0  0  0  0  0  0  0  0  0  0
   -9.6006   -5.8315   -0.6499 C   0  0  0  0  0  0  0  0  0  0  0  0
   -3.1864    3.8771   -7.3926 N   0  3  0  0  0  0  0  0  0  0  0  0
   -6.3462    0.8006   -1.6582 O   0  0  0  0  0  0  0  0  0  0  0  0
  -10.6353   -1.4476    1.2469 O   0  0  0  0  0  0  0  0  0  0  0  0
   -8.7283   -4.1595    1.5423 O   0  0  0  0  0  0  0  0  0  0  0  0
   -3.0286   -2.8280   -3.4374 O   0  0  0  0  0  0  0  0  0  0  0  0
   -5.8393    0.3369   -7.8854 O   0  0  0  0  0  0  0  0  0  0  0  0
   -9.8757   -6.4769   -1.9467 N   0  3  0  0  0  0  0  0  0  0  0  0
   -9.2232   -0.0811   -0.8883 N   0  3  0  0  0  0  0  0  0  0  0  0
  1  2  1  1  0  0  0
  1  3  1  0  0  0  0
  1 10  1  0  0  0  0
  3  4  1  1  0  0  0
  3  5  1  0  0  0  0
  5  6  1  1  0  0  0
  5  7  1  0  0  0  0
  7  8  1  1  0  0  0
  7  9  1  0  0  0  0
  9 10  1  0  0  0  0
  9 11  1  6  0  0  0
 11 35  1  0  0  0  0
 12 13  1  6  0  0  0
 12 14  1  0  0  0  0
 12 20  1  0  0  0  0
 14 15  1  0  0  0  0
 14 40  1  6  0  0  0
 15 16  1  1  0  0  0
 15 17  1  0  0  0  0
 17  2  1  1  0  0  0
 17 18  1  0  0  0  0
 18 19  1  1  0  0  0
 18 20  1  0  0  0  0
 21 16  1  6  0  0  0
 21 22  1  0  0  0  0
 21 25  1  0  0  0  0
 22 23  1  0  0  0  0
 22 36  1  1  0  0  0
 23 24  1  0  0  0  0
 23 31  1  1  0  0  0
 24 25  1  0  0  0  0
 24 26  1  6  0  0  0
 26 39  1  0  0  0  0
 27 28  1  0  0  0  0
 27 32  1  0  0  0  0
 27 38  1  1  0  0  0
 28 29  1  0  0  0  0
 28 37  1  6  0  0  0
 29 30  1  0  0  0  0
 29 42  1  1  0  0  0
 30 31  1  1  0  0  0
 30 33  1  0  0  0  0
 32 33  1  0  0  0  0
 32 34  1  1  0  0  0
 34 41  1  0  0  0  0
M  CHG  6   4   1  13   1  19   1  35   1  41   1  42   1
M  END
>  <CHROM.1>
-175.57240014,-51.31145312,-144.41001816,-175.98896733,61.75626141,-164.40252459
153.41263830,72.26752459,-65.97661291,-178.24308154,176.03820601,159.92105939
-53.28514402,90.62967219,124.10024793,19.56618575,-110.43636860,80.88700276
-151.93166881,-126.57750387,164.96448696,-32.95521602,-5.16117876,-0.46586175
-3.48813594,-0.04535375,0.83500528,0.81937561

>  <Name>


>  <RI>
0

>  <Rbt.Current_Directory>
/home/itssahil/PROJECTS/Mol_Feturizer/New_Systems/rnas/1ei2

>  <Rbt.Executable>
rbdock ($Id: //depot/dev/client3/rdock/2013.1/src/exe/rbdock.cxx#4 $)

>  <Rbt.Library>
libRbt.so (2013.1, Build901 2013/11/27)

>  <Rbt.Parameter_File>
/export/apps/rDock/src/rDock_2013.1_src/data/scripts/dock_solv.prm

>  <Rbt.Receptor>
prm/blind_docking_40.prm

>  <SCORE>
35.3333

>  <SCORE.INTER>
35.541

>  <SCORE.INTER.CONST>
1

>  <SCORE.INTER.POLAR>
-5.39378

>  <SCORE.INTER.ROT>
9

>  <SCORE.INTER.SOLV>
57.1715

>  <SCORE.INTER.VDW>
13.0161

>  <SCORE.INTER.norm>
0.846214

>  <SCORE.INTRA>
-9.49206

>  <SCORE.INTRA.DIHEDRAL>
0.864705

>  <SCORE.INTRA.DIHEDRAL.0>
40.8761

>  <SCORE.INTRA.POLAR>
-2.54672

>  <SCORE.INTRA.POLAR.0>
-0.0268208

>  <SCORE.INTRA.REPUL>
-0.48688

>  <SCORE.INTRA.REPUL.0>
0.641615

>  <SCORE.INTRA.SOLV>
-8.68839

>  <SCORE.INTRA.SOLV.lig_0>
-162.567

>  <SCORE.INTRA.VDW>
5.51302

>  <SCORE.INTRA.VDW.0>
-4.80338

>  <SCORE.INTRA.norm>
-0.226001

>  <SCORE.RESTR>
9.28437

>  <SCORE.RESTR.CAVITY>
9.28437

>  <SCORE.RESTR.norm>
0.221056

>  <SCORE.SYSTEM>
0

>  <SCORE.SYSTEM.CONST>
0

>  <SCORE.SYSTEM.DIHEDRAL>
0

>  <SCORE.SYSTEM.SOLV>
0

>  <SCORE.SYSTEM.norm>
0

>  <SCORE.heavy>
42

>  <SCORE.norm>
0.841269

>  <RMSD>
8.960

$$$$

 OpenBabel11021811393D
libRbt.so/2013.1/901 2013/11/27
 42 45  0  0  0  0  0  0  0  0999 V2000
   -2.8359    1.4763   -4.6079 C   0  0  2  0  0  0  0  0  0  0  0  0
   -2.8068    0.5432   -5.7313 O   0  0  0  0  0  0  0  0  0  0  0  0
   -4.1107    2.3805   -4.6433 C   0  0  2  0  0  0  0  0  0  0  0  0
   -5.1323    1.8491   -5.5744 N   0  3  0  0  0  0  0  0  0  0  0  0
   -3.7359    3.8454   -5.0209 C   0  0  1  0  0  0  0  0  0  0  0  0
   -4.9046    4.6622   -5.0399 O   0  0  0  0  0  0  0  0  0  0  0  0
   -2.7233    4.4584   -4.0167 C   0  0  2  0  0  0  0  0  0  0  0  0
   -2.2070    5.6649   -4.5676 O   0  0  0  0  0  0  0  0  0  0  0  0
   -1.5550    3.4656   -3.7119 C   0  0  2  0  0  0  0  0  0  0  0  0
   -1.6276    2.3112   -4.6104 O   0  0  0  0  0  0  0  0  0  0  0  0
   -1.5521    2.9010   -2.2727 C   0  0  0  0  0  0  0  0  0  0  0  0
   -1.4739   -3.3850   -6.9196 C   0  0  1  0  0  0  0  0  0  0  0  0
   -0.8593   -4.7314   -6.9211 N   0  3  0  0  0  0  0  0  0  0  0  0
   -2.7100   -3.3246   -5.9844 C   0  0  1  0  0  0  0  0  0  0  0  0
   -3.3130   -1.8855   -5.8257 C   0  0  1  0  0  0  0  0  0  0  0  0
   -4.2324   -1.9002   -4.7008 O   0  0  0  0  0  0  0  0  0  0  0  0
   -2.2280   -0.7837   -5.5375 C   0  0  1  0  0  0  0  0  0  0  0  0
   -0.9952   -0.9122   -6.4897 C   0  0  1  0  0  0  0  0  0  0  0  0
    0.0874    0.0241   -6.1247 N   0  3  0  0  0  0  0  0  0  0  0  0
   -0.4174   -2.3453   -6.4914 C   0  0  0  0  0  0  0  0  0  0  0  0
   -4.4449   -0.6818   -3.9306 C   0  0  1  0  0  0  0  0  0  0  0  0
   -5.8814   -0.6738   -3.4216 C   0  0  1  0  0  0  0  0  0  0  0  0
   -5.7422   -1.5951   -2.2173 C   0  0  1  0  0  0  0  0  0  0  0  0
   -4.4007   -1.1356   -1.6286 C   0  0  2  0  0  0  0  0  0  0  0  0
   -3.6133   -0.6900   -2.7587 O   0  0  0  0  0  0  0  0  0  0  0  0
   -3.6595   -2.2541   -0.8743 C   0  0  0  0  0  0  0  0  0  0  0  0
   -9.8573   -2.7735    0.6674 C   0  0  1  0  0  0  0  0  0  0  0  0
   -9.6056   -1.2764    0.3346 C   0  0  1  0  0  0  0  0  0  0  0  0
   -9.2934   -1.0028   -1.1650 C   0  0  2  0  0  0  0  0  0  0  0  0
   -8.1402   -1.9237   -1.6787 C   0  0  1  0  0  0  0  0  0  0  0  0
   -6.8380   -1.4135   -1.2749 O   0  0  0  0  0  0  0  0  0  0  0  0
   -9.5874   -3.6714   -0.5782 C   0  0  1  0  0  0  0  0  0  0  0  0
   -8.3000   -3.3075   -1.1755 O   0  0  0  0  0  0  0  0  0  0  0  0
   -9.5799   -5.1820   -0.2292 C   0  0  0  0  0  0  0  0  0  0  0  0
   -0.7076    1.7076   -2.0880 N   0  3  0  0  0  0  0  0  0  0  0  0
   -6.2473    0.6493   -3.0288 O   0  0  0  0  0  0  0  0  0  0  0  0
  -10.7676   -0.5331    0.7003 O   0  0  0  0  0  0  0  0  0  0  0  0
   -8.9929   -3.1491    1.7419 O   0  0  0  0  0  0  0  0  0  0  0  0
   -3.0615   -3.1647   -1.7809 O   0  0  0  0  0  0  0  0  0  0  0  0
   -3.7214   -4.1869   -6.5048 O   0  0  0  0  0  0  0  0  0  0  0  0
   -9.8218   -6.0427   -1.4016 N   0  3  0  0  0  0  0  0  0  0  0  0
   -9.0267    0.4365   -1.4091 N   0  3  0  0  0  0  0  0  0  0  0  0
  1  2  1  6  0  0  0
  1  3  1  0  0  0  0
  1 10  1  0  0  0  0
  3  4  1  6  0  0  0
  3  5  1  0  0  0  0
  5  6  1  1  0  0  0
  5  7  1  0  0  0  0
  7  8  1  6  0  0  0
  7  9  1  0  0  0  0
  9 10  1  0  0  0  0
  9 11  1  1  0  0  0
 11 35  1  0  0  0  0
 12 13  1  1  0  0  0
 12 14  1  0  0  0  0
 12 20  1  0  0  0  0
 14 15  1  0  0  0  0
 14 40  1  6  0  0  0
 15 16  1  1  0  0  0
 15 17  1  0  0  0  0
 17  2  1  6  0  0  0
 17 18  1  0  0  0  0
 18 19  1  1  0  0  0
 18 20  1  0  0  0  0
 21 16  1  6  0  0  0
 21 22  1  0  0  0  0
 21 25  1  0  0  0  0
 22 23  1  0  0  0  0
 22 36  1  1  0  0  0
 23 24  1  0  0  0  0
 23 31  1  1  0  0  0
 24 25  1  0  0  0  0
 24 26  1  6  0  0  0
 26 39  1  0  0  0  0
 27 28  1  0  0  0  0
 27 32  1  0  0  0  0
 27 38  1  1  0  0  0
 28 29  1  0  0  0  0
 28 37  1  6  0  0  0
 29 30  1  0  0  0  0
 29 42  1  1  0  0  0
 30 31  1  1  0  0  0
 30 33  1  0  0  0  0
 32 33  1  0  0  0  0
 32 34  1  1  0  0  0
 34 41  1  0  0  0  0
M  CHG  6   4   1  13   1  19   1  35   1  41   1  42   1
M  END
>  <CHROM.1>
-145.87802181,119.91024335,-27.57208848,73.75291623,-34.46995467,163.80205011
56.21793051,-50.65597189,104.45852781,151.00365062,147.81491532,-9.98999330
-159.22399221,72.16516357,75.97989538,-173.79027773,177.31678438,-113.31776665
68.68168606,-144.57602696,158.93887068,85.07813323,-4.78574407,-0.65971880
-3.28943980,0.35098051,0.62824552,0.11795123

>  <Name>


>  <RI>
0

>  <Rbt.Current_Directory>
/home/itssahil/PROJECTS/Mol_Feturizer/New_Systems/rnas/1ei2

>  <Rbt.Executable>
rbdock ($Id: //depot/dev/client3/rdock/2013.1/src/exe/rbdock.cxx#4 $)

>  <Rbt.Library>
libRbt.so (2013.1, Build901 2013/11/27)

>  <Rbt.Parameter_File>
/export/apps/rDock/src/rDock_2013.1_src/data/scripts/dock_solv.prm

>  <Rbt.Receptor>
prm/blind_docking_40.prm

>  <SCORE>
44.0466

>  <SCORE.INTER>
37.263

>  <SCORE.INTER.CONST>
1

>  <SCORE.INTER.POLAR>
-9.4748

>  <SCORE.INTER.ROT>
9

>  <SCORE.INTER.SOLV>
66.4591

>  <SCORE.INTER.VDW>
24.6716

>  <SCORE.INTER.norm>
0.887214

>  <SCORE.INTRA>
-0.365347

>  <SCORE.INTRA.DIHEDRAL>
13.277

>  <SCORE.INTRA.DIHEDRAL.0>
40.8761

>  <SCORE.INTRA.POLAR>
-1.84007

>  <SCORE.INTRA.POLAR.0>
-0.0268208

>  <SCORE.INTRA.REPUL>
-0.641615

>  <SCORE.INTRA.REPUL.0>
0.641615

>  <SCORE.INTRA.SOLV>
-4.17706

>  <SCORE.INTRA.SOLV.lig_0>
-162.567

>  <SCORE.INTRA.VDW>
4.549

>  <SCORE.INTRA.VDW.0>
-4.80338

>  <SCORE.INTRA.norm>
-0.00869873

>  <SCORE.RESTR>
7.14898

>  <SCORE.RESTR.CAVITY>
7.14898

>  <SCORE.RESTR.norm>
0.170214

>  <SCORE.SYSTEM>
0

>  <SCORE.SYSTEM.CONST>
0

>  <SCORE.SYSTEM.DIHEDRAL>
0

>  <SCORE.SYSTEM.SOLV>
0

>  <SCORE.SYSTEM.norm>
0

>  <SCORE.heavy>
42

>  <SCORE.norm>
1.04873

>  <RMSD>
8.970

$$$$

 OpenBabel11021811393D
libRbt.so/2013.1/901 2013/11/27
 42 45  0  0  0  0  0  0  0  0999 V2000
   -3.2035   -0.0267   -5.8505 C   0  0  2  0  0  0  0  0  0  0  0  0
   -3.2186   -1.2667   -6.6224 O   0  0  0  0  0  0  0  0  0  0  0  0
   -4.4788    0.8358   -6.1218 C   0  0  2  0  0  0  0  0  0  0  0  0
   -5.5363    0.0505   -6.7987 N   0  3  0  0  0  0  0  0  0  0  0  0
   -4.1194    2.1021   -6.9562 C   0  0  1  0  0  0  0  0  0  0  0  0
   -5.2880    2.8856   -7.1884 O   0  0  0  0  0  0  0  0  0  0  0  0
   -3.0681    2.9880   -6.2355 C   0  0  2  0  0  0  0  0  0  0  0  0
   -2.5740    3.9528   -7.1579 O   0  0  0  0  0  0  0  0  0  0  0  0
   -1.8886    2.1278   -5.6768 C   0  0  2  0  0  0  0  0  0  0  0  0
   -1.9963    0.7499   -6.1617 O   0  0  0  0  0  0  0  0  0  0  0  0
   -1.8290    2.0459   -4.1341 C   0  0  0  0  0  0  0  0  0  0  0  0
   -2.6763   -5.3296   -5.2738 C   0  0  1  0  0  0  0  0  0  0  0  0
   -2.0713   -6.6076   -4.8366 N   0  3  0  0  0  0  0  0  0  0  0  0
   -2.4779   -4.2141   -4.2144 C   0  0  1  0  0  0  0  0  0  0  0  0
   -2.9658   -2.8001   -4.6863 C   0  0  1  0  0  0  0  0  0  0  0  0
   -2.4391   -1.8076   -3.7651 O   0  0  0  0  0  0  0  0  0  0  0  0
   -2.4688   -2.4192   -6.1292 C   0  0  1  0  0  0  0  0  0  0  0  0
   -2.6673   -3.5901   -7.1453 C   0  0  1  0  0  0  0  0  0  0  0  0
   -2.0673   -3.2899   -8.4613 N   0  3  0  0  0  0  0  0  0  0  0  0
   -2.0592   -4.9119   -6.6248 C   0  0  0  0  0  0  0  0  0  0  0  0
   -3.0981   -0.5134   -3.6495 C   0  0  1  0  0  0  0  0  0  0  0  0
   -4.5980   -0.7435   -3.5071 C   0  0  1  0  0  0  0  0  0  0  0  0
   -4.6749   -1.0883   -2.0260 C   0  0  1  0  0  0  0  0  0  0  0  0
   -3.6898   -0.0782   -1.4207 C   0  0  2  0  0  0  0  0  0  0  0  0
   -2.6850    0.1421   -2.4393 O   0  0  0  0  0  0  0  0  0  0  0  0
   -3.0294   -0.5833   -0.1253 C   0  0  0  0  0  0  0  0  0  0  0  0
   -9.7415   -1.4543   -0.7196 C   0  0  1  0  0  0  0  0  0  0  0  0
   -9.1643   -0.2775   -1.5548 C   0  0  1  0  0  0  0  0  0  0  0  0
   -8.2033   -0.7199   -2.6959 C   0  0  2  0  0  0  0  0  0  0  0  0
   -7.0829   -1.6657   -2.1556 C   0  0  1  0  0  0  0  0  0  0  0  0
   -6.0231   -0.9097   -1.5041 O   0  0  0  0  0  0  0  0  0  0  0  0
   -9.0915   -2.8063   -1.1435 C   0  0  1  0  0  0  0  0  0  0  0  0
   -7.6355   -2.6541   -1.2009 O   0  0  0  0  0  0  0  0  0  0  0  0
   -9.4464   -3.9638   -0.1749 C   0  0  0  0  0  0  0  0  0  0  0  0
   -2.0018    3.3384   -3.4481 N   0  3  0  0  0  0  0  0  0  0  0  0
   -5.3018    0.4636   -3.8006 O   0  0  0  0  0  0  0  0  0  0  0  0
  -10.2538    0.4418   -2.1310 O   0  0  0  0  0  0  0  0  0  0  0  0
   -9.4844   -1.1962    0.6625 O   0  0  0  0  0  0  0  0  0  0  0  0
   -2.0344    0.3220    0.3210 O   0  0  0  0  0  0  0  0  0  0  0  0
   -3.1938   -4.5714   -3.0324 O   0  0  0  0  0  0  0  0  0  0  0  0
   -9.6179   -5.2560   -0.8638 N   0  3  0  0  0  0  0  0  0  0  0  0
   -7.6588    0.4495   -3.4296 N   0  3  0  0  0  0  0  0  0  0  0  0
  1  2  1  6  0  0  0
  1  3  1  0  0  0  0
  1 10  1  0  0  0  0
  3  4  1  6  0  0  0
  3  5  1  0  0  0  0
  5  6  1  1  0  0  0
  5  7  1  0  0  0  0
  7  8  1  6  0  0  0
  7  9  1  0  0  0  0
  9 10  1  0  0  0  0
  9 11  1  1  0  0  0
 11 35  1  0  0  0  0
 12 13  1  1  0  0  0
 12 14  1  0  0  0  0
 12 20  1  0  0  0  0
 14 15  1  0  0  0  0
 14 40  1  1  0  0  0
 15 16  1  1  0  0  0
 15 17  1  0  0  0  0
 17  2  1  6  0  0  0
 17 18  1  0  0  0  0
 18 19  1  6  0  0  0
 18 20  1  0  0  0  0
 21 16  1  1  0  0  0
 21 22  1  0  0  0  0
 21 25  1  0  0  0  0
 22 23  1  0  0  0  0
 22 36  1  1  0  0  0
 23 24  1  0  0  0  0
 23 31  1  1  0  0  0
 24 25  1  0  0  0  0
 24 26  1  1  0  0  0
 26 39  1  0  0  0  0
 27 28  1  0  0  0  0
 27 32  1  0  0  0  0
 27 38  1  1  0  0  0
 28 29  1  0  0  0  0
 28 37  1  6  0  0  0
 29 30  1  0  0  0  0
 29 42  1  1  0  0  0
 30 31  1  1  0  0  0
 30 33  1  0  0  0  0
 32 33  1  0  0  0  0
 32 34  1  1  0  0  0
 34 41  1  0  0  0  0
M  CHG  6   4   1  13   1  19   1  35   1  41   1  42   1
M  END
>  <CHROM.1>
-154.54752828,57.60805401,40.88604785,-58.23859139,-51.52470304,-45.90495836
-19.90513406,115.41105257,-74.95239393,-157.52492137,47.45520891,-128.97880018
-48.17715087,57.50870376,174.16385470,-61.68451787,171.70948227,-96.66188827
157.90430939,-122.80194880,144.15459984,-159.19687971,-4.70238101,-0.97824112
-3.80892472,0.34132153,0.67035482,-0.12953205

>  <Name>


>  <RI>
0

>  <Rbt.Current_Directory>
/home/itssahil/PROJECTS/Mol_Feturizer/New_Systems/rnas/1ei2

>  <Rbt.Executable>
rbdock ($Id: //depot/dev/client3/rdock/2013.1/src/exe/rbdock.cxx#4 $)

>  <Rbt.Library>
libRbt.so (2013.1, Build901 2013/11/27)

>  <Rbt.Parameter_File>
/export/apps/rDock/src/rDock_2013.1_src/data/scripts/dock_solv.prm

>  <Rbt.Receptor>
prm/blind_docking_20.prm

>  <SCORE>
-13.8972

>  <SCORE.INTER>
-32.1434

>  <SCORE.INTER.CONST>
1

>  <SCORE.INTER.POLAR>
-8.23586

>  <SCORE.INTER.ROT>
9

>  <SCORE.INTER.SOLV>
51.26

>  <SCORE.INTER.VDW>
-20.6627

>  <SCORE.INTER.norm>
-0.765319

>  <SCORE.INTRA>
12.5449

>  <SCORE.INTRA.DIHEDRAL>
-3.252

>  <SCORE.INTRA.DIHEDRAL.0>
40.8761

>  <SCORE.INTRA.POLAR>
-0.581771

>  <SCORE.INTRA.POLAR.0>
-0.0268208

>  <SCORE.INTRA.REPUL>
-0.641615

>  <SCORE.INTRA.REPUL.0>
0.641615

>  <SCORE.INTRA.SOLV>
-4.82851

>  <SCORE.INTRA.SOLV.lig_0>
-162.567

>  <SCORE.INTRA.VDW>
21.7712

>  <SCORE.INTRA.VDW.0>
-4.80338

>  <SCORE.INTRA.norm>
0.298687

>  <SCORE.RESTR>
5.70132

>  <SCORE.RESTR.CAVITY>
5.70132

>  <SCORE.RESTR.norm>
0.135746

>  <SCORE.SYSTEM>
0

>  <SCORE.SYSTEM.CONST>
0

>  <SCORE.SYSTEM.DIHEDRAL>
0

>  <SCORE.SYSTEM.SOLV>
0

>  <SCORE.SYSTEM.norm>
0

>  <SCORE.heavy>
42

>  <SCORE.norm>
-0.330886

>  <RMSD>
8.975

$$$$

 OpenBabel11021811393D
libRbt.so/2013.1/901 2013/11/27
 42 45  0  0  0  0  0  0  0  0999 V2000
   -3.6290    0.5176   -5.9104 C   0  0  2  0  0  0  0  0  0  0  0  0
   -3.8805   -0.7940   -6.5023 O   0  0  0  0  0  0  0  0  0  0  0  0
   -4.8006    1.5124   -6.1960 C   0  0  2  0  0  0  0  0  0  0  0  0
   -6.0120    0.8076   -6.6746 N   0  3  0  0  0  0  0  0  0  0  0  0
   -4.3606    2.6009   -7.2209 C   0  0  1  0  0  0  0  0  0  0  0  0
   -5.4335    3.5078   -7.4656 O   0  0  0  0  0  0  0  0  0  0  0  0
   -3.1379    3.4108   -6.7123 C   0  0  2  0  0  0  0  0  0  0  0  0
   -2.6130    4.1731   -7.7935 O   0  0  0  0  0  0  0  0  0  0  0  0
   -2.0329    2.4676   -6.1356 C   0  0  2  0  0  0  0  0  0  0  0  0
   -2.3662    1.0696   -6.4181 O   0  0  0  0  0  0  0  0  0  0  0  0
   -1.8361    2.5704   -4.6056 C   0  0  0  0  0  0  0  0  0  0  0  0
   -2.8327   -4.8871   -5.6259 C   0  0  1  0  0  0  0  0  0  0  0  0
   -2.0711   -6.1290   -5.3647 N   0  3  0  0  0  0  0  0  0  0  0  0
   -2.6704   -3.8660   -4.4696 C   0  0  1  0  0  0  0  0  0  0  0  0
   -3.3320   -2.4736   -4.7582 C   0  0  1  0  0  0  0  0  0  0  0  0
   -2.8418   -1.5252   -3.7727 O   0  0  0  0  0  0  0  0  0  0  0  0
   -2.9838   -1.9015   -6.1815 C   0  0  1  0  0  0  0  0  0  0  0  0
   -3.1375   -2.9816   -7.3007 C   0  0  1  0  0  0  0  0  0  0  0  0
   -2.6695   -2.4908   -8.6130 N   0  3  0  0  0  0  0  0  0  0  0  0
   -2.3623   -4.2746   -6.9616 C   0  0  0  0  0  0  0  0  0  0  0  0
   -3.5638   -0.2788   -3.5537 C   0  0  1  0  0  0  0  0  0  0  0  0
   -5.0375   -0.6029   -3.3390 C   0  0  1  0  0  0  0  0  0  0  0  0
   -5.0073   -1.0226   -1.8757 C   0  0  1  0  0  0  0  0  0  0  0  0
   -4.0458    0.0132   -1.2757 C   0  0  2  0  0  0  0  0  0  0  0  0
   -3.1168    0.3407   -2.3366 O   0  0  0  0  0  0  0  0  0  0  0  0
   -3.2828   -0.5142   -0.0473 C   0  0  0  0  0  0  0  0  0  0  0  0
   -9.9558   -1.7990   -0.3380 C   0  0  1  0  0  0  0  0  0  0  0  0
   -9.4861   -0.4688   -0.9902 C   0  0  1  0  0  0  0  0  0  0  0  0
   -8.6007   -0.6596   -2.2554 C   0  0  2  0  0  0  0  0  0  0  0  0
   -7.4095   -1.6299   -1.9698 C   0  0  1  0  0  0  0  0  0  0  0  0
   -6.3301   -0.9484   -1.2701 O   0  0  0  0  0  0  0  0  0  0  0  0
   -9.2933   -3.0241   -1.0382 C   0  0  1  0  0  0  0  0  0  0  0  0
   -7.8521   -2.7944   -1.1687 O   0  0  0  0  0  0  0  0  0  0  0  0
   -9.5318   -4.3479   -0.2670 C   0  0  0  0  0  0  0  0  0  0  0  0
   -3.0567    2.9165   -3.8562 N   0  3  0  0  0  0  0  0  0  0  0  0
   -5.8235    0.5737   -3.5299 O   0  0  0  0  0  0  0  0  0  0  0  0
  -10.6413    0.2864   -1.3532 O   0  0  0  0  0  0  0  0  0  0  0  0
   -9.6026   -1.7727    1.0467 O   0  0  0  0  0  0  0  0  0  0  0  0
   -2.8234   -1.8369   -0.2672 O   0  0  0  0  0  0  0  0  0  0  0  0
   -3.2575   -4.4128   -3.2890 O   0  0  0  0  0  0  0  0  0  0  0  0
   -9.6351   -5.5192   -1.1565 N   0  3  0  0  0  0  0  0  0  0  0  0
   -8.1555    0.6442   -2.8069 N   0  3  0  0  0  0  0  0  0  0  0  0
  1  2  1  6  0  0  0
  1  3  1  0  0  0  0
  1 10  1  0  0  0  0
  3  4  1  6  0  0  0
  3  5  1  0  0  0  0
  5  6  1  1  0  0  0
  5  7  1  0  0  0  0
  7  8  1  6  0  0  0
  7  9  1  0  0  0  0
  9 10  1  0  0  0  0
  9 11  1  1  0  0  0
 11 35  1  0  0  0  0
 12 13  1  1  0  0  0
 12 14  1  0  0  0  0
 12 20  1  0  0  0  0
 14 15  1  0  0  0  0
 14 40  1  1  0  0  0
 15 16  1  1  0  0  0
 15 17  1  0  0  0  0
 17  2  1  6  0  0  0
 17 18  1  0  0  0  0
 18 19  1  6  0  0  0
 18 20  1  0  0  0  0
 21 16  1  1  0  0  0
 21 22  1  0  0  0  0
 21 25  1  0  0  0  0
 22 23  1  0  0  0  0
 22 36  1  1  0  0  0
 23 24  1  0  0  0  0
 23 31  1  1  0  0  0
 24 25  1  0  0  0  0
 24 26  1  1  0  0  0
 26 39  1  0  0  0  0
 27 28  1  0  0  0  0
 27 32  1  0  0  0  0
 27 38  1  1  0  0  0
 28 29  1  0  0  0  0
 28 37  1  6  0  0  0
 29 30  1  0  0  0  0
 29 42  1  1  0  0  0
 30 31  1  1  0  0  0
 30 33  1  0  0  0  0
 32 33  1  0  0  0  0
 32 34  1  1  0  0  0
 34 41  1  0  0  0  0
M  CHG  6   4   1  13   1  19   1  35   1  41   1  42   1
M  END
>  <CHROM.1>
-171.55840938,78.30941185,34.79328608,69.64556883,62.47775251,30.84008248
141.76771673,114.08632712,84.55078842,-162.19791509,50.32537767,43.39786464
71.65606105,51.87315625,43.21103884,65.44771783,179.92573681,179.51111881
44.87564060,-125.61878289,147.36403142,-30.40031137,-5.03252777,-0.83811652
-3.84579624,0.54338253,0.69102132,-0.27100298

>  <Name>


>  <RI>
0

>  <Rbt.Current_Directory>
/home/itssahil/PROJECTS/Mol_Feturizer/New_Systems/rnas/1ei2

>  <Rbt.Executable>
rbdock ($Id: //depot/dev/client3/rdock/2013.1/src/exe/rbdock.cxx#4 $)

>  <Rbt.Library>
libRbt.so (2013.1, Build901 2013/11/27)

>  <Rbt.Parameter_File>
/export/apps/rDock/src/rDock_2013.1_src/data/scripts/dock_solv.prm

>  <Rbt.Receptor>
prm/blind_docking_40.prm

>  <SCORE>
-17.5321

>  <SCORE.INTER>
-23.8773

>  <SCORE.INTER.CONST>
1

>  <SCORE.INTER.POLAR>
-7.12512

>  <SCORE.INTER.ROT>
9

>  <SCORE.INTER.SOLV>
45.6799

>  <SCORE.INTER.VDW>
-16.9944

>  <SCORE.INTER.norm>
-0.568506

>  <SCORE.INTRA>
-1.20616

>  <SCORE.INTRA.DIHEDRAL>
-8.58678

>  <SCORE.INTRA.DIHEDRAL.0>
40.8761

>  <SCORE.INTRA.POLAR>
-1.56108

>  <SCORE.INTRA.POLAR.0>
-0.0268208

>  <SCORE.INTRA.REPUL>
-0.641615

>  <SCORE.INTRA.REPUL.0>
0.641615

>  <SCORE.INTRA.SOLV>
0.44866

>  <SCORE.INTRA.SOLV.lig_0>
-162.567

>  <SCORE.INTRA.VDW>
11.3786

>  <SCORE.INTRA.VDW.0>
-4.80338

>  <SCORE.INTRA.norm>
-0.028718

>  <SCORE.RESTR>
7.5513

>  <SCORE.RESTR.CAVITY>
7.5513

>  <SCORE.RESTR.norm>
0.179793

>  <SCORE.SYSTEM>
0

>  <SCORE.SYSTEM.CONST>
0

>  <SCORE.SYSTEM.DIHEDRAL>
0

>  <SCORE.SYSTEM.SOLV>
0

>  <SCORE.SYSTEM.norm>
0

>  <SCORE.heavy>
42

>  <SCORE.norm>
-0.417432

>  <RMSD>
8.975

$$$$

 OpenBabel11021811393D
libRbt.so/2013.1/901 2013/11/27
 42 45  0  0  0  0  0  0  0  0999 V2000
   -3.6799    0.7932   -5.9211 C   0  0  2  0  0  0  0  0  0  0  0  0
   -4.0268   -0.5248   -6.4467 O   0  0  0  0  0  0  0  0  0  0  0  0
   -4.8289    1.8271   -6.1554 C   0  0  2  0  0  0  0  0  0  0  0  0
   -6.0996    1.1593   -6.5193 N   0  3  0  0  0  0  0  0  0  0  0  0
   -4.4231    2.8626   -7.2472 C   0  0  1  0  0  0  0  0  0  0  0  0
   -5.4742    3.8058   -7.4446 O   0  0  0  0  0  0  0  0  0  0  0  0
   -3.1347    3.6358   -6.8578 C   0  0  2  0  0  0  0  0  0  0  0  0
   -2.6616    4.3401   -8.0005 O   0  0  0  0  0  0  0  0  0  0  0  0
   -2.0284    2.6656   -6.3304 C   0  0  2  0  0  0  0  0  0  0  0  0
   -2.4373    1.2746   -6.5386 O   0  0  0  0  0  0  0  0  0  0  0  0
   -1.7146    2.8090   -4.8234 C   0  0  0  0  0  0  0  0  0  0  0  0
   -2.6430   -4.6116   -6.3908 C   0  0  1  0  0  0  0  0  0  0  0  0
   -1.7820   -5.8153   -6.4053 N   0  3  0  0  0  0  0  0  0  0  0  0
   -2.4652   -3.8003   -5.0807 C   0  0  1  0  0  0  0  0  0  0  0  0
   -3.2389   -2.4360   -5.0719 C   0  0  1  0  0  0  0  0  0  0  0  0
   -2.7425   -1.6400   -3.9625 O   0  0  0  0  0  0  0  0  0  0  0  0
   -3.0362   -1.5965   -6.3865 C   0  0  1  0  0  0  0  0  0  0  0  0
   -3.1986   -2.4714   -7.6714 C   0  0  1  0  0  0  0  0  0  0  0  0
   -2.8630   -1.7216   -8.8990 N   0  3  0  0  0  0  0  0  0  0  0  0
   -2.3149   -3.7380   -7.6195 C   0  0  0  0  0  0  0  0  0  0  0  0
   -3.3265   -0.3314   -3.6992 C   0  0  1  0  0  0  0  0  0  0  0  0
   -4.8338   -0.4950   -3.5434 C   0  0  1  0  0  0  0  0  0  0  0  0
   -4.9007   -0.9862   -2.1037 C   0  0  1  0  0  0  0  0  0  0  0  0
   -3.8496   -0.0975   -1.4235 C   0  0  2  0  0  0  0  0  0  0  0  0
   -2.8542    0.1730   -2.4392 O   0  0  0  0  0  0  0  0  0  0  0  0
   -3.1931   -0.7677   -0.2033 C   0  0  0  0  0  0  0  0  0  0  0  0
   -9.8538   -1.5008   -0.4947 C   0  0  1  0  0  0  0  0  0  0  0  0
   -9.3730   -0.2428   -1.2703 C   0  0  1  0  0  0  0  0  0  0  0  0
   -8.5029   -0.5614   -2.5204 C   0  0  2  0  0  0  0  0  0  0  0  0
   -7.3220   -1.5183   -2.1573 C   0  0  1  0  0  0  0  0  0  0  0  0
   -6.2265   -0.7910   -1.5327 O   0  0  0  0  0  0  0  0  0  0  0  0
   -9.2148   -2.7943   -1.0853 C   0  0  1  0  0  0  0  0  0  0  0  0
   -7.7721   -2.5980   -1.2489 O   0  0  0  0  0  0  0  0  0  0  0  0
   -9.4633   -4.0382   -0.1937 C   0  0  0  0  0  0  0  0  0  0  0  0
   -2.5538    3.7931   -4.1172 N   0  3  0  0  0  0  0  0  0  0  0  0
   -5.4753    0.7715   -3.6947 O   0  0  0  0  0  0  0  0  0  0  0  0
  -10.5215    0.4923   -1.6909 O   0  0  0  0  0  0  0  0  0  0  0  0
   -9.4864   -1.3527    0.8786 O   0  0  0  0  0  0  0  0  0  0  0  0
   -2.9470   -2.1411   -0.4525 O   0  0  0  0  0  0  0  0  0  0  0  0
   -2.9252   -4.5914   -3.9853 O   0  0  0  0  0  0  0  0  0  0  0  0
   -9.6593   -5.2735   -0.9745 N   0  3  0  0  0  0  0  0  0  0  0  0
   -8.0459    0.6799   -3.1932 N   0  3  0  0  0  0  0  0  0  0  0  0
  1  2  1  6  0  0  0
  1  3  1  0  0  0  0
  1 10  1  0  0  0  0
  3  4  1  6  0  0  0
  3  5  1  0  0  0  0
  5  6  1  1  0  0  0
  5  7  1  0  0  0  0
  7  8  1  6  0  0  0
  7  9  1  0  0  0  0
  9 10  1  0  0  0  0
  9 11  1  1  0  0  0
 11 35  1  0  0  0  0
 12 13  1  1  0  0  0
 12 14  1  0  0  0  0
 12 20  1  0  0  0  0
 14 15  1  0  0  0  0
 14 40  1  1  0  0  0
 15 16  1  1  0  0  0
 15 17  1  0  0  0  0
 17  2  1  6  0  0  0
 17 18  1  0  0  0  0
 18 19  1  6  0  0  0
 18 20  1  0  0  0  0
 21 16  1  1  0  0  0
 21 22  1  0  0  0  0
 21 25  1  0  0  0  0
 22 23  1  0  0  0  0
 22 36  1  1  0  0  0
 23 24  1  0  0  0  0
 23 31  1  1  0  0  0
 24 25  1  0  0  0  0
 24 26  1  1  0  0  0
 26 39  1  0  0  0  0
 27 28  1  0  0  0  0
 27 32  1  0  0  0  0
 27 38  1  1  0  0  0
 28 29  1  0  0  0  0
 28 37  1  6  0  0  0
 29 30  1  0  0  0  0
 29 42  1  1  0  0  0
 30 31  1  1  0  0  0
 30 33  1  0  0  0  0
 32 33  1  0  0  0  0
 32 34  1  1  0  0  0
 34 41  1  0  0  0  0
M  CHG  6   4   1  13   1  19   1  35   1  41   1  42   1
M  END
>  <CHROM.1>
176.37208380,93.27061450,-33.00127081,-173.04247731,57.78076439,2.71568966
-44.70524747,45.45803699,-174.41628774,-178.09434258,54.77389089,93.10029692
-51.44058770,63.02842896,39.92412205,-51.50786847,53.49472597,-179.16515592
14.13823020,-128.28727946,144.44419855,-146.24853912,-4.95212055,-0.63494248
-4.06663970,0.53413622,0.70628837,-0.27016041

>  <Name>


>  <RI>
0

>  <Rbt.Current_Directory>
/home/itssahil/PROJECTS/Mol_Feturizer/New_Systems/rnas/1ei2

>  <Rbt.Executable>
rbdock ($Id: //depot/dev/client3/rdock/2013.1/src/exe/rbdock.cxx#4 $)

>  <Rbt.Library>
libRbt.so (2013.1, Build901 2013/11/27)

>  <Rbt.Parameter_File>
/export/apps/rDock/src/rDock_2013.1_src/data/scripts/dock_solv.prm

>  <Rbt.Receptor>
prm/blind_docking_60.prm

>  <SCORE>
-9.51163

>  <SCORE.INTER>
-11.5337

>  <SCORE.INTER.CONST>
1

>  <SCORE.INTER.POLAR>
-4.13552

>  <SCORE.INTER.ROT>
9

>  <SCORE.INTER.SOLV>
45.4195

>  <SCORE.INTER.VDW>
-18.6439

>  <SCORE.INTER.norm>
-0.274611

>  <SCORE.INTRA>
-4.52003

>  <SCORE.INTRA.DIHEDRAL>
-7.33798

>  <SCORE.INTRA.DIHEDRAL.0>
40.8761

>  <SCORE.INTRA.POLAR>
-1.52478

>  <SCORE.INTRA.POLAR.0>
-0.0268208

>  <SCORE.INTRA.REPUL>
-0.636001

>  <SCORE.INTRA.REPUL.0>
0.641615

>  <SCORE.INTRA.SOLV>
-2.39795

>  <SCORE.INTRA.SOLV.lig_0>
-162.567

>  <SCORE.INTRA.VDW>
8.71221

>  <SCORE.INTRA.VDW.0>
-4.80338

>  <SCORE.INTRA.norm>
-0.10762

>  <SCORE.RESTR>
6.54207

>  <SCORE.RESTR.CAVITY>
6.54207

>  <SCORE.RESTR.norm>
0.155764

>  <SCORE.SYSTEM>
0

>  <SCORE.SYSTEM.CONST>
0

>  <SCORE.SYSTEM.DIHEDRAL>
0

>  <SCORE.SYSTEM.SOLV>
0

>  <SCORE.SYSTEM.norm>
0

>  <SCORE.heavy>
42

>  <SCORE.norm>
-0.226467

>  <RMSD>
8.979

$$$$

 OpenBabel11021811393D
libRbt.so/2013.1/901 2013/11/27
 42 45  0  0  0  0  0  0  0  0999 V2000
   -3.8048    0.2890   -6.9297 C   0  0  2  0  0  0  0  0  0  0  0  0
   -4.7882    1.2033   -6.3547 O   0  0  0  0  0  0  0  0  0  0  0  0
   -3.8371    0.3171   -8.4924 C   0  0  2  0  0  0  0  0  0  0  0  0
   -4.5819    1.4909   -9.0029 N   0  3  0  0  0  0  0  0  0  0  0  0
   -4.4456   -1.0032   -9.0540 C   0  0  1  0  0  0  0  0  0  0  0  0
   -4.4604   -0.9700  -10.4795 O   0  0  0  0  0  0  0  0  0  0  0  0
   -3.6390   -2.2489   -8.5990 C   0  0  2  0  0  0  0  0  0  0  0  0
   -4.3971   -3.4168   -8.8937 O   0  0  0  0  0  0  0  0  0  0  0  0
   -3.3185   -2.1899   -7.0702 C   0  0  2  0  0  0  0  0  0  0  0  0
   -4.0400   -1.0780   -6.4469 O   0  0  0  0  0  0  0  0  0  0  0  0
   -1.8232   -1.9841   -6.7357 C   0  0  0  0  0  0  0  0  0  0  0  0
   -2.8541    4.0306   -3.7307 C   0  0  1  0  0  0  0  0  0  0  0  0
   -2.4824    4.8409   -2.5493 N   0  3  0  0  0  0  0  0  0  0  0  0
   -2.4846    2.5368   -3.5354 C   0  0  1  0  0  0  0  0  0  0  0  0
   -2.9898    1.6043   -4.6908 C   0  0  1  0  0  0  0  0  0  0  0  0
   -2.8760    0.2263   -4.2444 O   0  0  0  0  0  0  0  0  0  0  0  0
   -4.4929    1.8542   -5.0809 C   0  0  1  0  0  0  0  0  0  0  0  0
   -4.8128    3.3763   -5.2354 C   0  0  1  0  0  0  0  0  0  0  0  0
   -6.2530    3.6208   -5.4544 N   0  3  0  0  0  0  0  0  0  0  0  0
   -4.3658    4.1859   -3.9974 C   0  0  0  0  0  0  0  0  0  0  0  0
   -2.8581   -0.0674   -2.8174 C   0  0  1  0  0  0  0  0  0  0  0  0
   -4.2108    0.3122   -2.2267 C   0  0  1  0  0  0  0  0  0  0  0  0
   -5.0276   -0.9095   -2.6253 C   0  0  1  0  0  0  0  0  0  0  0  0
   -4.0316   -2.0479   -2.3619 C   0  0  2  0  0  0  0  0  0  0  0  0
   -2.7220   -1.4827   -2.6087 O   0  0  0  0  0  0  0  0  0  0  0  0
   -4.2608   -3.2703   -3.2689 C   0  0  0  0  0  0  0  0  0  0  0  0
   -9.8709   -1.4945   -0.6878 C   0  0  1  0  0  0  0  0  0  0  0  0
   -9.2560   -0.1715   -1.2236 C   0  0  1  0  0  0  0  0  0  0  0  0
   -8.4911   -0.3260   -2.5698 C   0  0  2  0  0  0  0  0  0  0  0  0
   -7.4376   -1.4775   -2.4916 C   0  0  1  0  0  0  0  0  0  0  0  0
   -6.2277   -1.0402   -1.8102 O   0  0  0  0  0  0  0  0  0  0  0  0
   -9.4398   -2.7042   -1.5716 C   0  0  1  0  0  0  0  0  0  0  0  0
   -7.9920   -2.6594   -1.7920 O   0  0  0  0  0  0  0  0  0  0  0  0
   -9.8178   -4.0669   -0.9359 C   0  0  0  0  0  0  0  0  0  0  0  0
   -1.5434   -1.7630   -5.3060 N   0  3  0  0  0  0  0  0  0  0  0  0
   -4.1026    0.4293   -0.8079 O   0  0  0  0  0  0  0  0  0  0  0  0
  -10.3102    0.7730   -1.4054 O   0  0  0  0  0  0  0  0  0  0  0  0
   -9.4290   -1.6855    0.6580 O   0  0  0  0  0  0  0  0  0  0  0  0
   -3.3871   -4.3300   -2.9191 O   0  0  0  0  0  0  0  0  0  0  0  0
   -1.0644    2.4234   -3.4471 O   0  0  0  0  0  0  0  0  0  0  0  0
   -9.1115   -4.3236    0.3327 N   0  3  0  0  0  0  0  0  0  0  0  0
   -7.8978    0.9621   -3.0069 N   0  3  0  0  0  0  0  0  0  0  0  0
  1  2  1  1  0  0  0
  1  3  1  0  0  0  0
  1 10  1  0  0  0  0
  3  4  1  1  0  0  0
  3  5  1  0  0  0  0
  5  6  1  6  0  0  0
  5  7  1  0  0  0  0
  7  8  1  1  0  0  0
  7  9  1  0  0  0  0
  9 10  1  0  0  0  0
  9 11  1  6  0  0  0
 11 35  1  0  0  0  0
 12 13  1  1  0  0  0
 12 14  1  0  0  0  0
 12 20  1  0  0  0  0
 14 15  1  0  0  0  0
 14 40  1  6  0  0  0
 15 16  1  1  0  0  0
 15 17  1  0  0  0  0
 17  2  1  6  0  0  0
 17 18  1  0  0  0  0
 18 19  1  1  0  0  0
 18 20  1  0  0  0  0
 21 16  1  6  0  0  0
 21 22  1  0  0  0  0
 21 25  1  0  0  0  0
 22 23  1  0  0  0  0
 22 36  1  1  0  0  0
 23 24  1  0  0  0  0
 23 31  1  1  0  0  0
 24 25  1  0  0  0  0
 24 26  1  6  0  0  0
 26 39  1  0  0  0  0
 27 28  1  0  0  0  0
 27 32  1  0  0  0  0
 27 38  1  1  0  0  0
 28 29  1  0  0  0  0
 28 37  1  6  0  0  0
 29 30  1  0  0  0  0
 29 42  1  1  0  0  0
 30 31  1  1  0  0  0
 30 33  1  0  0  0  0
 32 33  1  0  0  0  0
 32 34  1  1  0  0  0
 34 41  1  0  0  0  0
M  CHG  6   4   1  13   1  19   1  35   1  41   1  42   1
M  END
>  <CHROM.1>
-147.98604132,9.97058715,-60.43951637,-68.01728046,162.59269936,172.84937966
81.26021927,132.49087114,-162.89814848,23.20004481,65.37560211,-69.46260123
-146.81644712,140.83421461,-175.48191719,-169.84261413,88.77564741,84.16388202
173.32148540,-111.00054255,-64.33038201,172.01301620,-5.13239439,-0.29799145
-4.06491798,0.19657121,-0.85986515,-2.51749513

>  <Name>


>  <RI>
0

>  <Rbt.Current_Directory>
/home/itssahil/PROJECTS/Mol_Feturizer/New_Systems/rnas/1ei2

>  <Rbt.Executable>
rbdock ($Id: //depot/dev/client3/rdock/2013.1/src/exe/rbdock.cxx#4 $)

>  <Rbt.Library>
libRbt.so (2013.1, Build901 2013/11/27)

>  <Rbt.Parameter_File>
/export/apps/rDock/src/rDock_2013.1_src/data/scripts/dock_solv.prm

>  <Rbt.Receptor>
prm/blind_docking_80.prm

>  <SCORE>
7.4705

>  <SCORE.INTER>
2.7721

>  <SCORE.INTER.CONST>
1

>  <SCORE.INTER.POLAR>
-1.26021

>  <SCORE.INTER.ROT>
9

>  <SCORE.INTER.SOLV>
31.2127

>  <SCORE.INTER.VDW>
-13.9555

>  <SCORE.INTER.norm>
0.0660024

>  <SCORE.INTRA>
-7.07442

>  <SCORE.INTRA.DIHEDRAL>
5.57764

>  <SCORE.INTRA.DIHEDRAL.0>
40.8761

>  <SCORE.INTRA.POLAR>
-2.24998

>  <SCORE.INTRA.POLAR.0>
-0.0268208

>  <SCORE.INTRA.REPUL>
-0.641615

>  <SCORE.INTRA.REPUL.0>
0.641615

>  <SCORE.INTRA.SOLV>
0.357339

>  <SCORE.INTRA.SOLV.lig_0>
-162.567

>  <SCORE.INTRA.VDW>
0.8161

>  <SCORE.INTRA.VDW.0>
-4.80338

>  <SCORE.INTRA.norm>
-0.168439

>  <SCORE.RESTR>
11.7728

>  <SCORE.RESTR.CAVITY>
11.7728

>  <SCORE.RESTR.norm>
0.280305

>  <SCORE.SYSTEM>
0

>  <SCORE.SYSTEM.CONST>
0

>  <SCORE.SYSTEM.DIHEDRAL>
0

>  <SCORE.SYSTEM.SOLV>
0

>  <SCORE.SYSTEM.norm>
0

>  <SCORE.heavy>
42

>  <SCORE.norm>
0.177869

>  <RMSD>
8.979

$$$$

 OpenBabel11021811393D
libRbt.so/2013.1/901 2013/11/27
 42 45  0  0  0  0  0  0  0  0999 V2000
   -4.1636    0.9671   -5.9286 C   0  0  2  0  0  0  0  0  0  0  0  0
   -4.3668   -0.4074   -6.3791 O   0  0  0  0  0  0  0  0  0  0  0  0
   -5.2953    1.9149   -6.4431 C   0  0  2  0  0  0  0  0  0  0  0  0
   -6.4605    1.1521   -6.9467 N   0  3  0  0  0  0  0  0  0  0  0  0
   -4.7516    2.8735   -7.5451 C   0  0  1  0  0  0  0  0  0  0  0  0
   -5.7897    3.7394   -7.9990 O   0  0  0  0  0  0  0  0  0  0  0  0
   -3.5773    3.7443   -7.0234 C   0  0  2  0  0  0  0  0  0  0  0  0
   -2.9461    4.3727   -8.1335 O   0  0  0  0  0  0  0  0  0  0  0  0
   -2.5392    2.8827   -6.2339 C   0  0  2  0  0  0  0  0  0  0  0  0
   -2.8541    1.4593   -6.3761 O   0  0  0  0  0  0  0  0  0  0  0  0
   -2.4888    3.1706   -4.7158 C   0  0  0  0  0  0  0  0  0  0  0  0
   -2.3488   -4.1902   -6.8671 C   0  0  1  0  0  0  0  0  0  0  0  0
   -1.3077   -5.2273   -7.0431 N   0  3  0  0  0  0  0  0  0  0  0  0
   -2.2702   -3.5375   -5.4622 C   0  0  1  0  0  0  0  0  0  0  0  0
   -3.2509   -2.3285   -5.2710 C   0  0  1  0  0  0  0  0  0  0  0  0
   -2.8604   -1.6133   -4.0680 O   0  0  0  0  0  0  0  0  0  0  0  0
   -3.2169   -1.3041   -6.4642 C   0  0  1  0  0  0  0  0  0  0  0  0
   -3.2695   -2.0200   -7.8526 C   0  0  1  0  0  0  0  0  0  0  0  0
   -3.0880   -1.0733   -8.9718 N   0  3  0  0  0  0  0  0  0  0  0  0
   -2.1944   -3.1235   -7.9711 C   0  0  0  0  0  0  0  0  0  0  0  0
   -3.4679   -0.3229   -3.7702 C   0  0  1  0  0  0  0  0  0  0  0  0
   -4.9597   -0.5310   -3.5374 C   0  0  1  0  0  0  0  0  0  0  0  0
   -4.9377   -1.0269   -2.0979 C   0  0  1  0  0  0  0  0  0  0  0  0
   -3.8792   -0.1093   -1.4697 C   0  0  2  0  0  0  0  0  0  0  0  0
   -2.9459    0.1924   -2.5345 O   0  0  0  0  0  0  0  0  0  0  0  0
   -3.1411   -0.7626   -0.2875 C   0  0  0  0  0  0  0  0  0  0  0  0
   -9.8144   -1.6504   -0.3022 C   0  0  1  0  0  0  0  0  0  0  0  0
   -9.3716   -0.3544   -1.0368 C   0  0  1  0  0  0  0  0  0  0  0  0
   -8.5546   -0.6085   -2.3365 C   0  0  2  0  0  0  0  0  0  0  0  0
   -7.3559   -1.5749   -2.0699 C   0  0  1  0  0  0  0  0  0  0  0  0
   -6.2374   -0.8718   -1.4585 O   0  0  0  0  0  0  0  0  0  0  0  0
   -9.1965   -2.9108   -0.9802 C   0  0  1  0  0  0  0  0  0  0  0  0
   -7.7629   -2.6990   -1.1955 O   0  0  0  0  0  0  0  0  0  0  0  0
   -9.4022   -4.1969   -0.1391 C   0  0  0  0  0  0  0  0  0  0  0  0
   -2.8276    4.5564   -4.3468 N   0  3  0  0  0  0  0  0  0  0  0  0
   -5.6448    0.7165   -3.6508 O   0  0  0  0  0  0  0  0  0  0  0  0
  -10.5397    0.3934   -1.3728 O   0  0  0  0  0  0  0  0  0  0  0  0
   -9.3892   -1.5654    1.0598 O   0  0  0  0  0  0  0  0  0  0  0  0
   -3.1356   -2.1743   -0.4131 O   0  0  0  0  0  0  0  0  0  0  0  0
   -2.5712   -4.5275   -4.4790 O   0  0  0  0  0  0  0  0  0  0  0  0
   -9.6079   -5.3982   -0.9690 N   0  3  0  0  0  0  0  0  0  0  0  0
   -8.1313    0.6658   -2.9683 N   0  3  0  0  0  0  0  0  0  0  0  0
  1  2  1  6  0  0  0
  1  3  1  0  0  0  0
  1 10  1  0  0  0  0
  3  4  1  6  0  0  0
  3  5  1  0  0  0  0
  5  6  1  1  0  0  0
  5  7  1  0  0  0  0
  7  8  1  6  0  0  0
  7  9  1  0  0  0  0
  9 10  1  0  0  0  0
  9 11  1  1  0  0  0
 11 35  1  0  0  0  0
 12 13  1  1  0  0  0
 12 14  1  0  0  0  0
 12 20  1  0  0  0  0
 14 15  1  0  0  0  0
 14 40  1  1  0  0  0
 15 16  1  1  0  0  0
 15 17  1  0  0  0  0
 17  2  1  1  0  0  0
 17 18  1  0  0  0  0
 18 19  1  6  0  0  0
 18 20  1  0  0  0  0
 21 16  1  1  0  0  0
 21 22  1  0  0  0  0
 21 25  1  0  0  0  0
 22 23  1  0  0  0  0
 22 36  1  1  0  0  0
 23 24  1  0  0  0  0
 23 31  1  1  0  0  0
 24 25  1  0  0  0  0
 24 26  1  1  0  0  0
 26 39  1  0  0  0  0
 27 28  1  0  0  0  0
 27 32  1  0  0  0  0
 27 38  1  1  0  0  0
 28 29  1  0  0  0  0
 28 37  1  6  0  0  0
 29 30  1  0  0  0  0
 29 42  1  1  0  0  0
 30 31  1  1  0  0  0
 30 33  1  0  0  0  0
 32 33  1  0  0  0  0
 32 34  1  1  0  0  0
 34 41  1  0  0  0  0
M  CHG  6   4   1  13   1  19   1  35   1  41   1  42   1
M  END
>  <CHROM.1>
156.29633294,105.32084061,-68.75527510,-172.46098889,-65.61901873,-30.16259149
36.46190299,164.04087370,-58.07993373,170.16566617,64.05662576,92.98534279
-38.72980283,59.94032383,26.66667694,83.94735457,84.92402237,161.68910458
-78.81034849,-127.98647287,145.26134221,-30.33366793,-5.06149182,-0.54126508
-4.14533451,0.60389436,0.73042726,-0.34316702

>  <Name>


>  <RI>
0

>  <Rbt.Current_Directory>
/home/itssahil/PROJECTS/Mol_Feturizer/New_Systems/rnas/1ei2

>  <Rbt.Executable>
rbdock ($Id: //depot/dev/client3/rdock/2013.1/src/exe/rbdock.cxx#4 $)

>  <Rbt.Library>
libRbt.so (2013.1, Build901 2013/11/27)

>  <Rbt.Parameter_File>
/export/apps/rDock/src/rDock_2013.1_src/data/scripts/dock_solv.prm

>  <Rbt.Receptor>
prm/blind_docking_80.prm

>  <SCORE>
-12.7128

>  <SCORE.INTER>
-19.0801

>  <SCORE.INTER.CONST>
1

>  <SCORE.INTER.POLAR>
-6.52661

>  <SCORE.INTER.ROT>
9

>  <SCORE.INTER.SOLV>
46.5561

>  <SCORE.INTER.VDW>
-16.0834

>  <SCORE.INTER.norm>
-0.454289

>  <SCORE.INTRA>
-3.30414

>  <SCORE.INTRA.DIHEDRAL>
0.435187

>  <SCORE.INTRA.DIHEDRAL.0>
40.8761

>  <SCORE.INTRA.POLAR>
-0.854267

>  <SCORE.INTRA.POLAR.0>
-0.0268208

>  <SCORE.INTRA.REPUL>
-0.615449

>  <SCORE.INTRA.REPUL.0>
0.641615

>  <SCORE.INTRA.SOLV>
-5.8052

>  <SCORE.INTRA.SOLV.lig_0>
-162.567

>  <SCORE.INTRA.VDW>
5.36262

>  <SCORE.INTRA.VDW.0>
-4.80338

>  <SCORE.INTRA.norm>
-0.07867

>  <SCORE.RESTR>
9.67147

>  <SCORE.RESTR.CAVITY>
9.67147

>  <SCORE.RESTR.norm>
0.230273

>  <SCORE.SYSTEM>
0

>  <SCORE.SYSTEM.CONST>
0

>  <SCORE.SYSTEM.DIHEDRAL>
0

>  <SCORE.SYSTEM.SOLV>
0

>  <SCORE.SYSTEM.norm>
0

>  <SCORE.heavy>
42

>  <SCORE.norm>
-0.302685

>  <RMSD>
8.979

$$$$

 OpenBabel11021811393D
libRbt.so/2013.1/901 2013/11/27
 42 45  0  0  0  0  0  0  0  0999 V2000
   -3.7062    0.2583   -5.7754 C   0  0  2  0  0  0  0  0  0  0  0  0
   -3.8667   -1.0135   -6.4757 O   0  0  0  0  0  0  0  0  0  0  0  0
   -4.8259    1.2766   -6.1671 C   0  0  2  0  0  0  0  0  0  0  0  0
   -5.9537    0.6102   -6.8579 N   0  3  0  0  0  0  0  0  0  0  0  0
   -4.2439    2.4217   -7.0497 C   0  0  1  0  0  0  0  0  0  0  0  0
   -5.2717    3.3490   -7.3919 O   0  0  0  0  0  0  0  0  0  0  0  0
   -3.1095    3.1910   -6.3213 C   0  0  2  0  0  0  0  0  0  0  0  0
   -2.4347    4.0133   -7.2669 O   0  0  0  0  0  0  0  0  0  0  0  0
   -2.0980    2.2072   -5.6486 C   0  0  2  0  0  0  0  0  0  0  0  0
   -2.3841    0.8311   -6.0605 O   0  0  0  0  0  0  0  0  0  0  0  0
   -2.1254    2.2166   -4.1029 C   0  0  0  0  0  0  0  0  0  0  0  0
   -2.7621   -5.1078   -5.6779 C   0  0  1  0  0  0  0  0  0  0  0  0
   -1.9832   -6.3426   -5.4349 N   0  3  0  0  0  0  0  0  0  0  0  0
   -2.6310   -4.1105   -4.4971 C   0  0  1  0  0  0  0  0  0  0  0  0
   -3.3121   -2.7229   -4.7628 C   0  0  1  0  0  0  0  0  0  0  0  0
   -2.8499   -1.7892   -3.7501 O   0  0  0  0  0  0  0  0  0  0  0  0
   -2.9558   -2.1132   -6.1684 C   0  0  1  0  0  0  0  0  0  0  0  0
   -3.0777   -3.1701   -7.3134 C   0  0  1  0  0  0  0  0  0  0  0  0
   -2.6017   -2.6422   -8.6083 N   0  3  0  0  0  0  0  0  0  0  0  0
   -2.2854   -4.4576   -6.9935 C   0  0  0  0  0  0  0  0  0  0  0  0
   -3.4958   -0.4894   -3.6230 C   0  0  1  0  0  0  0  0  0  0  0  0
   -4.9927   -0.7074   -3.4367 C   0  0  1  0  0  0  0  0  0  0  0  0
   -5.0299   -1.0439   -1.9522 C   0  0  1  0  0  0  0  0  0  0  0  0
   -4.0205   -0.0381   -1.3807 C   0  0  2  0  0  0  0  0  0  0  0  0
   -3.0435    0.1693   -2.4286 O   0  0  0  0  0  0  0  0  0  0  0  0
   -3.3273   -0.5413   -0.1018 C   0  0  0  0  0  0  0  0  0  0  0  0
   -9.9723   -1.6577   -0.3681 C   0  0  1  0  0  0  0  0  0  0  0  0
   -9.5112   -0.3542   -1.0777 C   0  0  1  0  0  0  0  0  0  0  0  0
   -8.6480   -0.5947   -2.3498 C   0  0  2  0  0  0  0  0  0  0  0  0
   -7.4541   -1.5567   -2.0483 C   0  0  1  0  0  0  0  0  0  0  0  0
   -6.3614   -0.8523   -1.3932 O   0  0  0  0  0  0  0  0  0  0  0  0
   -9.3243   -2.9100   -1.0330 C   0  0  1  0  0  0  0  0  0  0  0  0
   -7.8852   -2.6892   -1.1966 O   0  0  0  0  0  0  0  0  0  0  0  0
   -9.5523   -4.2033   -0.2086 C   0  0  0  0  0  0  0  0  0  0  0  0
   -2.2475    3.5572   -3.5037 N   0  3  0  0  0  0  0  0  0  0  0  0
   -5.6956    0.5034   -3.7168 O   0  0  0  0  0  0  0  0  0  0  0  0
  -10.6709    0.3899   -1.4491 O   0  0  0  0  0  0  0  0  0  0  0  0
   -9.5954   -1.5804    1.0084 O   0  0  0  0  0  0  0  0  0  0  0  0
   -2.8159    0.5420    0.6555 O   0  0  0  0  0  0  0  0  0  0  0  0
   -3.2235   -4.6933   -3.3366 O   0  0  0  0  0  0  0  0  0  0  0  0
   -9.5869   -5.4175   -1.0444 N   0  3  0  0  0  0  0  0  0  0  0  0
   -8.2097    0.6863   -2.9574 N   0  3  0  0  0  0  0  0  0  0  0  0
  1  2  1  6  0  0  0
  1  3  1  0  0  0  0
  1 10  1  0  0  0  0
  3  4  1  6  0  0  0
  3  5  1  0  0  0  0
  5  6  1  1  0  0  0
  5  7  1  0  0  0  0
  7  8  1  6  0  0  0
  7  9  1  0  0  0  0
  9 10  1  0  0  0  0
  9 11  1  1  0  0  0
 11 35  1  0  0  0  0
 12 13  1  1  0  0  0
 12 14  1  0  0  0  0
 12 20  1  0  0  0  0
 14 15  1  0  0  0  0
 14 40  1  1  0  0  0
 15 16  1  1  0  0  0
 15 17  1  0  0  0  0
 17  2  1  6  0  0  0
 17 18  1  0  0  0  0
 18 19  1  6  0  0  0
 18 20  1  0  0  0  0
 21 16  1  1  0  0  0
 21 22  1  0  0  0  0
 21 25  1  0  0  0  0
 22 23  1  0  0  0  0
 22 36  1  1  0  0  0
 23 24  1  0  0  0  0
 23 31  1  1  0  0  0
 24 25  1  0  0  0  0
 24 26  1  1  0  0  0
 26 39  1  0  0  0  0
 27 28  1  0  0  0  0
 27 32  1  0  0  0  0
 27 38  1  1  0  0  0
 28 29  1  0  0  0  0
 28 37  1  6  0  0  0
 29 30  1  0  0  0  0
 29 42  1  1  0  0  0
 30 31  1  1  0  0  0
 30 33  1  0  0  0  0
 32 33  1  0  0  0  0
 32 34  1  1  0  0  0
 34 41  1  0  0  0  0
M  CHG  6   4   1  13   1  19   1  35   1  41   1  42   1
M  END
>  <CHROM.1>
-176.24058992,73.70889032,-38.36122170,62.42298935,143.64391049,-41.25171379
-34.58343130,94.67374318,88.93681817,-169.63814701,54.72864620,172.33746693
-51.47757822,54.81271177,-158.03931887,161.61514973,174.93829963,171.30272872
-80.60704206,-130.64845134,151.03819288,-29.58878375,-4.99178467,-0.84774332
-3.78048784,0.35125445,0.72435882,-0.09550496

>  <Name>


>  <RI>
0

>  <Rbt.Current_Directory>
/home/itssahil/PROJECTS/Mol_Feturizer/New_Systems/rnas/1ei2

>  <Rbt.Executable>
rbdock ($Id: //depot/dev/client3/rdock/2013.1/src/exe/rbdock.cxx#4 $)

>  <Rbt.Library>
libRbt.so (2013.1, Build901 2013/11/27)

>  <Rbt.Parameter_File>
/export/apps/rDock/src/rDock_2013.1_src/data/scripts/dock_solv.prm

>  <Rbt.Receptor>
prm/blind_docking_40.prm

>  <SCORE>
-20.0405

>  <SCORE.INTER>
-27.6219

>  <SCORE.INTER.CONST>
1

>  <SCORE.INTER.POLAR>
-7.34154

>  <SCORE.INTER.ROT>
9

>  <SCORE.INTER.SOLV>
47.8839

>  <SCORE.INTER.VDW>
-19.5041

>  <SCORE.INTER.norm>
-0.657663

>  <SCORE.INTRA>
-0.327445

>  <SCORE.INTRA.DIHEDRAL>
-8.04767

>  <SCORE.INTRA.DIHEDRAL.0>
40.8761

>  <SCORE.INTRA.POLAR>
-1.25776

>  <SCORE.INTRA.POLAR.0>
-0.0268208

>  <SCORE.INTRA.REPUL>
-0.641615

>  <SCORE.INTRA.REPUL.0>
0.641615

>  <SCORE.INTRA.SOLV>
-7.33877

>  <SCORE.INTRA.SOLV.lig_0>
-162.567

>  <SCORE.INTRA.VDW>
14.8502

>  <SCORE.INTRA.VDW.0>
-4.80338

>  <SCORE.INTRA.norm>
-0.00779631

>  <SCORE.RESTR>
7.90876

>  <SCORE.RESTR.CAVITY>
7.90876

>  <SCORE.RESTR.norm>
0.188304

>  <SCORE.SYSTEM>
0

>  <SCORE.SYSTEM.CONST>
0

>  <SCORE.SYSTEM.DIHEDRAL>
0

>  <SCORE.SYSTEM.SOLV>
0

>  <SCORE.SYSTEM.norm>
0

>  <SCORE.heavy>
42

>  <SCORE.norm>
-0.477156

>  <RMSD>
8.980

$$$$

 OpenBabel11021811393D
libRbt.so/2013.1/901 2013/11/27
 42 45  0  0  0  0  0  0  0  0999 V2000
   -2.8766   -0.1479   -6.8520 C   0  0  2  0  0  0  0  0  0  0  0  0
   -1.9484   -0.3281   -5.7387 O   0  0  0  0  0  0  0  0  0  0  0  0
   -3.2845    1.3513   -7.0248 C   0  0  2  0  0  0  0  0  0  0  0  0
   -2.3829    2.2535   -6.2723 N   0  3  0  0  0  0  0  0  0  0  0  0
   -4.7652    1.5721   -6.5914 C   0  0  1  0  0  0  0  0  0  0  0  0
   -5.1285    2.9403   -6.7630 O   0  0  0  0  0  0  0  0  0  0  0  0
   -5.7443    0.6955   -7.4174 C   0  0  2  0  0  0  0  0  0  0  0  0
   -7.0216    0.7220   -6.7900 O   0  0  0  0  0  0  0  0  0  0  0  0
   -5.2321   -0.7771   -7.5278 C   0  0  2  0  0  0  0  0  0  0  0  0
   -4.0742   -0.9746   -6.6529 O   0  0  0  0  0  0  0  0  0  0  0  0
   -4.7851   -1.1961   -8.9473 C   0  0  0  0  0  0  0  0  0  0  0  0
   -2.1293   -4.6393   -5.7552 C   0  0  1  0  0  0  0  0  0  0  0  0
   -1.9186   -6.0666   -5.4253 N   0  3  0  0  0  0  0  0  0  0  0  0
   -2.9438   -3.9144   -4.6519 C   0  0  1  0  0  0  0  0  0  0  0  0
   -3.0700   -2.3667   -4.8731 C   0  0  1  0  0  0  0  0  0  0  0  0
   -3.5549   -1.7702   -3.6402 O   0  0  0  0  0  0  0  0  0  0  0  0
   -1.7031   -1.6749   -5.2295 C   0  0  1  0  0  0  0  0  0  0  0  0
   -0.9147   -2.4644   -6.3241 C   0  0  1  0  0  0  0  0  0  0  0  0
    0.4315   -1.9011   -6.5526 N   0  3  0  0  0  0  0  0  0  0  0  0
   -0.7600   -3.9573   -5.9562 C   0  0  0  0  0  0  0  0  0  0  0  0
   -3.9144   -0.3585   -3.6179 C   0  0  1  0  0  0  0  0  0  0  0  0
   -5.4316   -0.2426   -3.7044 C   0  0  1  0  0  0  0  0  0  0  0  0
   -5.8027   -0.5190   -2.2538 C   0  0  1  0  0  0  0  0  0  0  0  0
   -4.7157    0.2617   -1.5013 C   0  0  2  0  0  0  0  0  0  0  0  0
   -3.5477    0.2221   -2.3556 O   0  0  0  0  0  0  0  0  0  0  0  0
   -4.3856   -0.3413   -0.1241 C   0  0  0  0  0  0  0  0  0  0  0  0
  -10.0612   -1.4968    0.0688 C   0  0  1  0  0  0  0  0  0  0  0  0
  -10.0637   -0.1114   -0.6357 C   0  0  1  0  0  0  0  0  0  0  0  0
   -9.6195   -0.1559   -2.1262 C   0  0  2  0  0  0  0  0  0  0  0  0
   -8.2531   -0.8971   -2.2862 C   0  0  1  0  0  0  0  0  0  0  0  0
   -7.1378   -0.0280   -1.9399 O   0  0  0  0  0  0  0  0  0  0  0  0
   -9.4638   -2.5927   -0.8652 C   0  0  1  0  0  0  0  0  0  0  0  0
   -8.2052   -2.1130   -1.4419 O   0  0  0  0  0  0  0  0  0  0  0  0
   -9.2087   -3.9295   -0.1224 C   0  0  0  0  0  0  0  0  0  0  0  0
   -5.8929   -1.4440   -9.8867 N   0  3  0  0  0  0  0  0  0  0  0  0
   -5.7934    1.0826   -4.0938 O   0  0  0  0  0  0  0  0  0  0  0  0
  -11.3851    0.4236   -0.5707 O   0  0  0  0  0  0  0  0  0  0  0  0
   -9.2865   -1.3938    1.2655 O   0  0  0  0  0  0  0  0  0  0  0  0
   -3.6277   -1.5310   -0.2617 O   0  0  0  0  0  0  0  0  0  0  0  0
   -4.2553   -4.4759   -4.6063 O   0  0  0  0  0  0  0  0  0  0  0  0
   -9.6436   -5.1073   -0.8956 N   0  3  0  0  0  0  0  0  0  0  0  0
   -9.6075    1.2001   -2.7288 N   0  3  0  0  0  0  0  0  0  0  0  0
  1  2  1  1  0  0  0
  1  3  1  0  0  0  0
  1 10  1  0  0  0  0
  3  4  1  1  0  0  0
  3  5  1  0  0  0  0
  5  6  1  6  0  0  0
  5  7  1  0  0  0  0
  7  8  1  1  0  0  0
  7  9  1  0  0  0  0
  9 10  1  0  0  0  0
  9 11  1  6  0  0  0
 11 35  1  0  0  0  0
 12 13  1  1  0  0  0
 12 14  1  0  0  0  0
 12 20  1  0  0  0  0
 14 15  1  0  0  0  0
 14 40  1  6  0  0  0
 15 16  1  1  0  0  0
 15 17  1  0  0  0  0
 17  2  1  6  0  0  0
 17 18  1  0  0  0  0
 18 19  1  1  0  0  0
 18 20  1  0  0  0  0
 21 16  1  1  0  0  0
 21 22  1  0  0  0  0
 21 25  1  0  0  0  0
 22 23  1  0  0  0  0
 22 36  1  1  0  0  0
 23 24  1  0  0  0  0
 23 31  1  1  0  0  0
 24 25  1  0  0  0  0
 24 26  1  1  0  0  0
 26 39  1  0  0  0  0
 27 28  1  0  0  0  0
 27 32  1  0  0  0  0
 27 38  1  1  0  0  0
 28 29  1  0  0  0  0
 28 37  1  6  0  0  0
 29 30  1  0  0  0  0
 29 42  1  1  0  0  0
 30 31  1  1  0  0  0
 30 33  1  0  0  0  0
 32 33  1  0  0  0  0
 32 34  1  1  0  0  0
 34 41  1  0  0  0  0
M  CHG  6   4   1  13   1  19   1  35   1  41   1  42   1
M  END
>  <CHROM.1>
165.79297338,-53.42905196,102.99395329,-64.92813686,-176.03175393,-74.99865978
-35.74097391,77.53094233,-98.93412257,-172.72885883,101.06439585,143.78136158
-179.83284538,83.30811784,74.11803206,62.07488752,53.31904333,36.03997583
-34.03108593,-170.20529891,136.15697342,-7.32066465,-5.33481446,-1.09208695
-4.03410641,0.45286180,0.58392910,-0.75591995

>  <Name>


>  <RI>
0

>  <Rbt.Current_Directory>
/home/itssahil/PROJECTS/Mol_Feturizer/New_Systems/rnas/1ei2

>  <Rbt.Executable>
rbdock ($Id: //depot/dev/client3/rdock/2013.1/src/exe/rbdock.cxx#4 $)

>  <Rbt.Library>
libRbt.so (2013.1, Build901 2013/11/27)

>  <Rbt.Parameter_File>
/export/apps/rDock/src/rDock_2013.1_src/data/scripts/dock_solv.prm

>  <Rbt.Receptor>
prm/blind_docking_100.prm

>  <SCORE>
33.44

>  <SCORE.INTER>
29.6044

>  <SCORE.INTER.CONST>
1

>  <SCORE.INTER.POLAR>
-7.87245

>  <SCORE.INTER.ROT>
9

>  <SCORE.INTER.SOLV>
60.2357

>  <SCORE.INTER.VDW>
16.2992

>  <SCORE.INTER.norm>
0.704866

>  <SCORE.INTRA>
-8.69584

>  <SCORE.INTRA.DIHEDRAL>
-4.09868

>  <SCORE.INTRA.DIHEDRAL.0>
40.8761

>  <SCORE.INTRA.POLAR>
-0.468191

>  <SCORE.INTRA.POLAR.0>
-0.0268208

>  <SCORE.INTRA.REPUL>
-0.623181

>  <SCORE.INTRA.REPUL.0>
0.641615

>  <SCORE.INTRA.SOLV>
-12.1556

>  <SCORE.INTRA.SOLV.lig_0>
-162.567

>  <SCORE.INTRA.VDW>
4.13905

>  <SCORE.INTRA.VDW.0>
-4.80338

>  <SCORE.INTRA.norm>
-0.207044

>  <SCORE.RESTR>
12.5315

>  <SCORE.RESTR.CAVITY>
12.5315

>  <SCORE.RESTR.norm>
0.298368

>  <SCORE.SYSTEM>
0

>  <SCORE.SYSTEM.CONST>
0

>  <SCORE.SYSTEM.DIHEDRAL>
0

>  <SCORE.SYSTEM.SOLV>
0

>  <SCORE.SYSTEM.norm>
0

>  <SCORE.heavy>
42

>  <SCORE.norm>
0.796191

>  <RMSD>
8.986

$$$$

 OpenBabel11021811393D
libRbt.so/2013.1/901 2013/11/27
 42 45  0  0  0  0  0  0  0  0999 V2000
   -3.3656    1.5354   -4.7453 C   0  0  2  0  0  0  0  0  0  0  0  0
   -3.2319    0.5568   -5.8215 O   0  0  0  0  0  0  0  0  0  0  0  0
   -4.3980    2.6520   -5.1075 C   0  0  2  0  0  0  0  0  0  0  0  0
   -5.2351    2.2675   -6.2670 N   0  3  0  0  0  0  0  0  0  0  0  0
   -3.6728    4.0041   -5.3810 C   0  0  1  0  0  0  0  0  0  0  0  0
   -4.6249    5.0166   -5.7001 O   0  0  0  0  0  0  0  0  0  0  0  0
   -2.8472    4.4740   -4.1534 C   0  0  2  0  0  0  0  0  0  0  0  0
   -1.9927    5.5380   -4.5576 O   0  0  0  0  0  0  0  0  0  0  0  0
   -2.0000    3.3033   -3.5577 C   0  0  2  0  0  0  0  0  0  0  0  0
   -2.0606    2.1370   -4.4417 O   0  0  0  0  0  0  0  0  0  0  0  0
   -2.4633    2.8209   -2.1638 C   0  0  0  0  0  0  0  0  0  0  0  0
   -1.5487   -3.2966   -6.7899 C   0  0  1  0  0  0  0  0  0  0  0  0
   -0.8277   -4.5868   -6.7121 N   0  3  0  0  0  0  0  0  0  0  0  0
   -2.8149   -3.2973   -5.8938 C   0  0  1  0  0  0  0  0  0  0  0  0
   -3.5370   -1.9070   -5.8185 C   0  0  1  0  0  0  0  0  0  0  0  0
   -4.4876   -1.9483   -4.7206 O   0  0  0  0  0  0  0  0  0  0  0  0
   -2.5542   -0.7084   -5.5506 C   0  0  1  0  0  0  0  0  0  0  0  0
   -1.2854   -0.7765   -6.4607 C   0  0  1  0  0  0  0  0  0  0  0  0
   -0.2942    0.2605   -6.1086 N   0  3  0  0  0  0  0  0  0  0  0  0
   -0.5939   -2.1561   -6.3801 C   0  0  0  0  0  0  0  0  0  0  0  0
   -4.6982   -0.7578   -3.9075 C   0  0  1  0  0  0  0  0  0  0  0  0
   -6.1175   -0.7935   -3.3531 C   0  0  1  0  0  0  0  0  0  0  0  0
   -5.9220   -1.7472   -2.1823 C   0  0  1  0  0  0  0  0  0  0  0  0
   -4.5711   -1.2787   -1.6228 C   0  0  2  0  0  0  0  0  0  0  0  0
   -3.8292   -0.7841   -2.7633 O   0  0  0  0  0  0  0  0  0  0  0  0
   -3.7848   -2.4041   -0.9267 C   0  0  0  0  0  0  0  0  0  0  0  0
   -9.7267   -3.5078    0.7147 C   0  0  1  0  0  0  0  0  0  0  0  0
   -9.5930   -1.9614    0.6364 C   0  0  1  0  0  0  0  0  0  0  0  0
   -9.4426   -1.4093   -0.8106 C   0  0  2  0  0  0  0  0  0  0  0  0
   -8.2943   -2.1408   -1.5775 C   0  0  1  0  0  0  0  0  0  0  0  0
   -6.9900   -1.6155   -1.2005 O   0  0  0  0  0  0  0  0  0  0  0  0
   -9.5279   -4.1534   -0.6902 C   0  0  1  0  0  0  0  0  0  0  0  0
   -8.3266   -3.5989   -1.3195 O   0  0  0  0  0  0  0  0  0  0  0  0
   -9.4018   -5.6972   -0.6203 C   0  0  0  0  0  0  0  0  0  0  0  0
   -2.7436    3.9049   -1.2059 N   0  3  0  0  0  0  0  0  0  0  0  0
   -6.4955    0.5097   -2.9091 O   0  0  0  0  0  0  0  0  0  0  0  0
  -10.7543   -1.3791    1.2269 O   0  0  0  0  0  0  0  0  0  0  0  0
   -8.7429   -4.0007    1.6270 O   0  0  0  0  0  0  0  0  0  0  0  0
   -2.9191   -3.0556   -1.8402 O   0  0  0  0  0  0  0  0  0  0  0  0
   -3.7363   -4.2616   -6.4024 O   0  0  0  0  0  0  0  0  0  0  0  0
   -9.8267   -6.3643   -1.8647 N   0  3  0  0  0  0  0  0  0  0  0  0
   -9.2821    0.0660   -0.8138 N   0  3  0  0  0  0  0  0  0  0  0  0
  1  2  1  6  0  0  0
  1  3  1  0  0  0  0
  1 10  1  0  0  0  0
  3  4  1  6  0  0  0
  3  5  1  0  0  0  0
  5  6  1  1  0  0  0
  5  7  1  0  0  0  0
  7  8  1  6  0  0  0
  7  9  1  0  0  0  0
  9 10  1  0  0  0  0
  9 11  1  1  0  0  0
 11 35  1  0  0  0  0
 12 13  1  1  0  0  0
 12 14  1  0  0  0  0
 12 20  1  0  0  0  0
 14 15  1  0  0  0  0
 14 40  1  6  0  0  0
 15 16  1  1  0  0  0
 15 17  1  0  0  0  0
 17  2  1  6  0  0  0
 17 18  1  0  0  0  0
 18 19  1  1  0  0  0
 18 20  1  0  0  0  0
 21 16  1  6  0  0  0
 21 22  1  0  0  0  0
 21 25  1  0  0  0  0
 22 23  1  0  0  0  0
 22 36  1  1  0  0  0
 23 24  1  0  0  0  0
 23 31  1  1  0  0  0
 24 25  1  0  0  0  0
 24 26  1  6  0  0  0
 26 39  1  0  0  0  0
 27 28  1  0  0  0  0
 27 32  1  0  0  0  0
 27 38  1  1  0  0  0
 28 29  1  0  0  0  0
 28 37  1  6  0  0  0
 29 30  1  0  0  0  0
 29 42  1  1  0  0  0
 30 31  1  1  0  0  0
 30 33  1  0  0  0  0
 32 33  1  0  0  0  0
 32 34  1  1  0  0  0
 34 41  1  0  0  0  0
M  CHG  6   4   1  13   1  19   1  35   1  41   1  42   1
M  END
>  <CHROM.1>
-166.21511337,120.24517091,-153.70084990,70.32923073,72.62788520,-45.76030080
73.05992344,59.53737638,75.40099714,143.41639198,151.94885125,-137.59806574
66.69265591,72.23575239,91.52190296,-179.45067150,173.81469772,77.65793655
-169.52787258,-154.11001595,153.60469922,-144.59230264,-4.97427249,-0.71749405
-3.27687153,0.46025758,0.68351863,0.12609541

>  <Name>


>  <RI>
0

>  <Rbt.Current_Directory>
/home/itssahil/PROJECTS/Mol_Feturizer/New_Systems/rnas/1ei2

>  <Rbt.Executable>
rbdock ($Id: //depot/dev/client3/rdock/2013.1/src/exe/rbdock.cxx#4 $)

>  <Rbt.Library>
libRbt.so (2013.1, Build901 2013/11/27)

>  <Rbt.Parameter_File>
/export/apps/rDock/src/rDock_2013.1_src/data/scripts/dock_solv.prm

>  <Rbt.Receptor>
prm/blind_docking_100.prm

>  <SCORE>
70.4063

>  <SCORE.INTER>
73.5482

>  <SCORE.INTER.CONST>
1

>  <SCORE.INTER.POLAR>
-6.26041

>  <SCORE.INTER.ROT>
9

>  <SCORE.INTER.SOLV>
63.9933

>  <SCORE.INTER.VDW>
38.9691

>  <SCORE.INTER.norm>
1.75115

>  <SCORE.INTRA>
-11.6523

>  <SCORE.INTRA.DIHEDRAL>
-2.86528

>  <SCORE.INTRA.DIHEDRAL.0>
40.8761

>  <SCORE.INTRA.POLAR>
-1.42608

>  <SCORE.INTRA.POLAR.0>
-0.0268208

>  <SCORE.INTRA.REPUL>
-0.547966

>  <SCORE.INTRA.REPUL.0>
0.641615

>  <SCORE.INTRA.SOLV>
-9.77866

>  <SCORE.INTRA.SOLV.lig_0>
-162.567

>  <SCORE.INTRA.VDW>
2.25812

>  <SCORE.INTRA.VDW.0>
-4.80338

>  <SCORE.INTRA.norm>
-0.277437

>  <SCORE.RESTR>
8.51042

>  <SCORE.RESTR.CAVITY>
8.51042

>  <SCORE.RESTR.norm>
0.202629

>  <SCORE.SYSTEM>
0

>  <SCORE.SYSTEM.CONST>
0

>  <SCORE.SYSTEM.DIHEDRAL>
0

>  <SCORE.SYSTEM.SOLV>
0

>  <SCORE.SYSTEM.norm>
0

>  <SCORE.heavy>
42

>  <SCORE.norm>
1.67634

>  <RMSD>
8.987

$$$$

 OpenBabel11021811393D
libRbt.so/2013.1/901 2013/11/27
 42 45  0  0  0  0  0  0  0  0999 V2000
   -3.0458    1.4623   -4.7090 C   0  0  2  0  0  0  0  0  0  0  0  0
   -2.9764    0.5006   -5.8063 O   0  0  0  0  0  0  0  0  0  0  0  0
   -4.3344    2.3431   -4.7959 C   0  0  2  0  0  0  0  0  0  0  0  0
   -5.3263    1.7699   -5.7343 N   0  3  0  0  0  0  0  0  0  0  0  0
   -3.9759    3.8038   -5.2043 C   0  0  1  0  0  0  0  0  0  0  0  0
   -5.1573    4.5996   -5.2704 O   0  0  0  0  0  0  0  0  0  0  0  0
   -2.9960    4.4604   -4.1954 C   0  0  2  0  0  0  0  0  0  0  0  0
   -2.4879    5.6608   -4.7670 O   0  0  0  0  0  0  0  0  0  0  0  0
   -1.8183    3.4963   -3.8390 C   0  0  2  0  0  0  0  0  0  0  0  0
   -1.8518    2.3176   -4.7078 O   0  0  0  0  0  0  0  0  0  0  0  0
   -1.8375    2.9699   -2.3855 C   0  0  0  0  0  0  0  0  0  0  0  0
   -1.5504   -3.4325   -6.8632 C   0  0  1  0  0  0  0  0  0  0  0  0
   -0.9061   -4.7641   -6.8192 N   0  3  0  0  0  0  0  0  0  0  0  0
   -2.7922   -3.3701   -5.9356 C   0  0  1  0  0  0  0  0  0  0  0  0
   -3.4279   -1.9405   -5.8254 C   0  0  1  0  0  0  0  0  0  0  0  0
   -4.3522   -1.9402   -4.7045 O   0  0  0  0  0  0  0  0  0  0  0  0
   -2.3691   -0.8062   -5.5678 C   0  0  1  0  0  0  0  0  0  0  0  0
   -1.1291   -0.9371   -6.5103 C   0  0  1  0  0  0  0  0  0  0  0  0
   -0.0695    0.0343   -6.1707 N   0  3  0  0  0  0  0  0  0  0  0  0
   -0.5195   -2.3563   -6.4639 C   0  0  0  0  0  0  0  0  0  0  0  0
   -4.5346   -0.7234   -3.9241 C   0  0  1  0  0  0  0  0  0  0  0  0
   -5.9617   -0.6990   -3.3895 C   0  0  1  0  0  0  0  0  0  0  0  0
   -5.8136   -1.6289   -2.1929 C   0  0  1  0  0  0  0  0  0  0  0  0
   -4.4558   -1.1907   -1.6257 C   0  0  2  0  0  0  0  0  0  0  0  0
   -3.6826   -0.7493   -2.7672 O   0  0  0  0  0  0  0  0  0  0  0  0
   -3.7165   -2.3232   -0.8907 C   0  0  0  0  0  0  0  0  0  0  0  0
   -9.7973   -3.3976    0.3337 C   0  0  1  0  0  0  0  0  0  0  0  0
   -9.5200   -1.8832    0.5457 C   0  0  1  0  0  0  0  0  0  0  0  0
   -9.3141   -1.0843   -0.7736 C   0  0  2  0  0  0  0  0  0  0  0  0
   -8.2361   -1.7604   -1.6806 C   0  0  1  0  0  0  0  0  0  0  0  0
   -6.8899   -1.4379   -1.2301 O   0  0  0  0  0  0  0  0  0  0  0  0
   -9.6546   -3.7822   -1.1703 C   0  0  1  0  0  0  0  0  0  0  0  0
   -8.4048   -3.2318   -1.7010 O   0  0  0  0  0  0  0  0  0  0  0  0
   -9.6728   -5.3164   -1.3939 C   0  0  0  0  0  0  0  0  0  0  0  0
   -0.9145    1.8500   -2.1308 N   0  3  0  0  0  0  0  0  0  0  0  0
   -6.3027    0.6266   -2.9832 O   0  0  0  0  0  0  0  0  0  0  0  0
  -10.6242   -1.3185    1.2517 O   0  0  0  0  0  0  0  0  0  0  0  0
   -8.8667   -4.1421    1.1228 O   0  0  0  0  0  0  0  0  0  0  0  0
   -3.2168   -3.2800   -1.8092 O   0  0  0  0  0  0  0  0  0  0  0  0
   -3.7816   -4.2710   -6.4325 O   0  0  0  0  0  0  0  0  0  0  0  0
   -9.4661   -6.0798   -0.1495 N   0  3  0  0  0  0  0  0  0  0  0  0
   -9.0170    0.3440   -0.5014 N   0  3  0  0  0  0  0  0  0  0  0  0
  1  2  1  6  0  0  0
  1  3  1  0  0  0  0
  1 10  1  0  0  0  0
  3  4  1  6  0  0  0
  3  5  1  0  0  0  0
  5  6  1  1  0  0  0
  5  7  1  0  0  0  0
  7  8  1  6  0  0  0
  7  9  1  0  0  0  0
  9 10  1  0  0  0  0
  9 11  1  1  0  0  0
 11 35  1  0  0  0  0
 12 13  1  1  0  0  0
 12 14  1  0  0  0  0
 12 20  1  0  0  0  0
 14 15  1  0  0  0  0
 14 40  1  6  0  0  0
 15 16  1  1  0  0  0
 15 17  1  0  0  0  0
 17  2  1  6  0  0  0
 17 18  1  0  0  0  0
 18 19  1  1  0  0  0
 18 20  1  0  0  0  0
 21 16  1  6  0  0  0
 21 22  1  0  0  0  0
 21 25  1  0  0  0  0
 22 23  1  0  0  0  0
 22 36  1  1  0  0  0
 23 24  1  0  0  0  0
 23 31  1  1  0  0  0
 24 25  1  0  0  0  0
 24 26  1  6  0  0  0
 26 39  1  0  0  0  0
 27 28  1  0  0  0  0
 27 32  1  0  0  0  0
 27 38  1  1  0  0  0
 28 29  1  0  0  0  0
 28 37  1  6  0  0  0
 29 30  1  0  0  0  0
 29 42  1  1  0  0  0
 30 31  1  1  0  0  0
 30 33  1  0  0  0  0
 32 33  1  0  0  0  0
 32 34  1  1  0  0  0
 34 41  1  0  0  0  0
M  CHG  6   4   1  13   1  19   1  35   1  41   1  42   1
M  END
>  <CHROM.1>
-146.41971998,119.20763968,-132.48303124,60.44717172,-58.70356862,167.43423178
-75.75639680,-52.53767251,139.04310484,147.31269645,149.32435645,112.18758515
173.45591252,64.07793875,72.41465753,-178.11059195,78.42466219,88.15074233
-0.91669314,-160.99893833,-15.00414518,-179.33548058,-4.88088130,-0.75788833
-3.30346803,0.42022635,0.64992131,0.07992631

>  <Name>


>  <RI>
0

>  <Rbt.Current_Directory>
/home/itssahil/PROJECTS/Mol_Feturizer/New_Systems/rnas/1ei2

>  <Rbt.Executable>
rbdock ($Id: //depot/dev/client3/rdock/2013.1/src/exe/rbdock.cxx#4 $)

>  <Rbt.Library>
libRbt.so (2013.1, Build901 2013/11/27)

>  <Rbt.Parameter_File>
/export/apps/rDock/src/rDock_2013.1_src/data/scripts/dock_solv.prm

>  <Rbt.Receptor>
prm/blind_docking_20.prm

>  <SCORE>
48.8222

>  <SCORE.INTER>
43.361

>  <SCORE.INTER.CONST>
1

>  <SCORE.INTER.POLAR>
-6.85104

>  <SCORE.INTER.ROT>
9

>  <SCORE.INTER.SOLV>
59.7275

>  <SCORE.INTER.VDW>
22.235

>  <SCORE.INTER.norm>
1.03241

>  <SCORE.INTRA>
-0.204279

>  <SCORE.INTRA.DIHEDRAL>
7.77691

>  <SCORE.INTRA.DIHEDRAL.0>
40.8761

>  <SCORE.INTRA.POLAR>
-1.4426

>  <SCORE.INTRA.POLAR.0>
-0.0268208

>  <SCORE.INTRA.REPUL>
-0.454755

>  <SCORE.INTRA.REPUL.0>
0.641615

>  <SCORE.INTRA.SOLV>
-1.69877

>  <SCORE.INTRA.SOLV.lig_0>
-162.567

>  <SCORE.INTRA.VDW>
3.93527

>  <SCORE.INTRA.VDW.0>
-4.80338

>  <SCORE.INTRA.norm>
-0.00486379

>  <SCORE.RESTR>
5.66548

>  <SCORE.RESTR.CAVITY>
5.66548

>  <SCORE.RESTR.norm>
0.134892

>  <SCORE.SYSTEM>
0

>  <SCORE.SYSTEM.CONST>
0

>  <SCORE.SYSTEM.DIHEDRAL>
0

>  <SCORE.SYSTEM.SOLV>
0

>  <SCORE.SYSTEM.norm>
0

>  <SCORE.heavy>
42

>  <SCORE.norm>
1.16243

>  <RMSD>
8.989

$$$$

 OpenBabel11021811393D
libRbt.so/2013.1/901 2013/11/27
 42 45  0  0  0  0  0  0  0  0999 V2000
   -4.2458    0.9797   -5.9518 C   0  0  2  0  0  0  0  0  0  0  0  0
   -4.3540   -0.3884   -6.4521 O   0  0  0  0  0  0  0  0  0  0  0  0
   -5.2735    1.9302   -6.6477 C   0  0  2  0  0  0  0  0  0  0  0  0
   -6.3229    1.1700   -7.3645 N   0  3  0  0  0  0  0  0  0  0  0  0
   -4.5474    2.9090   -7.6191 C   0  0  1  0  0  0  0  0  0  0  0  0
   -5.4933    3.7771   -8.2397 O   0  0  0  0  0  0  0  0  0  0  0  0
   -3.4930    3.7769   -6.8812 C   0  0  2  0  0  0  0  0  0  0  0  0
   -2.6769    4.4261   -7.8498 O   0  0  0  0  0  0  0  0  0  0  0  0
   -2.6076    2.9077   -5.9305 C   0  0  2  0  0  0  0  0  0  0  0  0
   -2.8809    1.4853   -6.1484 O   0  0  0  0  0  0  0  0  0  0  0  0
   -2.8338    3.1714   -4.4240 C   0  0  0  0  0  0  0  0  0  0  0  0
   -2.2957   -4.1784   -6.3147 C   0  0  1  0  0  0  0  0  0  0  0  0
   -1.2419   -5.2174   -6.2914 N   0  3  0  0  0  0  0  0  0  0  0  0
   -2.3005   -3.3431   -5.0077 C   0  0  1  0  0  0  0  0  0  0  0  0
   -3.2955   -2.1310   -5.0356 C   0  0  1  0  0  0  0  0  0  0  0  0
   -2.9776   -1.2572   -3.9193 O   0  0  0  0  0  0  0  0  0  0  0  0
   -3.1974   -1.2748   -6.3515 C   0  0  1  0  0  0  0  0  0  0  0  0
   -3.1674   -2.1702   -7.6322 C   0  0  1  0  0  0  0  0  0  0  0  0
   -2.9260   -1.3793   -8.8562 N   0  3  0  0  0  0  0  0  0  0  0  0
   -2.0827   -3.2669   -7.5412 C   0  0  0  0  0  0  0  0  0  0  0  0
   -3.8093   -0.0890   -3.6618 C   0  0  1  0  0  0  0  0  0  0  0  0
   -5.2424   -0.5545   -3.4326 C   0  0  1  0  0  0  0  0  0  0  0  0
   -5.1483   -1.0001   -1.9796 C   0  0  1  0  0  0  0  0  0  0  0  0
   -4.2781    0.1087   -1.3709 C   0  0  2  0  0  0  0  0  0  0  0  0
   -3.4019    0.5442   -2.4378 O   0  0  0  0  0  0  0  0  0  0  0  0
   -3.4485   -0.3703   -0.1660 C   0  0  0  0  0  0  0  0  0  0  0  0
   -9.6898   -2.5567    0.0922 C   0  0  1  0  0  0  0  0  0  0  0  0
   -9.6198   -1.3590   -0.8957 C   0  0  1  0  0  0  0  0  0  0  0  0
   -8.7515   -1.6274   -2.1588 C   0  0  2  0  0  0  0  0  0  0  0  0
   -7.3331   -2.1535   -1.7674 C   0  0  1  0  0  0  0  0  0  0  0  0
   -6.4618   -1.0633   -1.3531 O   0  0  0  0  0  0  0  0  0  0  0  0
   -8.7374   -3.7050   -0.3601 C   0  0  1  0  0  0  0  0  0  0  0  0
   -7.4181   -3.1521   -0.6769 O   0  0  0  0  0  0  0  0  0  0  0  0
   -8.5836   -4.8071    0.7196 C   0  0  0  0  0  0  0  0  0  0  0  0
   -1.7194    2.7492   -3.5574 N   0  3  0  0  0  0  0  0  0  0  0  0
   -6.1382    0.5466   -3.5854 O   0  0  0  0  0  0  0  0  0  0  0  0
  -10.9470   -1.0438   -1.3148 O   0  0  0  0  0  0  0  0  0  0  0  0
   -9.3187   -2.0924    1.3921 O   0  0  0  0  0  0  0  0  0  0  0  0
   -4.0698   -0.0027    1.0536 O   0  0  0  0  0  0  0  0  0  0  0  0
   -2.6532   -4.1965   -3.9192 O   0  0  0  0  0  0  0  0  0  0  0  0
   -9.8248   -5.0423    1.4799 N   0  3  0  0  0  0  0  0  0  0  0  0
   -8.6951   -0.4354   -3.0409 N   0  3  0  0  0  0  0  0  0  0  0  0
  1  2  1  6  0  0  0
  1  3  1  0  0  0  0
  1 10  1  0  0  0  0
  3  4  1  6  0  0  0
  3  5  1  0  0  0  0
  5  6  1  1  0  0  0
  5  7  1  0  0  0  0
  7  8  1  6  0  0  0
  7  9  1  0  0  0  0
  9 10  1  0  0  0  0
  9 11  1  1  0  0  0
 11 35  1  0  0  0  0
 12 13  1  1  0  0  0
 12 14  1  0  0  0  0
 12 20  1  0  0  0  0
 14 15  1  0  0  0  0
 14 40  1  1  0  0  0
 15 16  1  1  0  0  0
 15 17  1  0  0  0  0
 17  2  1  6  0  0  0
 17 18  1  0  0  0  0
 18 19  1  6  0  0  0
 18 20  1  0  0  0  0
 21 16  1  1  0  0  0
 21 22  1  0  0  0  0
 21 25  1  0  0  0  0
 22 23  1  0  0  0  0
 22 36  1  1  0  0  0
 23 24  1  0  0  0  0
 23 31  1  1  0  0  0
 24 25  1  0  0  0  0
 24 26  1  1  0  0  0
 26 39  1  0  0  0  0
 27 28  1  0  0  0  0
 27 32  1  0  0  0  0
 27 38  1  1  0  0  0
 28 29  1  0  0  0  0
 28 37  1  6  0  0  0
 29 30  1  0  0  0  0
 29 42  1  1  0  0  0
 30 31  1  1  0  0  0
 30 33  1  0  0  0  0
 32 33  1  0  0  0  0
 32 34  1  1  0  0  0
 34 41  1  0  0  0  0
M  CHG  6   4   1  13   1  19   1  35   1  41   1  42   1
M  END
>  <CHROM.1>
155.81495226,94.41702759,-133.51069369,-174.89655514,-51.82955767,-159.08457949
-73.08658108,-83.18724102,100.60685934,-176.20304449,58.49335928,-46.41350229
73.76566532,72.14259682,-99.40584489,-60.83089758,79.79670599,-69.10934860
126.39932039,-129.82776355,35.27570001,-42.09200152,-5.10086777,-0.68673866
-3.83182779,0.67642118,0.74416919,-0.37087151

>  <Name>


>  <RI>
0

>  <Rbt.Current_Directory>
/home/itssahil/PROJECTS/Mol_Feturizer/New_Systems/rnas/1ei2

>  <Rbt.Executable>
rbdock ($Id: //depot/dev/client3/rdock/2013.1/src/exe/rbdock.cxx#4 $)

>  <Rbt.Library>
libRbt.so (2013.1, Build901 2013/11/27)

>  <Rbt.Parameter_File>
/export/apps/rDock/src/rDock_2013.1_src/data/scripts/dock_solv.prm

>  <Rbt.Receptor>
prm/blind_docking_80.prm

>  <SCORE>
36.6116

>  <SCORE.INTER>
33.1123

>  <SCORE.INTER.CONST>
1

>  <SCORE.INTER.POLAR>
-3.68403

>  <SCORE.INTER.ROT>
9

>  <SCORE.INTER.SOLV>
48.4162

>  <SCORE.INTER.VDW>
8.6162

>  <SCORE.INTER.norm>
0.788387

>  <SCORE.INTRA>
-6.34246

>  <SCORE.INTRA.DIHEDRAL>
-0.210559

>  <SCORE.INTRA.DIHEDRAL.0>
40.8761

>  <SCORE.INTRA.POLAR>
-1.53932

>  <SCORE.INTRA.POLAR.0>
-0.0268208

>  <SCORE.INTRA.REPUL>
-0.641615

>  <SCORE.INTRA.REPUL.0>
0.641615

>  <SCORE.INTRA.SOLV>
-5.50078

>  <SCORE.INTRA.SOLV.lig_0>
-162.567

>  <SCORE.INTRA.VDW>
4.95498

>  <SCORE.INTRA.VDW.0>
-4.80338

>  <SCORE.INTRA.norm>
-0.151011

>  <SCORE.RESTR>
9.8418

>  <SCORE.RESTR.CAVITY>
9.8418

>  <SCORE.RESTR.norm>
0.234328

>  <SCORE.SYSTEM>
0

>  <SCORE.SYSTEM.CONST>
0

>  <SCORE.SYSTEM.DIHEDRAL>
0

>  <SCORE.SYSTEM.SOLV>
0

>  <SCORE.SYSTEM.norm>
0

>  <SCORE.heavy>
42

>  <SCORE.norm>
0.871705

>  <RMSD>
8.996

$$$$

 OpenBabel11021811393D
libRbt.so/2013.1/901 2013/11/27
 42 45  0  0  0  0  0  0  0  0999 V2000
   -3.4931   -0.0176   -5.8030 C   0  0  2  0  0  0  0  0  0  0  0  0
   -3.5282   -1.2792   -6.5384 O   0  0  0  0  0  0  0  0  0  0  0  0
   -4.6918    0.9082   -6.1903 C   0  0  2  0  0  0  0  0  0  0  0  0
   -5.7441    0.1639   -6.9196 N   0  3  0  0  0  0  0  0  0  0  0  0
   -4.1987    2.1236   -7.0320 C   0  0  1  0  0  0  0  0  0  0  0  0
   -5.2987    2.9656   -7.3704 O   0  0  0  0  0  0  0  0  0  0  0  0
   -3.1496    2.9701   -6.2624 C   0  0  2  0  0  0  0  0  0  0  0  0
   -2.5344    3.8740   -7.1735 O   0  0  0  0  0  0  0  0  0  0  0  0
   -2.0665    2.0615   -5.5955 C   0  0  2  0  0  0  0  0  0  0  0  0
   -2.2224    0.6771   -6.0477 O   0  0  0  0  0  0  0  0  0  0  0  0
   -2.1211    2.0266   -4.0508 C   0  0  0  0  0  0  0  0  0  0  0  0
   -2.7232   -5.3245   -5.2706 C   0  0  1  0  0  0  0  0  0  0  0  0
   -2.0361   -6.5712   -4.8656 N   0  3  0  0  0  0  0  0  0  0  0  0
   -2.5738   -4.2169   -4.1949 C   0  0  1  0  0  0  0  0  0  0  0  0
   -3.1526   -2.8269   -4.6339 C   0  0  1  0  0  0  0  0  0  0  0  0
   -2.6705   -1.8203   -3.7037 O   0  0  0  0  0  0  0  0  0  0  0  0
   -2.7032   -2.3929   -6.0775 C   0  0  1  0  0  0  0  0  0  0  0  0
   -2.8487   -3.5564   -7.1110 C   0  0  1  0  0  0  0  0  0  0  0  0
   -2.2896   -3.1990   -8.4307 N   0  3  0  0  0  0  0  0  0  0  0  0
   -2.1546   -4.8480   -6.6235 C   0  0  0  0  0  0  0  0  0  0  0  0
   -3.3993   -0.5669   -3.5601 C   0  0  1  0  0  0  0  0  0  0  0  0
   -4.8661   -0.8858   -3.2965 C   0  0  1  0  0  0  0  0  0  0  0  0
   -4.8067   -1.2009   -1.8080 C   0  0  1  0  0  0  0  0  0  0  0  0
   -3.8438   -0.1183   -1.2999 C   0  0  2  0  0  0  0  0  0  0  0  0
   -2.9364    0.1403   -2.3979 O   0  0  0  0  0  0  0  0  0  0  0  0
   -3.0549   -0.5520   -0.0514 C   0  0  0  0  0  0  0  0  0  0  0  0
   -9.8585   -1.6193   -0.4922 C   0  0  1  0  0  0  0  0  0  0  0  0
   -9.1681   -0.2410   -0.6891 C   0  0  1  0  0  0  0  0  0  0  0  0
   -8.2877   -0.1485   -1.9688 C   0  0  2  0  0  0  0  0  0  0  0  0
   -7.2717   -1.3335   -2.0419 C   0  0  1  0  0  0  0  0  0  0  0  0
   -6.1192   -1.0940   -1.1853 O   0  0  0  0  0  0  0  0  0  0  0  0
   -9.3761   -2.6398   -1.5674 C   0  0  1  0  0  0  0  0  0  0  0  0
   -7.9137   -2.6098   -1.6511 O   0  0  0  0  0  0  0  0  0  0  0  0
   -9.8407   -4.0870   -1.2614 C   0  0  0  0  0  0  0  0  0  0  0  0
   -1.0640    2.8087   -3.3859 N   0  3  0  0  0  0  0  0  0  0  0  0
   -5.6655    0.2685   -3.5556 O   0  0  0  0  0  0  0  0  0  0  0  0
  -10.1800    0.7627   -0.7598 O   0  0  0  0  0  0  0  0  0  0  0  0
   -9.5451   -2.0987    0.8174 O   0  0  0  0  0  0  0  0  0  0  0  0
   -3.5985    0.0343    1.1188 O   0  0  0  0  0  0  0  0  0  0  0  0
   -3.2474   -4.6361   -3.0083 O   0  0  0  0  0  0  0  0  0  0  0  0
   -8.9656   -4.7785   -0.2971 N   0  3  0  0  0  0  0  0  0  0  0  0
   -7.6285    1.1765   -2.0785 N   0  3  0  0  0  0  0  0  0  0  0  0
  1  2  1  6  0  0  0
  1  3  1  0  0  0  0
  1 10  1  0  0  0  0
  3  4  1  6  0  0  0
  3  5  1  0  0  0  0
  5  6  1  1  0  0  0
  5  7  1  0  0  0  0
  7  8  1  6  0  0  0
  7  9  1  0  0  0  0
  9 10  1  0  0  0  0
  9 11  1  1  0  0  0
 11 35  1  0  0  0  0
 12 13  1  1  0  0  0
 12 14  1  0  0  0  0
 12 20  1  0  0  0  0
 14 15  1  0  0  0  0
 14 40  1  1  0  0  0
 15 16  1  1  0  0  0
 15 17  1  0  0  0  0
 17  2  1  6  0  0  0
 17 18  1  0  0  0  0
 18 19  1  6  0  0  0
 18 20  1  0  0  0  0
 21 16  1  1  0  0  0
 21 22  1  0  0  0  0
 21 25  1  0  0  0  0
 22 23  1  0  0  0  0
 22 36  1  1  0  0  0
 23 24  1  0  0  0  0
 23 31  1  1  0  0  0
 24 25  1  0  0  0  0
 24 26  1  1  0  0  0
 26 39  1  0  0  0  0
 27 28  1  0  0  0  0
 27 32  1  0  0  0  0
 27 38  1  1  0  0  0
 28 29  1  0  0  0  0
 28 37  1  6  0  0  0
 29 30  1  0  0  0  0
 29 42  1  1  0  0  0
 30 31  1  1  0  0  0
 30 33  1  0  0  0  0
 32 33  1  0  0  0  0
 32 34  1  1  0  0  0
 34 41  1  0  0  0  0
M  CHG  6   4   1  13   1  19   1  35   1  41   1  42   1
M  END
>  <CHROM.1>
-164.72696881,62.35526172,164.88006437,-50.80443327,-51.27801844,-104.65020918
60.56546868,-116.80189635,-173.65040668,-157.84506326,51.74698421,-70.64136635
131.53140457,27.42211281,-102.41318478,-55.96840146,-172.40490887,-55.31829813
60.39788495,-126.79069408,-82.63803411,1.16840339,-4.84105959,-0.97731836
-3.65873037,0.28020593,0.73291107,-0.11914723

>  <Name>


>  <RI>
0

>  <Rbt.Current_Directory>
/home/itssahil/PROJECTS/Mol_Feturizer/New_Systems/rnas/1ei2

>  <Rbt.Executable>
rbdock ($Id: //depot/dev/client3/rdock/2013.1/src/exe/rbdock.cxx#4 $)

>  <Rbt.Library>
libRbt.so (2013.1, Build901 2013/11/27)

>  <Rbt.Parameter_File>
/export/apps/rDock/src/rDock_2013.1_src/data/scripts/dock_solv.prm

>  <Rbt.Receptor>
prm/blind_docking_80.prm

>  <SCORE>
-13.4149

>  <SCORE.INTER>
-29.6699

>  <SCORE.INTER.CONST>
1

>  <SCORE.INTER.POLAR>
-8.05705

>  <SCORE.INTER.ROT>
9

>  <SCORE.INTER.SOLV>
49.0036

>  <SCORE.INTER.VDW>
-18.8577

>  <SCORE.INTER.norm>
-0.706427

>  <SCORE.INTRA>
9.8425

>  <SCORE.INTRA.DIHEDRAL>
0.0218046

>  <SCORE.INTRA.DIHEDRAL.0>
40.8761

>  <SCORE.INTRA.POLAR>
-0.787409

>  <SCORE.INTRA.POLAR.0>
-0.0268208

>  <SCORE.INTRA.REPUL>
-0.641615

>  <SCORE.INTRA.REPUL.0>
0.641615

>  <SCORE.INTRA.SOLV>
-5.83378

>  <SCORE.INTRA.SOLV.lig_0>
-162.567

>  <SCORE.INTRA.VDW>
18.6338

>  <SCORE.INTRA.VDW.0>
-4.80338

>  <SCORE.INTRA.norm>
0.234345

>  <SCORE.RESTR>
6.41258

>  <SCORE.RESTR.CAVITY>
6.41258

>  <SCORE.RESTR.norm>
0.152681

>  <SCORE.SYSTEM>
0

>  <SCORE.SYSTEM.CONST>
0

>  <SCORE.SYSTEM.DIHEDRAL>
0

>  <SCORE.SYSTEM.SOLV>
0

>  <SCORE.SYSTEM.norm>
0

>  <SCORE.heavy>
42

>  <SCORE.norm>
-0.319401

>  <RMSD>
9.007

$$$$

 OpenBabel11021811393D
libRbt.so/2013.1/901 2013/11/27
 42 45  0  0  0  0  0  0  0  0999 V2000
   -3.6083   -0.0005   -5.7910 C   0  0  2  0  0  0  0  0  0  0  0  0
   -3.6857   -1.2815   -6.4886 O   0  0  0  0  0  0  0  0  0  0  0  0
   -4.7977    0.9379   -6.1766 C   0  0  2  0  0  0  0  0  0  0  0  0
   -5.8816    0.1946   -6.8590 N   0  3  0  0  0  0  0  0  0  0  0  0
   -4.3014    2.1187   -7.0646 C   0  0  1  0  0  0  0  0  0  0  0  0
   -5.3926    2.9727   -7.4012 O   0  0  0  0  0  0  0  0  0  0  0  0
   -3.2177    2.9653   -6.3447 C   0  0  2  0  0  0  0  0  0  0  0  0
   -2.6072    3.8303   -7.2959 O   0  0  0  0  0  0  0  0  0  0  0  0
   -2.1367    2.0544   -5.6775 C   0  0  2  0  0  0  0  0  0  0  0  0
   -2.3305    0.6611   -6.0856 O   0  0  0  0  0  0  0  0  0  0  0  0
   -2.1547    2.0646   -4.1316 C   0  0  0  0  0  0  0  0  0  0  0  0
   -2.6619   -5.3117   -5.3357 C   0  0  1  0  0  0  0  0  0  0  0  0
   -1.9075   -6.5348   -4.9817 N   0  3  0  0  0  0  0  0  0  0  0  0
   -2.5212   -4.2199   -4.2428 C   0  0  1  0  0  0  0  0  0  0  0  0
   -3.1749   -2.8482   -4.6317 C   0  0  1  0  0  0  0  0  0  0  0  0
   -2.7031   -1.8399   -3.6980 O   0  0  0  0  0  0  0  0  0  0  0  0
   -2.7973   -2.3669   -6.0808 C   0  0  1  0  0  0  0  0  0  0  0  0
   -2.9302   -3.5152   -7.1328 C   0  0  1  0  0  0  0  0  0  0  0  0
   -2.4352   -3.1080   -8.4636 N   0  3  0  0  0  0  0  0  0  0  0  0
   -2.1638   -4.7845   -6.6975 C   0  0  0  0  0  0  0  0  0  0  0  0
   -3.3857   -0.5550   -3.6227 C   0  0  1  0  0  0  0  0  0  0  0  0
   -4.8750   -0.8077   -3.4202 C   0  0  1  0  0  0  0  0  0  0  0  0
   -4.8971   -1.0820   -1.9226 C   0  0  1  0  0  0  0  0  0  0  0  0
   -3.9151   -0.0243   -1.3990 C   0  0  2  0  0  0  0  0  0  0  0  0
   -2.9483    0.1664   -2.4594 O   0  0  0  0  0  0  0  0  0  0  0  0
   -3.2030   -0.4529   -0.1034 C   0  0  0  0  0  0  0  0  0  0  0  0
   -9.9019   -1.5717   -0.4590 C   0  0  1  0  0  0  0  0  0  0  0  0
   -9.3739   -0.3034   -1.1855 C   0  0  1  0  0  0  0  0  0  0  0  0
   -8.4713   -0.6058   -2.4164 C   0  0  2  0  0  0  0  0  0  0  0  0
   -7.3202   -1.5945   -2.0430 C   0  0  1  0  0  0  0  0  0  0  0  0
   -6.2315   -0.9052   -1.3657 O   0  0  0  0  0  0  0  0  0  0  0  0
   -9.2688   -2.8614   -1.0641 C   0  0  1  0  0  0  0  0  0  0  0  0
   -7.8183   -2.6888   -1.1780 O   0  0  0  0  0  0  0  0  0  0  0  0
   -9.5680   -4.1232   -0.2142 C   0  0  0  0  0  0  0  0  0  0  0  0
   -0.9251    1.5488   -3.5045 N   0  3  0  0  0  0  0  0  0  0  0  0
   -5.6136    0.3695   -3.7477 O   0  0  0  0  0  0  0  0  0  0  0  0
  -10.4949    0.4646   -1.6214 O   0  0  0  0  0  0  0  0  0  0  0  0
   -9.5749   -1.4668    0.9284 O   0  0  0  0  0  0  0  0  0  0  0  0
   -3.9764   -0.1128    1.0346 O   0  0  0  0  0  0  0  0  0  0  0  0
   -3.1326   -4.6912   -3.0422 O   0  0  0  0  0  0  0  0  0  0  0  0
   -9.6664   -5.3507   -1.0251 N   0  3  0  0  0  0  0  0  0  0  0  0
   -7.9706    0.6436   -3.0413 N   0  3  0  0  0  0  0  0  0  0  0  0
  1  2  1  6  0  0  0
  1  3  1  0  0  0  0
  1 10  1  0  0  0  0
  3  4  1  6  0  0  0
  3  5  1  0  0  0  0
  5  6  1  1  0  0  0
  5  7  1  0  0  0  0
  7  8  1  6  0  0  0
  7  9  1  0  0  0  0
  9 10  1  0  0  0  0
  9 11  1  1  0  0  0
 11 35  1  0  0  0  0
 12 13  1  1  0  0  0
 12 14  1  0  0  0  0
 12 20  1  0  0  0  0
 14 15  1  0  0  0  0
 14 40  1  1  0  0  0
 15 16  1  1  0  0  0
 15 17  1  0  0  0  0
 17  2  1  6  0  0  0
 17 18  1  0  0  0  0
 18 19  1  6  0  0  0
 18 20  1  0  0  0  0
 21 16  1  1  0  0  0
 21 22  1  0  0  0  0
 21 25  1  0  0  0  0
 22 23  1  0  0  0  0
 22 36  1  1  0  0  0
 23 24  1  0  0  0  0
 23 31  1  1  0  0  0
 24 25  1  0  0  0  0
 24 26  1  1  0  0  0
 26 39  1  0  0  0  0
 27 28  1  0  0  0  0
 27 32  1  0  0  0  0
 27 38  1  1  0  0  0
 28 29  1  0  0  0  0
 28 37  1  6  0  0  0
 29 30  1  0  0  0  0
 29 42  1  1  0  0  0
 30 31  1  1  0  0  0
 30 33  1  0  0  0  0
 32 33  1  0  0  0  0
 32 34  1  1  0  0  0
 34 41  1  0  0  0  0
M  CHG  6   4   1  13   1  19   1  35   1  41   1  42   1
M  END
>  <CHROM.1>
-169.39594846,66.83540798,18.29743524,-174.20240090,152.42449250,-162.74700962
178.65237450,-124.90105662,81.17515971,-165.39675007,52.32416170,171.50505392
-48.31120694,50.65355817,-86.71086684,-57.05654089,175.13466124,174.72722065
168.92224959,-126.67733922,148.57166617,-35.18606688,-4.91440491,-1.03406511
-3.74026995,0.34954412,0.69157447,-0.20949684

>  <Name>


>  <RI>
0

>  <Rbt.Current_Directory>
/home/itssahil/PROJECTS/Mol_Feturizer/New_Systems/rnas/1ei2

>  <Rbt.Executable>
rbdock ($Id: //depot/dev/client3/rdock/2013.1/src/exe/rbdock.cxx#4 $)

>  <Rbt.Library>
libRbt.so (2013.1, Build901 2013/11/27)

>  <Rbt.Parameter_File>
/export/apps/rDock/src/rDock_2013.1_src/data/scripts/dock_solv.prm

>  <Rbt.Receptor>
prm/blind_docking_60.prm

>  <SCORE>
-38.2931

>  <SCORE.INTER>
-47.5916

>  <SCORE.INTER.CONST>
1

>  <SCORE.INTER.POLAR>
-10.5614

>  <SCORE.INTER.ROT>
9

>  <SCORE.INTER.SOLV>
51.8133

>  <SCORE.INTER.VDW>
-23.3941

>  <SCORE.INTER.norm>
-1.13313

>  <SCORE.INTRA>
4.02123

>  <SCORE.INTRA.DIHEDRAL>
-10.3233

>  <SCORE.INTRA.DIHEDRAL.0>
40.8761

>  <SCORE.INTRA.POLAR>
-1.03235

>  <SCORE.INTRA.POLAR.0>
-0.0268208

>  <SCORE.INTRA.REPUL>
-0.641615

>  <SCORE.INTRA.REPUL.0>
0.641615

>  <SCORE.INTRA.SOLV>
-4.49141

>  <SCORE.INTRA.SOLV.lig_0>
-162.567

>  <SCORE.INTRA.VDW>
18.1467

>  <SCORE.INTRA.VDW.0>
-4.80338

>  <SCORE.INTRA.norm>
0.0957435

>  <SCORE.RESTR>
5.27719

>  <SCORE.RESTR.CAVITY>
5.27719

>  <SCORE.RESTR.norm>
0.125647

>  <SCORE.SYSTEM>
0

>  <SCORE.SYSTEM.CONST>
0

>  <SCORE.SYSTEM.DIHEDRAL>
0

>  <SCORE.SYSTEM.SOLV>
0

>  <SCORE.SYSTEM.norm>
0

>  <SCORE.heavy>
42

>  <SCORE.norm>
-0.911741

>  <RMSD>
9.019

$$$$

 OpenBabel11021811393D
libRbt.so/2013.1/901 2013/11/27
 42 45  0  0  0  0  0  0  0  0999 V2000
   -5.6630    3.5463   -6.1130 C   0  0  2  0  0  0  0  0  0  0  0  0
   -5.8021    4.7103   -5.2415 O   0  0  0  0  0  0  0  0  0  0  0  0
   -6.3189    3.7918   -7.5106 C   0  0  2  0  0  0  0  0  0  0  0  0
   -6.5993    5.2280   -7.7385 N   0  3  0  0  0  0  0  0  0  0  0  0
   -7.6214    2.9496   -7.6628 C   0  0  1  0  0  0  0  0  0  0  0  0
   -8.2047    3.1739   -8.9445 O   0  0  0  0  0  0  0  0  0  0  0  0
   -7.3467    1.4299   -7.5061 C   0  0  2  0  0  0  0  0  0  0  0  0
   -8.5906    0.7529   -7.3648 O   0  0  0  0  0  0  0  0  0  0  0  0
   -6.4367    1.1425   -6.2681 C   0  0  2  0  0  0  0  0  0  0  0  0
   -6.2597    2.3636   -5.4788 O   0  0  0  0  0  0  0  0  0  0  0  0
   -5.0179    0.6377   -6.6181 C   0  0  0  0  0  0  0  0  0  0  0  0
   -4.9125    2.5907   -1.5898 C   0  0  1  0  0  0  0  0  0  0  0  0
   -4.5366    2.2691   -0.1949 N   0  3  0  0  0  0  0  0  0  0  0  0
   -6.2846    3.3109   -1.6579 C   0  0  1  0  0  0  0  0  0  0  0  0
   -6.6658    3.8104   -3.0950 C   0  0  1  0  0  0  0  0  0  0  0  0
   -7.7822    4.7323   -2.9737 O   0  0  0  0  0  0  0  0  0  0  0  0
   -5.4968    4.5734   -3.8198 C   0  0  1  0  0  0  0  0  0  0  0  0
   -4.1355    3.8159   -3.6931 C   0  0  1  0  0  0  0  0  0  0  0  0
   -3.0111    4.6007   -4.2423 N   0  3  0  0  0  0  0  0  0  0  0  0
   -3.8091    3.4626   -2.2246 C   0  0  0  0  0  0  0  0  0  0  0  0
   -9.1404    4.2470   -3.1799 C   0  0  1  0  0  0  0  0  0  0  0  0
   -9.7671    3.9657   -1.8194 C   0  0  1  0  0  0  0  0  0  0  0  0
  -10.1678    5.3777   -1.4139 C   0  0  1  0  0  0  0  0  0  0  0  0
  -10.7039    5.9403   -2.7380 C   0  0  2  0  0  0  0  0  0  0  0  0
   -9.9449    5.2771   -3.7771 O   0  0  0  0  0  0  0  0  0  0  0  0
  -10.5400    7.4664   -2.8540 C   0  0  0  0  0  0  0  0  0  0  0  0
  -13.0607    6.0280    2.9104 C   0  0  1  0  0  0  0  0  0  0  0  0
  -11.7569    5.1934    2.7729 C   0  0  1  0  0  0  0  0  0  0  0  0
  -10.6222    5.9125    1.9878 C   0  0  2  0  0  0  0  0  0  0  0  0
  -11.1351    6.4376    0.6083 C   0  0  1  0  0  0  0  0  0  0  0  0
  -11.1902    5.3668   -0.3764 O   0  0  0  0  0  0  0  0  0  0  0  0
  -12.9630    7.3487    2.0879 C   0  0  1  0  0  0  0  0  0  0  0  0
  -12.4769    7.0512    0.7381 O   0  0  0  0  0  0  0  0  0  0  0  0
  -14.3224    8.0877    1.9899 C   0  0  0  0  0  0  0  0  0  0  0  0
   -4.4766   -0.3592   -5.6777 N   0  3  0  0  0  0  0  0  0  0  0  0
  -10.9086    3.1230   -1.9783 O   0  0  0  0  0  0  0  0  0  0  0  0
  -11.2799    4.8858    4.0822 O   0  0  0  0  0  0  0  0  0  0  0  0
  -14.1552    5.2365    2.4429 O   0  0  0  0  0  0  0  0  0  0  0  0
   -9.1732    7.8347   -2.7844 O   0  0  0  0  0  0  0  0  0  0  0  0
   -7.2972    2.4127   -1.2049 O   0  0  0  0  0  0  0  0  0  0  0  0
  -14.7450    8.6833    3.2708 N   0  3  0  0  0  0  0  0  0  0  0  0
   -9.4212    5.0502    1.8599 N   0  3  0  0  0  0  0  0  0  0  0  0
  1  2  1  1  0  0  0
  1  3  1  0  0  0  0
  1 10  1  0  0  0  0
  3  4  1  1  0  0  0
  3  5  1  0  0  0  0
  5  6  1  6  0  0  0
  5  7  1  0  0  0  0
  7  8  1  1  0  0  0
  7  9  1  0  0  0  0
  9 10  1  0  0  0  0
  9 11  1  6  0  0  0
 11 35  1  0  0  0  0
 12 13  1  1  0  0  0
 12 14  1  0  0  0  0
 12 20  1  0  0  0  0
 14 15  1  0  0  0  0
 14 40  1  6  0  0  0
 15 16  1  1  0  0  0
 15 17  1  0  0  0  0
 17  2  1  6  0  0  0
 17 18  1  0  0  0  0
 18 19  1  1  0  0  0
 18 20  1  0  0  0  0
 21 16  1  1  0  0  0
 21 22  1  0  0  0  0
 21 25  1  0  0  0  0
 22 23  1  0  0  0  0
 22 36  1  6  0  0  0
 23 24  1  0  0  0  0
 23 31  1  1  0  0  0
 24 25  1  0  0  0  0
 24 26  1  1  0  0  0
 26 39  1  0  0  0  0
 27 28  1  0  0  0  0
 27 32  1  0  0  0  0
 27 38  1  6  0  0  0
 28 29  1  0  0  0  0
 28 37  1  1  0  0  0
 29 30  1  0  0  0  0
 29 42  1  6  0  0  0
 30 31  1  6  0  0  0
 30 33  1  0  0  0  0
 32 33  1  0  0  0  0
 32 34  1  6  0  0  0
 34 41  1  0  0  0  0
M  CHG  6   4   1  13   1  19   1  35   1  41   1  42   1
M  END
>  <CHROM.1>
167.64673193,-75.52578514,132.31791246,59.25264457,171.02897388,-144.22603129
-50.17760692,-68.79456540,-58.10984178,-96.68375631,98.10986306,-41.60277290
-55.67212216,145.78907053,60.50308990,-57.93968127,56.33124001,171.65300313
69.04118254,-106.60256457,70.60059928,47.11139316,-8.57541459,4.35753778
-2.43933213,0.82865021,0.46750524,-1.63608264

>  <Name>


>  <RI>
0

>  <Rbt.Current_Directory>
/home/itssahil/PROJECTS/Mol_Feturizer/New_Systems/rnas/1ei2

>  <Rbt.Executable>
rbdock ($Id: //depot/dev/client3/rdock/2013.1/src/exe/rbdock.cxx#4 $)

>  <Rbt.Library>
libRbt.so (2013.1, Build901 2013/11/27)

>  <Rbt.Parameter_File>
/export/apps/rDock/src/rDock_2013.1_src/data/scripts/dock_solv.prm

>  <Rbt.Receptor>
prm/pocket_docking_7.prm

>  <SCORE>
-38.9103

>  <SCORE.INTER>
-24.9384

>  <SCORE.INTER.CONST>
1

>  <SCORE.INTER.POLAR>
-4.93197

>  <SCORE.INTER.ROT>
9

>  <SCORE.INTER.SOLV>
17.7497

>  <SCORE.INTER.VDW>
-15.7023

>  <SCORE.INTER.norm>
-0.593772

>  <SCORE.INTRA>
-13.9719

>  <SCORE.INTRA.DIHEDRAL>
-8.06071

>  <SCORE.INTRA.DIHEDRAL.0>
40.8761

>  <SCORE.INTRA.POLAR>
-0.248254

>  <SCORE.INTRA.POLAR.0>
-0.0268208

>  <SCORE.INTRA.REPUL>
-0.641615

>  <SCORE.INTRA.REPUL.0>
0.641615

>  <SCORE.INTRA.SOLV>
-13.2012

>  <SCORE.INTRA.SOLV.lig_0>
-162.567

>  <SCORE.INTRA.VDW>
0.71121

>  <SCORE.INTRA.VDW.0>
-4.80338

>  <SCORE.INTRA.norm>
-0.332663

>  <SCORE.RESTR>
0

>  <SCORE.RESTR.CAVITY>
0

>  <SCORE.RESTR.norm>
0

>  <SCORE.SYSTEM>
0

>  <SCORE.SYSTEM.CONST>
0

>  <SCORE.SYSTEM.DIHEDRAL>
0

>  <SCORE.SYSTEM.SOLV>
0

>  <SCORE.SYSTEM.norm>
0

>  <SCORE.heavy>
42

>  <SCORE.norm>
-0.926435

>  <RMSD>
9.030

$$$$

 OpenBabel11021811393D
libRbt.so/2013.1/901 2013/11/27
 42 45  0  0  0  0  0  0  0  0999 V2000
   -3.6084   -0.0105   -5.6809 C   0  0  2  0  0  0  0  0  0  0  0  0
   -3.6805   -1.2960   -6.3708 O   0  0  0  0  0  0  0  0  0  0  0  0
   -4.7559    0.9503   -6.1324 C   0  0  2  0  0  0  0  0  0  0  0  0
   -5.8216    0.2249   -6.8612 N   0  3  0  0  0  0  0  0  0  0  0  0
   -4.1902    2.1114   -7.0045 C   0  0  1  0  0  0  0  0  0  0  0  0
   -5.2439    2.9863   -7.4015 O   0  0  0  0  0  0  0  0  0  0  0  0
   -3.1242    2.9405   -6.2391 C   0  0  2  0  0  0  0  0  0  0  0  0
   -2.4483    3.7828   -7.1662 O   0  0  0  0  0  0  0  0  0  0  0  0
   -2.0981    2.0121   -5.5120 C   0  0  2  0  0  0  0  0  0  0  0  0
   -2.3031    0.6198   -5.9177 O   0  0  0  0  0  0  0  0  0  0  0  0
   -2.1916    2.0372   -3.9690 C   0  0  0  0  0  0  0  0  0  0  0  0
   -2.6953   -5.3526   -5.2783 C   0  0  1  0  0  0  0  0  0  0  0  0
   -1.9542   -6.5796   -4.9099 N   0  3  0  0  0  0  0  0  0  0  0  0
   -2.6486   -4.2968   -4.1428 C   0  0  1  0  0  0  0  0  0  0  0  0
   -3.2885   -2.9193   -4.5337 C   0  0  1  0  0  0  0  0  0  0  0  0
   -2.8989   -1.9384   -3.5352 O   0  0  0  0  0  0  0  0  0  0  0  0
   -2.8114   -2.3858   -5.9344 C   0  0  1  0  0  0  0  0  0  0  0  0
   -2.8526   -3.4994   -7.0304 C   0  0  1  0  0  0  0  0  0  0  0  0
   -2.2662   -3.0429   -8.3070 N   0  3  0  0  0  0  0  0  0  0  0  0
   -2.1050   -4.7752   -6.5816 C   0  0  0  0  0  0  0  0  0  0  0  0
   -3.4920   -0.6079   -3.5653 C   0  0  1  0  0  0  0  0  0  0  0  0
   -5.0048   -0.7480   -3.4437 C   0  0  1  0  0  0  0  0  0  0  0  0
   -5.1341   -0.9404   -1.9388 C   0  0  1  0  0  0  0  0  0  0  0  0
   -4.1121    0.0745   -1.4073 C   0  0  2  0  0  0  0  0  0  0  0  0
   -3.0736    0.1428   -2.4136 O   0  0  0  0  0  0  0  0  0  0  0  0
   -3.5094   -0.3321   -0.0506 C   0  0  0  0  0  0  0  0  0  0  0  0
   -9.8582   -1.7689   -0.0324 C   0  0  1  0  0  0  0  0  0  0  0  0
   -9.6211   -0.4687   -0.8501 C   0  0  1  0  0  0  0  0  0  0  0  0
   -8.8687   -0.6916   -2.1937 C   0  0  2  0  0  0  0  0  0  0  0  0
   -7.5495   -1.5001   -1.9748 C   0  0  1  0  0  0  0  0  0  0  0  0
   -6.4830   -0.6443   -1.4753 O   0  0  0  0  0  0  0  0  0  0  0  0
   -9.1431   -2.9824   -0.7007 C   0  0  1  0  0  0  0  0  0  0  0  0
   -7.7620   -2.6188   -1.0275 O   0  0  0  0  0  0  0  0  0  0  0  0
   -9.1394   -4.2404    0.2056 C   0  0  0  0  0  0  0  0  0  0  0  0
   -0.9932    1.5303   -3.2776 N   0  3  0  0  0  0  0  0  0  0  0  0
   -5.6376    0.4575   -3.8736 O   0  0  0  0  0  0  0  0  0  0  0  0
  -10.8888    0.1229   -1.1314 O   0  0  0  0  0  0  0  0  0  0  0  0
   -9.3556   -1.5686    1.2906 O   0  0  0  0  0  0  0  0  0  0  0  0
   -2.1885    0.1635    0.0846 O   0  0  0  0  0  0  0  0  0  0  0  0
   -3.3409   -4.8141   -3.0068 O   0  0  0  0  0  0  0  0  0  0  0  0
   -9.3616   -5.4893   -0.5460 N   0  3  0  0  0  0  0  0  0  0  0  0
   -8.6414    0.5899   -2.9066 N   0  3  0  0  0  0  0  0  0  0  0  0
  1  2  1  6  0  0  0
  1  3  1  0  0  0  0
  1 10  1  0  0  0  0
  3  4  1  6  0  0  0
  3  5  1  0  0  0  0
  5  6  1  1  0  0  0
  5  7  1  0  0  0  0
  7  8  1  6  0  0  0
  7  9  1  0  0  0  0
  9 10  1  0  0  0  0
  9 11  1  1  0  0  0
 11 35  1  0  0  0  0
 12 13  1  1  0  0  0
 12 14  1  0  0  0  0
 12 20  1  0  0  0  0
 14 15  1  0  0  0  0
 14 40  1  1  0  0  0
 15 16  1  1  0  0  0
 15 17  1  0  0  0  0
 17  2  1  6  0  0  0
 17 18  1  0  0  0  0
 18 19  1  6  0  0  0
 18 20  1  0  0  0  0
 21 16  1  1  0  0  0
 21 22  1  0  0  0  0
 21 25  1  0  0  0  0
 22 23  1  0  0  0  0
 22 36  1  1  0  0  0
 23 24  1  0  0  0  0
 23 31  1  1  0  0  0
 24 25  1  0  0  0  0
 24 26  1  1  0  0  0
 26 39  1  0  0  0  0
 27 28  1  0  0  0  0
 27 32  1  0  0  0  0
 27 38  1  1  0  0  0
 28 29  1  0  0  0  0
 28 37  1  6  0  0  0
 29 30  1  0  0  0  0
 29 42  1  1  0  0  0
 30 31  1  1  0  0  0
 30 33  1  0  0  0  0
 32 33  1  0  0  0  0
 32 34  1  1  0  0  0
 34 41  1  0  0  0  0
M  CHG  6   4   1  13   1  19   1  35   1  41   1  42   1
M  END
>  <CHROM.1>
-171.06630731,70.69711936,143.03465788,-59.65242481,144.18106749,-161.33904765
165.81477734,-135.62704236,82.95369873,-172.44613701,58.53461020,163.02947552
175.26690575,63.71926379,150.06580602,-61.76720328,43.50836516,65.99041244
79.70125014,-144.69077168,140.83390749,88.99662158,-4.91600085,-1.05537179
-3.63111963,0.36049775,0.67871429,-0.21571714

>  <Name>


>  <RI>
0

>  <Rbt.Current_Directory>
/home/itssahil/PROJECTS/Mol_Feturizer/New_Systems/rnas/1ei2

>  <Rbt.Executable>
rbdock ($Id: //depot/dev/client3/rdock/2013.1/src/exe/rbdock.cxx#4 $)

>  <Rbt.Library>
libRbt.so (2013.1, Build901 2013/11/27)

>  <Rbt.Parameter_File>
/export/apps/rDock/src/rDock_2013.1_src/data/scripts/dock_solv.prm

>  <Rbt.Receptor>
prm/blind_docking_20.prm

>  <SCORE>
-14.1271

>  <SCORE.INTER>
-29.5964

>  <SCORE.INTER.CONST>
1

>  <SCORE.INTER.POLAR>
-10.0467

>  <SCORE.INTER.ROT>
9

>  <SCORE.INTER.SOLV>
52.8764

>  <SCORE.INTER.VDW>
-13.4674

>  <SCORE.INTER.norm>
-0.704677

>  <SCORE.INTRA>
9.36189

>  <SCORE.INTRA.DIHEDRAL>
-8.81425

>  <SCORE.INTRA.DIHEDRAL.0>
40.8761

>  <SCORE.INTRA.POLAR>
-0.127354

>  <SCORE.INTRA.POLAR.0>
-0.0268208

>  <SCORE.INTRA.REPUL>
-0.641615

>  <SCORE.INTRA.REPUL.0>
0.641615

>  <SCORE.INTRA.SOLV>
-5.16046

>  <SCORE.INTRA.SOLV.lig_0>
-162.567

>  <SCORE.INTRA.VDW>
19.9903

>  <SCORE.INTRA.VDW.0>
-4.80338

>  <SCORE.INTRA.norm>
0.222902

>  <SCORE.RESTR>
6.10741

>  <SCORE.RESTR.CAVITY>
6.10741

>  <SCORE.RESTR.norm>
0.145415

>  <SCORE.SYSTEM>
0

>  <SCORE.SYSTEM.CONST>
0

>  <SCORE.SYSTEM.DIHEDRAL>
0

>  <SCORE.SYSTEM.SOLV>
0

>  <SCORE.SYSTEM.norm>
0

>  <SCORE.heavy>
42

>  <SCORE.norm>
-0.33636

>  <RMSD>
9.032

$$$$

 OpenBabel11021811393D
libRbt.so/2013.1/901 2013/11/27
 42 45  0  0  0  0  0  0  0  0999 V2000
   -4.6172    1.1350   -5.6303 C   0  0  2  0  0  0  0  0  0  0  0  0
   -4.8151   -0.0874   -6.4049 O   0  0  0  0  0  0  0  0  0  0  0  0
   -5.1212    2.3957   -6.4053 C   0  0  2  0  0  0  0  0  0  0  0  0
   -5.9815    2.0247   -7.5522 N   0  3  0  0  0  0  0  0  0  0  0  0
   -3.9191    3.2654   -6.8823 C   0  0  1  0  0  0  0  0  0  0  0  0
   -4.3914    4.4168   -7.5785 O   0  0  0  0  0  0  0  0  0  0  0  0
   -3.0401    3.7358   -5.6926 C   0  0  2  0  0  0  0  0  0  0  0  0
   -1.8229    4.2660   -6.2054 O   0  0  0  0  0  0  0  0  0  0  0  0
   -2.7394    2.5586   -4.7091 C   0  0  2  0  0  0  0  0  0  0  0  0
   -3.1984    1.2921   -5.2842 O   0  0  0  0  0  0  0  0  0  0  0  0
   -3.4228    2.6859   -3.3282 C   0  0  0  0  0  0  0  0  0  0  0  0
   -2.8024   -3.6643   -7.7370 C   0  0  1  0  0  0  0  0  0  0  0  0
   -1.7621   -4.6389   -8.1348 N   0  3  0  0  0  0  0  0  0  0  0  0
   -2.7477   -3.3621   -6.2165 C   0  0  1  0  0  0  0  0  0  0  0  0
   -3.7273   -2.2245   -5.7624 C   0  0  1  0  0  0  0  0  0  0  0  0
   -3.3567   -1.8165   -4.4181 O   0  0  0  0  0  0  0  0  0  0  0  0
   -3.6672   -0.9479   -6.6793 C   0  0  1  0  0  0  0  0  0  0  0  0
   -3.6966   -1.3156   -8.1982 C   0  0  1  0  0  0  0  0  0  0  0  0
   -3.4907   -0.1330   -9.0590 N   0  3  0  0  0  0  0  0  0  0  0  0
   -2.6235   -2.3686   -8.5552 C   0  0  0  0  0  0  0  0  0  0  0  0
   -3.8586   -0.5566   -3.8856 C   0  0  1  0  0  0  0  0  0  0  0  0
   -5.3168   -0.7456   -3.4849 C   0  0  1  0  0  0  0  0  0  0  0  0
   -5.1358   -1.4229   -2.1332 C   0  0  1  0  0  0  0  0  0  0  0  0
   -3.9630   -0.6276   -1.5423 C   0  0  2  0  0  0  0  0  0  0  0  0
   -3.1594   -0.2211   -2.6758 O   0  0  0  0  0  0  0  0  0  0  0  0
   -3.1127   -1.4504   -0.5578 C   0  0  0  0  0  0  0  0  0  0  0  0
   -9.8618   -2.2244   -0.1046 C   0  0  1  0  0  0  0  0  0  0  0  0
   -9.2786   -0.7850   -0.1621 C   0  0  1  0  0  0  0  0  0  0  0  0
   -8.6475   -0.4097   -1.5340 C   0  0  2  0  0  0  0  0  0  0  0  0
   -7.6106   -1.4855   -1.9915 C   0  0  1  0  0  0  0  0  0  0  0  0
   -6.3345   -1.3103   -1.3132 O   0  0  0  0  0  0  0  0  0  0  0  0
   -9.5366   -3.0072   -1.4129 C   0  0  1  0  0  0  0  0  0  0  0  0
   -8.1157   -2.8541   -1.7358 O   0  0  0  0  0  0  0  0  0  0  0  0
   -9.8752   -4.5160   -1.3003 C   0  0  0  0  0  0  0  0  0  0  0  0
   -3.0015    3.8613   -2.5458 N   0  3  0  0  0  0  0  0  0  0  0  0
   -5.9500    0.5272   -3.3518 O   0  0  0  0  0  0  0  0  0  0  0  0
  -10.3295    0.1376    0.1226 O   0  0  0  0  0  0  0  0  0  0  0  0
   -9.2976   -2.8956    1.0242 O   0  0  0  0  0  0  0  0  0  0  0  0
   -2.5980   -2.6131   -1.1839 O   0  0  0  0  0  0  0  0  0  0  0  0
   -3.0707   -4.5537   -5.5001 O   0  0  0  0  0  0  0  0  0  0  0  0
   -9.0521   -5.2152   -0.2965 N   0  3  0  0  0  0  0  0  0  0  0  0
   -8.0770    0.9601   -1.5115 N   0  3  0  0  0  0  0  0  0  0  0  0
  1  2  1  6  0  0  0
  1  3  1  0  0  0  0
  1 10  1  0  0  0  0
  3  4  1  6  0  0  0
  3  5  1  0  0  0  0
  5  6  1  1  0  0  0
  5  7  1  0  0  0  0
  7  8  1  6  0  0  0
  7  9  1  0  0  0  0
  9 10  1  0  0  0  0
  9 11  1  1  0  0  0
 11 35  1  0  0  0  0
 12 13  1  6  0  0  0
 12 14  1  0  0  0  0
 12 20  1  0  0  0  0
 14 15  1  0  0  0  0
 14 40  1  1  0  0  0
 15 16  1  1  0  0  0
 15 17  1  0  0  0  0
 17  2  1  1  0  0  0
 17 18  1  0  0  0  0
 18 19  1  6  0  0  0
 18 20  1  0  0  0  0
 21 16  1  1  0  0  0
 21 22  1  0  0  0  0
 21 25  1  0  0  0  0
 22 23  1  0  0  0  0
 22 36  1  1  0  0  0
 23 24  1  0  0  0  0
 23 31  1  1  0  0  0
 24 25  1  0  0  0  0
 24 26  1  1  0  0  0
 26 39  1  0  0  0  0
 27 28  1  0  0  0  0
 27 32  1  0  0  0  0
 27 38  1  1  0  0  0
 28 29  1  0  0  0  0
 28 37  1  6  0  0  0
 29 30  1  0  0  0  0
 29 42  1  1  0  0  0
 30 31  1  1  0  0  0
 30 33  1  0  0  0  0
 32 33  1  0  0  0  0
 32 34  1  1  0  0  0
 34 41  1  0  0  0  0
M  CHG  6   4   1  13   1  19   1  35   1  41   1  42   1
M  END
>  <CHROM.1>
124.16756355,104.84637700,-107.70984370,-51.74225063,-169.27980669,-62.44075312
-149.77622986,-54.41007529,65.40791868,163.93198612,76.49351145,-66.34082813
111.53772152,40.71510082,57.89045424,-54.86300461,155.57020584,137.46805261
49.52294718,-136.22565894,-64.57976372,123.13849323,-5.14583201,-0.56548357
-3.97590015,0.32846019,0.86424394,0.04004159

>  <Name>


>  <RI>
0

>  <Rbt.Current_Directory>
/home/itssahil/PROJECTS/Mol_Feturizer/New_Systems/rnas/1ei2

>  <Rbt.Executable>
rbdock ($Id: //depot/dev/client3/rdock/2013.1/src/exe/rbdock.cxx#4 $)

>  <Rbt.Library>
libRbt.so (2013.1, Build901 2013/11/27)

>  <Rbt.Parameter_File>
/export/apps/rDock/src/rDock_2013.1_src/data/scripts/dock_solv.prm

>  <Rbt.Receptor>
prm/blind_docking_20.prm

>  <SCORE>
29.8358

>  <SCORE.INTER>
14.9137

>  <SCORE.INTER.CONST>
1

>  <SCORE.INTER.POLAR>
-3.39697

>  <SCORE.INTER.ROT>
9

>  <SCORE.INTER.SOLV>
36.8917

>  <SCORE.INTER.VDW>
-0.631511

>  <SCORE.INTER.norm>
0.355088

>  <SCORE.INTRA>
5.45439

>  <SCORE.INTRA.DIHEDRAL>
7.9669

>  <SCORE.INTRA.DIHEDRAL.0>
40.8761

>  <SCORE.INTRA.POLAR>
-1.27439

>  <SCORE.INTRA.POLAR.0>
-0.0268208

>  <SCORE.INTRA.REPUL>
-0.641615

>  <SCORE.INTRA.REPUL.0>
0.641615

>  <SCORE.INTRA.SOLV>
-1.60989

>  <SCORE.INTRA.SOLV.lig_0>
-162.567

>  <SCORE.INTRA.VDW>
9.81687

>  <SCORE.INTRA.VDW.0>
-4.80338

>  <SCORE.INTRA.norm>
0.129866

>  <SCORE.RESTR>
9.46771

>  <SCORE.RESTR.CAVITY>
9.46771

>  <SCORE.RESTR.norm>
0.225422

>  <SCORE.SYSTEM>
0

>  <SCORE.SYSTEM.CONST>
0

>  <SCORE.SYSTEM.DIHEDRAL>
0

>  <SCORE.SYSTEM.SOLV>
0

>  <SCORE.SYSTEM.norm>
0

>  <SCORE.heavy>
42

>  <SCORE.norm>
0.710376

>  <RMSD>
9.046

$$$$

 OpenBabel11021811393D
libRbt.so/2013.1/901 2013/11/27
 42 45  0  0  0  0  0  0  0  0999 V2000
   -3.6249    0.7997   -3.3012 C   0  0  2  0  0  0  0  0  0  0  0  0
   -2.4551    1.0143   -4.1494 O   0  0  0  0  0  0  0  0  0  0  0  0
   -3.2164    0.3611   -1.8574 C   0  0  2  0  0  0  0  0  0  0  0  0
   -1.7799    0.6087   -1.5964 N   0  3  0  0  0  0  0  0  0  0  0  0
   -3.5647   -1.1392   -1.6188 C   0  0  1  0  0  0  0  0  0  0  0  0
   -3.1972   -1.5246   -0.2961 O   0  0  0  0  0  0  0  0  0  0  0  0
   -5.0801   -1.4164   -1.8091 C   0  0  2  0  0  0  0  0  0  0  0  0
   -5.2836   -2.8239   -1.8660 O   0  0  0  0  0  0  0  0  0  0  0  0
   -5.6205   -0.7439   -3.1127 C   0  0  2  0  0  0  0  0  0  0  0  0
   -4.5086   -0.2083   -3.9014 O   0  0  0  0  0  0  0  0  0  0  0  0
   -6.5934    0.4332   -2.8714 C   0  0  0  0  0  0  0  0  0  0  0  0
   -4.4545    3.6014   -6.9653 C   0  0  1  0  0  0  0  0  0  0  0  0
   -4.7504    4.4727   -8.1245 N   0  3  0  0  0  0  0  0  0  0  0  0
   -4.2550    2.1254   -7.3989 C   0  0  1  0  0  0  0  0  0  0  0  0
   -3.7913    1.1818   -6.2351 C   0  0  1  0  0  0  0  0  0  0  0  0
   -3.3317   -0.0667   -6.8191 O   0  0  0  0  0  0  0  0  0  0  0  0
   -2.6058    1.7740   -5.3878 C   0  0  1  0  0  0  0  0  0  0  0  0
   -2.8491    3.2698   -5.0053 C   0  0  1  0  0  0  0  0  0  0  0  0
   -1.6749    3.8701   -4.3398 N   0  3  0  0  0  0  0  0  0  0  0  0
   -3.1986    4.1293   -6.2410 C   0  0  0  0  0  0  0  0  0  0  0  0
   -4.2277   -1.2151   -6.8566 C   0  0  1  0  0  0  0  0  0  0  0  0
   -4.1202   -1.8699   -8.2286 C   0  0  1  0  0  0  0  0  0  0  0  0
   -2.8431   -2.6770   -8.0390 C   0  0  1  0  0  0  0  0  0  0  0  0
   -3.0253   -3.2155   -6.6128 C   0  0  2  0  0  0  0  0  0  0  0  0
   -3.7937   -2.2080   -5.9128 O   0  0  0  0  0  0  0  0  0  0  0  0
   -1.6904   -3.4628   -5.8875 C   0  0  0  0  0  0  0  0  0  0  0  0
   -3.5797   -7.4418   -8.3616 C   0  0  1  0  0  0  0  0  0  0  0  0
   -3.2348   -6.8330   -9.7494 C   0  0  1  0  0  0  0  0  0  0  0  0
   -1.9290   -5.9870   -9.7650 C   0  0  2  0  0  0  0  0  0  0  0  0
   -1.9411   -4.9089   -8.6340 C   0  0  1  0  0  0  0  0  0  0  0  0
   -2.7400   -3.7532   -9.0153 O   0  0  0  0  0  0  0  0  0  0  0  0
   -2.5933   -6.9271   -7.2697 C   0  0  1  0  0  0  0  0  0  0  0  0
   -2.4680   -5.4707   -7.3689 O   0  0  0  0  0  0  0  0  0  0  0  0
   -3.0472   -7.3043   -5.8359 C   0  0  0  0  0  0  0  0  0  0  0  0
   -7.8362    0.0630   -2.1716 N   0  3  0  0  0  0  0  0  0  0  0  0
   -5.2475   -2.7180   -8.4487 O   0  0  0  0  0  0  0  0  0  0  0  0
   -3.0966   -7.9002  -10.6866 O   0  0  0  0  0  0  0  0  0  0  0  0
   -4.9199   -7.0741   -8.0274 O   0  0  0  0  0  0  0  0  0  0  0  0
   -1.8344   -4.4589   -4.8896 O   0  0  0  0  0  0  0  0  0  0  0  0
   -5.4873    1.6306   -7.9224 O   0  0  0  0  0  0  0  0  0  0  0  0
   -1.9656   -7.1830   -4.8413 N   0  3  0  0  0  0  0  0  0  0  0  0
   -1.6767   -5.4046  -11.1065 N   0  3  0  0  0  0  0  0  0  0  0  0
  1  2  1  6  0  0  0
  1  3  1  0  0  0  0
  1 10  1  0  0  0  0
  3  4  1  6  0  0  0
  3  5  1  0  0  0  0
  5  6  1  1  0  0  0
  5  7  1  0  0  0  0
  7  8  1  6  0  0  0
  7  9  1  0  0  0  0
  9 10  1  0  0  0  0
  9 11  1  1  0  0  0
 11 35  1  0  0  0  0
 12 13  1  6  0  0  0
 12 14  1  0  0  0  0
 12 20  1  0  0  0  0
 14 15  1  0  0  0  0
 14 40  1  1  0  0  0
 15 16  1  6  0  0  0
 15 17  1  0  0  0  0
 17  2  1  1  0  0  0
 17 18  1  0  0  0  0
 18 19  1  6  0  0  0
 18 20  1  0  0  0  0
 21 16  1  6  0  0  0
 21 22  1  0  0  0  0
 21 25  1  0  0  0  0
 22 23  1  0  0  0  0
 22 36  1  1  0  0  0
 23 24  1  0  0  0  0
 23 31  1  6  0  0  0
 24 25  1  0  0  0  0
 24 26  1  1  0  0  0
 26 39  1  0  0  0  0
 27 28  1  0  0  0  0
 27 32  1  0  0  0  0
 27 38  1  1  0  0  0
 28 29  1  0  0  0  0
 28 37  1  6  0  0  0
 29 30  1  0  0  0  0
 29 42  1  6  0  0  0
 30 31  1  6  0  0  0
 30 33  1  0  0  0  0
 32 33  1  0  0  0  0
 32 34  1  1  0  0  0
 34 41  1  0  0  0  0
M  CHG  6   4   1  13   1  19   1  35   1  41   1  42   1
M  END
>  <CHROM.1>
-162.98407384,-51.60807041,-23.50357927,-79.88185890,155.17090810,-62.37680035
52.49575591,164.89939997,73.05040739,-98.29854827,136.31036368,71.26710045
65.49371512,-154.29133783,-154.04870198,-165.09922947,176.06412165,69.97625167
-18.33357666,179.44076539,163.24825386,-52.06894837,-3.55744605,-1.84886341
-5.90251186,2.84725487,1.44231913,-0.78123267

>  <Name>


>  <RI>
0

>  <Rbt.Current_Directory>
/home/itssahil/PROJECTS/Mol_Feturizer/New_Systems/rnas/1ei2

>  <Rbt.Executable>
rbdock ($Id: //depot/dev/client3/rdock/2013.1/src/exe/rbdock.cxx#4 $)

>  <Rbt.Library>
libRbt.so (2013.1, Build901 2013/11/27)

>  <Rbt.Parameter_File>
/export/apps/rDock/src/rDock_2013.1_src/data/scripts/dock_solv.prm

>  <Rbt.Receptor>
prm/blind_docking_60.prm

>  <SCORE>
19.7292

>  <SCORE.INTER>
17.1928

>  <SCORE.INTER.CONST>
1

>  <SCORE.INTER.POLAR>
-3.02073

>  <SCORE.INTER.ROT>
9

>  <SCORE.INTER.SOLV>
41.4689

>  <SCORE.INTER.VDW>
-1.892

>  <SCORE.INTER.norm>
0.409352

>  <SCORE.INTRA>
-9.997

>  <SCORE.INTRA.DIHEDRAL>
-8.23663

>  <SCORE.INTRA.DIHEDRAL.0>
40.8761

>  <SCORE.INTRA.POLAR>
-1.6135

>  <SCORE.INTRA.POLAR.0>
-0.0268208

>  <SCORE.INTRA.REPUL>
-0.0788367

>  <SCORE.INTRA.REPUL.0>
0.641615

>  <SCORE.INTRA.SOLV>
-9.30737

>  <SCORE.INTRA.SOLV.lig_0>
-162.567

>  <SCORE.INTRA.VDW>
4.65509

>  <SCORE.INTRA.VDW.0>
-4.80338

>  <SCORE.INTRA.norm>
-0.238024

>  <SCORE.RESTR>
12.5334

>  <SCORE.RESTR.CAVITY>
12.5334

>  <SCORE.RESTR.norm>
0.298414

>  <SCORE.SYSTEM>
0

>  <SCORE.SYSTEM.CONST>
0

>  <SCORE.SYSTEM.DIHEDRAL>
0

>  <SCORE.SYSTEM.SOLV>
0

>  <SCORE.SYSTEM.norm>
0

>  <SCORE.heavy>
42

>  <SCORE.norm>
0.469743

>  <RMSD>
9.055

$$$$

 OpenBabel11021811393D
libRbt.so/2013.1/901 2013/11/27
 42 45  0  0  0  0  0  0  0  0999 V2000
   -3.5235   -0.0752   -5.8040 C   0  0  2  0  0  0  0  0  0  0  0  0
   -3.5708   -1.3491   -6.5173 O   0  0  0  0  0  0  0  0  0  0  0  0
   -4.7262    0.8458   -6.1900 C   0  0  2  0  0  0  0  0  0  0  0  0
   -5.7898    0.0910   -6.8916 N   0  3  0  0  0  0  0  0  0  0  0  0
   -4.2434    2.0460   -7.0591 C   0  0  1  0  0  0  0  0  0  0  0  0
   -5.3468    2.8839   -7.3962 O   0  0  0  0  0  0  0  0  0  0  0  0
   -3.1822    2.9036   -6.3189 C   0  0  2  0  0  0  0  0  0  0  0  0
   -2.5787    3.7909   -7.2538 O   0  0  0  0  0  0  0  0  0  0  0  0
   -2.0911    2.0046   -5.6520 C   0  0  2  0  0  0  0  0  0  0  0  0
   -2.2554    0.6130   -6.0784 O   0  0  0  0  0  0  0  0  0  0  0  0
   -2.1239    1.9960   -4.1063 C   0  0  0  0  0  0  0  0  0  0  0  0
   -2.6469   -5.3898   -5.3180 C   0  0  1  0  0  0  0  0  0  0  0  0
   -1.9235   -6.6217   -4.9313 N   0  3  0  0  0  0  0  0  0  0  0  0
   -2.5385   -4.2981   -4.2214 C   0  0  1  0  0  0  0  0  0  0  0  0
   -3.1579   -2.9190   -4.6389 C   0  0  1  0  0  0  0  0  0  0  0  0
   -2.7130   -1.9151   -3.6874 O   0  0  0  0  0  0  0  0  0  0  0  0
   -2.7140   -2.4448   -6.0715 C   0  0  1  0  0  0  0  0  0  0  0  0
   -2.8171   -3.5931   -7.1268 C   0  0  1  0  0  0  0  0  0  0  0  0
   -2.2618   -3.1943   -8.4362 N   0  3  0  0  0  0  0  0  0  0  0  0
   -2.0857   -4.8712   -6.6584 C   0  0  0  0  0  0  0  0  0  0  0  0
   -3.4037   -0.6340   -3.6190 C   0  0  1  0  0  0  0  0  0  0  0  0
   -4.8913   -0.8949   -3.4149 C   0  0  1  0  0  0  0  0  0  0  0  0
   -4.9116   -1.1612   -1.9158 C   0  0  1  0  0  0  0  0  0  0  0  0
   -3.9361   -0.0946   -1.3981 C   0  0  2  0  0  0  0  0  0  0  0  0
   -2.9706    0.0964   -2.4597 O   0  0  0  0  0  0  0  0  0  0  0  0
   -3.2212   -0.5117   -0.1003 C   0  0  0  0  0  0  0  0  0  0  0  0
   -9.9126   -1.6866   -0.4567 C   0  0  1  0  0  0  0  0  0  0  0  0
   -9.3910   -0.4029   -1.1607 C   0  0  1  0  0  0  0  0  0  0  0  0
   -8.4904   -0.6791   -2.3991 C   0  0  2  0  0  0  0  0  0  0  0  0
   -7.3348   -1.6703   -2.0470 C   0  0  1  0  0  0  0  0  0  0  0  0
   -6.2469   -0.9897   -1.3597 O   0  0  0  0  0  0  0  0  0  0  0  0
   -9.2763   -2.9624   -1.0872 C   0  0  1  0  0  0  0  0  0  0  0  0
   -7.8268   -2.7824   -1.2014 O   0  0  0  0  0  0  0  0  0  0  0  0
   -9.5688   -4.2409   -0.2604 C   0  0  0  0  0  0  0  0  0  0  0  0
   -1.0492    2.7776   -3.4697 N   0  3  0  0  0  0  0  0  0  0  0  0
   -5.6373    0.2758   -3.7486 O   0  0  0  0  0  0  0  0  0  0  0  0
  -10.5159    0.3688   -1.5794 O   0  0  0  0  0  0  0  0  0  0  0  0
   -9.5825   -1.6063    0.9317 O   0  0  0  0  0  0  0  0  0  0  0  0
   -3.5295    0.3815    0.9560 O   0  0  0  0  0  0  0  0  0  0  0  0
   -3.2056   -4.7597   -3.0470 O   0  0  0  0  0  0  0  0  0  0  0  0
   -9.6629   -5.4537   -1.0935 N   0  3  0  0  0  0  0  0  0  0  0  0
   -7.9958    0.5836   -3.0019 N   0  3  0  0  0  0  0  0  0  0  0  0
  1  2  1  6  0  0  0
  1  3  1  0  0  0  0
  1 10  1  0  0  0  0
  3  4  1  6  0  0  0
  3  5  1  0  0  0  0
  5  6  1  1  0  0  0
  5  7  1  0  0  0  0
  7  8  1  6  0  0  0
  7  9  1  0  0  0  0
  9 10  1  0  0  0  0
  9 11  1  1  0  0  0
 11 35  1  0  0  0  0
 12 13  1  1  0  0  0
 12 14  1  0  0  0  0
 12 20  1  0  0  0  0
 14 15  1  0  0  0  0
 14 40  1  1  0  0  0
 15 16  1  1  0  0  0
 15 17  1  0  0  0  0
 17  2  1  6  0  0  0
 17 18  1  0  0  0  0
 18 19  1  6  0  0  0
 18 20  1  0  0  0  0
 21 16  1  1  0  0  0
 21 22  1  0  0  0  0
 21 25  1  0  0  0  0
 22 23  1  0  0  0  0
 22 36  1  1  0  0  0
 23 24  1  0  0  0  0
 23 31  1  1  0  0  0
 24 25  1  0  0  0  0
 24 26  1  1  0  0  0
 26 39  1  0  0  0  0
 27 28  1  0  0  0  0
 27 32  1  0  0  0  0
 27 38  1  1  0  0  0
 28 29  1  0  0  0  0
 28 37  1  6  0  0  0
 29 30  1  0  0  0  0
 29 42  1  1  0  0  0
 30 31  1  1  0  0  0
 30 33  1  0  0  0  0
 32 33  1  0  0  0  0
 32 34  1  1  0  0  0
 34 41  1  0  0  0  0
M  CHG  6   4   1  13   1  19   1  35   1  41   1  42   1
M  END
>  <CHROM.1>
-166.37516724,65.77797093,22.68169434,61.96006445,66.58250938,-105.17198235
64.49129409,-13.56058646,77.51495279,-163.85334789,53.84825859,155.41780631
-52.75408710,49.59516486,-118.58998652,-167.55247647,63.40336531,64.69669478
169.94150964,-127.22569170,148.65384806,-35.59737379,-4.89066321,-1.06361606
-3.73241322,0.31756787,0.69731521,-0.12956197

>  <Name>


>  <RI>
0

>  <Rbt.Current_Directory>
/home/itssahil/PROJECTS/Mol_Feturizer/New_Systems/rnas/1ei2

>  <Rbt.Executable>
rbdock ($Id: //depot/dev/client3/rdock/2013.1/src/exe/rbdock.cxx#4 $)

>  <Rbt.Library>
libRbt.so (2013.1, Build901 2013/11/27)

>  <Rbt.Parameter_File>
/export/apps/rDock/src/rDock_2013.1_src/data/scripts/dock_solv.prm

>  <Rbt.Receptor>
prm/blind_docking_40.prm

>  <SCORE>
-30.0757

>  <SCORE.INTER>
-40.3046

>  <SCORE.INTER.CONST>
1

>  <SCORE.INTER.POLAR>
-9.58835

>  <SCORE.INTER.ROT>
9

>  <SCORE.INTER.SOLV>
54.6882

>  <SCORE.INTER.VDW>
-22.738

>  <SCORE.INTER.norm>
-0.959635

>  <SCORE.INTRA>
3.19764

>  <SCORE.INTRA.DIHEDRAL>
-6.39919

>  <SCORE.INTRA.DIHEDRAL.0>
40.8761

>  <SCORE.INTRA.POLAR>
-0.980645

>  <SCORE.INTRA.POLAR.0>
-0.0268208

>  <SCORE.INTRA.REPUL>
-0.641615

>  <SCORE.INTRA.REPUL.0>
0.641615

>  <SCORE.INTRA.SOLV>
-8.38507

>  <SCORE.INTRA.SOLV.lig_0>
-162.567

>  <SCORE.INTRA.VDW>
17.132

>  <SCORE.INTRA.VDW.0>
-4.80338

>  <SCORE.INTRA.norm>
0.0761343

>  <SCORE.RESTR>
7.03128

>  <SCORE.RESTR.CAVITY>
7.03128

>  <SCORE.RESTR.norm>
0.167411

>  <SCORE.SYSTEM>
0

>  <SCORE.SYSTEM.CONST>
0

>  <SCORE.SYSTEM.DIHEDRAL>
0

>  <SCORE.SYSTEM.SOLV>
0

>  <SCORE.SYSTEM.norm>
0

>  <SCORE.heavy>
42

>  <SCORE.norm>
-0.716089

>  <RMSD>
9.059

$$$$

 OpenBabel11021811393D
libRbt.so/2013.1/901 2013/11/27
 42 45  0  0  0  0  0  0  0  0999 V2000
   -2.5261    1.4502   -5.1846 C   0  0  2  0  0  0  0  0  0  0  0  0
   -2.6360    0.0549   -4.7667 O   0  0  0  0  0  0  0  0  0  0  0  0
   -1.8933    2.3385   -4.0646 C   0  0  2  0  0  0  0  0  0  0  0  0
   -1.2445    1.5174   -3.0167 N   0  3  0  0  0  0  0  0  0  0  0  0
   -2.9658    3.2789   -3.4365 C   0  0  1  0  0  0  0  0  0  0  0  0
   -2.3750    4.0908   -2.4240 O   0  0  0  0  0  0  0  0  0  0  0  0
   -3.6104    4.2087   -4.4992 C   0  0  2  0  0  0  0  0  0  0  0  0
   -4.7622    4.8221   -3.9312 O   0  0  0  0  0  0  0  0  0  0  0  0
   -4.0065    3.4122   -5.7846 C   0  0  2  0  0  0  0  0  0  0  0  0
   -3.8471    1.9744   -5.5552 O   0  0  0  0  0  0  0  0  0  0  0  0
   -3.1636    3.7524   -7.0352 C   0  0  0  0  0  0  0  0  0  0  0  0
   -4.0684   -1.4435   -8.5513 C   0  0  1  0  0  0  0  0  0  0  0  0
   -4.6106   -2.3199   -9.6135 N   0  3  0  0  0  0  0  0  0  0  0  0
   -5.1441   -1.1094   -7.4848 C   0  0  1  0  0  0  0  0  0  0  0  0
   -4.5888   -0.3079   -6.2563 C   0  0  1  0  0  0  0  0  0  0  0  0
   -5.5884   -0.3427   -5.2025 O   0  0  0  0  0  0  0  0  0  0  0  0
   -3.2593   -0.9097   -5.6693 C   0  0  1  0  0  0  0  0  0  0  0  0
   -2.2263   -1.2528   -6.7909 C   0  0  1  0  0  0  0  0  0  0  0  0
   -1.0405   -1.9535   -6.2571 N   0  3  0  0  0  0  0  0  0  0  0  0
   -2.8511   -2.1308   -7.8984 C   0  0  0  0  0  0  0  0  0  0  0  0
   -5.2621    0.1867   -3.8849 C   0  0  1  0  0  0  0  0  0  0  0  0
   -6.5208    0.1604   -3.0259 C   0  0  1  0  0  0  0  0  0  0  0  0
   -6.5264   -1.3034   -2.6068 C   0  0  1  0  0  0  0  0  0  0  0  0
   -5.0379   -1.5507   -2.3235 C   0  0  2  0  0  0  0  0  0  0  0  0
   -4.3203   -0.6771   -3.2277 O   0  0  0  0  0  0  0  0  0  0  0  0
   -4.6161   -3.0131   -2.5532 C   0  0  0  0  0  0  0  0  0  0  0  0
   -9.5238   -4.2667    0.1402 C   0  0  1  0  0  0  0  0  0  0  0  0
   -9.3773   -2.8195    0.6875 C   0  0  1  0  0  0  0  0  0  0  0  0
   -9.6021   -1.7107   -0.3808 C   0  0  2  0  0  0  0  0  0  0  0  0
   -8.7165   -1.9564   -1.6445 C   0  0  1  0  0  0  0  0  0  0  0  0
   -7.3463   -1.5178   -1.4220 O   0  0  0  0  0  0  0  0  0  0  0  0
   -9.7204   -4.2576   -1.4062 C   0  0  1  0  0  0  0  0  0  0  0  0
   -8.7154   -3.3883   -2.0234 O   0  0  0  0  0  0  0  0  0  0  0  0
   -9.6184   -5.6756   -2.0248 C   0  0  0  0  0  0  0  0  0  0  0  0
   -3.9558    4.1090   -8.2254 N   0  3  0  0  0  0  0  0  0  0  0  0
   -6.3569    1.0259   -1.9022 O   0  0  0  0  0  0  0  0  0  0  0  0
  -10.3260   -2.6379    1.7380 O   0  0  0  0  0  0  0  0  0  0  0  0
   -8.3460   -5.0006    0.4827 O   0  0  0  0  0  0  0  0  0  0  0  0
   -4.1817   -3.2101   -3.8878 O   0  0  0  0  0  0  0  0  0  0  0  0
   -6.1771   -0.3405   -8.1004 O   0  0  0  0  0  0  0  0  0  0  0  0
  -10.5772   -6.6285   -1.4360 N   0  3  0  0  0  0  0  0  0  0  0  0
   -9.4118   -0.3565    0.1954 N   0  3  0  0  0  0  0  0  0  0  0  0
  1  2  1  1  0  0  0
  1  3  1  0  0  0  0
  1 10  1  0  0  0  0
  3  4  1  1  0  0  0
  3  5  1  0  0  0  0
  5  6  1  1  0  0  0
  5  7  1  0  0  0  0
  7  8  1  1  0  0  0
  7  9  1  0  0  0  0
  9 10  1  0  0  0  0
  9 11  1  6  0  0  0
 11 35  1  0  0  0  0
 12 13  1  6  0  0  0
 12 14  1  0  0  0  0
 12 20  1  0  0  0  0
 14 15  1  0  0  0  0
 14 40  1  6  0  0  0
 15 16  1  1  0  0  0
 15 17  1  0  0  0  0
 17  2  1  1  0  0  0
 17 18  1  0  0  0  0
 18 19  1  1  0  0  0
 18 20  1  0  0  0  0
 21 16  1  6  0  0  0
 21 22  1  0  0  0  0
 21 25  1  0  0  0  0
 22 23  1  0  0  0  0
 22 36  1  1  0  0  0
 23 24  1  0  0  0  0
 23 31  1  1  0  0  0
 24 25  1  0  0  0  0
 24 26  1  6  0  0  0
 26 39  1  0  0  0  0
 27 28  1  0  0  0  0
 27 32  1  0  0  0  0
 27 38  1  6  0  0  0
 28 29  1  0  0  0  0
 28 37  1  1  0  0  0
 29 30  1  0  0  0  0
 29 42  1  1  0  0  0
 30 31  1  1  0  0  0
 30 33  1  0  0  0  0
 32 33  1  0  0  0  0
 32 34  1  6  0  0  0
 34 41  1  0  0  0  0
M  CHG  6   4   1  13   1  19   1  35   1  41   1  42   1
M  END
>  <CHROM.1>
177.40262881,-45.80553703,99.91039432,94.95061020,-172.42858000,-127.60186797
52.37610373,-176.10116859,-176.75265151,172.46336679,174.14588684,-70.03089305
52.37596809,95.92977676,90.42289916,-52.32719711,-64.98823357,-177.04610783
-54.69625865,-161.76889576,56.76382668,-59.67132285,-5.50017043,-0.60917375
-3.80092409,0.08791277,0.89590512,0.65615871

>  <Name>


>  <RI>
0

>  <Rbt.Current_Directory>
/home/itssahil/PROJECTS/Mol_Feturizer/New_Systems/rnas/1ei2

>  <Rbt.Executable>
rbdock ($Id: //depot/dev/client3/rdock/2013.1/src/exe/rbdock.cxx#4 $)

>  <Rbt.Library>
libRbt.so (2013.1, Build901 2013/11/27)

>  <Rbt.Parameter_File>
/export/apps/rDock/src/rDock_2013.1_src/data/scripts/dock_solv.prm

>  <Rbt.Receptor>
prm/blind_docking_80.prm

>  <SCORE>
27.1224

>  <SCORE.INTER>
31.3472

>  <SCORE.INTER.CONST>
1

>  <SCORE.INTER.POLAR>
-4.17642

>  <SCORE.INTER.ROT>
9

>  <SCORE.INTER.SOLV>
55.2157

>  <SCORE.INTER.VDW>
6.81432

>  <SCORE.INTER.norm>
0.746363

>  <SCORE.INTRA>
-13.5921

>  <SCORE.INTRA.DIHEDRAL>
-15.9473

>  <SCORE.INTRA.DIHEDRAL.0>
40.8761

>  <SCORE.INTRA.POLAR>
-0.352017

>  <SCORE.INTRA.POLAR.0>
-0.0268208

>  <SCORE.INTRA.REPUL>
-0.641615

>  <SCORE.INTRA.REPUL.0>
0.641615

>  <SCORE.INTRA.SOLV>
-12.2721

>  <SCORE.INTRA.SOLV.lig_0>
-162.567

>  <SCORE.INTRA.VDW>
4.92253

>  <SCORE.INTRA.VDW.0>
-4.80338

>  <SCORE.INTRA.norm>
-0.323621

>  <SCORE.RESTR>
9.36725

>  <SCORE.RESTR.CAVITY>
9.36725

>  <SCORE.RESTR.norm>
0.22303

>  <SCORE.SYSTEM>
0

>  <SCORE.SYSTEM.CONST>
0

>  <SCORE.SYSTEM.DIHEDRAL>
0

>  <SCORE.SYSTEM.SOLV>
0

>  <SCORE.SYSTEM.norm>
0

>  <SCORE.heavy>
42

>  <SCORE.norm>
0.645771

>  <RMSD>
9.059

$$$$

 OpenBabel11021811393D
libRbt.so/2013.1/901 2013/11/27
 42 45  0  0  0  0  0  0  0  0999 V2000
   -3.5531   -0.0580   -5.7815 C   0  0  2  0  0  0  0  0  0  0  0  0
   -3.6001   -1.3251   -6.5066 O   0  0  0  0  0  0  0  0  0  0  0  0
   -4.7250    0.8884   -6.1996 C   0  0  2  0  0  0  0  0  0  0  0  0
   -5.7784    0.1591   -6.9424 N   0  3  0  0  0  0  0  0  0  0  0  0
   -4.1913    2.0860   -7.0422 C   0  0  1  0  0  0  0  0  0  0  0  0
   -5.2672    2.9470   -7.4088 O   0  0  0  0  0  0  0  0  0  0  0  0
   -3.1398    2.9178   -6.2599 C   0  0  2  0  0  0  0  0  0  0  0  0
   -2.4891    3.8008   -7.1669 O   0  0  0  0  0  0  0  0  0  0  0  0
   -2.0883    1.9935   -5.5647 C   0  0  2  0  0  0  0  0  0  0  0  0
   -2.2640    0.6085   -6.0078 O   0  0  0  0  0  0  0  0  0  0  0  0
   -2.1729    1.9735   -4.0211 C   0  0  0  0  0  0  0  0  0  0  0  0
   -2.6760   -5.3767   -5.3442 C   0  0  1  0  0  0  0  0  0  0  0  0
   -1.9525   -6.6120   -4.9687 N   0  3  0  0  0  0  0  0  0  0  0  0
   -2.5678   -4.2950   -4.2377 C   0  0  1  0  0  0  0  0  0  0  0  0
   -3.1873   -2.9122   -4.6425 C   0  0  1  0  0  0  0  0  0  0  0  0
   -2.7426   -1.9170   -3.6819 O   0  0  0  0  0  0  0  0  0  0  0  0
   -2.7432   -2.4248   -6.0707 C   0  0  1  0  0  0  0  0  0  0  0  0
   -2.8461   -3.5634   -7.1365 C   0  0  1  0  0  0  0  0  0  0  0  0
   -2.2906   -3.1526   -8.4421 N   0  3  0  0  0  0  0  0  0  0  0  0
   -2.1146   -4.8457   -6.6797 C   0  0  0  0  0  0  0  0  0  0  0  0
   -3.4089   -0.6225   -3.6278 C   0  0  1  0  0  0  0  0  0  0  0  0
   -4.9029   -0.8533   -3.4336 C   0  0  1  0  0  0  0  0  0  0  0  0
   -4.9398   -1.1084   -1.9329 C   0  0  1  0  0  0  0  0  0  0  0  0
   -3.9480   -0.0571   -1.4150 C   0  0  2  0  0  0  0  0  0  0  0  0
   -2.9709    0.1077   -2.4703 O   0  0  0  0  0  0  0  0  0  0  0  0
   -3.2514   -0.4786   -0.1087 C   0  0  0  0  0  0  0  0  0  0  0  0
   -9.9298   -1.6176   -0.4488 C   0  0  1  0  0  0  0  0  0  0  0  0
   -9.4198   -0.3316   -1.1569 C   0  0  1  0  0  0  0  0  0  0  0  0
   -8.5309   -0.6035   -2.4047 C   0  0  2  0  0  0  0  0  0  0  0  0
   -7.3684   -1.5911   -2.0654 C   0  0  1  0  0  0  0  0  0  0  0  0
   -6.2759   -0.9073   -1.3885 O   0  0  0  0  0  0  0  0  0  0  0  0
   -9.2956   -2.8907   -1.0870 C   0  0  1  0  0  0  0  0  0  0  0  0
   -7.8479   -2.7056   -1.2159 O   0  0  0  0  0  0  0  0  0  0  0  0
   -9.5752   -4.1710   -0.2584 C   0  0  0  0  0  0  0  0  0  0  0  0
   -1.0751    2.6837   -3.3415 N   0  3  0  0  0  0  0  0  0  0  0  0
   -5.6236    0.3292   -3.7814 O   0  0  0  0  0  0  0  0  0  0  0  0
  -10.5516    0.4367   -1.5634 O   0  0  0  0  0  0  0  0  0  0  0  0
   -9.5858   -1.5375    0.9362 O   0  0  0  0  0  0  0  0  0  0  0  0
   -2.6694   -1.7643   -0.2385 O   0  0  0  0  0  0  0  0  0  0  0  0
   -3.2349   -4.7674   -3.0676 O   0  0  0  0  0  0  0  0  0  0  0  0
   -9.6532   -5.3864   -1.0895 N   0  3  0  0  0  0  0  0  0  0  0  0
   -8.0469    0.6614   -3.0113 N   0  3  0  0  0  0  0  0  0  0  0  0
  1  2  1  6  0  0  0
  1  3  1  0  0  0  0
  1 10  1  0  0  0  0
  3  4  1  6  0  0  0
  3  5  1  0  0  0  0
  5  6  1  1  0  0  0
  5  7  1  0  0  0  0
  7  8  1  6  0  0  0
  7  9  1  0  0  0  0
  9 10  1  0  0  0  0
  9 11  1  1  0  0  0
 11 35  1  0  0  0  0
 12 13  1  1  0  0  0
 12 14  1  0  0  0  0
 12 20  1  0  0  0  0
 14 15  1  0  0  0  0
 14 40  1  1  0  0  0
 15 16  1  1  0  0  0
 15 17  1  0  0  0  0
 17  2  1  6  0  0  0
 17 18  1  0  0  0  0
 18 19  1  6  0  0  0
 18 20  1  0  0  0  0
 21 16  1  1  0  0  0
 21 22  1  0  0  0  0
 21 25  1  0  0  0  0
 22 23  1  0  0  0  0
 22 36  1  1  0  0  0
 23 24  1  0  0  0  0
 23 31  1  1  0  0  0
 24 25  1  0  0  0  0
 24 26  1  1  0  0  0
 26 39  1  0  0  0  0
 27 28  1  0  0  0  0
 27 32  1  0  0  0  0
 27 38  1  1  0  0  0
 28 29  1  0  0  0  0
 28 37  1  6  0  0  0
 29 30  1  0  0  0  0
 29 42  1  1  0  0  0
 30 31  1  1  0  0  0
 30 33  1  0  0  0  0
 32 33  1  0  0  0  0
 32 34  1  1  0  0  0
 34 41  1  0  0  0  0
M  CHG  6   4   1  13   1  19   1  35   1  41   1  42   1
M  END
>  <CHROM.1>
-168.55635291,65.77131607,-94.02686197,-163.27254121,156.34018904,-107.54229491
178.52844267,-124.39339107,72.44293984,-165.59066692,54.70158385,-78.47942502
125.11578219,50.65994568,52.25736375,-44.59533783,70.12911040,77.78711258
110.31203550,-129.13917968,149.52927720,-31.00117752,-4.87963461,-1.09083642
-3.76498062,0.36963220,0.65732687,-0.21026795

>  <Name>


>  <RI>
0

>  <Rbt.Current_Directory>
/home/itssahil/PROJECTS/Mol_Feturizer/New_Systems/rnas/1ei2

>  <Rbt.Executable>
rbdock ($Id: //depot/dev/client3/rdock/2013.1/src/exe/rbdock.cxx#4 $)

>  <Rbt.Library>
libRbt.so (2013.1, Build901 2013/11/27)

>  <Rbt.Parameter_File>
/export/apps/rDock/src/rDock_2013.1_src/data/scripts/dock_solv.prm

>  <Rbt.Receptor>
prm/blind_docking_80.prm

>  <SCORE>
-26.6877

>  <SCORE.INTER>
-42.9528

>  <SCORE.INTER.CONST>
1

>  <SCORE.INTER.POLAR>
-10.8096

>  <SCORE.INTER.ROT>
9

>  <SCORE.INTER.SOLV>
55.1121

>  <SCORE.INTER.VDW>
-20.5738

>  <SCORE.INTER.norm>
-1.02269

>  <SCORE.INTRA>
11.5342

>  <SCORE.INTRA.DIHEDRAL>
2.05308

>  <SCORE.INTRA.DIHEDRAL.0>
40.8761

>  <SCORE.INTRA.POLAR>
-0.674302

>  <SCORE.INTRA.POLAR.0>
-0.0268208

>  <SCORE.INTRA.REPUL>
-0.641615

>  <SCORE.INTRA.REPUL.0>
0.641615

>  <SCORE.INTRA.SOLV>
-7.13041

>  <SCORE.INTRA.SOLV.lig_0>
-162.567

>  <SCORE.INTRA.VDW>
19.5736

>  <SCORE.INTRA.VDW.0>
-4.80338

>  <SCORE.INTRA.norm>
0.274625

>  <SCORE.RESTR>
4.7309

>  <SCORE.RESTR.CAVITY>
4.7309

>  <SCORE.RESTR.norm>
0.11264

>  <SCORE.SYSTEM>
0

>  <SCORE.SYSTEM.CONST>
0

>  <SCORE.SYSTEM.DIHEDRAL>
0

>  <SCORE.SYSTEM.SOLV>
0

>  <SCORE.SYSTEM.norm>
0

>  <SCORE.heavy>
42

>  <SCORE.norm>
-0.635421

>  <RMSD>
9.063

$$$$

 OpenBabel11021811393D
libRbt.so/2013.1/901 2013/11/27
 42 45  0  0  0  0  0  0  0  0999 V2000
   -3.6853    0.6439   -5.9586 C   0  0  2  0  0  0  0  0  0  0  0  0
   -4.0093   -0.6276   -6.6003 O   0  0  0  0  0  0  0  0  0  0  0  0
   -4.8540    1.6730   -6.0970 C   0  0  2  0  0  0  0  0  0  0  0  0
   -6.1133    1.0170   -6.5177 N   0  3  0  0  0  0  0  0  0  0  0  0
   -4.4710    2.8101   -7.0916 C   0  0  1  0  0  0  0  0  0  0  0  0
   -5.5400    3.7473   -7.2016 O   0  0  0  0  0  0  0  0  0  0  0  0
   -3.1959    3.5691   -6.6360 C   0  0  2  0  0  0  0  0  0  0  0  0
   -2.7395    4.3823   -7.7112 O   0  0  0  0  0  0  0  0  0  0  0  0
   -2.0701    2.5762   -6.1999 C   0  0  2  0  0  0  0  0  0  0  0  0
   -2.4538    1.2022   -6.5320 O   0  0  0  0  0  0  0  0  0  0  0  0
   -1.7543    2.5892   -4.6865 C   0  0  0  0  0  0  0  0  0  0  0  0
   -2.9560   -4.7993   -6.2722 C   0  0  1  0  0  0  0  0  0  0  0  0
   -2.1927   -6.0628   -6.1662 N   0  3  0  0  0  0  0  0  0  0  0  0
   -2.8286   -3.9474   -4.9821 C   0  0  1  0  0  0  0  0  0  0  0  0
   -3.4923   -2.5306   -5.0920 C   0  0  1  0  0  0  0  0  0  0  0  0
   -3.0324   -1.7261   -3.9729 O   0  0  0  0  0  0  0  0  0  0  0  0
   -3.1134   -1.7660   -6.4134 C   0  0  1  0  0  0  0  0  0  0  0  0
   -3.2327   -2.6814   -7.6746 C   0  0  1  0  0  0  0  0  0  0  0  0
   -2.7362   -2.0122   -8.8943 N   0  3  0  0  0  0  0  0  0  0  0  0
   -2.4573   -4.0064   -7.4982 C   0  0  0  0  0  0  0  0  0  0  0  0
   -3.6465   -0.4293   -3.7200 C   0  0  1  0  0  0  0  0  0  0  0  0
   -5.1393   -0.6354   -3.4916 C   0  0  1  0  0  0  0  0  0  0  0  0
   -5.1262   -1.0861   -2.0372 C   0  0  1  0  0  0  0  0  0  0  0  0
   -4.0755   -0.1453   -1.4304 C   0  0  2  0  0  0  0  0  0  0  0  0
   -3.1355    0.1263   -2.4972 O   0  0  0  0  0  0  0  0  0  0  0  0
   -3.3439   -0.7587   -0.2229 C   0  0  0  0  0  0  0  0  0  0  0  0
   -9.8477   -2.0327   -0.0643 C   0  0  1  0  0  0  0  0  0  0  0  0
   -9.5564   -0.6683   -0.7491 C   0  0  1  0  0  0  0  0  0  0  0  0
   -8.8187   -0.7873   -2.1140 C   0  0  2  0  0  0  0  0  0  0  0  0
   -7.5356   -1.6701   -1.9871 C   0  0  1  0  0  0  0  0  0  0  0  0
   -6.4310   -0.9159   -1.4123 O   0  0  0  0  0  0  0  0  0  0  0  0
   -9.1887   -3.2026   -0.8563 C   0  0  1  0  0  0  0  0  0  0  0  0
   -7.7939   -2.8681   -1.1554 O   0  0  0  0  0  0  0  0  0  0  0  0
   -9.2372   -4.5444   -0.0809 C   0  0  0  0  0  0  0  0  0  0  0  0
   -2.9317    2.7733   -3.8198 N   0  3  0  0  0  0  0  0  0  0  0  0
   -5.8278    0.6054   -3.6489 O   0  0  0  0  0  0  0  0  0  0  0  0
  -10.7979    0.0029   -0.9602 O   0  0  0  0  0  0  0  0  0  0  0  0
   -9.3328   -1.9884    1.2683 O   0  0  0  0  0  0  0  0  0  0  0  0
   -3.0484   -2.1257   -0.4521 O   0  0  0  0  0  0  0  0  0  0  0  0
   -3.4405   -4.6541   -3.9035 O   0  0  0  0  0  0  0  0  0  0  0  0
   -9.6467   -5.6808   -0.9264 N   0  3  0  0  0  0  0  0  0  0  0  0
   -8.5377    0.5484   -2.6963 N   0  3  0  0  0  0  0  0  0  0  0  0
  1  2  1  6  0  0  0
  1  3  1  0  0  0  0
  1 10  1  0  0  0  0
  3  4  1  6  0  0  0
  3  5  1  0  0  0  0
  5  6  1  1  0  0  0
  5  7  1  0  0  0  0
  7  8  1  6  0  0  0
  7  9  1  0  0  0  0
  9 10  1  0  0  0  0
  9 11  1  1  0  0  0
 11 35  1  0  0  0  0
 12 13  1  1  0  0  0
 12 14  1  0  0  0  0
 12 20  1  0  0  0  0
 14 15  1  0  0  0  0
 14 40  1  1  0  0  0
 15 16  1  1  0  0  0
 15 17  1  0  0  0  0
 17  2  1  6  0  0  0
 17 18  1  0  0  0  0
 18 19  1  6  0  0  0
 18 20  1  0  0  0  0
 21 16  1  1  0  0  0
 21 22  1  0  0  0  0
 21 25  1  0  0  0  0
 22 23  1  0  0  0  0
 22 36  1  1  0  0  0
 23 24  1  0  0  0  0
 23 31  1  1  0  0  0
 24 25  1  0  0  0  0
 24 26  1  1  0  0  0
 26 39  1  0  0  0  0
 27 28  1  0  0  0  0
 27 32  1  0  0  0  0
 27 38  1  1  0  0  0
 28 29  1  0  0  0  0
 28 37  1  6  0  0  0
 29 30  1  0  0  0  0
 29 42  1  1  0  0  0
 30 31  1  1  0  0  0
 30 33  1  0  0  0  0
 32 33  1  0  0  0  0
 32 34  1  1  0  0  0
 34 41  1  0  0  0  0
M  CHG  6   4   1  13   1  19   1  35   1  41   1  42   1
M  END
>  <CHROM.1>
-171.65019232,86.01647547,-45.09942193,-83.76507472,-65.65885881,36.91360811
1.00345660,-157.19905045,73.13320045,-170.98223168,58.86139052,57.50405164
-56.91574518,61.56190318,40.71854876,80.62566605,84.73501712,-40.20252633
29.36762924,-136.48893213,135.16253410,81.35466017,-5.10265662,-0.85501058
-3.92724804,0.50961392,0.74786277,-0.20370474

>  <Name>


>  <RI>
0

>  <Rbt.Current_Directory>
/home/itssahil/PROJECTS/Mol_Feturizer/New_Systems/rnas/1ei2

>  <Rbt.Executable>
rbdock ($Id: //depot/dev/client3/rdock/2013.1/src/exe/rbdock.cxx#4 $)

>  <Rbt.Library>
libRbt.so (2013.1, Build901 2013/11/27)

>  <Rbt.Parameter_File>
/export/apps/rDock/src/rDock_2013.1_src/data/scripts/dock_solv.prm

>  <Rbt.Receptor>
prm/blind_docking_60.prm

>  <SCORE>
-11.9428

>  <SCORE.INTER>
-8.23386

>  <SCORE.INTER.CONST>
1

>  <SCORE.INTER.POLAR>
-6.53502

>  <SCORE.INTER.ROT>
9

>  <SCORE.INTER.SOLV>
45.391

>  <SCORE.INTER.VDW>
-8.43617

>  <SCORE.INTER.norm>
-0.196044

>  <SCORE.INTRA>
-9.29133

>  <SCORE.INTRA.DIHEDRAL>
-5.09046

>  <SCORE.INTRA.DIHEDRAL.0>
40.8761

>  <SCORE.INTRA.POLAR>
-2.87799

>  <SCORE.INTRA.POLAR.0>
-0.0268208

>  <SCORE.INTRA.REPUL>
-0.597577

>  <SCORE.INTRA.REPUL.0>
0.641615

>  <SCORE.INTRA.SOLV>
-0.706184

>  <SCORE.INTRA.SOLV.lig_0>
-162.567

>  <SCORE.INTRA.VDW>
6.38003

>  <SCORE.INTRA.VDW.0>
-4.80338

>  <SCORE.INTRA.norm>
-0.221222

>  <SCORE.RESTR>
5.58242

>  <SCORE.RESTR.CAVITY>
5.58242

>  <SCORE.RESTR.norm>
0.132915

>  <SCORE.SYSTEM>
0

>  <SCORE.SYSTEM.CONST>
0

>  <SCORE.SYSTEM.DIHEDRAL>
0

>  <SCORE.SYSTEM.SOLV>
0

>  <SCORE.SYSTEM.norm>
0

>  <SCORE.heavy>
42

>  <SCORE.norm>
-0.284352

>  <RMSD>
9.070

$$$$

 OpenBabel11021811393D
libRbt.so/2013.1/901 2013/11/27
 42 45  0  0  0  0  0  0  0  0999 V2000
   -4.2580    0.7350   -5.9434 C   0  0  2  0  0  0  0  0  0  0  0  0
   -4.4468   -0.6249   -6.4422 O   0  0  0  0  0  0  0  0  0  0  0  0
   -5.3564    1.7053   -6.4871 C   0  0  2  0  0  0  0  0  0  0  0  0
   -6.4995    0.9658   -7.0699 N   0  3  0  0  0  0  0  0  0  0  0  0
   -4.7519    2.6901   -7.5329 C   0  0  1  0  0  0  0  0  0  0  0  0
   -5.7604    3.5762   -8.0137 O   0  0  0  0  0  0  0  0  0  0  0  0
   -3.6000    3.5370   -6.9285 C   0  0  2  0  0  0  0  0  0  0  0  0
   -2.9097    4.1913   -7.9873 O   0  0  0  0  0  0  0  0  0  0  0  0
   -2.6084    2.6458   -6.1126 C   0  0  2  0  0  0  0  0  0  0  0  0
   -2.9245    1.2294   -6.3105 O   0  0  0  0  0  0  0  0  0  0  0  0
   -2.6327    2.8909   -4.5863 C   0  0  0  0  0  0  0  0  0  0  0  0
   -2.4007   -4.3704   -7.0786 C   0  0  1  0  0  0  0  0  0  0  0  0
   -1.3504   -5.3951   -7.2716 N   0  3  0  0  0  0  0  0  0  0  0  0
   -2.3910   -3.8109   -5.6318 C   0  0  1  0  0  0  0  0  0  0  0  0
   -3.3820   -2.6157   -5.4095 C   0  0  1  0  0  0  0  0  0  0  0  0
   -3.0512   -1.9812   -4.1450 O   0  0  0  0  0  0  0  0  0  0  0  0
   -3.2925   -1.5156   -6.5302 C   0  0  1  0  0  0  0  0  0  0  0  0
   -3.2770   -2.1392   -7.9633 C   0  0  1  0  0  0  0  0  0  0  0  0
   -3.0435   -1.1216   -9.0083 N   0  3  0  0  0  0  0  0  0  0  0  0
   -2.1953   -3.2340   -8.1018 C   0  0  0  0  0  0  0  0  0  0  0  0
   -3.5437   -0.6391   -3.8641 C   0  0  1  0  0  0  0  0  0  0  0  0
   -5.0464   -0.7145   -3.6211 C   0  0  1  0  0  0  0  0  0  0  0  0
   -5.0585   -1.1891   -2.1743 C   0  0  1  0  0  0  0  0  0  0  0  0
   -3.9213   -0.3567   -1.5652 C   0  0  2  0  0  0  0  0  0  0  0  0
   -2.9719   -0.1523   -2.6388 O   0  0  0  0  0  0  0  0  0  0  0  0
   -3.2351   -1.0535   -0.3766 C   0  0  0  0  0  0  0  0  0  0  0  0
   -9.8549   -1.7567   -0.2483 C   0  0  1  0  0  0  0  0  0  0  0  0
   -9.4112   -0.3759   -0.8070 C   0  0  1  0  0  0  0  0  0  0  0  0
   -8.6952   -0.4492   -2.1866 C   0  0  2  0  0  0  0  0  0  0  0  0
   -7.5210   -1.4799   -2.1591 C   0  0  1  0  0  0  0  0  0  0  0  0
   -6.3362   -0.9133   -1.5312 O   0  0  0  0  0  0  0  0  0  0  0  0
   -9.3356   -2.9142   -1.1542 C   0  0  1  0  0  0  0  0  0  0  0  0
   -7.9126   -2.7136   -1.4391 O   0  0  0  0  0  0  0  0  0  0  0  0
   -9.5353   -4.3087   -0.5064 C   0  0  0  0  0  0  0  0  0  0  0  0
   -1.5910    2.1673   -3.8362 N   0  3  0  0  0  0  0  0  0  0  0  0
   -5.6224    0.5855   -3.7503 O   0  0  0  0  0  0  0  0  0  0  0  0
  -10.5684    0.4487   -0.9384 O   0  0  0  0  0  0  0  0  0  0  0  0
   -9.3351   -1.8964    1.0758 O   0  0  0  0  0  0  0  0  0  0  0  0
   -2.2665   -0.2053    0.2160 O   0  0  0  0  0  0  0  0  0  0  0  0
   -2.7372   -4.8626   -4.7310 O   0  0  0  0  0  0  0  0  0  0  0  0
   -8.2931   -4.8576    0.0675 N   0  3  0  0  0  0  0  0  0  0  0  0
   -8.2648    0.8947   -2.6458 N   0  3  0  0  0  0  0  0  0  0  0  0
  1  2  1  6  0  0  0
  1  3  1  0  0  0  0
  1 10  1  0  0  0  0
  3  4  1  6  0  0  0
  3  5  1  0  0  0  0
  5  6  1  1  0  0  0
  5  7  1  0  0  0  0
  7  8  1  6  0  0  0
  7  9  1  0  0  0  0
  9 10  1  0  0  0  0
  9 11  1  1  0  0  0
 11 35  1  0  0  0  0
 12 13  1  1  0  0  0
 12 14  1  0  0  0  0
 12 20  1  0  0  0  0
 14 15  1  0  0  0  0
 14 40  1  1  0  0  0
 15 16  1  1  0  0  0
 15 17  1  0  0  0  0
 17  2  1  6  0  0  0
 17 18  1  0  0  0  0
 18 19  1  6  0  0  0
 18 20  1  0  0  0  0
 21 16  1  1  0  0  0
 21 22  1  0  0  0  0
 21 25  1  0  0  0  0
 22 23  1  0  0  0  0
 22 36  1  1  0  0  0
 23 24  1  0  0  0  0
 23 31  1  1  0  0  0
 24 25  1  0  0  0  0
 24 26  1  1  0  0  0
 26 39  1  0  0  0  0
 27 28  1  0  0  0  0
 27 32  1  0  0  0  0
 27 38  1  1  0  0  0
 28 29  1  0  0  0  0
 28 37  1  6  0  0  0
 29 30  1  0  0  0  0
 29 42  1  1  0  0  0
 30 31  1  1  0  0  0
 30 33  1  0  0  0  0
 32 33  1  0  0  0  0
 32 34  1  1  0  0  0
 34 41  1  0  0  0  0
M  CHG  6   4   1  13   1  19   1  35   1  41   1  42   1
M  END
>  <CHROM.1>
154.58391452,107.74067621,-163.87237716,176.48550655,173.54123700,-173.18746999
167.76036816,162.37419255,-47.95653570,162.65713923,71.30196310,-46.09358703
156.96394826,57.42177237,-175.40226746,-65.93219450,167.02273628,-151.77721355
-147.60366801,-137.44493191,-102.36045353,2.05213052,-5.02744448,-0.68607958
-4.11766531,0.52880286,0.75600887,-0.37395643

>  <Name>


>  <RI>
0

>  <Rbt.Current_Directory>
/home/itssahil/PROJECTS/Mol_Feturizer/New_Systems/rnas/1ei2

>  <Rbt.Executable>
rbdock ($Id: //depot/dev/client3/rdock/2013.1/src/exe/rbdock.cxx#4 $)

>  <Rbt.Library>
libRbt.so (2013.1, Build901 2013/11/27)

>  <Rbt.Parameter_File>
/export/apps/rDock/src/rDock_2013.1_src/data/scripts/dock_solv.prm

>  <Rbt.Receptor>
prm/blind_docking_80.prm

>  <SCORE>
2.7071

>  <SCORE.INTER>
-5.569

>  <SCORE.INTER.CONST>
1

>  <SCORE.INTER.POLAR>
-4.73016

>  <SCORE.INTER.ROT>
9

>  <SCORE.INTER.SOLV>
42.635

>  <SCORE.INTER.VDW>
-11.7571

>  <SCORE.INTER.norm>
-0.132595

>  <SCORE.INTRA>
-1.49919

>  <SCORE.INTRA.DIHEDRAL>
-3.49477

>  <SCORE.INTRA.DIHEDRAL.0>
40.8761

>  <SCORE.INTRA.POLAR>
-1.4096

>  <SCORE.INTRA.POLAR.0>
-0.0268208

>  <SCORE.INTRA.REPUL>
-0.641615

>  <SCORE.INTRA.REPUL.0>
0.641615

>  <SCORE.INTRA.SOLV>
-2.03304

>  <SCORE.INTRA.SOLV.lig_0>
-162.567

>  <SCORE.INTRA.VDW>
9.26543

>  <SCORE.INTRA.VDW.0>
-4.80338

>  <SCORE.INTRA.norm>
-0.0356951

>  <SCORE.RESTR>
9.77529

>  <SCORE.RESTR.CAVITY>
9.77529

>  <SCORE.RESTR.norm>
0.232745

>  <SCORE.SYSTEM>
0

>  <SCORE.SYSTEM.CONST>
0

>  <SCORE.SYSTEM.DIHEDRAL>
0

>  <SCORE.SYSTEM.SOLV>
0

>  <SCORE.SYSTEM.norm>
0

>  <SCORE.heavy>
42

>  <SCORE.norm>
0.0644547

>  <RMSD>
9.076

$$$$

 OpenBabel11021811393D
libRbt.so/2013.1/901 2013/11/27
 42 45  0  0  0  0  0  0  0  0999 V2000
   -2.6487    0.6928   -5.1136 C   0  0  2  0  0  0  0  0  0  0  0  0
   -2.5071   -0.4123   -6.0582 O   0  0  0  0  0  0  0  0  0  0  0  0
   -3.6755    1.7565   -5.6216 C   0  0  2  0  0  0  0  0  0  0  0  0
   -4.5028    1.2313   -6.7319 N   0  3  0  0  0  0  0  0  0  0  0  0
   -2.9451    3.0633   -6.0547 C   0  0  1  0  0  0  0  0  0  0  0  0
   -3.8922    4.0290   -6.5062 O   0  0  0  0  0  0  0  0  0  0  0  0
   -2.1298    3.6819   -4.8876 C   0  0  2  0  0  0  0  0  0  0  0  0
   -1.2695    4.6865   -5.4133 O   0  0  0  0  0  0  0  0  0  0  0  0
   -1.2904    2.5937   -4.1428 C   0  0  2  0  0  0  0  0  0  0  0  0
   -1.3453    1.3265   -4.8752 O   0  0  0  0  0  0  0  0  0  0  0  0
   -1.7672    2.2891   -2.7040 C   0  0  0  0  0  0  0  0  0  0  0  0
   -1.8416   -4.6706   -6.2695 C   0  0  1  0  0  0  0  0  0  0  0  0
   -1.4257   -6.0559   -5.9563 N   0  3  0  0  0  0  0  0  0  0  0  0
   -2.9783   -4.1912   -5.3291 C   0  0  1  0  0  0  0  0  0  0  0  0
   -3.3573   -2.6806   -5.5143 C   0  0  1  0  0  0  0  0  0  0  0  0
   -4.1770   -2.2766   -4.3847 O   0  0  0  0  0  0  0  0  0  0  0  0
   -2.1080   -1.7260   -5.5596 C   0  0  1  0  0  0  0  0  0  0  0  0
   -0.9856   -2.2740   -6.4992 C   0  0  1  0  0  0  0  0  0  0  0  0
    0.2440   -1.4587   -6.4283 N   0  3  0  0  0  0  0  0  0  0  0  0
   -0.6181   -3.7367   -6.1626 C   0  0  0  0  0  0  0  0  0  0  0  0
   -4.3381   -0.8601   -4.0841 C   0  0  1  0  0  0  0  0  0  0  0  0
   -5.8191   -0.5761   -3.8637 C   0  0  1  0  0  0  0  0  0  0  0  0
   -5.9714   -1.0569   -2.4270 C   0  0  1  0  0  0  0  0  0  0  0  0
   -4.6789   -0.5320   -1.7856 C   0  0  2  0  0  0  0  0  0  0  0  0
   -3.6888   -0.5446   -2.8416 O   0  0  0  0  0  0  0  0  0  0  0  0
   -4.2019   -1.3921   -0.6016 C   0  0  0  0  0  0  0  0  0  0  0  0
  -10.1939   -1.0082    0.4949 C   0  0  1  0  0  0  0  0  0  0  0  0
  -10.0250    0.1551   -0.5218 C   0  0  1  0  0  0  0  0  0  0  0  0
   -9.6369   -0.3063   -1.9563 C   0  0  2  0  0  0  0  0  0  0  0  0
   -8.3925   -1.2511   -1.9281 C   0  0  1  0  0  0  0  0  0  0  0  0
   -7.1570   -0.4925   -1.7964 O   0  0  0  0  0  0  0  0  0  0  0  0
   -9.7836   -2.3688   -0.1460 C   0  0  1  0  0  0  0  0  0  0  0  0
   -8.4886   -2.2247   -0.8161 O   0  0  0  0  0  0  0  0  0  0  0  0
   -9.6945   -3.5122    0.8973 C   0  0  0  0  0  0  0  0  0  0  0  0
   -0.8520    1.4352   -1.9267 N   0  3  0  0  0  0  0  0  0  0  0  0
   -6.0639    0.8261   -3.9751 O   0  0  0  0  0  0  0  0  0  0  0  0
  -11.2564    0.8728   -0.5925 O   0  0  0  0  0  0  0  0  0  0  0  0
   -9.3763   -0.7343    1.6348 O   0  0  0  0  0  0  0  0  0  0  0  0
   -3.3267   -2.4165   -1.0413 O   0  0  0  0  0  0  0  0  0  0  0  0
   -4.1397   -4.9848   -5.5718 O   0  0  0  0  0  0  0  0  0  0  0  0
   -9.1066   -4.7469    0.3461 N   0  3  0  0  0  0  0  0  0  0  0  0
   -9.4547    0.8510   -2.8671 N   0  3  0  0  0  0  0  0  0  0  0  0
  1  2  1  6  0  0  0
  1  3  1  0  0  0  0
  1 10  1  0  0  0  0
  3  4  1  6  0  0  0
  3  5  1  0  0  0  0
  5  6  1  1  0  0  0
  5  7  1  0  0  0  0
  7  8  1  6  0  0  0
  7  9  1  0  0  0  0
  9 10  1  0  0  0  0
  9 11  1  1  0  0  0
 11 35  1  0  0  0  0
 12 13  1  1  0  0  0
 12 14  1  0  0  0  0
 12 20  1  0  0  0  0
 14 15  1  0  0  0  0
 14 40  1  6  0  0  0
 15 16  1  1  0  0  0
 15 17  1  0  0  0  0
 17  2  1  6  0  0  0
 17 18  1  0  0  0  0
 18 19  1  1  0  0  0
 18 20  1  0  0  0  0
 21 16  1  1  0  0  0
 21 22  1  0  0  0  0
 21 25  1  0  0  0  0
 22 23  1  0  0  0  0
 22 36  1  1  0  0  0
 23 24  1  0  0  0  0
 23 31  1  1  0  0  0
 24 25  1  0  0  0  0
 24 26  1  1  0  0  0
 26 39  1  0  0  0  0
 27 28  1  0  0  0  0
 27 32  1  0  0  0  0
 27 38  1  1  0  0  0
 28 29  1  0  0  0  0
 28 37  1  6  0  0  0
 29 30  1  0  0  0  0
 29 42  1  6  0  0  0
 30 31  1  1  0  0  0
 30 33  1  0  0  0  0
 32 33  1  0  0  0  0
 32 34  1  1  0  0  0
 34 41  1  0  0  0  0
M  CHG  6   4   1  13   1  19   1  35   1  41   1  42   1
M  END
>  <CHROM.1>
-152.90504826,104.00312919,-42.78447441,50.73133088,66.95927916,-170.38359633
-110.80607531,47.90976996,41.91522466,161.71899024,132.33971489,147.06688290
-47.82630610,89.91395665,90.24473504,-40.16387759,144.97850939,163.12546168
-142.04286154,-148.74624842,-170.99832837,78.52315914,-4.78444060,-0.68389890
-3.45828412,0.15632737,0.59326941,-0.04252062

>  <Name>


>  <RI>
0

>  <Rbt.Current_Directory>
/home/itssahil/PROJECTS/Mol_Feturizer/New_Systems/rnas/1ei2

>  <Rbt.Executable>
rbdock ($Id: //depot/dev/client3/rdock/2013.1/src/exe/rbdock.cxx#4 $)

>  <Rbt.Library>
libRbt.so (2013.1, Build901 2013/11/27)

>  <Rbt.Parameter_File>
/export/apps/rDock/src/rDock_2013.1_src/data/scripts/dock_solv.prm

>  <Rbt.Receptor>
prm/blind_docking_100.prm

>  <SCORE>
75.5296

>  <SCORE.INTER>
65.1551

>  <SCORE.INTER.CONST>
1

>  <SCORE.INTER.POLAR>
-5.05079

>  <SCORE.INTER.ROT>
9

>  <SCORE.INTER.SOLV>
65.8725

>  <SCORE.INTER.VDW>
28.7152

>  <SCORE.INTER.norm>
1.55131

>  <SCORE.INTRA>
4.49772

>  <SCORE.INTRA.DIHEDRAL>
7.57553

>  <SCORE.INTRA.DIHEDRAL.0>
40.8761

>  <SCORE.INTRA.POLAR>
-0.128539

>  <SCORE.INTRA.POLAR.0>
-0.0268208

>  <SCORE.INTRA.REPUL>
-0.641615

>  <SCORE.INTRA.REPUL.0>
0.641615

>  <SCORE.INTRA.SOLV>
-7.66517

>  <SCORE.INTRA.SOLV.lig_0>
-162.567

>  <SCORE.INTRA.VDW>
8.18765

>  <SCORE.INTRA.VDW.0>
-4.80338

>  <SCORE.INTRA.norm>
0.107089

>  <SCORE.RESTR>
5.87678

>  <SCORE.RESTR.CAVITY>
5.87678

>  <SCORE.RESTR.norm>
0.139923

>  <SCORE.SYSTEM>
0

>  <SCORE.SYSTEM.CONST>
0

>  <SCORE.SYSTEM.DIHEDRAL>
0

>  <SCORE.SYSTEM.SOLV>
0

>  <SCORE.SYSTEM.norm>
0

>  <SCORE.heavy>
42

>  <SCORE.norm>
1.79832

>  <RMSD>
9.083

$$$$

 OpenBabel11021811393D
libRbt.so/2013.1/901 2013/11/27
 42 45  0  0  0  0  0  0  0  0999 V2000
   -3.5743   -0.6301   -6.3104 C   0  0  2  0  0  0  0  0  0  0  0  0
   -4.6380    0.3160   -5.9828 O   0  0  0  0  0  0  0  0  0  0  0  0
   -2.9848   -0.3635   -7.7335 C   0  0  2  0  0  0  0  0  0  0  0  0
   -3.3832    0.9660   -8.2502 N   0  3  0  0  0  0  0  0  0  0  0  0
   -3.4132   -1.4865   -8.7257 C   0  0  1  0  0  0  0  0  0  0  0  0
   -2.8615   -1.2380  -10.0170 O   0  0  0  0  0  0  0  0  0  0  0  0
   -2.9414   -2.8867   -8.2500 C   0  0  2  0  0  0  0  0  0  0  0  0
   -3.6015   -3.8797   -9.0272 O   0  0  0  0  0  0  0  0  0  0  0  0
   -3.2474   -3.1031   -6.7325 C   0  0  2  0  0  0  0  0  0  0  0  0
   -4.0764   -2.0076   -6.2246 O   0  0  0  0  0  0  0  0  0  0  0  0
   -1.9952   -3.1608   -5.8275 C   0  0  0  0  0  0  0  0  0  0  0  0
   -3.0869    3.9984   -4.3539 C   0  0  1  0  0  0  0  0  0  0  0  0
   -2.8042    5.1425   -3.4585 N   0  3  0  0  0  0  0  0  0  0  0  0
   -2.4687    2.6838   -3.8100 C   0  0  1  0  0  0  0  0  0  0  0  0
   -2.8617    1.4106   -4.6375 C   0  0  1  0  0  0  0  0  0  0  0  0
   -2.5041    0.2362   -3.8604 O   0  0  0  0  0  0  0  0  0  0  0  0
   -4.4006    1.3219   -4.9508 C   0  0  1  0  0  0  0  0  0  0  0  0
   -4.9727    2.6818   -5.4669 C   0  0  1  0  0  0  0  0  0  0  0  0
   -6.4414    2.6432   -5.6195 N   0  3  0  0  0  0  0  0  0  0  0  0
   -4.6134    3.8515   -4.5233 C   0  0  0  0  0  0  0  0  0  0  0  0
   -2.6114    0.2758   -2.4079 C   0  0  1  0  0  0  0  0  0  0  0  0
   -4.0585    0.5766   -2.0361 C   0  0  1  0  0  0  0  0  0  0  0  0
   -4.6685   -0.8091   -2.1980 C   0  0  1  0  0  0  0  0  0  0  0  0
   -3.5762   -1.7016   -1.5918 C   0  0  2  0  0  0  0  0  0  0  0  0
   -2.3266   -1.0212   -1.8587 O   0  0  0  0  0  0  0  0  0  0  0  0
   -3.5494   -3.1162   -2.1979 C   0  0  0  0  0  0  0  0  0  0  0  0
   -9.6705   -1.3838   -0.7531 C   0  0  1  0  0  0  0  0  0  0  0  0
   -9.0555   -0.2432   -1.6111 C   0  0  1  0  0  0  0  0  0  0  0  0
   -8.0794   -0.7366   -2.7179 C   0  0  2  0  0  0  0  0  0  0  0  0
   -6.9873   -1.6846   -2.1259 C   0  0  1  0  0  0  0  0  0  0  0  0
   -5.9277   -0.9273   -1.4754 O   0  0  0  0  0  0  0  0  0  0  0  0
   -9.0362   -2.7591   -1.1223 C   0  0  1  0  0  0  0  0  0  0  0  0
   -7.5768   -2.6337   -1.1536 O   0  0  0  0  0  0  0  0  0  0  0  0
   -9.4314   -3.8802   -0.1268 C   0  0  0  0  0  0  0  0  0  0  0  0
   -1.0280   -4.2110   -6.1917 N   0  3  0  0  0  0  0  0  0  0  0  0
   -4.1263    1.0234   -0.6817 O   0  0  0  0  0  0  0  0  0  0  0  0
  -10.1200    0.4768   -2.2314 O   0  0  0  0  0  0  0  0  0  0  0  0
   -9.4372   -1.0881    0.6257 O   0  0  0  0  0  0  0  0  0  0  0  0
   -2.2282   -3.4910   -2.5482 O   0  0  0  0  0  0  0  0  0  0  0  0
   -1.0468    2.8089   -3.8154 O   0  0  0  0  0  0  0  0  0  0  0  0
   -8.3750   -4.8946    0.0434 N   0  3  0  0  0  0  0  0  0  0  0  0
   -7.4993    0.4004   -3.4749 N   0  3  0  0  0  0  0  0  0  0  0  0
  1  2  1  6  0  0  0
  1  3  1  0  0  0  0
  1 10  1  0  0  0  0
  3  4  1  6  0  0  0
  3  5  1  0  0  0  0
  5  6  1  6  0  0  0
  5  7  1  0  0  0  0
  7  8  1  6  0  0  0
  7  9  1  0  0  0  0
  9 10  1  0  0  0  0
  9 11  1  1  0  0  0
 11 35  1  0  0  0  0
 12 13  1  1  0  0  0
 12 14  1  0  0  0  0
 12 20  1  0  0  0  0
 14 15  1  0  0  0  0
 14 40  1  6  0  0  0
 15 16  1  1  0  0  0
 15 17  1  0  0  0  0
 17  2  1  6  0  0  0
 17 18  1  0  0  0  0
 18 19  1  1  0  0  0
 18 20  1  0  0  0  0
 21 16  1  6  0  0  0
 21 22  1  0  0  0  0
 21 25  1  0  0  0  0
 22 23  1  0  0  0  0
 22 36  1  1  0  0  0
 23 24  1  0  0  0  0
 23 31  1  1  0  0  0
 24 25  1  0  0  0  0
 24 26  1  6  0  0  0
 26 39  1  0  0  0  0
 27 28  1  0  0  0  0
 27 32  1  0  0  0  0
 27 38  1  1  0  0  0
 28 29  1  0  0  0  0
 28 37  1  6  0  0  0
 29 30  1  0  0  0  0
 29 42  1  1  0  0  0
 30 31  1  1  0  0  0
 30 33  1  0  0  0  0
 32 33  1  0  0  0  0
 32 34  1  1  0  0  0
 34 41  1  0  0  0  0
M  CHG  6   4   1  13   1  19   1  35   1  41   1  42   1
M  END
>  <CHROM.1>
-110.57080746,14.56707175,138.79002377,65.42680664,-42.07895891,-57.80406186
-20.75840048,-149.20066539,-175.50024519,34.19952425,59.39956071,75.62764370
58.24532978,141.18081606,132.40484438,157.77125039,51.70077320,-80.73737417
-79.27964184,-104.18399704,-148.06690829,36.61096213,-4.78729821,-0.54517669
-3.94221139,0.03048148,-0.83580168,-2.87385014

>  <Name>


>  <RI>
0

>  <Rbt.Current_Directory>
/home/itssahil/PROJECTS/Mol_Feturizer/New_Systems/rnas/1ei2

>  <Rbt.Executable>
rbdock ($Id: //depot/dev/client3/rdock/2013.1/src/exe/rbdock.cxx#4 $)

>  <Rbt.Library>
libRbt.so (2013.1, Build901 2013/11/27)

>  <Rbt.Parameter_File>
/export/apps/rDock/src/rDock_2013.1_src/data/scripts/dock_solv.prm

>  <Rbt.Receptor>
prm/blind_docking_40.prm

>  <SCORE>
-7.59433

>  <SCORE.INTER>
-19.0055

>  <SCORE.INTER.CONST>
1

>  <SCORE.INTER.POLAR>
-5.13225

>  <SCORE.INTER.ROT>
9

>  <SCORE.INTER.SOLV>
43.0333

>  <SCORE.INTER.VDW>
-19.5072

>  <SCORE.INTER.norm>
-0.452512

>  <SCORE.INTRA>
1.10687

>  <SCORE.INTRA.DIHEDRAL>
10.329

>  <SCORE.INTRA.DIHEDRAL.0>
40.8761

>  <SCORE.INTRA.POLAR>
-0.229076

>  <SCORE.INTRA.POLAR.0>
-0.0268208

>  <SCORE.INTRA.REPUL>
-0.641615

>  <SCORE.INTRA.REPUL.0>
0.641615

>  <SCORE.INTRA.SOLV>
-3.68773

>  <SCORE.INTRA.SOLV.lig_0>
-162.567

>  <SCORE.INTRA.VDW>
1.77317

>  <SCORE.INTRA.VDW.0>
-4.80338

>  <SCORE.INTRA.norm>
0.0263541

>  <SCORE.RESTR>
10.3043

>  <SCORE.RESTR.CAVITY>
10.3043

>  <SCORE.RESTR.norm>
0.24534

>  <SCORE.SYSTEM>
0

>  <SCORE.SYSTEM.CONST>
0

>  <SCORE.SYSTEM.DIHEDRAL>
0

>  <SCORE.SYSTEM.SOLV>
0

>  <SCORE.SYSTEM.norm>
0

>  <SCORE.heavy>
42

>  <SCORE.norm>
-0.180817

>  <RMSD>
9.088

$$$$

 OpenBabel11021811393D
libRbt.so/2013.1/901 2013/11/27
 42 45  0  0  0  0  0  0  0  0999 V2000
   -2.4928    1.4005   -5.0660 C   0  0  2  0  0  0  0  0  0  0  0  0
   -2.7190    0.0147   -4.6633 O   0  0  0  0  0  0  0  0  0  0  0  0
   -1.7868    2.2201   -3.9373 C   0  0  2  0  0  0  0  0  0  0  0  0
   -1.2083    1.3359   -2.8997 N   0  3  0  0  0  0  0  0  0  0  0  0
   -2.7761    3.2400   -3.2970 C   0  0  1  0  0  0  0  0  0  0  0  0
   -2.1185    3.9881   -2.2766 O   0  0  0  0  0  0  0  0  0  0  0  0
   -3.3414    4.2324   -4.3482 C   0  0  2  0  0  0  0  0  0  0  0  0
   -4.4373    4.9338   -3.7714 O   0  0  0  0  0  0  0  0  0  0  0  0
   -3.8039    3.4863   -5.6415 C   0  0  2  0  0  0  0  0  0  0  0  0
   -3.7655    2.0377   -5.4284 O   0  0  0  0  0  0  0  0  0  0  0  0
   -2.9366    3.7685   -6.8898 C   0  0  0  0  0  0  0  0  0  0  0  0
   -4.1421   -1.3013   -8.5185 C   0  0  1  0  0  0  0  0  0  0  0  0
   -4.6732   -2.1284   -9.6250 N   0  3  0  0  0  0  0  0  0  0  0  0
   -5.2185   -1.0468   -7.4309 C   0  0  1  0  0  0  0  0  0  0  0  0
   -4.6721   -0.3032   -6.1625 C   0  0  1  0  0  0  0  0  0  0  0  0
   -5.6655   -0.4148   -5.1082 O   0  0  0  0  0  0  0  0  0  0  0  0
   -3.3285   -0.9107   -5.6149 C   0  0  1  0  0  0  0  0  0  0  0  0
   -2.2949   -1.1721   -6.7579 C   0  0  1  0  0  0  0  0  0  0  0  0
   -1.0935   -1.8781   -6.2681 N   0  3  0  0  0  0  0  0  0  0  0  0
   -2.9087   -1.9999   -7.9093 C   0  0  0  0  0  0  0  0  0  0  0  0
   -5.4040    0.1884   -3.8079 C   0  0  1  0  0  0  0  0  0  0  0  0
   -6.6734    0.1025   -2.9689 C   0  0  1  0  0  0  0  0  0  0  0  0
   -6.5797   -1.3402   -2.4912 C   0  0  1  0  0  0  0  0  0  0  0  0
   -5.0827   -1.4654   -2.1743 C   0  0  2  0  0  0  0  0  0  0  0  0
   -4.4141   -0.5771   -3.1014 O   0  0  0  0  0  0  0  0  0  0  0  0
   -4.5505   -2.9004   -2.3380 C   0  0  0  0  0  0  0  0  0  0  0  0
   -9.5294   -4.4005    0.1712 C   0  0  1  0  0  0  0  0  0  0  0  0
   -9.4058   -2.9684    0.7620 C   0  0  1  0  0  0  0  0  0  0  0  0
   -9.6528   -1.8314   -0.2712 C   0  0  2  0  0  0  0  0  0  0  0  0
   -8.7672   -2.0232   -1.5442 C   0  0  1  0  0  0  0  0  0  0  0  0
   -7.4040   -1.5683   -1.3121 O   0  0  0  0  0  0  0  0  0  0  0  0
   -9.7311   -4.3474   -1.3737 C   0  0  1  0  0  0  0  0  0  0  0  0
   -8.7430   -3.4426   -1.9667 O   0  0  0  0  0  0  0  0  0  0  0  0
   -9.6071   -5.7439   -2.0358 C   0  0  0  0  0  0  0  0  0  0  0  0
   -3.6854    3.7959   -8.1586 N   0  3  0  0  0  0  0  0  0  0  0  0
   -6.5948    1.0210   -1.8786 O   0  0  0  0  0  0  0  0  0  0  0  0
  -10.3539   -2.8352    1.8202 O   0  0  0  0  0  0  0  0  0  0  0  0
   -8.3382   -5.1242    0.4877 O   0  0  0  0  0  0  0  0  0  0  0  0
   -4.7029   -3.3465   -3.6746 O   0  0  0  0  0  0  0  0  0  0  0  0
   -6.2690   -0.2653   -7.9992 O   0  0  0  0  0  0  0  0  0  0  0  0
  -10.6508   -6.6849   -1.5894 N   0  3  0  0  0  0  0  0  0  0  0  0
   -9.4836   -0.4924    0.3458 N   0  3  0  0  0  0  0  0  0  0  0  0
  1  2  1  1  0  0  0
  1  3  1  0  0  0  0
  1 10  1  0  0  0  0
  3  4  1  1  0  0  0
  3  5  1  0  0  0  0
  5  6  1  1  0  0  0
  5  7  1  0  0  0  0
  7  8  1  1  0  0  0
  7  9  1  0  0  0  0
  9 10  1  0  0  0  0
  9 11  1  6  0  0  0
 11 35  1  0  0  0  0
 12 13  1  6  0  0  0
 12 14  1  0  0  0  0
 12 20  1  0  0  0  0
 14 15  1  0  0  0  0
 14 40  1  6  0  0  0
 15 16  1  1  0  0  0
 15 17  1  0  0  0  0
 17  2  1  1  0  0  0
 17 18  1  0  0  0  0
 18 19  1  1  0  0  0
 18 20  1  0  0  0  0
 21 16  1  6  0  0  0
 21 22  1  0  0  0  0
 21 25  1  0  0  0  0
 22 23  1  0  0  0  0
 22 36  1  1  0  0  0
 23 24  1  0  0  0  0
 23 31  1  1  0  0  0
 24 25  1  0  0  0  0
 24 26  1  6  0  0  0
 26 39  1  0  0  0  0
 27 28  1  0  0  0  0
 27 32  1  0  0  0  0
 27 38  1  6  0  0  0
 28 29  1  0  0  0  0
 28 37  1  1  0  0  0
 29 30  1  0  0  0  0
 29 42  1  1  0  0  0
 30 31  1  1  0  0  0
 30 33  1  0  0  0  0
 32 33  1  0  0  0  0
 32 34  1  6  0  0  0
 34 41  1  0  0  0  0
M  CHG  6   4   1  13   1  19   1  35   1  41   1  42   1
M  END
>  <CHROM.1>
-177.90044590,-53.01566666,-31.11997968,-178.67665701,170.73773256,-145.45841127
84.07040098,-59.18828070,-160.45016630,179.67079634,171.81721232,64.16262860
-138.05678592,91.59716898,61.26721393,151.36191543,-59.53161966,179.83340005
-164.68845879,-163.45764289,63.58058303,-171.72119023,-5.50951519,-0.63962356
-3.71310053,0.01925683,0.89115155,0.76097446

>  <Name>


>  <RI>
0

>  <Rbt.Current_Directory>
/home/itssahil/PROJECTS/Mol_Feturizer/New_Systems/rnas/1ei2

>  <Rbt.Executable>
rbdock ($Id: //depot/dev/client3/rdock/2013.1/src/exe/rbdock.cxx#4 $)

>  <Rbt.Library>
libRbt.so (2013.1, Build901 2013/11/27)

>  <Rbt.Parameter_File>
/export/apps/rDock/src/rDock_2013.1_src/data/scripts/dock_solv.prm

>  <Rbt.Receptor>
prm/blind_docking_100.prm

>  <SCORE>
18.7688

>  <SCORE.INTER>
23.8258

>  <SCORE.INTER.CONST>
1

>  <SCORE.INTER.POLAR>
-5.36395

>  <SCORE.INTER.ROT>
9

>  <SCORE.INTER.SOLV>
57.8854

>  <SCORE.INTER.VDW>
4.86857

>  <SCORE.INTER.norm>
0.567282

>  <SCORE.INTRA>
-15.4724

>  <SCORE.INTRA.DIHEDRAL>
-16.2799

>  <SCORE.INTRA.DIHEDRAL.0>
40.8761

>  <SCORE.INTRA.POLAR>
-0.557323

>  <SCORE.INTRA.POLAR.0>
-0.0268208

>  <SCORE.INTRA.REPUL>
-0.49824

>  <SCORE.INTRA.REPUL.0>
0.641615

>  <SCORE.INTRA.SOLV>
-12.2058

>  <SCORE.INTRA.SOLV.lig_0>
-162.567

>  <SCORE.INTRA.VDW>
3.15659

>  <SCORE.INTRA.VDW.0>
-4.80338

>  <SCORE.INTRA.norm>
-0.368389

>  <SCORE.RESTR>
10.4153

>  <SCORE.RESTR.CAVITY>
10.4153

>  <SCORE.RESTR.norm>
0.247984

>  <SCORE.SYSTEM>
0

>  <SCORE.SYSTEM.CONST>
0

>  <SCORE.SYSTEM.DIHEDRAL>
0

>  <SCORE.SYSTEM.SOLV>
0

>  <SCORE.SYSTEM.norm>
0

>  <SCORE.heavy>
42

>  <SCORE.norm>
0.446876

>  <RMSD>
9.094

$$$$

 OpenBabel11021811393D
libRbt.so/2013.1/901 2013/11/27
 42 45  0  0  0  0  0  0  0  0999 V2000
   -3.1079    0.0657   -5.9062 C   0  0  2  0  0  0  0  0  0  0  0  0
   -3.2743   -1.2517   -6.5148 O   0  0  0  0  0  0  0  0  0  0  0  0
   -4.4301    0.8978   -5.9641 C   0  0  2  0  0  0  0  0  0  0  0  0
   -5.5982    0.0466   -6.2870 N   0  3  0  0  0  0  0  0  0  0  0  0
   -4.3023    2.0632   -6.9909 C   0  0  1  0  0  0  0  0  0  0  0  0
   -5.5099    2.8206   -7.0274 O   0  0  0  0  0  0  0  0  0  0  0  0
   -3.1323    3.0192   -6.6350 C   0  0  2  0  0  0  0  0  0  0  0  0
   -2.8873    3.8747   -7.7457 O   0  0  0  0  0  0  0  0  0  0  0  0
   -1.8366    2.2213   -6.2773 C   0  0  2  0  0  0  0  0  0  0  0  0
   -2.0234    0.7988   -6.5721 O   0  0  0  0  0  0  0  0  0  0  0  0
   -1.4187    2.3095   -4.7914 C   0  0  0  0  0  0  0  0  0  0  0  0
   -2.6984   -5.3045   -5.1496 C   0  0  1  0  0  0  0  0  0  0  0  0
   -2.0850   -6.5655   -4.6764 N   0  3  0  0  0  0  0  0  0  0  0  0
   -2.6115   -4.1904   -4.0738 C   0  0  1  0  0  0  0  0  0  0  0  0
   -3.1100   -2.7894   -4.5726 C   0  0  1  0  0  0  0  0  0  0  0  0
   -2.6821   -1.7871   -3.6119 O   0  0  0  0  0  0  0  0  0  0  0  0
   -2.5246   -2.3831   -5.9749 C   0  0  1  0  0  0  0  0  0  0  0  0
   -2.6130   -3.5528   -7.0079 C   0  0  1  0  0  0  0  0  0  0  0  0
   -1.9313   -3.2248   -8.2766 N   0  3  0  0  0  0  0  0  0  0  0  0
   -2.0010   -4.8581   -6.4515 C   0  0  0  0  0  0  0  0  0  0  0  0
   -3.4142   -0.5316   -3.5091 C   0  0  1  0  0  0  0  0  0  0  0  0
   -4.8917   -0.8466   -3.3073 C   0  0  1  0  0  0  0  0  0  0  0  0
   -4.8976   -1.1510   -1.8154 C   0  0  1  0  0  0  0  0  0  0  0  0
   -3.9559   -0.0662   -1.2737 C   0  0  2  0  0  0  0  0  0  0  0  0
   -3.0012    0.1833   -2.3329 O   0  0  0  0  0  0  0  0  0  0  0  0
   -3.2228   -0.4920    0.0111 C   0  0  0  0  0  0  0  0  0  0  0  0
   -9.8955   -1.8162   -0.3916 C   0  0  1  0  0  0  0  0  0  0  0  0
   -9.3918   -0.5119   -1.0701 C   0  0  1  0  0  0  0  0  0  0  0  0
   -8.4758   -0.7512   -2.3050 C   0  0  2  0  0  0  0  0  0  0  0  0
   -7.3052   -1.7268   -1.9590 C   0  0  1  0  0  0  0  0  0  0  0  0
   -6.2358   -1.0377   -1.2513 O   0  0  0  0  0  0  0  0  0  0  0  0
   -9.2306   -3.0696   -1.0372 C   0  0  1  0  0  0  0  0  0  0  0  0
   -7.7837   -2.8614   -1.1359 O   0  0  0  0  0  0  0  0  0  0  0  0
   -9.5064   -4.3667   -0.2338 C   0  0  0  0  0  0  0  0  0  0  0  0
   -0.8262    1.0734   -4.2506 N   0  3  0  0  0  0  0  0  0  0  0  0
   -5.6771    0.3070   -3.6092 O   0  0  0  0  0  0  0  0  0  0  0  0
  -10.5271    0.2460   -1.4860 O   0  0  0  0  0  0  0  0  0  0  0  0
   -9.5786   -1.7527    1.0007 O   0  0  0  0  0  0  0  0  0  0  0  0
   -2.1801    0.4160    0.3225 O   0  0  0  0  0  0  0  0  0  0  0  0
   -3.3974   -4.5783   -2.9472 O   0  0  0  0  0  0  0  0  0  0  0  0
   -9.6238   -5.5593   -1.0928 N   0  3  0  0  0  0  0  0  0  0  0  0
   -7.9996    0.5301   -2.8828 N   0  3  0  0  0  0  0  0  0  0  0  0
  1  2  1  6  0  0  0
  1  3  1  0  0  0  0
  1 10  1  0  0  0  0
  3  4  1  6  0  0  0
  3  5  1  0  0  0  0
  5  6  1  1  0  0  0
  5  7  1  0  0  0  0
  7  8  1  6  0  0  0
  7  9  1  0  0  0  0
  9 10  1  0  0  0  0
  9 11  1  1  0  0  0
 11 35  1  0  0  0  0
 12 13  1  1  0  0  0
 12 14  1  0  0  0  0
 12 20  1  0  0  0  0
 14 15  1  0  0  0  0
 14 40  1  1  0  0  0
 15 16  1  1  0  0  0
 15 17  1  0  0  0  0
 17  2  1  6  0  0  0
 17 18  1  0  0  0  0
 18 19  1  6  0  0  0
 18 20  1  0  0  0  0
 21 16  1  1  0  0  0
 21 22  1  0  0  0  0
 21 25  1  0  0  0  0
 22 23  1  0  0  0  0
 22 36  1  1  0  0  0
 23 24  1  0  0  0  0
 23 31  1  1  0  0  0
 24 25  1  0  0  0  0
 24 26  1  1  0  0  0
 26 39  1  0  0  0  0
 27 28  1  0  0  0  0
 27 32  1  0  0  0  0
 27 38  1  1  0  0  0
 28 29  1  0  0  0  0
 28 37  1  6  0  0  0
 29 30  1  0  0  0  0
 29 42  1  1  0  0  0
 30 31  1  1  0  0  0
 30 33  1  0  0  0  0
 32 33  1  0  0  0  0
 32 34  1  1  0  0  0
 34 41  1  0  0  0  0
M  CHG  6   4   1  13   1  19   1  35   1  41   1  42   1
M  END
>  <CHROM.1>
-146.95179937,71.51500675,-86.73454535,69.60106025,162.88481762,144.42931571
136.35497566,-112.78909419,81.41677568,-155.65056705,52.88882956,-136.74646647
130.71207028,49.07593510,168.31639434,67.02829099,175.40890359,173.40752654
-129.68439954,-125.89299708,146.39360043,-152.56584133,-4.79366186,-1.09013177
-3.73131017,0.41266457,0.65258689,-0.22491891

>  <Name>


>  <RI>
0

>  <Rbt.Current_Directory>
/home/itssahil/PROJECTS/Mol_Feturizer/New_Systems/rnas/1ei2

>  <Rbt.Executable>
rbdock ($Id: //depot/dev/client3/rdock/2013.1/src/exe/rbdock.cxx#4 $)

>  <Rbt.Library>
libRbt.so (2013.1, Build901 2013/11/27)

>  <Rbt.Parameter_File>
/export/apps/rDock/src/rDock_2013.1_src/data/scripts/dock_solv.prm

>  <Rbt.Receptor>
prm/blind_docking_40.prm

>  <SCORE>
-9.41174

>  <SCORE.INTER>
-27.073

>  <SCORE.INTER.CONST>
1

>  <SCORE.INTER.POLAR>
-10.3214

>  <SCORE.INTER.ROT>
9

>  <SCORE.INTER.SOLV>
54.7471

>  <SCORE.INTER.VDW>
-11.4931

>  <SCORE.INTER.norm>
-0.644595

>  <SCORE.INTRA>
11.0013

>  <SCORE.INTRA.DIHEDRAL>
8.17217

>  <SCORE.INTRA.DIHEDRAL.0>
40.8761

>  <SCORE.INTRA.POLAR>
-1.73571

>  <SCORE.INTRA.POLAR.0>
-0.0268208

>  <SCORE.INTRA.REPUL>
-0.620614

>  <SCORE.INTRA.REPUL.0>
0.641615

>  <SCORE.INTRA.SOLV>
1.34272

>  <SCORE.INTRA.SOLV.lig_0>
-162.567

>  <SCORE.INTRA.VDW>
15.2483

>  <SCORE.INTRA.VDW.0>
-4.80338

>  <SCORE.INTRA.norm>
0.261935

>  <SCORE.RESTR>
6.66

>  <SCORE.RESTR.CAVITY>
6.66

>  <SCORE.RESTR.norm>
0.158571

>  <SCORE.SYSTEM>
0

>  <SCORE.SYSTEM.CONST>
0

>  <SCORE.SYSTEM.DIHEDRAL>
0

>  <SCORE.SYSTEM.SOLV>
0

>  <SCORE.SYSTEM.norm>
0

>  <SCORE.heavy>
42

>  <SCORE.norm>
-0.224089

>  <RMSD>
9.097

$$$$

 OpenBabel11021811393D
libRbt.so/2013.1/901 2013/11/27
 42 45  0  0  0  0  0  0  0  0999 V2000
   -6.4830    0.3561   -3.5312 C   0  0  2  0  0  0  0  0  0  0  0  0
   -7.8826    0.7205   -3.3257 O   0  0  0  0  0  0  0  0  0  0  0  0
   -6.0420   -0.7981   -2.5735 C   0  0  2  0  0  0  0  0  0  0  0  0
   -7.2075   -1.4722   -1.9567 N   0  3  0  0  0  0  0  0  0  0  0  0
   -5.0755   -0.2624   -1.4746 C   0  0  1  0  0  0  0  0  0  0  0  0
   -4.6724   -1.3255   -0.6140 O   0  0  0  0  0  0  0  0  0  0  0  0
   -3.8043    0.3821   -2.0895 C   0  0  2  0  0  0  0  0  0  0  0  0
   -3.1166    1.0988   -1.0701 O   0  0  0  0  0  0  0  0  0  0  0  0
   -4.1685    1.3431   -3.2673 C   0  0  2  0  0  0  0  0  0  0  0  0
   -5.6198    1.5283   -3.3360 O   0  0  0  0  0  0  0  0  0  0  0  0
   -3.7239    0.8455   -4.6620 C   0  0  0  0  0  0  0  0  0  0  0  0
   -7.6864    4.3299   -5.6823 C   0  0  1  0  0  0  0  0  0  0  0  0
   -8.0519    5.5399   -6.4522 N   0  3  0  0  0  0  0  0  0  0  0  0
   -7.9916    4.5029   -4.1713 C   0  0  1  0  0  0  0  0  0  0  0  0
   -7.7652    3.2004   -3.3274 C   0  0  1  0  0  0  0  0  0  0  0  0
   -8.3831    3.3898   -2.0261 O   0  0  0  0  0  0  0  0  0  0  0  0
   -8.4071    1.9189   -3.9755 C   0  0  1  0  0  0  0  0  0  0  0  0
   -8.0903    1.8133   -5.5024 C   0  0  1  0  0  0  0  0  0  0  0  0
   -8.8127    0.6952   -6.1426 N   0  3  0  0  0  0  0  0  0  0  0  0
   -8.4466    3.1153   -6.2545 C   0  0  0  0  0  0  0  0  0  0  0  0
   -9.7674    3.8371   -1.9463 C   0  0  1  0  0  0  0  0  0  0  0  0
  -10.2551    3.6528   -0.5141 C   0  0  1  0  0  0  0  0  0  0  0  0
   -9.6548    4.8934    0.1332 C   0  0  1  0  0  0  0  0  0  0  0  0
   -9.8996    5.9564   -0.9473 C   0  0  2  0  0  0  0  0  0  0  0  0
   -9.8438    5.2479   -2.2085 O   0  0  0  0  0  0  0  0  0  0  0  0
   -8.8548    7.0866   -0.9277 C   0  0  0  0  0  0  0  0  0  0  0  0
  -10.7752    8.7089    2.9307 C   0  0  1  0  0  0  0  0  0  0  0  0
  -11.4041    7.3971    3.4775 C   0  0  1  0  0  0  0  0  0  0  0  0
  -10.3877    6.2332    3.6597 C   0  0  2  0  0  0  0  0  0  0  0  0
   -9.5640    5.9932    2.3537 C   0  0  1  0  0  0  0  0  0  0  0  0
  -10.3281    5.2248    1.3816 O   0  0  0  0  0  0  0  0  0  0  0  0
   -9.2784    8.4910    2.5534 C   0  0  1  0  0  0  0  0  0  0  0  0
   -9.1484    7.2772    1.7433 O   0  0  0  0  0  0  0  0  0  0  0  0
   -8.6829    9.6917    1.7739 C   0  0  0  0  0  0  0  0  0  0  0  0
   -2.2641    0.8109   -4.8598 N   0  3  0  0  0  0  0  0  0  0  0  0
  -11.6822    3.6843   -0.4821 O   0  0  0  0  0  0  0  0  0  0  0  0
  -12.0043    7.6789    4.7411 O   0  0  0  0  0  0  0  0  0  0  0  0
  -11.5179    9.1211    1.7812 O   0  0  0  0  0  0  0  0  0  0  0  0
   -7.5463    6.5681   -1.0943 O   0  0  0  0  0  0  0  0  0  0  0  0
   -7.1543    5.5344   -3.6494 O   0  0  0  0  0  0  0  0  0  0  0  0
   -8.7379   10.9534    2.5348 N   0  3  0  0  0  0  0  0  0  0  0  0
  -11.0561    5.0014    4.1476 N   0  3  0  0  0  0  0  0  0  0  0  0
  1  2  1  1  0  0  0
  1  3  1  0  0  0  0
  1 10  1  0  0  0  0
  3  4  1  1  0  0  0
  3  5  1  0  0  0  0
  5  6  1  1  0  0  0
  5  7  1  0  0  0  0
  7  8  1  1  0  0  0
  7  9  1  0  0  0  0
  9 10  1  0  0  0  0
  9 11  1  6  0  0  0
 11 35  1  0  0  0  0
 12 13  1  6  0  0  0
 12 14  1  0  0  0  0
 12 20  1  0  0  0  0
 14 15  1  0  0  0  0
 14 40  1  1  0  0  0
 15 16  1  1  0  0  0
 15 17  1  0  0  0  0
 17  2  1  1  0  0  0
 17 18  1  0  0  0  0
 18 19  1  6  0  0  0
 18 20  1  0  0  0  0
 21 16  1  1  0  0  0
 21 22  1  0  0  0  0
 21 25  1  0  0  0  0
 22 23  1  0  0  0  0
 22 36  1  6  0  0  0
 23 24  1  0  0  0  0
 23 31  1  1  0  0  0
 24 25  1  0  0  0  0
 24 26  1  6  0  0  0
 26 39  1  0  0  0  0
 27 28  1  0  0  0  0
 27 32  1  0  0  0  0
 27 38  1  6  0  0  0
 28 29  1  0  0  0  0
 28 37  1  1  0  0  0
 29 30  1  0  0  0  0
 29 42  1  6  0  0  0
 30 31  1  6  0  0  0
 30 33  1  0  0  0  0
 32 33  1  0  0  0  0
 32 34  1  6  0  0  0
 34 41  1  0  0  0  0
M  CHG  6   4   1  13   1  19   1  35   1  41   1  42   1
M  END
>  <CHROM.1>
170.18444310,-69.02126721,-55.43470187,-57.84349535,176.65350778,-67.60192118
62.65614406,-61.91202560,-60.25302475,51.31440581,167.42984532,16.87731292
59.84958648,155.45920232,57.87357778,59.49278027,-63.01870284,63.91617256
64.19907436,-178.01108053,59.74297515,162.22321512,-8.12180822,4.05474498
-1.29253187,-0.57968785,-1.00228217,1.64457256

>  <Name>


>  <RI>
0

>  <Rbt.Current_Directory>
/home/itssahil/PROJECTS/Mol_Feturizer/New_Systems/rnas/1ei2

>  <Rbt.Executable>
rbdock ($Id: //depot/dev/client3/rdock/2013.1/src/exe/rbdock.cxx#4 $)

>  <Rbt.Library>
libRbt.so (2013.1, Build901 2013/11/27)

>  <Rbt.Parameter_File>
/export/apps/rDock/src/rDock_2013.1_src/data/scripts/dock_solv.prm

>  <Rbt.Receptor>
prm/pocket_docking_5.prm

>  <SCORE>
-46.0083

>  <SCORE.INTER>
-19.6439

>  <SCORE.INTER.CONST>
1

>  <SCORE.INTER.POLAR>
-4.11587

>  <SCORE.INTER.ROT>
9

>  <SCORE.INTER.SOLV>
21.3235

>  <SCORE.INTER.VDW>
-16.0842

>  <SCORE.INTER.norm>
-0.467712

>  <SCORE.INTRA>
-26.4603

>  <SCORE.INTRA.DIHEDRAL>
-31.393

>  <SCORE.INTRA.DIHEDRAL.0>
40.8761

>  <SCORE.INTRA.POLAR>
-0.975796

>  <SCORE.INTRA.POLAR.0>
-0.0268208

>  <SCORE.INTRA.REPUL>
-0.641615

>  <SCORE.INTRA.REPUL.0>
0.641615

>  <SCORE.INTRA.SOLV>
-12.1553

>  <SCORE.INTRA.SOLV.lig_0>
-162.567

>  <SCORE.INTRA.VDW>
1.83961

>  <SCORE.INTRA.VDW.0>
-4.80338

>  <SCORE.INTRA.norm>
-0.630007

>  <SCORE.RESTR>
0.095948

>  <SCORE.RESTR.CAVITY>
0.095948

>  <SCORE.RESTR.norm>
0.00228448

>  <SCORE.SYSTEM>
0

>  <SCORE.SYSTEM.CONST>
0

>  <SCORE.SYSTEM.DIHEDRAL>
0

>  <SCORE.SYSTEM.SOLV>
0

>  <SCORE.SYSTEM.norm>
0

>  <SCORE.heavy>
42

>  <SCORE.norm>
-1.09544

>  <RMSD>
9.101

$$$$

 OpenBabel11021811393D
libRbt.so/2013.1/901 2013/11/27
 42 45  0  0  0  0  0  0  0  0999 V2000
   -3.8095    0.4186   -5.7660 C   0  0  2  0  0  0  0  0  0  0  0  0
   -4.0025   -0.7682   -6.5954 O   0  0  0  0  0  0  0  0  0  0  0  0
   -4.7820    1.5719   -6.1760 C   0  0  2  0  0  0  0  0  0  0  0  0
   -5.8792    1.0804   -7.0408 N   0  3  0  0  0  0  0  0  0  0  0  0
   -4.0038    2.7233   -6.8814 C   0  0  1  0  0  0  0  0  0  0  0  0
   -4.8992    3.7731   -7.2413 O   0  0  0  0  0  0  0  0  0  0  0  0
   -2.8952    3.3130   -5.9689 C   0  0  2  0  0  0  0  0  0  0  0  0
   -2.0467    4.1404   -6.7572 O   0  0  0  0  0  0  0  0  0  0  0  0
   -2.0584    2.1813   -5.2889 C   0  0  2  0  0  0  0  0  0  0  0  0
   -2.4178    0.8794   -5.8557 O   0  0  0  0  0  0  0  0  0  0  0  0
   -2.2601    2.0645   -3.7606 C   0  0  0  0  0  0  0  0  0  0  0  0
   -2.9571   -4.9452   -6.3132 C   0  0  1  0  0  0  0  0  0  0  0  0
   -2.1963   -6.2113   -6.2201 N   0  3  0  0  0  0  0  0  0  0  0  0
   -2.8312   -4.1086   -5.0130 C   0  0  1  0  0  0  0  0  0  0  0  0
   -3.4922   -2.6894   -5.1080 C   0  0  1  0  0  0  0  0  0  0  0  0
   -3.0335   -1.8988   -3.9786 O   0  0  0  0  0  0  0  0  0  0  0  0
   -3.1090   -1.9102   -6.4196 C   0  0  1  0  0  0  0  0  0  0  0  0
   -3.2269   -2.8108   -7.6916 C   0  0  1  0  0  0  0  0  0  0  0  0
   -2.7265   -2.1284   -8.9024 N   0  3  0  0  0  0  0  0  0  0  0  0
   -2.4543   -4.1391   -7.5288 C   0  0  0  0  0  0  0  0  0  0  0  0
   -3.5956   -0.5735   -3.7538 C   0  0  1  0  0  0  0  0  0  0  0  0
   -5.0985   -0.7132   -3.5421 C   0  0  1  0  0  0  0  0  0  0  0  0
   -5.1228   -1.1408   -2.0809 C   0  0  1  0  0  0  0  0  0  0  0  0
   -4.0411   -0.2355   -1.4747 C   0  0  2  0  0  0  0  0  0  0  0  0
   -3.0771   -0.0204   -2.5331 O   0  0  0  0  0  0  0  0  0  0  0  0
   -3.3513   -0.8597   -0.2484 C   0  0  0  0  0  0  0  0  0  0  0  0
   -9.8735   -1.9215   -0.1234 C   0  0  1  0  0  0  0  0  0  0  0  0
   -9.5431   -0.5668   -0.8098 C   0  0  1  0  0  0  0  0  0  0  0  0
   -8.8108   -0.7085   -2.1753 C   0  0  2  0  0  0  0  0  0  0  0  0
   -7.5538   -1.6283   -2.0491 C   0  0  1  0  0  0  0  0  0  0  0  0
   -6.4270   -0.9062   -1.4762 O   0  0  0  0  0  0  0  0  0  0  0  0
   -9.2498   -3.1108   -0.9151 C   0  0  1  0  0  0  0  0  0  0  0  0
   -7.8462   -2.8175   -1.2160 O   0  0  0  0  0  0  0  0  0  0  0  0
   -9.3367   -4.4500   -0.1385 C   0  0  0  0  0  0  0  0  0  0  0  0
   -1.0590    1.6440   -3.0178 N   0  3  0  0  0  0  0  0  0  0  0  0
   -5.7321    0.5527   -3.7276 O   0  0  0  0  0  0  0  0  0  0  0  0
  -10.7647    0.1403   -1.0200 O   0  0  0  0  0  0  0  0  0  0  0  0
   -9.3560   -1.8912    1.2086 O   0  0  0  0  0  0  0  0  0  0  0  0
   -2.2627   -0.0600    0.1807 O   0  0  0  0  0  0  0  0  0  0  0  0
   -3.4469   -4.8267   -3.9440 O   0  0  0  0  0  0  0  0  0  0  0  0
   -9.6140   -5.6036   -1.0139 N   0  3  0  0  0  0  0  0  0  0  0  0
   -8.4914    0.6180   -2.7591 N   0  3  0  0  0  0  0  0  0  0  0  0
  1  2  1  6  0  0  0
  1  3  1  0  0  0  0
  1 10  1  0  0  0  0
  3  4  1  6  0  0  0
  3  5  1  0  0  0  0
  5  6  1  1  0  0  0
  5  7  1  0  0  0  0
  7  8  1  6  0  0  0
  7  9  1  0  0  0  0
  9 10  1  0  0  0  0
  9 11  1  1  0  0  0
 11 35  1  0  0  0  0
 12 13  1  1  0  0  0
 12 14  1  0  0  0  0
 12 20  1  0  0  0  0
 14 15  1  0  0  0  0
 14 40  1  1  0  0  0
 15 16  1  1  0  0  0
 15 17  1  0  0  0  0
 17  2  1  6  0  0  0
 17 18  1  0  0  0  0
 18 19  1  6  0  0  0
 18 20  1  0  0  0  0
 21 16  1  1  0  0  0
 21 22  1  0  0  0  0
 21 25  1  0  0  0  0
 22 23  1  0  0  0  0
 22 36  1  1  0  0  0
 23 24  1  0  0  0  0
 23 31  1  1  0  0  0
 24 25  1  0  0  0  0
 24 26  1  1  0  0  0
 26 39  1  0  0  0  0
 27 28  1  0  0  0  0
 27 32  1  0  0  0  0
 27 38  1  1  0  0  0
 28 29  1  0  0  0  0
 28 37  1  6  0  0  0
 29 30  1  0  0  0  0
 29 42  1  1  0  0  0
 30 31  1  1  0  0  0
 30 33  1  0  0  0  0
 32 33  1  0  0  0  0
 32 34  1  1  0  0  0
 34 41  1  0  0  0  0
M  CHG  6   4   1  13   1  19   1  35   1  41   1  42   1
M  END
>  <CHROM.1>
175.41562195,75.67874876,-26.72229948,108.37813931,84.71373634,-146.47893556
129.24128679,81.23354816,163.84884612,-174.24111352,60.16992983,54.74963580
136.03484106,61.89827416,173.28960567,69.06309690,82.27207765,72.63338751
-158.51427392,-137.98611778,142.40321233,94.82166292,-4.97797581,-0.89950211
-3.82567686,0.29466154,0.75211005,0.00529652

>  <Name>


>  <RI>
0

>  <Rbt.Current_Directory>
/home/itssahil/PROJECTS/Mol_Feturizer/New_Systems/rnas/1ei2

>  <Rbt.Executable>
rbdock ($Id: //depot/dev/client3/rdock/2013.1/src/exe/rbdock.cxx#4 $)

>  <Rbt.Library>
libRbt.so (2013.1, Build901 2013/11/27)

>  <Rbt.Parameter_File>
/export/apps/rDock/src/rDock_2013.1_src/data/scripts/dock_solv.prm

>  <Rbt.Receptor>
prm/blind_docking_100.prm

>  <SCORE>
2.09229

>  <SCORE.INTER>
-15.1362

>  <SCORE.INTER.CONST>
1

>  <SCORE.INTER.POLAR>
-8.0234

>  <SCORE.INTER.ROT>
9

>  <SCORE.INTER.SOLV>
48.6984

>  <SCORE.INTER.VDW>
-9.17894

>  <SCORE.INTER.norm>
-0.360386

>  <SCORE.INTRA>
9.64961

>  <SCORE.INTRA.DIHEDRAL>
3.36132

>  <SCORE.INTRA.DIHEDRAL.0>
40.8761

>  <SCORE.INTRA.POLAR>
-0.802966

>  <SCORE.INTRA.POLAR.0>
-0.0268208

>  <SCORE.INTRA.REPUL>
-0.641615

>  <SCORE.INTRA.REPUL.0>
0.641615

>  <SCORE.INTRA.SOLV>
-6.78878

>  <SCORE.INTRA.SOLV.lig_0>
-162.567

>  <SCORE.INTRA.VDW>
17.3015

>  <SCORE.INTRA.VDW.0>
-4.80338

>  <SCORE.INTRA.norm>
0.229753

>  <SCORE.RESTR>
7.5789

>  <SCORE.RESTR.CAVITY>
7.5789

>  <SCORE.RESTR.norm>
0.18045

>  <SCORE.SYSTEM>
0

>  <SCORE.SYSTEM.CONST>
0

>  <SCORE.SYSTEM.DIHEDRAL>
0

>  <SCORE.SYSTEM.SOLV>
0

>  <SCORE.SYSTEM.norm>
0

>  <SCORE.heavy>
42

>  <SCORE.norm>
0.0498165

>  <RMSD>
9.103

$$$$

 OpenBabel11021811393D
libRbt.so/2013.1/901 2013/11/27
 42 45  0  0  0  0  0  0  0  0999 V2000
   -3.3605   -0.3323   -6.8971 C   0  0  2  0  0  0  0  0  0  0  0  0
   -2.5483    0.8257   -6.5326 O   0  0  0  0  0  0  0  0  0  0  0  0
   -2.7482   -1.6612   -6.3467 C   0  0  2  0  0  0  0  0  0  0  0  0
   -1.7188   -1.4025   -5.3139 N   0  3  0  0  0  0  0  0  0  0  0  0
   -2.1556   -2.5161   -7.5072 C   0  0  1  0  0  0  0  0  0  0  0  0
   -1.6095   -3.7295   -6.9944 O   0  0  0  0  0  0  0  0  0  0  0  0
   -3.2307   -2.8704   -8.5693 C   0  0  2  0  0  0  0  0  0  0  0  0
   -2.5792   -3.3887   -9.7237 O   0  0  0  0  0  0  0  0  0  0  0  0
   -4.0838   -1.6179   -8.9526 C   0  0  2  0  0  0  0  0  0  0  0  0
   -3.5041   -0.4120   -8.3566 O   0  0  0  0  0  0  0  0  0  0  0  0
   -5.5552   -1.6754   -8.4815 C   0  0  0  0  0  0  0  0  0  0  0  0
   -2.2164    3.7500   -3.3769 C   0  0  1  0  0  0  0  0  0  0  0  0
   -2.5343    4.7665   -2.3493 N   0  3  0  0  0  0  0  0  0  0  0  0
   -2.7405    2.3475   -2.9716 C   0  0  1  0  0  0  0  0  0  0  0  0
   -2.5656    1.2601   -4.0883 C   0  0  1  0  0  0  0  0  0  0  0  0
   -3.3701    0.1054   -3.7272 O   0  0  0  0  0  0  0  0  0  0  0  0
   -3.0397    1.7435   -5.5081 C   0  0  1  0  0  0  0  0  0  0  0  0
   -2.5054    3.1723   -5.8491 C   0  0  1  0  0  0  0  0  0  0  0  0
   -3.0691    3.6879   -7.1133 N   0  3  0  0  0  0  0  0  0  0  0  0
   -2.8217    4.1868   -4.7272 C   0  0  0  0  0  0  0  0  0  0  0  0
   -3.2912   -0.4306   -2.3747 C   0  0  1  0  0  0  0  0  0  0  0  0
   -4.6916   -0.4380   -1.7732 C   0  0  1  0  0  0  0  0  0  0  0  0
   -5.2476   -1.7050   -2.4089 C   0  0  1  0  0  0  0  0  0  0  0  0
   -4.0433   -2.6527   -2.3164 C   0  0  2  0  0  0  0  0  0  0  0  0
   -2.8739   -1.8051   -2.4144 O   0  0  0  0  0  0  0  0  0  0  0  0
   -4.0244   -3.7130   -3.4321 C   0  0  0  0  0  0  0  0  0  0  0  0
   -9.3905   -0.0820   -2.7774 C   0  0  1  0  0  0  0  0  0  0  0  0
   -9.4794   -1.5241   -2.2047 C   0  0  1  0  0  0  0  0  0  0  0  0
   -8.7047   -1.7266   -0.8705 C   0  0  2  0  0  0  0  0  0  0  0  0
   -7.2281   -1.2305   -0.9942 C   0  0  1  0  0  0  0  0  0  0  0  0
   -6.3958   -2.2144   -1.6714 O   0  0  0  0  0  0  0  0  0  0  0  0
   -8.4087    0.7891   -1.9363 C   0  0  1  0  0  0  0  0  0  0  0  0
   -7.1582    0.0551   -1.7266 O   0  0  0  0  0  0  0  0  0  0  0  0
   -8.0957    2.1490   -2.6120 C   0  0  0  0  0  0  0  0  0  0  0  0
   -6.4181   -2.5594   -9.2848 N   0  3  0  0  0  0  0  0  0  0  0  0
   -4.6066   -0.5588   -0.3531 O   0  0  0  0  0  0  0  0  0  0  0  0
  -10.8543   -1.8364   -1.9842 O   0  0  0  0  0  0  0  0  0  0  0  0
   -8.9421   -0.1608   -4.1322 O   0  0  0  0  0  0  0  0  0  0  0  0
   -4.0033   -3.1012   -4.7103 O   0  0  0  0  0  0  0  0  0  0  0  0
   -2.0420    1.9167   -1.8037 O   0  0  0  0  0  0  0  0  0  0  0  0
   -7.2230    2.0152   -3.7929 N   0  3  0  0  0  0  0  0  0  0  0  0
   -8.7978   -3.1301   -0.3975 N   0  3  0  0  0  0  0  0  0  0  0  0
  1  2  1  6  0  0  0
  1  3  1  0  0  0  0
  1 10  1  0  0  0  0
  3  4  1  1  0  0  0
  3  5  1  0  0  0  0
  5  6  1  1  0  0  0
  5  7  1  0  0  0  0
  7  8  1  6  0  0  0
  7  9  1  0  0  0  0
  9 10  1  0  0  0  0
  9 11  1  1  0  0  0
 11 35  1  0  0  0  0
 12 13  1  1  0  0  0
 12 14  1  0  0  0  0
 12 20  1  0  0  0  0
 14 15  1  0  0  0  0
 14 40  1  1  0  0  0
 15 16  1  1  0  0  0
 15 17  1  0  0  0  0
 17  2  1  6  0  0  0
 17 18  1  0  0  0  0
 18 19  1  6  0  0  0
 18 20  1  0  0  0  0
 21 16  1  6  0  0  0
 21 22  1  0  0  0  0
 21 25  1  0  0  0  0
 22 23  1  0  0  0  0
 22 36  1  1  0  0  0
 23 24  1  0  0  0  0
 23 31  1  1  0  0  0
 24 25  1  0  0  0  0
 24 26  1  6  0  0  0
 26 39  1  0  0  0  0
 27 28  1  0  0  0  0
 27 32  1  0  0  0  0
 27 38  1  6  0  0  0
 28 29  1  0  0  0  0
 28 37  1  1  0  0  0
 29 30  1  0  0  0  0
 29 42  1  6  0  0  0
 30 31  1  6  0  0  0
 30 33  1  0  0  0  0
 32 33  1  0  0  0  0
 32 34  1  6  0  0  0
 34 41  1  0  0  0  0
M  CHG  6   4   1  13   1  19   1  35   1  41   1  42   1
M  END
>  <CHROM.1>
-107.17587824,88.92479109,-149.64445475,-141.12222726,66.25335911,-76.09808374
85.45454504,-175.75030362,-55.75765097,-47.91825977,123.37452184,-68.16834693
154.39671195,30.85546120,58.54562933,-75.81710362,86.53920225,168.59955597
-0.55424269,151.70554739,-72.31361824,-65.24636717,-4.76535391,-0.39490372
-4.28565190,0.51753696,-0.67389767,-2.38303196

>  <Name>


>  <RI>
0

>  <Rbt.Current_Directory>
/home/itssahil/PROJECTS/Mol_Feturizer/New_Systems/rnas/1ei2

>  <Rbt.Executable>
rbdock ($Id: //depot/dev/client3/rdock/2013.1/src/exe/rbdock.cxx#4 $)

>  <Rbt.Library>
libRbt.so (2013.1, Build901 2013/11/27)

>  <Rbt.Parameter_File>
/export/apps/rDock/src/rDock_2013.1_src/data/scripts/dock_solv.prm

>  <Rbt.Receptor>
prm/blind_docking_40.prm

>  <SCORE>
-14.5184

>  <SCORE.INTER>
-26.6329

>  <SCORE.INTER.CONST>
1

>  <SCORE.INTER.POLAR>
-4.12282

>  <SCORE.INTER.ROT>
9

>  <SCORE.INTER.SOLV>
41.1851

>  <SCORE.INTER.VDW>
-27.3409

>  <SCORE.INTER.norm>
-0.634116

>  <SCORE.INTRA>
-3.00931

>  <SCORE.INTRA.DIHEDRAL>
5.35891

>  <SCORE.INTRA.DIHEDRAL.0>
40.8761

>  <SCORE.INTRA.POLAR>
-1.98206

>  <SCORE.INTRA.POLAR.0>
-0.0268208

>  <SCORE.INTRA.REPUL>
-0.641615

>  <SCORE.INTRA.REPUL.0>
0.641615

>  <SCORE.INTRA.SOLV>
-1.12847

>  <SCORE.INTRA.SOLV.lig_0>
-162.567

>  <SCORE.INTRA.VDW>
4.82253

>  <SCORE.INTRA.VDW.0>
-4.80338

>  <SCORE.INTRA.norm>
-0.0716503

>  <SCORE.RESTR>
15.1238

>  <SCORE.RESTR.CAVITY>
15.1238

>  <SCORE.RESTR.norm>
0.360091

>  <SCORE.SYSTEM>
0

>  <SCORE.SYSTEM.CONST>
0

>  <SCORE.SYSTEM.DIHEDRAL>
0

>  <SCORE.SYSTEM.SOLV>
0

>  <SCORE.SYSTEM.norm>
0

>  <SCORE.heavy>
42

>  <SCORE.norm>
-0.345675

>  <RMSD>
9.105

$$$$

 OpenBabel11021811393D
libRbt.so/2013.1/901 2013/11/27
 42 45  0  0  0  0  0  0  0  0999 V2000
   -4.1773    0.7007   -5.7808 C   0  0  2  0  0  0  0  0  0  0  0  0
   -4.3811   -0.5516   -6.5045 O   0  0  0  0  0  0  0  0  0  0  0  0
   -5.1481    1.8193   -6.2810 C   0  0  2  0  0  0  0  0  0  0  0  0
   -6.2534    1.2611   -7.0932 N   0  3  0  0  0  0  0  0  0  0  0  0
   -4.3702    2.9027   -7.0873 C   0  0  1  0  0  0  0  0  0  0  0  0
   -5.2638    3.9222   -7.5293 O   0  0  0  0  0  0  0  0  0  0  0  0
   -3.2526    3.5629   -6.2361 C   0  0  2  0  0  0  0  0  0  0  0  0
   -2.4065    4.3161   -7.0978 O   0  0  0  0  0  0  0  0  0  0  0  0
   -2.4157    2.4894   -5.4678 C   0  0  2  0  0  0  0  0  0  0  0  0
   -2.7844    1.1456   -5.9189 O   0  0  0  0  0  0  0  0  0  0  0  0
   -2.6068    2.5042   -3.9337 C   0  0  0  0  0  0  0  0  0  0  0  0
   -2.7331   -4.5195   -6.9040 C   0  0  1  0  0  0  0  0  0  0  0  0
   -1.7957   -5.6623   -6.9812 N   0  3  0  0  0  0  0  0  0  0  0  0
   -2.8063   -3.9395   -5.4672 C   0  0  1  0  0  0  0  0  0  0  0  0
   -3.6681   -2.6338   -5.3557 C   0  0  1  0  0  0  0  0  0  0  0  0
   -3.3966   -2.0196   -4.0673 O   0  0  0  0  0  0  0  0  0  0  0  0
   -3.3361   -1.5715   -6.4672 C   0  0  1  0  0  0  0  0  0  0  0  0
   -3.2469   -2.2179   -7.8875 C   0  0  1  0  0  0  0  0  0  0  0  0
   -2.7901   -1.2528   -8.9082 N   0  3  0  0  0  0  0  0  0  0  0  0
   -2.2923   -3.4329   -7.9068 C   0  0  0  0  0  0  0  0  0  0  0  0
   -3.9091   -0.6852   -3.7852 C   0  0  1  0  0  0  0  0  0  0  0  0
   -5.3763   -0.8024   -3.3899 C   0  0  1  0  0  0  0  0  0  0  0  0
   -5.2270   -1.2211   -1.9336 C   0  0  1  0  0  0  0  0  0  0  0  0
   -4.0671   -0.3277   -1.4713 C   0  0  2  0  0  0  0  0  0  0  0  0
   -3.2374   -0.1325   -2.6414 O   0  0  0  0  0  0  0  0  0  0  0  0
   -3.2405   -0.9546   -0.3341 C   0  0  0  0  0  0  0  0  0  0  0  0
   -9.8418   -2.3882   -0.0954 C   0  0  1  0  0  0  0  0  0  0  0  0
   -9.4091   -0.9015    0.0384 C   0  0  1  0  0  0  0  0  0  0  0  0
   -8.8396   -0.2852   -1.2719 C   0  0  2  0  0  0  0  0  0  0  0  0
   -7.7054   -1.1787   -1.8696 C   0  0  1  0  0  0  0  0  0  0  0  0
   -6.4439   -0.9645   -1.1753 O   0  0  0  0  0  0  0  0  0  0  0  0
   -9.4579   -2.9535   -1.4966 C   0  0  1  0  0  0  0  0  0  0  0  0
   -8.0648   -2.6138   -1.7977 O   0  0  0  0  0  0  0  0  0  0  0  0
   -9.6395   -4.4907   -1.5854 C   0  0  0  0  0  0  0  0  0  0  0  0
   -2.6729    3.8516   -3.3409 N   0  3  0  0  0  0  0  0  0  0  0  0
   -6.0110    0.4713   -3.5057 O   0  0  0  0  0  0  0  0  0  0  0  0
  -10.5441   -0.1377    0.4444 O   0  0  0  0  0  0  0  0  0  0  0  0
   -9.1957   -3.1412    0.9334 O   0  0  0  0  0  0  0  0  0  0  0  0
   -3.0493   -2.3416   -0.5536 O   0  0  0  0  0  0  0  0  0  0  0  0
   -3.3636   -4.9279   -4.6014 O   0  0  0  0  0  0  0  0  0  0  0  0
   -9.2939   -5.1825   -0.3301 N   0  3  0  0  0  0  0  0  0  0  0  0
   -8.4112    1.1209   -1.0679 N   0  3  0  0  0  0  0  0  0  0  0  0
  1  2  1  6  0  0  0
  1  3  1  0  0  0  0
  1 10  1  0  0  0  0
  3  4  1  6  0  0  0
  3  5  1  0  0  0  0
  5  6  1  1  0  0  0
  5  7  1  0  0  0  0
  7  8  1  6  0  0  0
  7  9  1  0  0  0  0
  9 10  1  0  0  0  0
  9 11  1  1  0  0  0
 11 35  1  0  0  0  0
 12 13  1  1  0  0  0
 12 14  1  0  0  0  0
 12 20  1  0  0  0  0
 14 15  1  0  0  0  0
 14 40  1  1  0  0  0
 15 16  1  1  0  0  0
 15 17  1  0  0  0  0
 17  2  1  6  0  0  0
 17 18  1  0  0  0  0
 18 19  1  6  0  0  0
 18 20  1  0  0  0  0
 21 16  1  1  0  0  0
 21 22  1  0  0  0  0
 21 25  1  0  0  0  0
 22 23  1  0  0  0  0
 22 36  1  1  0  0  0
 23 24  1  0  0  0  0
 23 31  1  1  0  0  0
 24 25  1  0  0  0  0
 24 26  1  1  0  0  0
 26 39  1  0  0  0  0
 27 28  1  0  0  0  0
 27 32  1  0  0  0  0
 27 38  1  1  0  0  0
 28 29  1  0  0  0  0
 28 37  1  6  0  0  0
 29 30  1  0  0  0  0
 29 42  1  1  0  0  0
 30 31  1  1  0  0  0
 30 33  1  0  0  0  0
 32 33  1  0  0  0  0
 32 34  1  1  0  0  0
 34 41  1  0  0  0  0
M  CHG  6   4   1  13   1  19   1  35   1  41   1  42   1
M  END
>  <CHROM.1>
162.06932005,96.54472399,-63.20583873,93.11217082,-49.95852260,-40.93244405
-171.18382348,173.98293603,-179.85745489,170.65134203,80.27026707,86.96719985
-45.73255461,36.70338673,40.51401032,61.82231535,-93.87512771,-67.73290554
62.22832864,-153.22969970,-36.31137381,50.44190659,-5.15234493,-0.78172057
-3.88312973,0.38427026,0.81431618,-0.08262370

>  <Name>


>  <RI>
0

>  <Rbt.Current_Directory>
/home/itssahil/PROJECTS/Mol_Feturizer/New_Systems/rnas/1ei2

>  <Rbt.Executable>
rbdock ($Id: //depot/dev/client3/rdock/2013.1/src/exe/rbdock.cxx#4 $)

>  <Rbt.Library>
libRbt.so (2013.1, Build901 2013/11/27)

>  <Rbt.Parameter_File>
/export/apps/rDock/src/rDock_2013.1_src/data/scripts/dock_solv.prm

>  <Rbt.Receptor>
prm/blind_docking_20.prm

>  <SCORE>
32.2188

>  <SCORE.INTER>
20.6419

>  <SCORE.INTER.CONST>
1

>  <SCORE.INTER.POLAR>
-3.68201

>  <SCORE.INTER.ROT>
9

>  <SCORE.INTER.SOLV>
41.0132

>  <SCORE.INTER.VDW>
2.76355

>  <SCORE.INTER.norm>
0.491473

>  <SCORE.INTRA>
3.41283

>  <SCORE.INTRA.DIHEDRAL>
-9.68094

>  <SCORE.INTRA.DIHEDRAL.0>
40.8761

>  <SCORE.INTRA.POLAR>
-0.0811355

>  <SCORE.INTRA.POLAR.0>
-0.0268208

>  <SCORE.INTRA.REPUL>
-0.641615

>  <SCORE.INTRA.REPUL.0>
0.641615

>  <SCORE.INTRA.SOLV>
-5.8987

>  <SCORE.INTRA.SOLV.lig_0>
-162.567

>  <SCORE.INTRA.VDW>
14.6866

>  <SCORE.INTRA.VDW.0>
-4.80338

>  <SCORE.INTRA.norm>
0.0812579

>  <SCORE.RESTR>
8.16404

>  <SCORE.RESTR.CAVITY>
8.16404

>  <SCORE.RESTR.norm>
0.194382

>  <SCORE.SYSTEM>
0

>  <SCORE.SYSTEM.CONST>
0

>  <SCORE.SYSTEM.DIHEDRAL>
0

>  <SCORE.SYSTEM.SOLV>
0

>  <SCORE.SYSTEM.norm>
0

>  <SCORE.heavy>
42

>  <SCORE.norm>
0.767113

>  <RMSD>
9.111

$$$$

 OpenBabel11021811393D
libRbt.so/2013.1/901 2013/11/27
 42 45  0  0  0  0  0  0  0  0999 V2000
   -3.1889   -1.1041   -4.8771 C   0  0  2  0  0  0  0  0  0  0  0  0
   -3.4821    0.1388   -5.5864 O   0  0  0  0  0  0  0  0  0  0  0  0
   -1.8390   -1.7334   -5.3522 C   0  0  2  0  0  0  0  0  0  0  0  0
   -1.0265   -0.7658   -6.1246 N   0  3  0  0  0  0  0  0  0  0  0  0
   -2.0973   -3.0220   -6.1898 C   0  0  1  0  0  0  0  0  0  0  0  0
   -0.8593   -3.5923   -6.6085 O   0  0  0  0  0  0  0  0  0  0  0  0
   -2.8814   -4.0887   -5.3793 C   0  0  2  0  0  0  0  0  0  0  0  0
   -3.3326   -5.1007   -6.2726 O   0  0  0  0  0  0  0  0  0  0  0  0
   -4.0981   -3.4523   -4.6323 C   0  0  2  0  0  0  0  0  0  0  0  0
   -4.2841   -2.0648   -5.0632 O   0  0  0  0  0  0  0  0  0  0  0  0
   -3.9591   -3.4180   -3.0929 C   0  0  0  0  0  0  0  0  0  0  0  0
   -6.7128    2.5583   -7.1122 C   0  0  1  0  0  0  0  0  0  0  0  0
   -8.0572    3.0598   -7.4746 N   0  3  0  0  0  0  0  0  0  0  0  0
   -6.4896    2.5859   -5.5774 C   0  0  1  0  0  0  0  0  0  0  0  0
   -5.1410    1.9266   -5.1227 C   0  0  1  0  0  0  0  0  0  0  0  0
   -5.1980    1.7218   -3.6854 O   0  0  0  0  0  0  0  0  0  0  0  0
   -4.8750    0.5278   -5.7912 C   0  0  1  0  0  0  0  0  0  0  0  0
   -5.1436    0.5536   -7.3307 C   0  0  1  0  0  0  0  0  0  0  0  0
   -5.0390   -0.7904   -7.9344 N   0  3  0  0  0  0  0  0  0  0  0  0
   -6.5403    1.1266   -7.6607 C   0  0  0  0  0  0  0  0  0  0  0  0
   -4.1628    2.2962   -2.8363 C   0  0  1  0  0  0  0  0  0  0  0  0
   -4.6849    3.6028   -2.2507 C   0  0  1  0  0  0  0  0  0  0  0  0
   -5.5369    3.0619   -1.1106 C   0  0  1  0  0  0  0  0  0  0  0  0
   -4.6499    1.9314   -0.5699 C   0  0  2  0  0  0  0  0  0  0  0  0
   -3.9142    1.4346   -1.7134 O   0  0  0  0  0  0  0  0  0  0  0  0
   -5.4559    0.7911    0.0779 C   0  0  0  0  0  0  0  0  0  0  0  0
   -9.3591    5.0450    0.9350 C   0  0  1  0  0  0  0  0  0  0  0  0
   -8.0623    5.4842    1.6704 C   0  0  1  0  0  0  0  0  0  0  0  0
   -6.9816    6.1030    0.7375 C   0  0  2  0  0  0  0  0  0  0  0  0
   -6.6829    5.1680   -0.4783 C   0  0  1  0  0  0  0  0  0  0  0  0
   -5.7904    4.0814   -0.1014 O   0  0  0  0  0  0  0  0  0  0  0  0
   -9.2013    5.2004   -0.6081 C   0  0  1  0  0  0  0  0  0  0  0  0
   -7.9336    4.6020   -1.0343 O   0  0  0  0  0  0  0  0  0  0  0  0
  -10.3659    4.5425   -1.3921 C   0  0  0  0  0  0  0  0  0  0  0  0
   -2.6412   -3.8445   -2.5904 N   0  3  0  0  0  0  0  0  0  0  0  0
   -3.5936    4.3840   -1.7636 O   0  0  0  0  0  0  0  0  0  0  0  0
   -8.4127    6.4483    2.6626 O   0  0  0  0  0  0  0  0  0  0  0  0
   -9.6273    3.6810    1.2678 O   0  0  0  0  0  0  0  0  0  0  0  0
   -4.6563    0.0651    0.9956 O   0  0  0  0  0  0  0  0  0  0  0  0
   -6.5041    3.9432   -5.1361 O   0  0  0  0  0  0  0  0  0  0  0  0
  -10.2844    4.7784   -2.8452 N   0  3  0  0  0  0  0  0  0  0  0  0
   -5.7571    6.4661    1.4931 N   0  3  0  0  0  0  0  0  0  0  0  0
  1  2  1  6  0  0  0
  1  3  1  0  0  0  0
  1 10  1  0  0  0  0
  3  4  1  6  0  0  0
  3  5  1  0  0  0  0
  5  6  1  1  0  0  0
  5  7  1  0  0  0  0
  7  8  1  6  0  0  0
  7  9  1  0  0  0  0
  9 10  1  0  0  0  0
  9 11  1  1  0  0  0
 11 35  1  0  0  0  0
 12 13  1  1  0  0  0
 12 14  1  0  0  0  0
 12 20  1  0  0  0  0
 14 15  1  0  0  0  0
 14 40  1  6  0  0  0
 15 16  1  1  0  0  0
 15 17  1  0  0  0  0
 17  2  1  6  0  0  0
 17 18  1  0  0  0  0
 18 19  1  1  0  0  0
 18 20  1  0  0  0  0
 21 16  1  6  0  0  0
 21 22  1  0  0  0  0
 21 25  1  0  0  0  0
 22 23  1  0  0  0  0
 22 36  1  1  0  0  0
 23 24  1  0  0  0  0
 23 31  1  1  0  0  0
 24 25  1  0  0  0  0
 24 26  1  6  0  0  0
 26 39  1  0  0  0  0
 27 28  1  0  0  0  0
 27 32  1  0  0  0  0
 27 38  1  6  0  0  0
 28 29  1  0  0  0  0
 28 37  1  1  0  0  0
 29 30  1  0  0  0  0
 29 42  1  1  0  0  0
 30 31  1  1  0  0  0
 30 33  1  0  0  0  0
 32 33  1  0  0  0  0
 32 34  1  6  0  0  0
 34 41  1  0  0  0  0
M  CHG  6   4   1  13   1  19   1  35   1  41   1  42   1
M  END
>  <CHROM.1>
150.77328828,120.68359522,14.66827380,-55.58267160,154.47764116,6.79165194
-71.32797610,52.24573625,-57.10079682,-123.83919112,98.05920772,45.57163654
-179.23451662,70.20982280,-157.04159860,57.19983655,-59.50071000,-59.56173608
66.57036718,174.12831248,175.30799960,-178.28070554,-5.42729620,1.52624527
-3.12208726,-0.80070609,-0.87467230,1.32203531

>  <Name>


>  <RI>
0

>  <Rbt.Current_Directory>
/home/itssahil/PROJECTS/Mol_Feturizer/New_Systems/rnas/1ei2

>  <Rbt.Executable>
rbdock ($Id: //depot/dev/client3/rdock/2013.1/src/exe/rbdock.cxx#4 $)

>  <Rbt.Library>
libRbt.so (2013.1, Build901 2013/11/27)

>  <Rbt.Parameter_File>
/export/apps/rDock/src/rDock_2013.1_src/data/scripts/dock_solv.prm

>  <Rbt.Receptor>
prm/pocket_docking_7.prm

>  <SCORE>
-54.2555

>  <SCORE.INTER>
-42.873

>  <SCORE.INTER.CONST>
1

>  <SCORE.INTER.POLAR>
-7.94367

>  <SCORE.INTER.ROT>
9

>  <SCORE.INTER.SOLV>
34.0052

>  <SCORE.INTER.VDW>
-23.0382

>  <SCORE.INTER.norm>
-1.02079

>  <SCORE.INTRA>
-11.4855

>  <SCORE.INTRA.DIHEDRAL>
-2.93026

>  <SCORE.INTRA.DIHEDRAL.0>
40.8761

>  <SCORE.INTRA.POLAR>
-0.245506

>  <SCORE.INTRA.POLAR.0>
-0.0268208

>  <SCORE.INTRA.REPUL>
-0.637905

>  <SCORE.INTRA.REPUL.0>
0.641615

>  <SCORE.INTRA.SOLV>
-10.9214

>  <SCORE.INTRA.SOLV.lig_0>
-162.567

>  <SCORE.INTRA.VDW>
-0.535355

>  <SCORE.INTRA.VDW.0>
-4.80338

>  <SCORE.INTRA.norm>
-0.273463

>  <SCORE.RESTR>
0.103001

>  <SCORE.RESTR.CAVITY>
0.103001

>  <SCORE.RESTR.norm>
0.00245241

>  <SCORE.SYSTEM>
0

>  <SCORE.SYSTEM.CONST>
0

>  <SCORE.SYSTEM.DIHEDRAL>
0

>  <SCORE.SYSTEM.SOLV>
0

>  <SCORE.SYSTEM.norm>
0

>  <SCORE.heavy>
42

>  <SCORE.norm>
-1.2918

>  <RMSD>
9.111

$$$$

 OpenBabel11021811393D
libRbt.so/2013.1/901 2013/11/27
 42 45  0  0  0  0  0  0  0  0999 V2000
   -3.3371   -0.3147   -5.6936 C   0  0  2  0  0  0  0  0  0  0  0  0
   -3.3173   -1.5829   -6.4182 O   0  0  0  0  0  0  0  0  0  0  0  0
   -4.5584    0.5676   -6.1106 C   0  0  2  0  0  0  0  0  0  0  0  0
   -5.5722   -0.2171   -6.8518 N   0  3  0  0  0  0  0  0  0  0  0  0
   -4.0904    1.7917   -6.9542 C   0  0  1  0  0  0  0  0  0  0  0  0
   -5.2111    2.5939   -7.3197 O   0  0  0  0  0  0  0  0  0  0  0  0
   -3.0838    2.6787   -6.1736 C   0  0  2  0  0  0  0  0  0  0  0  0
   -2.4822    3.5948   -7.0816 O   0  0  0  0  0  0  0  0  0  0  0  0
   -1.9836    1.8120   -5.4794 C   0  0  2  0  0  0  0  0  0  0  0  0
   -2.0857    0.4195   -5.9218 O   0  0  0  0  0  0  0  0  0  0  0  0
   -2.0650    1.7882   -3.9357 C   0  0  0  0  0  0  0  0  0  0  0  0
   -2.5680   -5.6490   -5.1834 C   0  0  1  0  0  0  0  0  0  0  0  0
   -1.9040   -6.8919   -4.7309 N   0  3  0  0  0  0  0  0  0  0  0  0
   -2.5929   -4.5765   -4.0630 C   0  0  1  0  0  0  0  0  0  0  0  0
   -3.1493   -3.1866   -4.5305 C   0  0  1  0  0  0  0  0  0  0  0  0
   -2.8226   -2.2017   -3.5136 O   0  0  0  0  0  0  0  0  0  0  0  0
   -2.5277   -2.6914   -5.8880 C   0  0  1  0  0  0  0  0  0  0  0  0
   -2.5029   -3.8212   -6.9677 C   0  0  1  0  0  0  0  0  0  0  0  0
   -1.7865   -3.4042   -8.1903 N   0  3  0  0  0  0  0  0  0  0  0  0
   -1.8414   -5.1117   -6.4339 C   0  0  0  0  0  0  0  0  0  0  0  0
   -3.4178   -0.8736   -3.5822 C   0  0  1  0  0  0  0  0  0  0  0  0
   -4.9274   -1.0096   -3.4227 C   0  0  1  0  0  0  0  0  0  0  0  0
   -5.0241   -1.1439   -1.9091 C   0  0  1  0  0  0  0  0  0  0  0  0
   -3.9921   -0.1089   -1.4392 C   0  0  2  0  0  0  0  0  0  0  0  0
   -2.9756   -0.0790   -2.4695 O   0  0  0  0  0  0  0  0  0  0  0  0
   -3.3599   -0.4627   -0.0811 C   0  0  0  0  0  0  0  0  0  0  0  0
   -9.8415   -1.8512   -0.1644 C   0  0  1  0  0  0  0  0  0  0  0  0
   -9.5028   -0.5101   -0.8729 C   0  0  1  0  0  0  0  0  0  0  0  0
   -8.7244   -0.6768   -2.2098 C   0  0  2  0  0  0  0  0  0  0  0  0
   -7.4628   -1.5791   -2.0198 C   0  0  1  0  0  0  0  0  0  0  0  0
   -6.3631   -0.8307   -1.4284 O   0  0  0  0  0  0  0  0  0  0  0  0
   -9.1797   -3.0525   -0.9056 C   0  0  1  0  0  0  0  0  0  0  0  0
   -7.7701   -2.7509   -1.1676 O   0  0  0  0  0  0  0  0  0  0  0  0
   -9.2782   -4.3732   -0.0994 C   0  0  0  0  0  0  0  0  0  0  0  0
   -2.1743    3.1182   -3.3106 N   0  3  0  0  0  0  0  0  0  0  0  0
   -5.5708    0.1783   -3.8849 O   0  0  0  0  0  0  0  0  0  0  0  0
  -10.7240    0.1780   -1.1404 O   0  0  0  0  0  0  0  0  0  0  0  0
   -9.3686   -1.7826    1.1827 O   0  0  0  0  0  0  0  0  0  0  0  0
   -2.1038    0.1754    0.0732 O   0  0  0  0  0  0  0  0  0  0  0  0
   -3.4035   -5.0534   -2.9894 O   0  0  0  0  0  0  0  0  0  0  0  0
   -9.5800   -5.5413   -0.9469 N   0  3  0  0  0  0  0  0  0  0  0  0
   -8.3998    0.6385   -2.8155 N   0  3  0  0  0  0  0  0  0  0  0  0
  1  2  1  6  0  0  0
  1  3  1  0  0  0  0
  1 10  1  0  0  0  0
  3  4  1  6  0  0  0
  3  5  1  0  0  0  0
  5  6  1  1  0  0  0
  5  7  1  0  0  0  0
  7  8  1  6  0  0  0
  7  9  1  0  0  0  0
  9 10  1  0  0  0  0
  9 11  1  1  0  0  0
 11 35  1  0  0  0  0
 12 13  1  1  0  0  0
 12 14  1  0  0  0  0
 12 20  1  0  0  0  0
 14 15  1  0  0  0  0
 14 40  1  1  0  0  0
 15 16  1  1  0  0  0
 15 17  1  0  0  0  0
 17  2  1  6  0  0  0
 17 18  1  0  0  0  0
 18 19  1  6  0  0  0
 18 20  1  0  0  0  0
 21 16  1  1  0  0  0
 21 22  1  0  0  0  0
 21 25  1  0  0  0  0
 22 23  1  0  0  0  0
 22 36  1  1  0  0  0
 23 24  1  0  0  0  0
 23 31  1  1  0  0  0
 24 25  1  0  0  0  0
 24 26  1  1  0  0  0
 26 39  1  0  0  0  0
 27 28  1  0  0  0  0
 27 32  1  0  0  0  0
 27 38  1  1  0  0  0
 28 29  1  0  0  0  0
 28 37  1  6  0  0  0
 29 30  1  0  0  0  0
 29 42  1  1  0  0  0
 30 31  1  1  0  0  0
 30 33  1  0  0  0  0
 32 33  1  0  0  0  0
 32 34  1  1  0  0  0
 34 41  1  0  0  0  0
M  CHG  6   4   1  13   1  19   1  35   1  41   1  42   1
M  END
>  <CHROM.1>
-161.05331642,66.74002974,27.21658446,63.95080995,63.22256930,-49.69623518
-168.95357864,-56.41098562,80.20385833,-169.54172733,63.57173303,104.97438289
-173.90446653,55.05823273,157.27577651,-50.30149047,143.43275220,66.98724287
-36.20480450,-142.80655587,139.59209313,91.56702519,-4.84148395,-1.21393537
-3.63724642,0.28292759,0.67658885,-0.14404610

>  <Name>


>  <RI>
0

>  <Rbt.Current_Directory>
/home/itssahil/PROJECTS/Mol_Feturizer/New_Systems/rnas/1ei2

>  <Rbt.Executable>
rbdock ($Id: //depot/dev/client3/rdock/2013.1/src/exe/rbdock.cxx#4 $)

>  <Rbt.Library>
libRbt.so (2013.1, Build901 2013/11/27)

>  <Rbt.Parameter_File>
/export/apps/rDock/src/rDock_2013.1_src/data/scripts/dock_solv.prm

>  <Rbt.Receptor>
prm/blind_docking_100.prm

>  <SCORE>
-4.33311

>  <SCORE.INTER>
-19.0148

>  <SCORE.INTER.CONST>
1

>  <SCORE.INTER.POLAR>
-8.28732

>  <SCORE.INTER.ROT>
9

>  <SCORE.INTER.SOLV>
54.2651

>  <SCORE.INTER.VDW>
-12.7405

>  <SCORE.INTER.norm>
-0.452734

>  <SCORE.INTRA>
8.30459

>  <SCORE.INTRA.DIHEDRAL>
-10.0395

>  <SCORE.INTRA.DIHEDRAL.0>
40.8761

>  <SCORE.INTRA.POLAR>
-0.266116

>  <SCORE.INTRA.POLAR.0>
-0.0268208

>  <SCORE.INTRA.REPUL>
-0.641615

>  <SCORE.INTRA.REPUL.0>
0.641615

>  <SCORE.INTRA.SOLV>
-7.58377

>  <SCORE.INTRA.SOLV.lig_0>
-162.567

>  <SCORE.INTRA.VDW>
21.2291

>  <SCORE.INTRA.VDW.0>
-4.80338

>  <SCORE.INTRA.norm>
0.197728

>  <SCORE.RESTR>
6.37714

>  <SCORE.RESTR.CAVITY>
6.37714

>  <SCORE.RESTR.norm>
0.151837

>  <SCORE.SYSTEM>
0

>  <SCORE.SYSTEM.CONST>
0

>  <SCORE.SYSTEM.DIHEDRAL>
0

>  <SCORE.SYSTEM.SOLV>
0

>  <SCORE.SYSTEM.norm>
0

>  <SCORE.heavy>
42

>  <SCORE.norm>
-0.103169

>  <RMSD>
9.115

$$$$

 OpenBabel11021811393D
libRbt.so/2013.1/901 2013/11/27
 42 45  0  0  0  0  0  0  0  0999 V2000
   -4.2692    0.7423   -5.9265 C   0  0  2  0  0  0  0  0  0  0  0  0
   -4.4695   -0.5519   -6.5735 O   0  0  0  0  0  0  0  0  0  0  0  0
   -5.3170    1.7965   -6.4110 C   0  0  2  0  0  0  0  0  0  0  0  0
   -6.4507    1.1562   -7.1166 N   0  3  0  0  0  0  0  0  0  0  0  0
   -4.6410    2.8664   -7.3204 C   0  0  1  0  0  0  0  0  0  0  0  0
   -5.6040    3.8276   -7.7475 O   0  0  0  0  0  0  0  0  0  0  0  0
   -3.4967    3.6109   -6.5817 C   0  0  2  0  0  0  0  0  0  0  0  0
   -2.7428    4.3511   -7.5354 O   0  0  0  0  0  0  0  0  0  0  0  0
   -2.5659    2.6102   -5.8230 C   0  0  2  0  0  0  0  0  0  0  0  0
   -2.9084    1.2323   -6.1825 O   0  0  0  0  0  0  0  0  0  0  0  0
   -2.6533    2.6955   -4.2818 C   0  0  0  0  0  0  0  0  0  0  0  0
   -2.5912   -4.3992   -7.1116 C   0  0  1  0  0  0  0  0  0  0  0  0
   -1.5872   -5.4744   -7.2745 N   0  3  0  0  0  0  0  0  0  0  0  0
   -2.5643   -3.8079   -5.6778 C   0  0  1  0  0  0  0  0  0  0  0  0
   -3.5014   -2.5645   -5.4891 C   0  0  1  0  0  0  0  0  0  0  0  0
   -3.1493   -1.9168   -4.2371 O   0  0  0  0  0  0  0  0  0  0  0  0
   -3.3561   -1.4955   -6.6337 C   0  0  1  0  0  0  0  0  0  0  0  0
   -3.3608   -2.1517   -8.0523 C   0  0  1  0  0  0  0  0  0  0  0  0
   -3.0759   -1.1698   -9.1184 N   0  3  0  0  0  0  0  0  0  0  0  0
   -2.3290   -3.2970   -8.1589 C   0  0  0  0  0  0  0  0  0  0  0  0
   -3.7628   -0.6415   -3.8906 C   0  0  1  0  0  0  0  0  0  0  0  0
   -5.2191   -0.8894   -3.5157 C   0  0  1  0  0  0  0  0  0  0  0  0
   -5.0465   -1.3720   -2.0820 C   0  0  1  0  0  0  0  0  0  0  0  0
   -3.9600   -0.4195   -1.5627 C   0  0  2  0  0  0  0  0  0  0  0  0
   -3.1411   -0.1009   -2.7131 O   0  0  0  0  0  0  0  0  0  0  0  0
   -3.0947   -1.0416   -0.4521 C   0  0  0  0  0  0  0  0  0  0  0  0
   -9.8897   -2.0258   -0.2601 C   0  0  1  0  0  0  0  0  0  0  0  0
   -9.2726   -0.6032   -0.3643 C   0  0  1  0  0  0  0  0  0  0  0  0
   -8.5610   -0.3171   -1.7181 C   0  0  2  0  0  0  0  0  0  0  0  0
   -7.5252   -1.4363   -2.0591 C   0  0  1  0  0  0  0  0  0  0  0  0
   -6.2835   -1.2481   -1.3228 O   0  0  0  0  0  0  0  0  0  0  0  0
   -9.5125   -2.8863   -1.5041 C   0  0  1  0  0  0  0  0  0  0  0  0
   -8.0734   -2.7786   -1.7570 O   0  0  0  0  0  0  0  0  0  0  0  0
   -9.8899   -4.3798   -1.3280 C   0  0  0  0  0  0  0  0  0  0  0  0
   -2.5877    4.0653   -3.7426 N   0  3  0  0  0  0  0  0  0  0  0  0
   -5.9476    0.3373   -3.5709 O   0  0  0  0  0  0  0  0  0  0  0  0
  -10.3165    0.3536   -0.1880 O   0  0  0  0  0  0  0  0  0  0  0  0
   -9.4014   -2.6438    0.9327 O   0  0  0  0  0  0  0  0  0  0  0  0
   -2.7212   -2.3675   -0.7853 O   0  0  0  0  0  0  0  0  0  0  0  0
   -2.9626   -4.8221   -4.7558 O   0  0  0  0  0  0  0  0  0  0  0  0
   -9.1099   -5.0475   -0.2698 N   0  3  0  0  0  0  0  0  0  0  0  0
   -7.9624    1.0407   -1.7393 N   0  3  0  0  0  0  0  0  0  0  0  0
  1  2  1  6  0  0  0
  1  3  1  0  0  0  0
  1 10  1  0  0  0  0
  3  4  1  6  0  0  0
  3  5  1  0  0  0  0
  5  6  1  1  0  0  0
  5  7  1  0  0  0  0
  7  8  1  6  0  0  0
  7  9  1  0  0  0  0
  9 10  1  0  0  0  0
  9 11  1  1  0  0  0
 11 35  1  0  0  0  0
 12 13  1  1  0  0  0
 12 14  1  0  0  0  0
 12 20  1  0  0  0  0
 14 15  1  0  0  0  0
 14 40  1  1  0  0  0
 15 16  1  1  0  0  0
 15 17  1  0  0  0  0
 17  2  1  6  0  0  0
 17 18  1  0  0  0  0
 18 19  1  6  0  0  0
 18 20  1  0  0  0  0
 21 16  1  1  0  0  0
 21 22  1  0  0  0  0
 21 25  1  0  0  0  0
 22 23  1  0  0  0  0
 22 36  1  1  0  0  0
 23 24  1  0  0  0  0
 23 31  1  1  0  0  0
 24 25  1  0  0  0  0
 24 26  1  1  0  0  0
 26 39  1  0  0  0  0
 27 28  1  0  0  0  0
 27 32  1  0  0  0  0
 27 38  1  1  0  0  0
 28 29  1  0  0  0  0
 28 37  1  6  0  0  0
 29 30  1  0  0  0  0
 29 42  1  1  0  0  0
 30 31  1  1  0  0  0
 30 33  1  0  0  0  0
 32 33  1  0  0  0  0
 32 34  1  1  0  0  0
 34 41  1  0  0  0  0
M  CHG  6   4   1  13   1  19   1  35   1  41   1  42   1
M  END
>  <CHROM.1>
158.26155835,98.94780293,50.25746517,47.47111731,-51.88799016,-47.22999898
-19.34265994,-23.57067421,-36.13618511,172.90276561,72.41035788,85.99485812
93.53822930,32.92554875,44.53417942,166.47910471,82.01139736,107.43965882
-80.42391751,-133.65066568,-66.21039608,-108.13524286,-5.12455020,-0.72954023
-4.07804905,0.45620068,0.80165930,-0.19611799

>  <Name>


>  <RI>
0

>  <Rbt.Current_Directory>
/home/itssahil/PROJECTS/Mol_Feturizer/New_Systems/rnas/1ei2

>  <Rbt.Executable>
rbdock ($Id: //depot/dev/client3/rdock/2013.1/src/exe/rbdock.cxx#4 $)

>  <Rbt.Library>
libRbt.so (2013.1, Build901 2013/11/27)

>  <Rbt.Parameter_File>
/export/apps/rDock/src/rDock_2013.1_src/data/scripts/dock_solv.prm

>  <Rbt.Receptor>
prm/blind_docking_100.prm

>  <SCORE>
8.26974

>  <SCORE.INTER>
-2.07798

>  <SCORE.INTER.CONST>
1

>  <SCORE.INTER.POLAR>
-3.84365

>  <SCORE.INTER.ROT>
9

>  <SCORE.INTER.SOLV>
39.6814

>  <SCORE.INTER.VDW>
-11.4003

>  <SCORE.INTER.norm>
-0.0494756

>  <SCORE.INTRA>
-0.324473

>  <SCORE.INTRA.DIHEDRAL>
6.77335

>  <SCORE.INTRA.DIHEDRAL.0>
40.8761

>  <SCORE.INTRA.POLAR>
-1.77202

>  <SCORE.INTRA.POLAR.0>
-0.0268208

>  <SCORE.INTRA.REPUL>
-0.554207

>  <SCORE.INTRA.REPUL.0>
0.641615

>  <SCORE.INTRA.SOLV>
-4.54762

>  <SCORE.INTRA.SOLV.lig_0>
-162.567

>  <SCORE.INTRA.VDW>
7.35858

>  <SCORE.INTRA.VDW.0>
-4.80338

>  <SCORE.INTRA.norm>
-0.00772556

>  <SCORE.RESTR>
10.6722

>  <SCORE.RESTR.CAVITY>
10.6722

>  <SCORE.RESTR.norm>
0.2541

>  <SCORE.SYSTEM>
0

>  <SCORE.SYSTEM.CONST>
0

>  <SCORE.SYSTEM.DIHEDRAL>
0

>  <SCORE.SYSTEM.SOLV>
0

>  <SCORE.SYSTEM.norm>
0

>  <SCORE.heavy>
42

>  <SCORE.norm>
0.196899

>  <RMSD>
9.117

$$$$

 OpenBabel11021811393D
libRbt.so/2013.1/901 2013/11/27
 42 45  0  0  0  0  0  0  0  0999 V2000
   -3.7650    0.3076   -5.8399 C   0  0  2  0  0  0  0  0  0  0  0  0
   -3.8638   -1.0060   -6.4710 O   0  0  0  0  0  0  0  0  0  0  0  0
   -4.9283    1.2507   -6.2884 C   0  0  2  0  0  0  0  0  0  0  0  0
   -6.0211    0.4971   -6.9447 N   0  3  0  0  0  0  0  0  0  0  0  0
   -4.3953    2.3723   -7.2301 C   0  0  1  0  0  0  0  0  0  0  0  0
   -5.4628    3.2317   -7.6241 O   0  0  0  0  0  0  0  0  0  0  0  0
   -3.3007    3.2311   -6.5417 C   0  0  2  0  0  0  0  0  0  0  0  0
   -2.6599    4.0315   -7.5287 O   0  0  0  0  0  0  0  0  0  0  0  0
   -2.2484    2.3324   -5.8148 C   0  0  2  0  0  0  0  0  0  0  0  0
   -2.4693    0.9244   -6.1525 O   0  0  0  0  0  0  0  0  0  0  0  0
   -2.2835    2.4235   -4.2718 C   0  0  0  0  0  0  0  0  0  0  0  0
   -2.8201   -5.0452   -5.3683 C   0  0  1  0  0  0  0  0  0  0  0  0
   -2.0624   -6.2580   -4.9870 N   0  3  0  0  0  0  0  0  0  0  0  0
   -2.8202   -3.9924   -4.2291 C   0  0  1  0  0  0  0  0  0  0  0  0
   -3.4794   -2.6269   -4.6302 C   0  0  1  0  0  0  0  0  0  0  0  0
   -3.1322   -1.6416   -3.6205 O   0  0  0  0  0  0  0  0  0  0  0  0
   -2.9824   -2.0793   -6.0184 C   0  0  1  0  0  0  0  0  0  0  0  0
   -2.9765   -3.1899   -7.1182 C   0  0  1  0  0  0  0  0  0  0  0  0
   -2.3715   -2.7173   -8.3802 N   0  3  0  0  0  0  0  0  0  0  0  0
   -2.2130   -4.4516   -6.6566 C   0  0  0  0  0  0  0  0  0  0  0  0
   -3.9153   -0.4177   -3.5117 C   0  0  1  0  0  0  0  0  0  0  0  0
   -5.3814   -0.7939   -3.3335 C   0  0  1  0  0  0  0  0  0  0  0  0
   -5.3941   -1.1178   -1.8457 C   0  0  1  0  0  0  0  0  0  0  0  0
   -4.5035   -0.0035   -1.2780 C   0  0  2  0  0  0  0  0  0  0  0  0
   -3.5461    0.2976   -2.3213 O   0  0  0  0  0  0  0  0  0  0  0  0
   -3.7704   -0.4165    0.0109 C   0  0  0  0  0  0  0  0  0  0  0  0
  -10.1277   -2.4874   -0.1756 C   0  0  1  0  0  0  0  0  0  0  0  0
   -9.9106   -1.0870   -0.8139 C   0  0  1  0  0  0  0  0  0  0  0  0
   -9.0895   -1.1117   -2.1354 C   0  0  2  0  0  0  0  0  0  0  0  0
   -7.7477   -1.8912   -1.9519 C   0  0  1  0  0  0  0  0  0  0  0  0
   -6.7429   -1.0653   -1.2980 O   0  0  0  0  0  0  0  0  0  0  0  0
   -9.3313   -3.5799   -0.9517 C   0  0  1  0  0  0  0  0  0  0  0  0
   -7.9539   -3.1268   -1.1616 O   0  0  0  0  0  0  0  0  0  0  0  0
   -9.3137   -4.9405   -0.2084 C   0  0  0  0  0  0  0  0  0  0  0  0
   -1.2154    1.6693   -3.5924 N   0  3  0  0  0  0  0  0  0  0  0  0
   -6.2084    0.3313   -3.6312 O   0  0  0  0  0  0  0  0  0  0  0  0
  -11.1889   -0.5127   -1.0833 O   0  0  0  0  0  0  0  0  0  0  0  0
   -9.6944   -2.4356    1.1855 O   0  0  0  0  0  0  0  0  0  0  0  0
   -2.7085   -1.3102   -0.2759 O   0  0  0  0  0  0  0  0  0  0  0  0
   -3.5267   -4.5275   -3.1102 O   0  0  0  0  0  0  0  0  0  0  0  0
   -9.6830   -6.0733   -1.0769 N   0  3  0  0  0  0  0  0  0  0  0  0
   -8.8861    0.2567   -2.6726 N   0  3  0  0  0  0  0  0  0  0  0  0
  1  2  1  6  0  0  0
  1  3  1  0  0  0  0
  1 10  1  0  0  0  0
  3  4  1  6  0  0  0
  3  5  1  0  0  0  0
  5  6  1  1  0  0  0
  5  7  1  0  0  0  0
  7  8  1  6  0  0  0
  7  9  1  0  0  0  0
  9 10  1  0  0  0  0
  9 11  1  1  0  0  0
 11 35  1  0  0  0  0
 12 13  1  1  0  0  0
 12 14  1  0  0  0  0
 12 20  1  0  0  0  0
 14 15  1  0  0  0  0
 14 40  1  1  0  0  0
 15 16  1  1  0  0  0
 15 17  1  0  0  0  0
 17  2  1  6  0  0  0
 17 18  1  0  0  0  0
 18 19  1  6  0  0  0
 18 20  1  0  0  0  0
 21 16  1  1  0  0  0
 21 22  1  0  0  0  0
 21 25  1  0  0  0  0
 22 23  1  0  0  0  0
 22 36  1  1  0  0  0
 23 24  1  0  0  0  0
 23 31  1  1  0  0  0
 24 25  1  0  0  0  0
 24 26  1  1  0  0  0
 26 39  1  0  0  0  0
 27 28  1  0  0  0  0
 27 32  1  0  0  0  0
 27 38  1  1  0  0  0
 28 29  1  0  0  0  0
 28 37  1  6  0  0  0
 29 30  1  0  0  0  0
 29 42  1  1  0  0  0
 30 31  1  1  0  0  0
 30 33  1  0  0  0  0
 32 33  1  0  0  0  0
 32 34  1  1  0  0  0
 34 41  1  0  0  0  0
M  CHG  6   4   1  13   1  19   1  35   1  41   1  42   1
M  END
>  <CHROM.1>
-170.86644346,75.09715471,-31.01984688,55.67368915,154.16110516,-174.86471363
-65.85225748,-129.42533579,-168.34936652,-161.57346827,54.99421803,56.02704991
-50.04487986,54.89518909,73.97387401,-55.45557612,-177.54972408,-50.60911823
-79.77084215,-136.70772286,130.69737107,70.05266605,-5.15616261,-1.11046998
-3.73110882,0.55384514,0.63909159,-0.26984499

>  <Name>


>  <RI>
0

>  <Rbt.Current_Directory>
/home/itssahil/PROJECTS/Mol_Feturizer/New_Systems/rnas/1ei2

>  <Rbt.Executable>
rbdock ($Id: //depot/dev/client3/rdock/2013.1/src/exe/rbdock.cxx#4 $)

>  <Rbt.Library>
libRbt.so (2013.1, Build901 2013/11/27)

>  <Rbt.Parameter_File>
/export/apps/rDock/src/rDock_2013.1_src/data/scripts/dock_solv.prm

>  <Rbt.Receptor>
prm/blind_docking_20.prm

>  <SCORE>
-8.80778

>  <SCORE.INTER>
-5.92685

>  <SCORE.INTER.CONST>
1

>  <SCORE.INTER.POLAR>
-10.2821

>  <SCORE.INTER.ROT>
9

>  <SCORE.INTER.SOLV>
55.5407

>  <SCORE.INTER.VDW>
2.20902

>  <SCORE.INTER.norm>
-0.141115

>  <SCORE.INTRA>
-9.45943

>  <SCORE.INTRA.DIHEDRAL>
-14.2928

>  <SCORE.INTRA.DIHEDRAL.0>
40.8761

>  <SCORE.INTRA.POLAR>
-1.41136

>  <SCORE.INTRA.POLAR.0>
-0.0268208

>  <SCORE.INTRA.REPUL>
-0.451303

>  <SCORE.INTRA.REPUL.0>
0.641615

>  <SCORE.INTRA.SOLV>
-7.85863

>  <SCORE.INTRA.SOLV.lig_0>
-162.567

>  <SCORE.INTRA.VDW>
8.67141

>  <SCORE.INTRA.VDW.0>
-4.80338

>  <SCORE.INTRA.norm>
-0.225225

>  <SCORE.RESTR>
6.5785

>  <SCORE.RESTR.CAVITY>
6.5785

>  <SCORE.RESTR.norm>
0.156631

>  <SCORE.SYSTEM>
0

>  <SCORE.SYSTEM.CONST>
0

>  <SCORE.SYSTEM.DIHEDRAL>
0

>  <SCORE.SYSTEM.SOLV>
0

>  <SCORE.SYSTEM.norm>
0

>  <SCORE.heavy>
42

>  <SCORE.norm>
-0.209709

>  <RMSD>
9.117

$$$$

 OpenBabel11021811393D
libRbt.so/2013.1/901 2013/11/27
 42 45  0  0  0  0  0  0  0  0999 V2000
   -2.6389   -0.2671   -6.9979 C   0  0  2  0  0  0  0  0  0  0  0  0
   -2.0551   -0.3396   -5.6609 O   0  0  0  0  0  0  0  0  0  0  0  0
   -3.3352    1.1099   -7.2483 C   0  0  2  0  0  0  0  0  0  0  0  0
   -2.9383    2.1154   -6.2362 N   0  3  0  0  0  0  0  0  0  0  0  0
   -4.8847    0.9457   -7.2776 C   0  0  1  0  0  0  0  0  0  0  0  0
   -5.5080    2.2058   -7.5167 O   0  0  0  0  0  0  0  0  0  0  0  0
   -5.3386   -0.0454   -8.3826 C   0  0  2  0  0  0  0  0  0  0  0  0
   -6.7078   -0.3708   -8.1703 O   0  0  0  0  0  0  0  0  0  0  0  0
   -4.4708   -1.3455   -8.3698 C   0  0  2  0  0  0  0  0  0  0  0  0
   -3.6017   -1.3594   -7.1910 O   0  0  0  0  0  0  0  0  0  0  0  0
   -3.5462   -1.5117   -9.5977 C   0  0  0  0  0  0  0  0  0  0  0  0
   -2.1269   -4.6466   -5.4077 C   0  0  1  0  0  0  0  0  0  0  0  0
   -1.8520   -6.0466   -5.0143 N   0  3  0  0  0  0  0  0  0  0  0  0
   -2.8609   -3.8725   -4.2816 C   0  0  1  0  0  0  0  0  0  0  0  0
   -3.0452   -2.3441   -4.5814 C   0  0  1  0  0  0  0  0  0  0  0  0
   -3.4363   -1.6836   -3.3479 O   0  0  0  0  0  0  0  0  0  0  0  0
   -1.7324   -1.6477   -5.0970 C   0  0  1  0  0  0  0  0  0  0  0  0
   -1.0220   -2.4863   -6.2084 C   0  0  1  0  0  0  0  0  0  0  0  0
    0.2845   -1.9107   -6.5874 N   0  3  0  0  0  0  0  0  0  0  0  0
   -0.7980   -3.9505   -5.7684 C   0  0  0  0  0  0  0  0  0  0  0  0
   -3.8190   -0.2781   -3.3755 C   0  0  1  0  0  0  0  0  0  0  0  0
   -5.3403   -0.1888   -3.3588 C   0  0  1  0  0  0  0  0  0  0  0  0
   -5.6025   -0.3906   -1.8726 C   0  0  1  0  0  0  0  0  0  0  0  0
   -4.4792    0.4456   -1.2431 C   0  0  2  0  0  0  0  0  0  0  0  0
   -3.3743    0.3760   -2.1757 O   0  0  0  0  0  0  0  0  0  0  0  0
   -4.0413   -0.0763    0.1372 C   0  0  0  0  0  0  0  0  0  0  0  0
  -10.2911   -1.0994   -0.0955 C   0  0  1  0  0  0  0  0  0  0  0  0
  -10.0054    0.3232   -0.6523 C   0  0  1  0  0  0  0  0  0  0  0  0
   -9.3359    0.3330   -2.0569 C   0  0  2  0  0  0  0  0  0  0  0  0
   -8.0661   -0.5773   -2.0834 C   0  0  1  0  0  0  0  0  0  0  0  0
   -6.9206    0.0976   -1.4904 O   0  0  0  0  0  0  0  0  0  0  0  0
   -9.6939   -2.1922   -1.0333 C   0  0  1  0  0  0  0  0  0  0  0  0
   -8.3085   -1.8499   -1.3654 O   0  0  0  0  0  0  0  0  0  0  0  0
   -9.7324   -3.6052   -0.3963 C   0  0  0  0  0  0  0  0  0  0  0  0
   -2.6154   -0.3904   -9.8159 N   0  3  0  0  0  0  0  0  0  0  0  0
   -5.7529    1.1077   -3.7917 O   0  0  0  0  0  0  0  0  0  0  0  0
  -11.2419    1.0311   -0.7329 O   0  0  0  0  0  0  0  0  0  0  0  0
   -9.7127   -1.1991    1.2077 O   0  0  0  0  0  0  0  0  0  0  0  0
   -2.6855    0.2478    0.3932 O   0  0  0  0  0  0  0  0  0  0  0  0
   -4.1487   -4.4567   -4.0876 O   0  0  0  0  0  0  0  0  0  0  0  0
   -8.3985   -4.0917    0.0010 N   0  3  0  0  0  0  0  0  0  0  0  0
   -9.0562    1.7168   -2.5142 N   0  3  0  0  0  0  0  0  0  0  0  0
  1  2  1  1  0  0  0
  1  3  1  0  0  0  0
  1 10  1  0  0  0  0
  3  4  1  1  0  0  0
  3  5  1  0  0  0  0
  5  6  1  6  0  0  0
  5  7  1  0  0  0  0
  7  8  1  1  0  0  0
  7  9  1  0  0  0  0
  9 10  1  0  0  0  0
  9 11  1  6  0  0  0
 11 35  1  0  0  0  0
 12 13  1  1  0  0  0
 12 14  1  0  0  0  0
 12 20  1  0  0  0  0
 14 15  1  0  0  0  0
 14 40  1  6  0  0  0
 15 16  1  1  0  0  0
 15 17  1  0  0  0  0
 17  2  1  6  0  0  0
 17 18  1  0  0  0  0
 18 19  1  1  0  0  0
 18 20  1  0  0  0  0
 21 16  1  1  0  0  0
 21 22  1  0  0  0  0
 21 25  1  0  0  0  0
 22 23  1  0  0  0  0
 22 36  1  1  0  0  0
 23 24  1  0  0  0  0
 23 31  1  1  0  0  0
 24 25  1  0  0  0  0
 24 26  1  1  0  0  0
 26 39  1  0  0  0  0
 27 28  1  0  0  0  0
 27 32  1  0  0  0  0
 27 38  1  1  0  0  0
 28 29  1  0  0  0  0
 28 37  1  6  0  0  0
 29 30  1  0  0  0  0
 29 42  1  1  0  0  0
 30 31  1  1  0  0  0
 30 33  1  0  0  0  0
 32 33  1  0  0  0  0
 32 34  1  1  0  0  0
 34 41  1  0  0  0  0
M  CHG  6   4   1  13   1  19   1  35   1  41   1  42   1
M  END
>  <CHROM.1>
161.42697876,-77.62685611,101.20614815,63.07006342,-158.49856307,56.68351397
92.81125100,-169.08311796,-160.57463721,-173.17789435,100.31265736,144.06005463
178.83065981,63.86084882,151.96897975,-54.62899380,19.95207772,0.70657016
80.45166349,-158.03971248,-108.28581391,-4.34536544,-5.10631404,-0.98442551
-4.02065131,0.57563834,0.56735776,-0.98439191

>  <Name>


>  <RI>
0

>  <Rbt.Current_Directory>
/home/itssahil/PROJECTS/Mol_Feturizer/New_Systems/rnas/1ei2

>  <Rbt.Executable>
rbdock ($Id: //depot/dev/client3/rdock/2013.1/src/exe/rbdock.cxx#4 $)

>  <Rbt.Library>
libRbt.so (2013.1, Build901 2013/11/27)

>  <Rbt.Parameter_File>
/export/apps/rDock/src/rDock_2013.1_src/data/scripts/dock_solv.prm

>  <Rbt.Receptor>
prm/blind_docking_100.prm

>  <SCORE>
34.4144

>  <SCORE.INTER>
20.4326

>  <SCORE.INTER.CONST>
1

>  <SCORE.INTER.POLAR>
-6.44774

>  <SCORE.INTER.ROT>
9

>  <SCORE.INTER.SOLV>
54.3906

>  <SCORE.INTER.VDW>
7.38397

>  <SCORE.INTER.norm>
0.48649

>  <SCORE.INTRA>
-0.633446

>  <SCORE.INTRA.DIHEDRAL>
6.57587

>  <SCORE.INTRA.DIHEDRAL.0>
40.8761

>  <SCORE.INTRA.POLAR>
-0.919436

>  <SCORE.INTRA.POLAR.0>
-0.0268208

>  <SCORE.INTRA.REPUL>
-0.641615

>  <SCORE.INTRA.REPUL.0>
0.641615

>  <SCORE.INTRA.SOLV>
-4.97123

>  <SCORE.INTRA.SOLV.lig_0>
-162.567

>  <SCORE.INTRA.VDW>
4.89839

>  <SCORE.INTRA.VDW.0>
-4.80338

>  <SCORE.INTRA.norm>
-0.0150821

>  <SCORE.RESTR>
14.6152

>  <SCORE.RESTR.CAVITY>
14.6152

>  <SCORE.RESTR.norm>
0.347981

>  <SCORE.SYSTEM>
0

>  <SCORE.SYSTEM.CONST>
0

>  <SCORE.SYSTEM.DIHEDRAL>
0

>  <SCORE.SYSTEM.SOLV>
0

>  <SCORE.SYSTEM.norm>
0

>  <SCORE.heavy>
42

>  <SCORE.norm>
0.819389

>  <RMSD>
9.126

$$$$

 OpenBabel11021811393D
libRbt.so/2013.1/901 2013/11/27
 42 45  0  0  0  0  0  0  0  0999 V2000
   -3.0742   -0.1963   -6.8606 C   0  0  2  0  0  0  0  0  0  0  0  0
   -4.1751    0.6882   -6.4872 O   0  0  0  0  0  0  0  0  0  0  0  0
   -3.1999   -0.6780   -8.3425 C   0  0  2  0  0  0  0  0  0  0  0  0
   -4.1763    0.1368   -9.1014 N   0  3  0  0  0  0  0  0  0  0  0  0
   -3.5854   -2.1870   -8.3997 C   0  0  1  0  0  0  0  0  0  0  0  0
   -3.6871   -2.6171   -9.7555 O   0  0  0  0  0  0  0  0  0  0  0  0
   -2.5384   -3.0771   -7.6781 C   0  0  2  0  0  0  0  0  0  0  0  0
   -3.0836   -4.3814   -7.5131 O   0  0  0  0  0  0  0  0  0  0  0  0
   -2.1479   -2.4798   -6.2874 C   0  0  2  0  0  0  0  0  0  0  0  0
   -3.0255   -1.3542   -5.9583 O   0  0  0  0  0  0  0  0  0  0  0  0
   -0.6997   -1.9454   -6.2025 C   0  0  0  0  0  0  0  0  0  0  0  0
   -2.6885    3.7919   -3.8839 C   0  0  1  0  0  0  0  0  0  0  0  0
   -2.5058    4.7144   -2.7411 N   0  3  0  0  0  0  0  0  0  0  0  0
   -2.3285    2.3326   -3.5006 C   0  0  1  0  0  0  0  0  0  0  0  0
   -2.6452    1.2869   -4.6258 C   0  0  1  0  0  0  0  0  0  0  0  0
   -2.5767   -0.0420   -4.0426 O   0  0  0  0  0  0  0  0  0  0  0  0
   -4.0790    1.4580   -5.2496 C   0  0  1  0  0  0  0  0  0  0  0  0
   -4.3963    2.9506   -5.5882 C   0  0  1  0  0  0  0  0  0  0  0  0
   -5.7927    3.1333   -6.0337 N   0  3  0  0  0  0  0  0  0  0  0  0
   -4.1473    3.8795   -4.3786 C   0  0  0  0  0  0  0  0  0  0  0  0
   -2.6678   -0.1977   -2.5968 C   0  0  1  0  0  0  0  0  0  0  0  0
   -4.0334    0.3018   -2.1401 C   0  0  1  0  0  0  0  0  0  0  0  0
   -4.8880   -0.9117   -2.4799 C   0  0  1  0  0  0  0  0  0  0  0  0
   -3.9751   -2.0662   -2.0430 C   0  0  2  0  0  0  0  0  0  0  0  0
   -2.6232   -1.5912   -2.2488 O   0  0  0  0  0  0  0  0  0  0  0  0
   -4.2112   -3.3577   -2.8466 C   0  0  0  0  0  0  0  0  0  0  0  0
   -9.8338   -1.3070   -0.7607 C   0  0  1  0  0  0  0  0  0  0  0  0
   -9.1840    0.0020   -1.2896 C   0  0  1  0  0  0  0  0  0  0  0  0
   -8.3676   -0.1792   -2.6017 C   0  0  2  0  0  0  0  0  0  0  0  0
   -7.3303   -1.3400   -2.4655 C   0  0  1  0  0  0  0  0  0  0  0  0
   -6.1441   -0.9054   -1.7422 O   0  0  0  0  0  0  0  0  0  0  0  0
   -9.3806   -2.5334   -1.6097 C   0  0  1  0  0  0  0  0  0  0  0  0
   -7.9248   -2.5063   -1.7726 O   0  0  0  0  0  0  0  0  0  0  0  0
   -9.7982   -3.8830   -0.9710 C   0  0  0  0  0  0  0  0  0  0  0  0
   -0.5848   -0.5793   -5.6622 N   0  3  0  0  0  0  0  0  0  0  0  0
   -4.0116    0.5494   -0.7341 O   0  0  0  0  0  0  0  0  0  0  0  0
  -10.2200    0.9544   -1.5264 O   0  0  0  0  0  0  0  0  0  0  0  0
   -9.4481   -1.4834    0.6043 O   0  0  0  0  0  0  0  0  0  0  0  0
   -4.7628   -3.0672   -4.1194 O   0  0  0  0  0  0  0  0  0  0  0  0
   -0.9349    2.2682   -3.1987 O   0  0  0  0  0  0  0  0  0  0  0  0
   -9.1345   -4.1357    0.3211 N   0  3  0  0  0  0  0  0  0  0  0  0
   -7.7437    1.0965   -3.0324 N   0  3  0  0  0  0  0  0  0  0  0  0
  1  2  1  1  0  0  0
  1  3  1  0  0  0  0
  1 10  1  0  0  0  0
  3  4  1  1  0  0  0
  3  5  1  0  0  0  0
  5  6  1  6  0  0  0
  5  7  1  0  0  0  0
  7  8  1  1  0  0  0
  7  9  1  0  0  0  0
  9 10  1  0  0  0  0
  9 11  1  6  0  0  0
 11 35  1  0  0  0  0
 12 13  1  1  0  0  0
 12 14  1  0  0  0  0
 12 20  1  0  0  0  0
 14 15  1  0  0  0  0
 14 40  1  6  0  0  0
 15 16  1  1  0  0  0
 15 17  1  0  0  0  0
 17  2  1  6  0  0  0
 17 18  1  0  0  0  0
 18 19  1  1  0  0  0
 18 20  1  0  0  0  0
 21 16  1  6  0  0  0
 21 22  1  0  0  0  0
 21 25  1  0  0  0  0
 22 23  1  0  0  0  0
 22 36  1  1  0  0  0
 23 24  1  0  0  0  0
 23 31  1  1  0  0  0
 24 25  1  0  0  0  0
 24 26  1  6  0  0  0
 26 39  1  0  0  0  0
 27 28  1  0  0  0  0
 27 32  1  0  0  0  0
 27 38  1  1  0  0  0
 28 29  1  0  0  0  0
 28 37  1  6  0  0  0
 29 30  1  0  0  0  0
 29 42  1  1  0  0  0
 30 31  1  1  0  0  0
 30 33  1  0  0  0  0
 32 33  1  0  0  0  0
 32 34  1  1  0  0  0
 34 41  1  0  0  0  0
M  CHG  6   4   1  13   1  19   1  35   1  41   1  42   1
M  END
>  <CHROM.1>
-167.06254265,7.00557822,50.82639549,64.43601200,81.25959924,129.63175626
161.69824105,141.82239039,69.25173908,18.86700657,62.65950536,-60.00912243
-55.99172567,140.49722062,24.79213652,62.39665192,54.21176387,63.42659417
43.77367728,-116.27383209,-64.96274880,50.13463468,-4.81402659,-0.45984259
-3.97977723,0.19302591,-0.73158823,-2.63422959

>  <Name>


>  <RI>
0

>  <Rbt.Current_Directory>
/home/itssahil/PROJECTS/Mol_Feturizer/New_Systems/rnas/1ei2

>  <Rbt.Executable>
rbdock ($Id: //depot/dev/client3/rdock/2013.1/src/exe/rbdock.cxx#4 $)

>  <Rbt.Library>
libRbt.so (2013.1, Build901 2013/11/27)

>  <Rbt.Parameter_File>
/export/apps/rDock/src/rDock_2013.1_src/data/scripts/dock_solv.prm

>  <Rbt.Receptor>
prm/blind_docking_80.prm

>  <SCORE>
-6.0725

>  <SCORE.INTER>
-9.99237

>  <SCORE.INTER.CONST>
1

>  <SCORE.INTER.POLAR>
-1.66147

>  <SCORE.INTER.ROT>
9

>  <SCORE.INTER.SOLV>
32.0672

>  <SCORE.INTER.VDW>
-21.4124

>  <SCORE.INTER.norm>
-0.237913

>  <SCORE.INTRA>
-5.24205

>  <SCORE.INTRA.DIHEDRAL>
0.688292

>  <SCORE.INTRA.DIHEDRAL.0>
40.8761

>  <SCORE.INTRA.POLAR>
-2.91488

>  <SCORE.INTRA.POLAR.0>
-0.0268208

>  <SCORE.INTRA.REPUL>
-0.520762

>  <SCORE.INTRA.REPUL.0>
0.641615

>  <SCORE.INTRA.SOLV>
1.60741

>  <SCORE.INTRA.SOLV.lig_0>
-162.567

>  <SCORE.INTRA.VDW>
6.1245

>  <SCORE.INTRA.VDW.0>
-4.80338

>  <SCORE.INTRA.norm>
-0.124811

>  <SCORE.RESTR>
9.16192

>  <SCORE.RESTR.CAVITY>
9.16192

>  <SCORE.RESTR.norm>
0.218141

>  <SCORE.SYSTEM>
0

>  <SCORE.SYSTEM.CONST>
0

>  <SCORE.SYSTEM.DIHEDRAL>
0

>  <SCORE.SYSTEM.SOLV>
0

>  <SCORE.SYSTEM.norm>
0

>  <SCORE.heavy>
42

>  <SCORE.norm>
-0.144583

>  <RMSD>
9.138

$$$$

 OpenBabel11021811393D
libRbt.so/2013.1/901 2013/11/27
 42 45  0  0  0  0  0  0  0  0999 V2000
   -3.4533   -0.2829   -6.8267 C   0  0  2  0  0  0  0  0  0  0  0  0
   -4.6407    0.4522   -6.3984 O   0  0  0  0  0  0  0  0  0  0  0  0
   -3.6437   -0.9069   -8.2474 C   0  0  2  0  0  0  0  0  0  0  0  0
   -4.8082   -0.3212   -8.9502 N   0  3  0  0  0  0  0  0  0  0  0  0
   -3.7843   -2.4562   -8.1535 C   0  0  1  0  0  0  0  0  0  0  0  0
   -3.9472   -3.0146   -9.4554 O   0  0  0  0  0  0  0  0  0  0  0  0
   -2.5419   -3.1085   -7.4900 C   0  0  2  0  0  0  0  0  0  0  0  0
   -2.8506   -4.4612   -7.1728 O   0  0  0  0  0  0  0  0  0  0  0  0
   -2.1190   -2.3382   -6.1973 C   0  0  2  0  0  0  0  0  0  0  0  0
   -3.1304   -1.3356   -5.8548 O   0  0  0  0  0  0  0  0  0  0  0  0
   -0.7747   -1.5831   -6.3113 C   0  0  0  0  0  0  0  0  0  0  0  0
   -3.2213    4.1654   -4.7199 C   0  0  1  0  0  0  0  0  0  0  0  0
   -3.0224    5.3347   -3.8346 N   0  3  0  0  0  0  0  0  0  0  0  0
   -2.6914    2.8613   -4.0681 C   0  0  1  0  0  0  0  0  0  0  0  0
   -3.0099    1.5669   -4.8945 C   0  0  1  0  0  0  0  0  0  0  0  0
   -2.7630    0.4142   -4.0453 O   0  0  0  0  0  0  0  0  0  0  0  0
   -4.5046    1.4886   -5.3782 C   0  0  1  0  0  0  0  0  0  0  0  0
   -4.9911    2.8382   -5.9986 C   0  0  1  0  0  0  0  0  0  0  0  0
   -6.4334    2.8144   -6.3162 N   0  3  0  0  0  0  0  0  0  0  0  0
   -4.7210    4.0336   -5.0574 C   0  0  0  0  0  0  0  0  0  0  0  0
   -2.8527    0.5557   -2.5980 C   0  0  1  0  0  0  0  0  0  0  0  0
   -4.3208    0.6980   -2.2143 C   0  0  1  0  0  0  0  0  0  0  0  0
   -4.7488   -0.7627   -2.2531 C   0  0  1  0  0  0  0  0  0  0  0  0
   -3.5413   -1.4571   -1.6073 C   0  0  2  0  0  0  0  0  0  0  0  0
   -2.3943   -0.6462   -1.9574 O   0  0  0  0  0  0  0  0  0  0  0  0
   -3.3409   -2.9006   -2.1027 C   0  0  0  0  0  0  0  0  0  0  0  0
   -9.7146   -1.4288   -0.7661 C   0  0  1  0  0  0  0  0  0  0  0  0
   -9.0918   -0.2593   -1.5784 C   0  0  1  0  0  0  0  0  0  0  0  0
   -8.1279   -0.7155   -2.7115 C   0  0  2  0  0  0  0  0  0  0  0  0
   -7.0430   -1.6998   -2.1675 C   0  0  1  0  0  0  0  0  0  0  0  0
   -5.9712   -0.9827   -1.4920 O   0  0  0  0  0  0  0  0  0  0  0  0
   -9.0979   -2.7939   -1.1978 C   0  0  1  0  0  0  0  0  0  0  0  0
   -7.6373   -2.6832   -1.2330 O   0  0  0  0  0  0  0  0  0  0  0  0
   -9.4997   -3.9522   -0.2487 C   0  0  0  0  0  0  0  0  0  0  0  0
   -0.6938   -0.3568   -5.4984 N   0  3  0  0  0  0  0  0  0  0  0  0
   -4.4255    1.2393   -0.8972 O   0  0  0  0  0  0  0  0  0  0  0  0
  -10.1519    0.4982   -2.1606 O   0  0  0  0  0  0  0  0  0  0  0  0
   -9.4698   -1.1949    0.6226 O   0  0  0  0  0  0  0  0  0  0  0  0
   -4.4178   -3.3049   -2.9306 O   0  0  0  0  0  0  0  0  0  0  0  0
   -1.2762    2.9670   -3.9155 O   0  0  0  0  0  0  0  0  0  0  0  0
   -9.6191   -5.2474   -0.9430 N   0  3  0  0  0  0  0  0  0  0  0  0
   -7.5395    0.4464   -3.4229 N   0  3  0  0  0  0  0  0  0  0  0  0
  1  2  1  1  0  0  0
  1  3  1  0  0  0  0
  1 10  1  0  0  0  0
  3  4  1  1  0  0  0
  3  5  1  0  0  0  0
  5  6  1  6  0  0  0
  5  7  1  0  0  0  0
  7  8  1  1  0  0  0
  7  9  1  0  0  0  0
  9 10  1  0  0  0  0
  9 11  1  6  0  0  0
 11 35  1  0  0  0  0
 12 13  1  1  0  0  0
 12 14  1  0  0  0  0
 12 20  1  0  0  0  0
 14 15  1  0  0  0  0
 14 40  1  6  0  0  0
 15 16  1  1  0  0  0
 15 17  1  0  0  0  0
 17  2  1  6  0  0  0
 17 18  1  0  0  0  0
 18 19  1  1  0  0  0
 18 20  1  0  0  0  0
 21 16  1  6  0  0  0
 21 22  1  0  0  0  0
 21 25  1  0  0  0  0
 22 23  1  0  0  0  0
 22 36  1  1  0  0  0
 23 24  1  0  0  0  0
 23 31  1  1  0  0  0
 24 25  1  0  0  0  0
 24 26  1  6  0  0  0
 26 39  1  0  0  0  0
 27 28  1  0  0  0  0
 27 32  1  0  0  0  0
 27 38  1  1  0  0  0
 28 29  1  0  0  0  0
 28 37  1  6  0  0  0
 29 30  1  0  0  0  0
 29 42  1  1  0  0  0
 30 31  1  1  0  0  0
 30 33  1  0  0  0  0
 32 33  1  0  0  0  0
 32 34  1  1  0  0  0
 34 41  1  0  0  0  0
M  CHG  6   4   1  13   1  19   1  35   1  41   1  42   1
M  END
>  <CHROM.1>
-157.43900605,-1.79859322,61.60424375,-64.53649952,-175.78768128,148.94185258
-105.85934499,65.06708550,-179.73646089,25.63639441,72.52552682,-30.18935909
-164.14666591,129.29362082,-6.79079918,167.17378890,68.95687799,172.31559952
167.98240179,-99.86356729,147.62284512,83.25459574,-4.92415730,-0.43051606
-4.01421780,-0.03417263,-0.78188827,-2.78736091

>  <Name>


>  <RI>
0

>  <Rbt.Current_Directory>
/home/itssahil/PROJECTS/Mol_Feturizer/New_Systems/rnas/1ei2

>  <Rbt.Executable>
rbdock ($Id: //depot/dev/client3/rdock/2013.1/src/exe/rbdock.cxx#4 $)

>  <Rbt.Library>
libRbt.so (2013.1, Build901 2013/11/27)

>  <Rbt.Parameter_File>
/export/apps/rDock/src/rDock_2013.1_src/data/scripts/dock_solv.prm

>  <Rbt.Receptor>
prm/blind_docking_80.prm

>  <SCORE>
-12.4812

>  <SCORE.INTER>
-19.2215

>  <SCORE.INTER.CONST>
1

>  <SCORE.INTER.POLAR>
-3.74818

>  <SCORE.INTER.ROT>
9

>  <SCORE.INTER.SOLV>
38.4197

>  <SCORE.INTER.VDW>
-22.727

>  <SCORE.INTER.norm>
-0.457656

>  <SCORE.INTRA>
-2.70958

>  <SCORE.INTRA.DIHEDRAL>
6.52922

>  <SCORE.INTRA.DIHEDRAL.0>
40.8761

>  <SCORE.INTRA.POLAR>
-1.17974

>  <SCORE.INTRA.POLAR.0>
-0.0268208

>  <SCORE.INTRA.REPUL>
-0.553482

>  <SCORE.INTRA.REPUL.0>
0.641615

>  <SCORE.INTRA.SOLV>
-1.81546

>  <SCORE.INTRA.SOLV.lig_0>
-162.567

>  <SCORE.INTRA.VDW>
1.71208

>  <SCORE.INTRA.VDW.0>
-4.80338

>  <SCORE.INTRA.norm>
-0.0645138

>  <SCORE.RESTR>
9.44994

>  <SCORE.RESTR.CAVITY>
9.44994

>  <SCORE.RESTR.norm>
0.224998

>  <SCORE.SYSTEM>
0

>  <SCORE.SYSTEM.CONST>
0

>  <SCORE.SYSTEM.DIHEDRAL>
0

>  <SCORE.SYSTEM.SOLV>
0

>  <SCORE.SYSTEM.norm>
0

>  <SCORE.heavy>
42

>  <SCORE.norm>
-0.297171

>  <RMSD>
9.145

$$$$

 OpenBabel11021811393D
libRbt.so/2013.1/901 2013/11/27
 42 45  0  0  0  0  0  0  0  0999 V2000
   -3.4534    0.8089   -4.8974 C   0  0  2  0  0  0  0  0  0  0  0  0
   -3.3332   -0.2471   -5.8994 O   0  0  0  0  0  0  0  0  0  0  0  0
   -4.5651    1.8400   -5.2780 C   0  0  2  0  0  0  0  0  0  0  0  0
   -5.4498    1.3209   -6.3462 N   0  3  0  0  0  0  0  0  0  0  0  0
   -3.9324    3.1989   -5.7044 C   0  0  1  0  0  0  0  0  0  0  0  0
   -4.9557    4.1338   -6.0393 O   0  0  0  0  0  0  0  0  0  0  0  0
   -3.0596    3.8081   -4.5746 C   0  0  2  0  0  0  0  0  0  0  0  0
   -2.2904    4.8759   -5.1167 O   0  0  0  0  0  0  0  0  0  0  0  0
   -2.1152    2.7333   -3.9452 C   0  0  2  0  0  0  0  0  0  0  0  0
   -2.1667    1.4967   -4.7285 O   0  0  0  0  0  0  0  0  0  0  0  0
   -2.4651    2.3450   -2.4902 C   0  0  0  0  0  0  0  0  0  0  0  0
   -1.9875   -4.3042   -6.4900 C   0  0  1  0  0  0  0  0  0  0  0  0
   -1.3265   -5.6166   -6.3136 N   0  3  0  0  0  0  0  0  0  0  0  0
   -3.1186   -4.0923   -5.4499 C   0  0  1  0  0  0  0  0  0  0  0  0
   -3.7550   -2.6594   -5.4910 C   0  0  1  0  0  0  0  0  0  0  0  0
   -4.5484   -2.4805   -4.2871 O   0  0  0  0  0  0  0  0  0  0  0  0
   -2.6876   -1.5047   -5.5318 C   0  0  1  0  0  0  0  0  0  0  0  0
   -1.5591   -1.7867   -6.5758 C   0  0  1  0  0  0  0  0  0  0  0  0
   -0.4798   -0.7803   -6.5111 N   0  3  0  0  0  0  0  0  0  0  0  0
   -0.9313   -3.1850   -6.3796 C   0  0  0  0  0  0  0  0  0  0  0  0
   -4.8355   -1.1344   -3.8092 C   0  0  1  0  0  0  0  0  0  0  0  0
   -6.2266   -1.1268   -3.1866 C   0  0  1  0  0  0  0  0  0  0  0  0
   -5.9086   -1.7119   -1.8173 C   0  0  1  0  0  0  0  0  0  0  0  0
   -4.5861   -1.0089   -1.4792 C   0  0  2  0  0  0  0  0  0  0  0  0
   -3.9295   -0.7854   -2.7498 O   0  0  0  0  0  0  0  0  0  0  0  0
   -3.6808   -1.8420   -0.5541 C   0  0  0  0  0  0  0  0  0  0  0  0
   -9.6332   -3.6705    0.6994 C   0  0  1  0  0  0  0  0  0  0  0  0
   -9.3997   -2.1787    1.0672 C   0  0  1  0  0  0  0  0  0  0  0  0
   -9.3390   -1.2239   -0.1599 C   0  0  2  0  0  0  0  0  0  0  0  0
   -8.3161   -1.7366   -1.2242 C   0  0  1  0  0  0  0  0  0  0  0  0
   -6.9504   -1.4017   -0.8476 O   0  0  0  0  0  0  0  0  0  0  0  0
   -9.6040   -3.8717   -0.8463 C   0  0  1  0  0  0  0  0  0  0  0  0
   -8.4270   -3.2024   -1.4059 O   0  0  0  0  0  0  0  0  0  0  0  0
   -9.5799   -5.3688   -1.2486 C   0  0  0  0  0  0  0  0  0  0  0  0
   -2.2034    3.4022   -1.4976 N   0  3  0  0  0  0  0  0  0  0  0  0
   -6.7028    0.2154   -3.0845 O   0  0  0  0  0  0  0  0  0  0  0  0
  -10.4613   -1.7547    1.9213 O   0  0  0  0  0  0  0  0  0  0  0  0
   -8.6098   -4.4539    1.3174 O   0  0  0  0  0  0  0  0  0  0  0  0
   -2.6622   -1.0373    0.0146 O   0  0  0  0  0  0  0  0  0  0  0  0
   -4.1465   -5.0537   -5.6878 O   0  0  0  0  0  0  0  0  0  0  0  0
   -9.5796   -6.2753   -0.0857 N   0  3  0  0  0  0  0  0  0  0  0  0
   -9.0771    0.1765    0.2555 N   0  3  0  0  0  0  0  0  0  0  0  0
  1  2  1  6  0  0  0
  1  3  1  0  0  0  0
  1 10  1  0  0  0  0
  3  4  1  6  0  0  0
  3  5  1  0  0  0  0
  5  6  1  1  0  0  0
  5  7  1  0  0  0  0
  7  8  1  6  0  0  0
  7  9  1  0  0  0  0
  9 10  1  0  0  0  0
  9 11  1  1  0  0  0
 11 35  1  0  0  0  0
 12 13  1  1  0  0  0
 12 14  1  0  0  0  0
 12 20  1  0  0  0  0
 14 15  1  0  0  0  0
 14 40  1  6  0  0  0
 15 16  1  1  0  0  0
 15 17  1  0  0  0  0
 17  2  1  6  0  0  0
 17 18  1  0  0  0  0
 18 19  1  1  0  0  0
 18 20  1  0  0  0  0
 21 16  1  1  0  0  0
 21 22  1  0  0  0  0
 21 25  1  0  0  0  0
 22 23  1  0  0  0  0
 22 36  1  1  0  0  0
 23 24  1  0  0  0  0
 23 31  1  1  0  0  0
 24 25  1  0  0  0  0
 24 26  1  1  0  0  0
 26 39  1  0  0  0  0
 27 28  1  0  0  0  0
 27 32  1  0  0  0  0
 27 38  1  1  0  0  0
 28 29  1  0  0  0  0
 28 37  1  1  0  0  0
 29 30  1  0  0  0  0
 29 42  1  1  0  0  0
 30 31  1  1  0  0  0
 30 33  1  0  0  0  0
 32 33  1  0  0  0  0
 32 34  1  1  0  0  0
 34 41  1  0  0  0  0
M  CHG  6   4   1  13   1  19   1  35   1  41   1  42   1
M  END
>  <CHROM.1>
-160.20173450,110.83316483,-64.52106950,-176.42007194,-61.04744335,-69.77495665
162.54083256,51.04577707,52.82955184,157.12287886,145.60883698,-152.22789191
-65.11586854,52.51852798,-164.34253846,-57.16435035,-93.26404128,58.82519243
-134.26430317,-174.36624615,-0.42960648,-83.23109257,-5.04624034,-1.06121590
-3.13038209,0.35226283,0.73929964,0.13317608

>  <Name>


>  <RI>
0

>  <Rbt.Current_Directory>
/home/itssahil/PROJECTS/Mol_Feturizer/New_Systems/rnas/1ei2

>  <Rbt.Executable>
rbdock ($Id: //depot/dev/client3/rdock/2013.1/src/exe/rbdock.cxx#4 $)

>  <Rbt.Library>
libRbt.so (2013.1, Build901 2013/11/27)

>  <Rbt.Parameter_File>
/export/apps/rDock/src/rDock_2013.1_src/data/scripts/dock_solv.prm

>  <Rbt.Receptor>
prm/blind_docking_40.prm

>  <SCORE>
65.8944

>  <SCORE.INTER>
64.688

>  <SCORE.INTER.CONST>
1

>  <SCORE.INTER.POLAR>
-5.13754

>  <SCORE.INTER.ROT>
9

>  <SCORE.INTER.SOLV>
60.8953

>  <SCORE.INTER.VDW>
30.352

>  <SCORE.INTER.norm>
1.54019

>  <SCORE.INTRA>
-4.06621

>  <SCORE.INTRA.DIHEDRAL>
-6.63586

>  <SCORE.INTRA.DIHEDRAL.0>
40.8761

>  <SCORE.INTRA.POLAR>
-0.435085

>  <SCORE.INTRA.POLAR.0>
-0.0268208

>  <SCORE.INTRA.REPUL>
-0.641615

>  <SCORE.INTRA.REPUL.0>
0.641615

>  <SCORE.INTRA.SOLV>
-8.08896

>  <SCORE.INTRA.SOLV.lig_0>
-162.567

>  <SCORE.INTRA.VDW>
7.98357

>  <SCORE.INTRA.VDW.0>
-4.80338

>  <SCORE.INTRA.norm>
-0.0968145

>  <SCORE.RESTR>
5.27257

>  <SCORE.RESTR.CAVITY>
5.27257

>  <SCORE.RESTR.norm>
0.125537

>  <SCORE.SYSTEM>
0

>  <SCORE.SYSTEM.CONST>
0

>  <SCORE.SYSTEM.DIHEDRAL>
0

>  <SCORE.SYSTEM.SOLV>
0

>  <SCORE.SYSTEM.norm>
0

>  <SCORE.heavy>
42

>  <SCORE.norm>
1.56891

>  <RMSD>
9.148

$$$$

 OpenBabel11021811393D
libRbt.so/2013.1/901 2013/11/27
 42 45  0  0  0  0  0  0  0  0999 V2000
   -2.8325   -4.3733   -6.0443 C   0  0  2  0  0  0  0  0  0  0  0  0
   -3.6015   -3.1459   -5.8555 O   0  0  0  0  0  0  0  0  0  0  0  0
   -2.3669   -4.5386   -7.5275 C   0  0  2  0  0  0  0  0  0  0  0  0
   -2.5025   -3.2747   -8.2873 N   0  3  0  0  0  0  0  0  0  0  0  0
   -3.1570   -5.6850   -8.2278 C   0  0  1  0  0  0  0  0  0  0  0  0
   -2.7168   -5.8329   -9.5760 O   0  0  0  0  0  0  0  0  0  0  0  0
   -2.9717   -7.0422   -7.4977 C   0  0  2  0  0  0  0  0  0  0  0  0
   -3.9303   -7.9662   -8.0006 O   0  0  0  0  0  0  0  0  0  0  0  0
   -3.1409   -6.8827   -5.9520 C   0  0  2  0  0  0  0  0  0  0  0  0
   -3.6277   -5.5382   -5.6346 O   0  0  0  0  0  0  0  0  0  0  0  0
   -1.8400   -7.0805   -5.1405 C   0  0  0  0  0  0  0  0  0  0  0  0
   -4.6975   -1.7055   -1.9384 C   0  0  1  0  0  0  0  0  0  0  0  0
   -4.6661   -1.0579   -0.6079 N   0  3  0  0  0  0  0  0  0  0  0  0
   -4.6745   -0.6579   -3.0821 C   0  0  1  0  0  0  0  0  0  0  0  0
   -4.5546   -1.2872   -4.5137 C   0  0  1  0  0  0  0  0  0  0  0  0
   -4.2181   -0.2272   -5.4486 O   0  0  0  0  0  0  0  0  0  0  0  0
   -3.4343   -2.3863   -4.6191 C   0  0  1  0  0  0  0  0  0  0  0  0
   -3.4890   -3.3950   -3.4264 C   0  0  1  0  0  0  0  0  0  0  0  0
   -2.3504   -4.3358   -3.4432 N   0  3  0  0  0  0  0  0  0  0  0  0
   -3.5000   -2.6706   -2.0615 C   0  0  0  0  0  0  0  0  0  0  0  0
   -5.1733    0.8456   -5.6925 C   0  0  1  0  0  0  0  0  0  0  0  0
   -4.5543    2.1603   -5.2329 C   0  0  1  0  0  0  0  0  0  0  0  0
   -3.6663    2.4694   -6.4305 C   0  0  1  0  0  0  0  0  0  0  0  0
   -4.5757    2.0720   -7.6019 C   0  0  2  0  0  0  0  0  0  0  0  0
   -5.3994    0.9906   -7.1042 O   0  0  0  0  0  0  0  0  0  0  0  0
   -3.7914    1.6123   -8.8441 C   0  0  0  0  0  0  0  0  0  0  0  0
   -2.6811    3.4218   -2.7191 C   0  0  1  0  0  0  0  0  0  0  0  0
   -2.2338    2.4307   -3.8295 C   0  0  1  0  0  0  0  0  0  0  0  0
   -1.4574    3.0979   -5.0013 C   0  0  2  0  0  0  0  0  0  0  0  0
   -2.2466    4.3160   -5.5803 C   0  0  1  0  0  0  0  0  0  0  0  0
   -3.3051    3.8798   -6.4793 O   0  0  0  0  0  0  0  0  0  0  0  0
   -2.3642    4.8924   -3.1279 C   0  0  1  0  0  0  0  0  0  0  0  0
   -2.8344    5.1339   -4.4943 O   0  0  0  0  0  0  0  0  0  0  0  0
   -3.0153    5.9262   -2.1733 C   0  0  0  0  0  0  0  0  0  0  0  0
   -1.7384   -8.3836   -4.4600 N   0  3  0  0  0  0  0  0  0  0  0  0
   -5.5759    3.1446   -5.0710 O   0  0  0  0  0  0  0  0  0  0  0  0
   -1.3972    1.4385   -3.2361 O   0  0  0  0  0  0  0  0  0  0  0  0
   -4.0857    3.2609   -2.5089 O   0  0  0  0  0  0  0  0  0  0  0  0
   -4.4603    1.9940  -10.0339 O   0  0  0  0  0  0  0  0  0  0  0  0
   -5.8746    0.1125   -3.0226 O   0  0  0  0  0  0  0  0  0  0  0  0
   -4.4729    6.0426   -2.3621 N   0  3  0  0  0  0  0  0  0  0  0  0
   -1.0924    2.1065   -6.0435 N   0  3  0  0  0  0  0  0  0  0  0  0
  1  2  1  6  0  0  0
  1  3  1  0  0  0  0
  1 10  1  0  0  0  0
  3  4  1  6  0  0  0
  3  5  1  0  0  0  0
  5  6  1  6  0  0  0
  5  7  1  0  0  0  0
  7  8  1  6  0  0  0
  7  9  1  0  0  0  0
  9 10  1  0  0  0  0
  9 11  1  1  0  0  0
 11 35  1  0  0  0  0
 12 13  1  1  0  0  0
 12 14  1  0  0  0  0
 12 20  1  0  0  0  0
 14 15  1  0  0  0  0
 14 40  1  6  0  0  0
 15 16  1  6  0  0  0
 15 17  1  0  0  0  0
 17  2  1  6  0  0  0
 17 18  1  0  0  0  0
 18 19  1  1  0  0  0
 18 20  1  0  0  0  0
 21 16  1  6  0  0  0
 21 22  1  0  0  0  0
 21 25  1  0  0  0  0
 22 23  1  0  0  0  0
 22 36  1  6  0  0  0
 23 24  1  0  0  0  0
 23 31  1  6  0  0  0
 24 25  1  0  0  0  0
 24 26  1  6  0  0  0
 26 39  1  0  0  0  0
 27 28  1  0  0  0  0
 27 32  1  0  0  0  0
 27 38  1  6  0  0  0
 28 29  1  0  0  0  0
 28 37  1  1  0  0  0
 29 30  1  0  0  0  0
 29 42  1  6  0  0  0
 30 31  1  6  0  0  0
 30 33  1  0  0  0  0
 32 33  1  0  0  0  0
 32 34  1  1  0  0  0
 34 41  1  0  0  0  0
M  CHG  6   4   1  13   1  19   1  35   1  41   1  42   1
M  END
>  <CHROM.1>
-142.54160609,-168.65304640,-33.44641082,-141.23361214,71.41279668,-103.07008397
-88.33441764,28.16715781,-64.99505200,-65.19409728,116.83869867,23.49733155
-155.47618049,78.46742225,-145.76686923,-49.95892558,-59.41401381,179.70590592
10.76125331,14.75870575,-73.51336519,172.96171235,-3.44767988,-0.63151379
-5.20335923,0.05156233,1.51588692,-1.40693958

>  <Name>


>  <RI>
0

>  <Rbt.Current_Directory>
/home/itssahil/PROJECTS/Mol_Feturizer/New_Systems/rnas/1ei2

>  <Rbt.Executable>
rbdock ($Id: //depot/dev/client3/rdock/2013.1/src/exe/rbdock.cxx#4 $)

>  <Rbt.Library>
libRbt.so (2013.1, Build901 2013/11/27)

>  <Rbt.Parameter_File>
/export/apps/rDock/src/rDock_2013.1_src/data/scripts/dock_solv.prm

>  <Rbt.Receptor>
prm/blind_docking_60.prm

>  <SCORE>
15.3758

>  <SCORE.INTER>
-4.97996

>  <SCORE.INTER.CONST>
1

>  <SCORE.INTER.POLAR>
-4.49992

>  <SCORE.INTER.ROT>
9

>  <SCORE.INTER.SOLV>
53.6746

>  <SCORE.INTER.VDW>
-15.8118

>  <SCORE.INTER.norm>
-0.11857

>  <SCORE.INTRA>
6.68257

>  <SCORE.INTRA.DIHEDRAL>
7.68745

>  <SCORE.INTRA.DIHEDRAL.0>
40.8761

>  <SCORE.INTRA.POLAR>
-0.772586

>  <SCORE.INTRA.POLAR.0>
-0.0268208

>  <SCORE.INTRA.REPUL>
-0.641615

>  <SCORE.INTRA.REPUL.0>
0.641615

>  <SCORE.INTRA.SOLV>
-0.432089

>  <SCORE.INTRA.SOLV.lig_0>
-162.567

>  <SCORE.INTRA.VDW>
8.88975

>  <SCORE.INTRA.VDW.0>
-4.80338

>  <SCORE.INTRA.norm>
0.159109

>  <SCORE.RESTR>
13.6732

>  <SCORE.RESTR.CAVITY>
13.6732

>  <SCORE.RESTR.norm>
0.325552

>  <SCORE.SYSTEM>
0

>  <SCORE.SYSTEM.CONST>
0

>  <SCORE.SYSTEM.DIHEDRAL>
0

>  <SCORE.SYSTEM.SOLV>
0

>  <SCORE.SYSTEM.norm>
0

>  <SCORE.heavy>
42

>  <SCORE.norm>
0.36609

>  <RMSD>
9.150

$$$$

 OpenBabel11021811393D
libRbt.so/2013.1/901 2013/11/27
 42 45  0  0  0  0  0  0  0  0999 V2000
   -3.2672   -0.1302   -6.9630 C   0  0  2  0  0  0  0  0  0  0  0  0
   -2.4125    0.9750   -6.5368 O   0  0  0  0  0  0  0  0  0  0  0  0
   -2.8010   -1.4893   -6.3469 C   0  0  2  0  0  0  0  0  0  0  0  0
   -1.8534   -1.2856   -5.2272 N   0  3  0  0  0  0  0  0  0  0  0  0
   -2.1671   -2.4007   -7.4407 C   0  0  1  0  0  0  0  0  0  0  0  0
   -1.7553   -3.6405   -6.8692 O   0  0  0  0  0  0  0  0  0  0  0  0
   -3.1641   -2.6969   -8.5930 C   0  0  2  0  0  0  0  0  0  0  0  0
   -2.4488   -3.2764   -9.6784 O   0  0  0  0  0  0  0  0  0  0  0  0
   -3.8899   -1.3950   -9.0638 C   0  0  2  0  0  0  0  0  0  0  0  0
   -3.2838   -0.2226   -8.4288 O   0  0  0  0  0  0  0  0  0  0  0  0
   -5.3982   -1.3443   -8.7282 C   0  0  0  0  0  0  0  0  0  0  0  0
   -2.0972    4.0913   -3.5688 C   0  0  1  0  0  0  0  0  0  0  0  0
   -2.4231    5.1275   -2.5636 N   0  3  0  0  0  0  0  0  0  0  0  0
   -2.4323    2.6687   -3.0491 C   0  0  1  0  0  0  0  0  0  0  0  0
   -2.2489    1.5428   -4.1255 C   0  0  1  0  0  0  0  0  0  0  0  0
   -2.8916    0.3361   -3.6340 O   0  0  0  0  0  0  0  0  0  0  0  0
   -2.9001    1.8958   -5.5132 C   0  0  1  0  0  0  0  0  0  0  0  0
   -2.5518    3.3490   -5.9712 C   0  0  1  0  0  0  0  0  0  0  0  0
   -3.2807    3.7338   -7.1969 N   0  3  0  0  0  0  0  0  0  0  0  0
   -2.8671    4.3888   -4.8724 C   0  0  0  0  0  0  0  0  0  0  0  0
   -2.9048    0.0608   -2.2033 C   0  0  1  0  0  0  0  0  0  0  0  0
   -4.3056    0.3351   -1.6692 C   0  0  1  0  0  0  0  0  0  0  0  0
   -5.0043   -0.9538   -2.0805 C   0  0  1  0  0  0  0  0  0  0  0  0
   -3.9299   -2.0038   -1.7637 C   0  0  2  0  0  0  0  0  0  0  0  0
   -2.6621   -1.3361   -1.9694 O   0  0  0  0  0  0  0  0  0  0  0  0
   -4.0238   -3.2509   -2.6610 C   0  0  0  0  0  0  0  0  0  0  0  0
   -9.9180   -1.7482   -0.4515 C   0  0  1  0  0  0  0  0  0  0  0  0
   -9.3546   -0.5130   -1.2080 C   0  0  1  0  0  0  0  0  0  0  0  0
   -8.4348   -0.8703   -2.4112 C   0  0  2  0  0  0  0  0  0  0  0  0
   -7.3082   -1.8656   -1.9845 C   0  0  1  0  0  0  0  0  0  0  0  0
   -6.2203   -1.1731   -1.3091 O   0  0  0  0  0  0  0  0  0  0  0  0
   -9.2963   -3.0672   -1.0029 C   0  0  1  0  0  0  0  0  0  0  0  0
   -7.8412   -2.9229   -1.0946 O   0  0  0  0  0  0  0  0  0  0  0  0
   -9.6331   -4.2957   -0.1189 C   0  0  0  0  0  0  0  0  0  0  0  0
   -6.0572   -0.0728   -9.0749 N   0  3  0  0  0  0  0  0  0  0  0  0
   -4.2619    0.4765   -0.2491 O   0  0  0  0  0  0  0  0  0  0  0  0
  -10.4538    0.2592   -1.6895 O   0  0  0  0  0  0  0  0  0  0  0  0
   -9.6148   -1.6040    0.9378 O   0  0  0  0  0  0  0  0  0  0  0  0
   -4.3418   -2.8913   -3.9945 O   0  0  0  0  0  0  0  0  0  0  0  0
   -1.5876    2.3762   -1.9362 O   0  0  0  0  0  0  0  0  0  0  0  0
   -8.4891   -5.2100    0.0522 N   0  3  0  0  0  0  0  0  0  0  0  0
   -7.9009    0.3497   -3.0661 N   0  3  0  0  0  0  0  0  0  0  0  0
  1  2  1  6  0  0  0
  1  3  1  0  0  0  0
  1 10  1  0  0  0  0
  3  4  1  1  0  0  0
  3  5  1  0  0  0  0
  5  6  1  1  0  0  0
  5  7  1  0  0  0  0
  7  8  1  6  0  0  0
  7  9  1  0  0  0  0
  9 10  1  0  0  0  0
  9 11  1  1  0  0  0
 11 35  1  0  0  0  0
 12 13  1  1  0  0  0
 12 14  1  0  0  0  0
 12 20  1  0  0  0  0
 14 15  1  0  0  0  0
 14 40  1  1  0  0  0
 15 16  1  1  0  0  0
 15 17  1  0  0  0  0
 17  2  1  6  0  0  0
 17 18  1  0  0  0  0
 18 19  1  6  0  0  0
 18 20  1  0  0  0  0
 21 16  1  6  0  0  0
 21 22  1  0  0  0  0
 21 25  1  0  0  0  0
 22 23  1  0  0  0  0
 22 36  1  1  0  0  0
 23 24  1  0  0  0  0
 23 31  1  1  0  0  0
 24 25  1  0  0  0  0
 24 26  1  6  0  0  0
 26 39  1  0  0  0  0
 27 28  1  0  0  0  0
 27 32  1  0  0  0  0
 27 38  1  1  0  0  0
 28 29  1  0  0  0  0
 28 37  1  6  0  0  0
 29 30  1  0  0  0  0
 29 42  1  1  0  0  0
 30 31  1  1  0  0  0
 30 33  1  0  0  0  0
 32 33  1  0  0  0  0
 32 34  1  1  0  0  0
 34 41  1  0  0  0  0
M  CHG  6   4   1  13   1  19   1  35   1  41   1  42   1
M  END
>  <CHROM.1>
-103.69272985,101.59383439,-46.60271672,-71.62186371,-172.68344424,175.31343681
-63.17336185,49.43316538,73.10160103,-32.96544770,105.37665379,-64.90629945
51.19957901,148.15342889,39.42543663,179.19766038,175.42867575,66.75373395
64.24418981,-103.78309844,-139.19179117,-82.83365546,-4.76063603,-0.47370194
-3.92783656,0.30298570,-0.81021190,-2.32963632

>  <Name>


>  <RI>
0

>  <Rbt.Current_Directory>
/home/itssahil/PROJECTS/Mol_Feturizer/New_Systems/rnas/1ei2

>  <Rbt.Executable>
rbdock ($Id: //depot/dev/client3/rdock/2013.1/src/exe/rbdock.cxx#4 $)

>  <Rbt.Library>
libRbt.so (2013.1, Build901 2013/11/27)

>  <Rbt.Parameter_File>
/export/apps/rDock/src/rDock_2013.1_src/data/scripts/dock_solv.prm

>  <Rbt.Receptor>
prm/blind_docking_80.prm

>  <SCORE>
-3.70237

>  <SCORE.INTER>
-3.62382

>  <SCORE.INTER.CONST>
1

>  <SCORE.INTER.POLAR>
-2.85971

>  <SCORE.INTER.ROT>
9

>  <SCORE.INTER.SOLV>
40.0663

>  <SCORE.INTER.VDW>
-15.8389

>  <SCORE.INTER.norm>
-0.0862814

>  <SCORE.INTRA>
-7.1406

>  <SCORE.INTRA.DIHEDRAL>
0.200188

>  <SCORE.INTRA.DIHEDRAL.0>
40.8761

>  <SCORE.INTRA.POLAR>
-0.998775

>  <SCORE.INTRA.POLAR.0>
-0.0268208

>  <SCORE.INTRA.REPUL>
-0.475618

>  <SCORE.INTRA.REPUL.0>
0.641615

>  <SCORE.INTRA.SOLV>
-3.9638

>  <SCORE.INTRA.SOLV.lig_0>
-162.567

>  <SCORE.INTRA.VDW>
0.51513

>  <SCORE.INTRA.VDW.0>
-4.80338

>  <SCORE.INTRA.norm>
-0.170014

>  <SCORE.RESTR>
7.06205

>  <SCORE.RESTR.CAVITY>
7.06205

>  <SCORE.RESTR.norm>
0.168144

>  <SCORE.SYSTEM>
0

>  <SCORE.SYSTEM.CONST>
0

>  <SCORE.SYSTEM.DIHEDRAL>
0

>  <SCORE.SYSTEM.SOLV>
0

>  <SCORE.SYSTEM.norm>
0

>  <SCORE.heavy>
42

>  <SCORE.norm>
-0.0881517

>  <RMSD>
9.175

$$$$

 OpenBabel11021811393D
libRbt.so/2013.1/901 2013/11/27
 42 45  0  0  0  0  0  0  0  0999 V2000
   -3.1442   -1.4878   -8.5054 C   0  0  2  0  0  0  0  0  0  0  0  0
   -3.6770   -2.6748   -7.8416 O   0  0  0  0  0  0  0  0  0  0  0  0
   -3.6703   -0.1729   -7.8434 C   0  0  2  0  0  0  0  0  0  0  0  0
   -4.2774   -0.4331   -6.5179 N   0  3  0  0  0  0  0  0  0  0  0  0
   -4.6884    0.5453   -8.7796 C   0  0  1  0  0  0  0  0  0  0  0  0
   -5.1532    1.7476   -8.1698 O   0  0  0  0  0  0  0  0  0  0  0  0
   -4.0571    0.9018  -10.1521 C   0  0  2  0  0  0  0  0  0  0  0  0
   -5.0958    1.2812  -11.0481 O   0  0  0  0  0  0  0  0  0  0  0  0
   -3.2576   -0.3061  -10.7397 C   0  0  2  0  0  0  0  0  0  0  0  0
   -3.4917   -1.5056   -9.9324 O   0  0  0  0  0  0  0  0  0  0  0  0
   -1.7259   -0.1005  -10.7847 C   0  0  0  0  0  0  0  0  0  0  0  0
   -2.5592   -5.9742   -5.2951 C   0  0  1  0  0  0  0  0  0  0  0  0
   -1.7991   -6.8878   -4.4131 N   0  3  0  0  0  0  0  0  0  0  0  0
   -2.8640   -4.6260   -4.5911 C   0  0  1  0  0  0  0  0  0  0  0  0
   -3.5358   -3.5617   -5.5270 C   0  0  1  0  0  0  0  0  0  0  0  0
   -3.4704   -2.2699   -4.8654 O   0  0  0  0  0  0  0  0  0  0  0  0
   -2.8207   -3.4179   -6.9207 C   0  0  1  0  0  0  0  0  0  0  0  0
   -2.5136   -4.8071   -7.5677 C   0  0  1  0  0  0  0  0  0  0  0  0
   -1.7117   -4.6790   -8.8016 N   0  3  0  0  0  0  0  0  0  0  0  0
   -1.7597   -5.7404   -6.5938 C   0  0  0  0  0  0  0  0  0  0  0  0
   -3.8150   -2.1675   -3.4535 C   0  0  1  0  0  0  0  0  0  0  0  0
   -2.8864   -1.1510   -2.7997 C   0  0  1  0  0  0  0  0  0  0  0  0
   -3.5705    0.1429   -3.2195 C   0  0  1  0  0  0  0  0  0  0  0  0
   -5.0522   -0.2170   -3.0393 C   0  0  2  0  0  0  0  0  0  0  0  0
   -5.1424   -1.6364   -3.3089 O   0  0  0  0  0  0  0  0  0  0  0  0
   -5.9807    0.5626   -3.9877 C   0  0  0  0  0  0  0  0  0  0  0  0
   -2.1383    3.2703   -5.4681 C   0  0  1  0  0  0  0  0  0  0  0  0
   -2.8849    3.8471   -4.2331 C   0  0  1  0  0  0  0  0  0  0  0  0
   -2.2185    3.5025   -2.8699 C   0  0  2  0  0  0  0  0  0  0  0  0
   -1.9606    1.9668   -2.7397 C   0  0  1  0  0  0  0  0  0  0  0  0
   -3.1763    1.2574   -2.3683 O   0  0  0  0  0  0  0  0  0  0  0  0
   -0.9628    2.3476   -5.0244 C   0  0  1  0  0  0  0  0  0  0  0  0
   -1.4356    1.4061   -4.0061 O   0  0  0  0  0  0  0  0  0  0  0  0
   -0.3522    1.5549   -6.2087 C   0  0  0  0  0  0  0  0  0  0  0  0
   -0.9917   -1.1482  -11.5158 N   0  3  0  0  0  0  0  0  0  0  0  0
   -2.9084   -1.3186   -1.3820 O   0  0  0  0  0  0  0  0  0  0  0  0
   -2.9425    5.2668   -4.3652 O   0  0  0  0  0  0  0  0  0  0  0  0
   -3.0736    2.5315   -6.2571 O   0  0  0  0  0  0  0  0  0  0  0  0
   -5.6109    1.9295   -4.0465 O   0  0  0  0  0  0  0  0  0  0  0  0
   -3.7321   -4.8720   -3.4851 O   0  0  0  0  0  0  0  0  0  0  0  0
   -0.6242    0.1079   -6.1314 N   0  3  0  0  0  0  0  0  0  0  0  0
   -2.9984    4.0491   -1.7319 N   0  3  0  0  0  0  0  0  0  0  0  0
  1  2  1  1  0  0  0
  1  3  1  0  0  0  0
  1 10  1  0  0  0  0
  3  4  1  1  0  0  0
  3  5  1  0  0  0  0
  5  6  1  1  0  0  0
  5  7  1  0  0  0  0
  7  8  1  6  0  0  0
  7  9  1  0  0  0  0
  9 10  1  0  0  0  0
  9 11  1  1  0  0  0
 11 35  1  0  0  0  0
 12 13  1  1  0  0  0
 12 14  1  0  0  0  0
 12 20  1  0  0  0  0
 14 15  1  0  0  0  0
 14 40  1  1  0  0  0
 15 16  1  1  0  0  0
 15 17  1  0  0  0  0
 17  2  1  6  0  0  0
 17 18  1  0  0  0  0
 18 19  1  6  0  0  0
 18 20  1  0  0  0  0
 21 16  1  6  0  0  0
 21 22  1  0  0  0  0
 21 25  1  0  0  0  0
 22 23  1  0  0  0  0
 22 36  1  1  0  0  0
 23 24  1  0  0  0  0
 23 31  1  1  0  0  0
 24 25  1  0  0  0  0
 24 26  1  6  0  0  0
 26 39  1  0  0  0  0
 27 28  1  0  0  0  0
 27 32  1  0  0  0  0
 27 38  1  6  0  0  0
 28 29  1  0  0  0  0
 28 37  1  6  0  0  0
 29 30  1  0  0  0  0
 29 42  1  1  0  0  0
 30 31  1  6  0  0  0
 30 33  1  0  0  0  0
 32 33  1  0  0  0  0
 32 34  1  6  0  0  0
 34 41  1  0  0  0  0
M  CHG  6   4   1  13   1  19   1  35   1  41   1  42   1
M  END
>  <CHROM.1>
-102.73490894,125.55856839,-64.39839636,53.94512004,178.88307161,-171.44282492
58.36566267,165.87990249,68.67709167,-45.10460947,143.01759279,-51.78897008
-53.79096936,86.13585385,-43.63881766,67.59184075,52.51337510,71.34836880
74.50144977,126.53471592,-111.21552226,-75.59873710,-3.09700073,-0.53065076
-5.87256741,0.14595361,1.50982387,-1.15476587

>  <Name>


>  <RI>
0

>  <Rbt.Current_Directory>
/home/itssahil/PROJECTS/Mol_Feturizer/New_Systems/rnas/1ei2

>  <Rbt.Executable>
rbdock ($Id: //depot/dev/client3/rdock/2013.1/src/exe/rbdock.cxx#4 $)

>  <Rbt.Library>
libRbt.so (2013.1, Build901 2013/11/27)

>  <Rbt.Parameter_File>
/export/apps/rDock/src/rDock_2013.1_src/data/scripts/dock_solv.prm

>  <Rbt.Receptor>
prm/blind_docking_100.prm

>  <SCORE>
-17.8674

>  <SCORE.INTER>
-20.4693

>  <SCORE.INTER.CONST>
1

>  <SCORE.INTER.POLAR>
-3.84871

>  <SCORE.INTER.ROT>
9

>  <SCORE.INTER.SOLV>
40.0219

>  <SCORE.INTER.VDW>
-23.7578

>  <SCORE.INTER.norm>
-0.487363

>  <SCORE.INTRA>
-9.04204

>  <SCORE.INTRA.DIHEDRAL>
-1.86121

>  <SCORE.INTRA.DIHEDRAL.0>
40.8761

>  <SCORE.INTRA.POLAR>
-1.63638

>  <SCORE.INTRA.POLAR.0>
-0.0268208

>  <SCORE.INTRA.REPUL>
-0.570392

>  <SCORE.INTRA.REPUL.0>
0.641615

>  <SCORE.INTRA.SOLV>
4.97389

>  <SCORE.INTRA.SOLV.lig_0>
-162.567

>  <SCORE.INTRA.VDW>
-2.18275

>  <SCORE.INTRA.VDW.0>
-4.80338

>  <SCORE.INTRA.norm>
-0.215287

>  <SCORE.RESTR>
11.6439

>  <SCORE.RESTR.CAVITY>
11.6439

>  <SCORE.RESTR.norm>
0.277235

>  <SCORE.SYSTEM>
0

>  <SCORE.SYSTEM.CONST>
0

>  <SCORE.SYSTEM.DIHEDRAL>
0

>  <SCORE.SYSTEM.SOLV>
0

>  <SCORE.SYSTEM.norm>
0

>  <SCORE.heavy>
42

>  <SCORE.norm>
-0.425415

>  <RMSD>
9.182

$$$$

 OpenBabel11021811393D
libRbt.so/2013.1/901 2013/11/27
 42 45  0  0  0  0  0  0  0  0999 V2000
   -3.8645    0.7102   -6.1088 C   0  0  2  0  0  0  0  0  0  0  0  0
   -4.1938   -0.5512   -6.7676 O   0  0  0  0  0  0  0  0  0  0  0  0
   -5.0655    1.7102   -6.1467 C   0  0  2  0  0  0  0  0  0  0  0  0
   -6.3305    1.0320   -6.5109 N   0  3  0  0  0  0  0  0  0  0  0  0
   -4.7726    2.8849   -7.1281 C   0  0  1  0  0  0  0  0  0  0  0  0
   -5.8701    3.7952   -7.1464 O   0  0  0  0  0  0  0  0  0  0  0  0
   -3.4924    3.6656   -6.7271 C   0  0  2  0  0  0  0  0  0  0  0  0
   -3.1228    4.5209   -7.8030 O   0  0  0  0  0  0  0  0  0  0  0  0
   -2.3171    2.6922   -6.3886 C   0  0  2  0  0  0  0  0  0  0  0  0
   -2.6846    1.3181   -6.7378 O   0  0  0  0  0  0  0  0  0  0  0  0
   -1.9108    2.6713   -4.8970 C   0  0  0  0  0  0  0  0  0  0  0  0
   -2.7791   -4.6002   -7.2413 C   0  0  1  0  0  0  0  0  0  0  0  0
   -1.9082   -5.7905   -7.3644 N   0  3  0  0  0  0  0  0  0  0  0  0
   -2.7456   -4.0165   -5.8045 C   0  0  1  0  0  0  0  0  0  0  0  0
   -3.5308   -2.6675   -5.6516 C   0  0  1  0  0  0  0  0  0  0  0  0
   -3.1596   -2.0679   -4.3813 O   0  0  0  0  0  0  0  0  0  0  0  0
   -3.2031   -1.6244   -6.7824 C   0  0  1  0  0  0  0  0  0  0  0  0
   -3.2232   -2.2751   -8.2034 C   0  0  1  0  0  0  0  0  0  0  0  0
   -2.7714   -1.3356   -9.2499 N   0  3  0  0  0  0  0  0  0  0  0  0
   -2.3359   -3.5385   -8.2694 C   0  0  0  0  0  0  0  0  0  0  0  0
   -3.6502   -0.7381   -4.0438 C   0  0  1  0  0  0  0  0  0  0  0  0
   -5.1391   -0.8346   -3.7327 C   0  0  1  0  0  0  0  0  0  0  0  0
   -5.0790   -1.3450   -2.2994 C   0  0  1  0  0  0  0  0  0  0  0  0
   -3.9217   -0.5166   -1.7234 C   0  0  2  0  0  0  0  0  0  0  0  0
   -3.0258   -0.2762   -2.8348 O   0  0  0  0  0  0  0  0  0  0  0  0
   -3.1743   -1.2358   -0.5862 C   0  0  0  0  0  0  0  0  0  0  0  0
   -9.8398   -1.7280   -0.1749 C   0  0  1  0  0  0  0  0  0  0  0  0
   -9.3929   -0.4427   -0.9257 C   0  0  1  0  0  0  0  0  0  0  0  0
   -8.6892   -0.7144   -2.2866 C   0  0  2  0  0  0  0  0  0  0  0  0
   -7.5208   -1.7391   -2.1234 C   0  0  1  0  0  0  0  0  0  0  0  0
   -6.3274   -1.0980   -1.5905 O   0  0  0  0  0  0  0  0  0  0  0  0
   -9.3351   -3.0051   -0.9128 C   0  0  1  0  0  0  0  0  0  0  0  0
   -7.9133   -2.8565   -1.2339 O   0  0  0  0  0  0  0  0  0  0  0  0
   -9.5373   -4.2931   -0.0737 C   0  0  0  0  0  0  0  0  0  0  0  0
   -3.0424    2.5701   -3.9586 N   0  3  0  0  0  0  0  0  0  0  0  0
   -5.7320    0.4624   -3.8020 O   0  0  0  0  0  0  0  0  0  0  0  0
  -10.5464    0.3633   -1.1631 O   0  0  0  0  0  0  0  0  0  0  0  0
   -9.3096   -1.6837    1.1517 O   0  0  0  0  0  0  0  0  0  0  0  0
   -2.7244   -2.5128   -1.0053 O   0  0  0  0  0  0  0  0  0  0  0  0
   -3.3072   -4.9741   -4.9072 O   0  0  0  0  0  0  0  0  0  0  0  0
   -9.6026   -5.5120   -0.9007 N   0  3  0  0  0  0  0  0  0  0  0  0
   -8.2549    0.5485   -2.9337 N   0  3  0  0  0  0  0  0  0  0  0  0
  1  2  1  6  0  0  0
  1  3  1  0  0  0  0
  1 10  1  0  0  0  0
  3  4  1  6  0  0  0
  3  5  1  0  0  0  0
  5  6  1  1  0  0  0
  5  7  1  0  0  0  0
  7  8  1  6  0  0  0
  7  9  1  0  0  0  0
  9 10  1  0  0  0  0
  9 11  1  1  0  0  0
 11 35  1  0  0  0  0
 12 13  1  1  0  0  0
 12 14  1  0  0  0  0
 12 20  1  0  0  0  0
 14 15  1  0  0  0  0
 14 40  1  1  0  0  0
 15 16  1  1  0  0  0
 15 17  1  0  0  0  0
 17  2  1  6  0  0  0
 17 18  1  0  0  0  0
 18 19  1  6  0  0  0
 18 20  1  0  0  0  0
 21 16  1  1  0  0  0
 21 22  1  0  0  0  0
 21 25  1  0  0  0  0
 22 23  1  0  0  0  0
 22 36  1  1  0  0  0
 23 24  1  0  0  0  0
 23 31  1  1  0  0  0
 24 25  1  0  0  0  0
 24 26  1  1  0  0  0
 26 39  1  0  0  0  0
 27 28  1  0  0  0  0
 27 32  1  0  0  0  0
 27 38  1  1  0  0  0
 28 29  1  0  0  0  0
 28 37  1  6  0  0  0
 29 30  1  0  0  0  0
 29 42  1  1  0  0  0
 30 31  1  1  0  0  0
 30 33  1  0  0  0  0
 32 33  1  0  0  0  0
 32 34  1  1  0  0  0
 34 41  1  0  0  0  0
M  CHG  6   4   1  13   1  19   1  35   1  41   1  42   1
M  END
>  <CHROM.1>
-177.70874028,99.15471633,-176.92414839,-172.42450561,-165.53759863,46.68483406
-145.03240566,-37.45473491,53.54826753,174.17863925,72.04376122,77.37267010
-53.37682972,61.64222533,54.66385492,165.14423898,152.35990770,59.10805641
27.02503712,-130.27232838,156.33787404,-44.79875395,-5.11984037,-0.82801515
-4.21345622,0.46657211,0.77638531,-0.23390940

>  <Name>


>  <RI>
0

>  <Rbt.Current_Directory>
/home/itssahil/PROJECTS/Mol_Feturizer/New_Systems/rnas/1ei2

>  <Rbt.Executable>
rbdock ($Id: //depot/dev/client3/rdock/2013.1/src/exe/rbdock.cxx#4 $)

>  <Rbt.Library>
libRbt.so (2013.1, Build901 2013/11/27)

>  <Rbt.Parameter_File>
/export/apps/rDock/src/rDock_2013.1_src/data/scripts/dock_solv.prm

>  <Rbt.Receptor>
prm/blind_docking_40.prm

>  <SCORE>
2.37564

>  <SCORE.INTER>
2.68035

>  <SCORE.INTER.CONST>
1

>  <SCORE.INTER.POLAR>
-5.05607

>  <SCORE.INTER.ROT>
9

>  <SCORE.INTER.SOLV>
41.9672

>  <SCORE.INTER.VDW>
-4.9486

>  <SCORE.INTER.norm>
0.0638179

>  <SCORE.INTRA>
-8.61732

>  <SCORE.INTRA.DIHEDRAL>
-11.8607

>  <SCORE.INTRA.DIHEDRAL.0>
40.8761

>  <SCORE.INTRA.POLAR>
-2.35512

>  <SCORE.INTRA.POLAR.0>
-0.0268208

>  <SCORE.INTRA.REPUL>
-0.230454

>  <SCORE.INTRA.REPUL.0>
0.641615

>  <SCORE.INTRA.SOLV>
1.78978

>  <SCORE.INTRA.SOLV.lig_0>
-162.567

>  <SCORE.INTRA.VDW>
5.57781

>  <SCORE.INTRA.VDW.0>
-4.80338

>  <SCORE.INTRA.norm>
-0.205174

>  <SCORE.RESTR>
8.3126

>  <SCORE.RESTR.CAVITY>
8.3126

>  <SCORE.RESTR.norm>
0.197919

>  <SCORE.SYSTEM>
0

>  <SCORE.SYSTEM.CONST>
0

>  <SCORE.SYSTEM.DIHEDRAL>
0

>  <SCORE.SYSTEM.SOLV>
0

>  <SCORE.SYSTEM.norm>
0

>  <SCORE.heavy>
42

>  <SCORE.norm>
0.0565628

>  <RMSD>
9.185

$$$$

 OpenBabel11021811393D
libRbt.so/2013.1/901 2013/11/27
 42 45  0  0  0  0  0  0  0  0999 V2000
   -3.1915   -0.4936   -6.6610 C   0  0  2  0  0  0  0  0  0  0  0  0
   -4.4534    0.0726   -6.1911 O   0  0  0  0  0  0  0  0  0  0  0  0
   -3.4257   -1.6426   -7.6948 C   0  0  2  0  0  0  0  0  0  0  0  0
   -4.8148   -1.6417   -8.2080 N   0  3  0  0  0  0  0  0  0  0  0  0
   -3.0750   -3.0261   -7.0687 C   0  0  1  0  0  0  0  0  0  0  0  0
   -3.2827   -4.0645   -8.0237 O   0  0  0  0  0  0  0  0  0  0  0  0
   -1.5994   -3.0850   -6.5906 C   0  0  2  0  0  0  0  0  0  0  0  0
   -1.4274   -4.2425   -5.7806 O   0  0  0  0  0  0  0  0  0  0  0  0
   -1.2132   -1.8036   -5.7829 C   0  0  2  0  0  0  0  0  0  0  0  0
   -2.4051   -0.9924   -5.5252 O   0  0  0  0  0  0  0  0  0  0  0  0
   -0.1990   -0.8785   -6.4941 C   0  0  0  0  0  0  0  0  0  0  0  0
   -3.2691    3.9936   -4.8335 C   0  0  1  0  0  0  0  0  0  0  0  0
   -3.1705    5.2579   -4.0704 N   0  3  0  0  0  0  0  0  0  0  0  0
   -2.7543    2.7873   -4.0053 C   0  0  1  0  0  0  0  0  0  0  0  0
   -2.9730    1.4007   -4.7050 C   0  0  1  0  0  0  0  0  0  0  0  0
   -2.7595    0.3559   -3.7182 O   0  0  0  0  0  0  0  0  0  0  0  0
   -4.4240    1.2172   -5.2841 C   0  0  1  0  0  0  0  0  0  0  0  0
   -4.8992    2.4736   -6.0830 C   0  0  1  0  0  0  0  0  0  0  0  0
   -6.3120    2.3640   -6.4997 N   0  3  0  0  0  0  0  0  0  0  0  0
   -4.7347    3.7725   -5.2622 C   0  0  0  0  0  0  0  0  0  0  0  0
   -2.9785    0.6447   -2.3071 C   0  0  1  0  0  0  0  0  0  0  0  0
   -4.4786    0.7549   -2.0614 C   0  0  1  0  0  0  0  0  0  0  0  0
   -4.8433   -0.7209   -1.9751 C   0  0  1  0  0  0  0  0  0  0  0  0
   -3.6690   -1.2835   -1.1616 C   0  0  2  0  0  0  0  0  0  0  0  0
   -2.5294   -0.4591   -1.5041 O   0  0  0  0  0  0  0  0  0  0  0  0
   -3.3696   -2.7597   -1.4786 C   0  0  0  0  0  0  0  0  0  0  0  0
   -9.8612   -1.3636   -0.5749 C   0  0  1  0  0  0  0  0  0  0  0  0
   -9.1551   -0.0056   -0.8448 C   0  0  1  0  0  0  0  0  0  0  0  0
   -8.2749    0.0087   -2.1279 C   0  0  2  0  0  0  0  0  0  0  0  0
   -7.2727   -1.1901   -2.1384 C   0  0  1  0  0  0  0  0  0  0  0  0
   -6.1168   -0.9188   -1.2960 O   0  0  0  0  0  0  0  0  0  0  0  0
   -9.3915   -2.4451   -1.5947 C   0  0  1  0  0  0  0  0  0  0  0  0
   -7.9289   -2.4364   -1.6803 O   0  0  0  0  0  0  0  0  0  0  0  0
   -9.8725   -3.8686   -1.2123 C   0  0  0  0  0  0  0  0  0  0  0  0
   -0.3529    0.5523   -6.1770 N   0  3  0  0  0  0  0  0  0  0  0  0
   -4.7174    1.4263   -0.8242 O   0  0  0  0  0  0  0  0  0  0  0  0
  -10.1555    1.0045   -0.9683 O   0  0  0  0  0  0  0  0  0  0  0  0
   -9.5521   -1.7764    0.7581 O   0  0  0  0  0  0  0  0  0  0  0  0
   -3.3421   -2.9806   -2.8783 O   0  0  0  0  0  0  0  0  0  0  0  0
   -1.3582    2.9595   -3.7631 O   0  0  0  0  0  0  0  0  0  0  0  0
   -9.2840   -4.3530    0.0499 N   0  3  0  0  0  0  0  0  0  0  0  0
   -7.6007    1.3184   -2.3079 N   0  3  0  0  0  0  0  0  0  0  0  0
  1  2  1  1  0  0  0
  1  3  1  0  0  0  0
  1 10  1  0  0  0  0
  3  4  1  1  0  0  0
  3  5  1  0  0  0  0
  5  6  1  6  0  0  0
  5  7  1  0  0  0  0
  7  8  1  1  0  0  0
  7  9  1  0  0  0  0
  9 10  1  0  0  0  0
  9 11  1  6  0  0  0
 11 35  1  0  0  0  0
 12 13  1  1  0  0  0
 12 14  1  0  0  0  0
 12 20  1  0  0  0  0
 14 15  1  0  0  0  0
 14 40  1  6  0  0  0
 15 16  1  1  0  0  0
 15 17  1  0  0  0  0
 17  2  1  6  0  0  0
 17 18  1  0  0  0  0
 18 19  1  1  0  0  0
 18 20  1  0  0  0  0
 21 16  1  6  0  0  0
 21 22  1  0  0  0  0
 21 25  1  0  0  0  0
 22 23  1  0  0  0  0
 22 36  1  1  0  0  0
 23 24  1  0  0  0  0
 23 31  1  1  0  0  0
 24 25  1  0  0  0  0
 24 26  1  6  0  0  0
 26 39  1  0  0  0  0
 27 28  1  0  0  0  0
 27 32  1  0  0  0  0
 27 38  1  1  0  0  0
 28 29  1  0  0  0  0
 28 37  1  6  0  0  0
 29 30  1  0  0  0  0
 29 42  1  1  0  0  0
 30 31  1  1  0  0  0
 30 33  1  0  0  0  0
 32 33  1  0  0  0  0
 32 34  1  1  0  0  0
 34 41  1  0  0  0  0
M  CHG  6   4   1  13   1  19   1  35   1  41   1  42   1
M  END
>  <CHROM.1>
-176.08348274,-14.01903723,179.97105863,173.50705948,174.35667453,148.95362596
60.56056214,72.61759662,-176.55275287,26.38541114,72.77264858,58.49249901
67.29631584,102.00210655,46.59965135,57.03313544,69.34654269,-67.95427214
-59.43192587,-110.87669889,-64.94660829,176.64197186,-4.78098534,-0.38632744
-3.71471847,-0.07016083,-0.68815214,-3.00331402

>  <Name>


>  <RI>
0

>  <Rbt.Current_Directory>
/home/itssahil/PROJECTS/Mol_Feturizer/New_Systems/rnas/1ei2

>  <Rbt.Executable>
rbdock ($Id: //depot/dev/client3/rdock/2013.1/src/exe/rbdock.cxx#4 $)

>  <Rbt.Library>
libRbt.so (2013.1, Build901 2013/11/27)

>  <Rbt.Parameter_File>
/export/apps/rDock/src/rDock_2013.1_src/data/scripts/dock_solv.prm

>  <Rbt.Receptor>
prm/blind_docking_80.prm

>  <SCORE>
-9.93578

>  <SCORE.INTER>
-15.4381

>  <SCORE.INTER.CONST>
1

>  <SCORE.INTER.POLAR>
-3.04197

>  <SCORE.INTER.ROT>
9

>  <SCORE.INTER.SOLV>
39.9386

>  <SCORE.INTER.VDW>
-23.0651

>  <SCORE.INTER.norm>
-0.367575

>  <SCORE.INTRA>
-3.56201

>  <SCORE.INTRA.DIHEDRAL>
-10.9517

>  <SCORE.INTRA.DIHEDRAL.0>
40.8761

>  <SCORE.INTRA.POLAR>
-0.821868

>  <SCORE.INTRA.POLAR.0>
-0.0268208

>  <SCORE.INTRA.REPUL>
0.178005

>  <SCORE.INTRA.REPUL.0>
0.641615

>  <SCORE.INTRA.SOLV>
-0.0472794

>  <SCORE.INTRA.SOLV.lig_0>
-162.567

>  <SCORE.INTRA.VDW>
3.84182

>  <SCORE.INTRA.VDW.0>
-4.80338

>  <SCORE.INTRA.norm>
-0.0848098

>  <SCORE.RESTR>
9.06437

>  <SCORE.RESTR.CAVITY>
9.06437

>  <SCORE.RESTR.norm>
0.215818

>  <SCORE.SYSTEM>
0

>  <SCORE.SYSTEM.CONST>
0

>  <SCORE.SYSTEM.DIHEDRAL>
0

>  <SCORE.SYSTEM.SOLV>
0

>  <SCORE.SYSTEM.norm>
0

>  <SCORE.heavy>
42

>  <SCORE.norm>
-0.236566

>  <RMSD>
9.185

$$$$

 OpenBabel11021811393D
libRbt.so/2013.1/901 2013/11/27
 42 45  0  0  0  0  0  0  0  0999 V2000
   -3.3902   -0.3713   -6.7290 C   0  0  2  0  0  0  0  0  0  0  0  0
   -4.4200    0.6266   -6.4510 O   0  0  0  0  0  0  0  0  0  0  0  0
   -2.9705   -0.3614   -8.2349 C   0  0  2  0  0  0  0  0  0  0  0  0
   -3.4403    0.8615   -8.9254 N   0  3  0  0  0  0  0  0  0  0  0  0
   -3.4969   -1.6359   -8.9611 C   0  0  1  0  0  0  0  0  0  0  0  0
   -3.0995   -1.6206  -10.3305 O   0  0  0  0  0  0  0  0  0  0  0  0
   -2.9581   -2.9363   -8.3068 C   0  0  2  0  0  0  0  0  0  0  0  0
   -3.6915   -4.0433   -8.8187 O   0  0  0  0  0  0  0  0  0  0  0  0
   -3.0859   -2.8829   -6.7498 C   0  0  2  0  0  0  0  0  0  0  0  0
   -3.8636   -1.7085   -6.3482 O   0  0  0  0  0  0  0  0  0  0  0  0
   -1.7378   -2.7934   -5.9981 C   0  0  0  0  0  0  0  0  0  0  0  0
   -2.7776    4.0435   -4.3900 C   0  0  1  0  0  0  0  0  0  0  0  0
   -2.5163    5.1030   -3.3903 N   0  3  0  0  0  0  0  0  0  0  0  0
   -2.3587    2.6465   -3.8616 C   0  0  1  0  0  0  0  0  0  0  0  0
   -2.7496    1.4658   -4.8172 C   0  0  1  0  0  0  0  0  0  0  0  0
   -2.6067    0.2208   -4.0821 O   0  0  0  0  0  0  0  0  0  0  0  0
   -4.2341    1.5458   -5.3311 C   0  0  1  0  0  0  0  0  0  0  0  0
   -4.6072    2.9816   -5.8231 C   0  0  1  0  0  0  0  0  0  0  0  0
   -6.0396    3.0956   -6.1656 N   0  3  0  0  0  0  0  0  0  0  0  0
   -4.2745    4.0564   -4.7639 C   0  0  0  0  0  0  0  0  0  0  0  0
   -2.7160    0.2277   -2.6292 C   0  0  1  0  0  0  0  0  0  0  0  0
   -4.1735    0.4667   -2.2532 C   0  0  1  0  0  0  0  0  0  0  0  0
   -4.7310   -0.9375   -2.4430 C   0  0  1  0  0  0  0  0  0  0  0  0
   -3.6062   -1.8002   -1.8532 C   0  0  2  0  0  0  0  0  0  0  0  0
   -2.3829   -1.0683   -2.1052 O   0  0  0  0  0  0  0  0  0  0  0  0
   -3.5261   -3.2006   -2.4870 C   0  0  0  0  0  0  0  0  0  0  0  0
   -9.7459   -1.2067   -0.9575 C   0  0  1  0  0  0  0  0  0  0  0  0
   -8.9501    0.0539   -1.3966 C   0  0  1  0  0  0  0  0  0  0  0  0
   -8.0806   -0.1553   -2.6699 C   0  0  2  0  0  0  0  0  0  0  0  0
   -7.1633   -1.4123   -2.5269 C   0  0  1  0  0  0  0  0  0  0  0  0
   -5.9852   -1.1171   -1.7243 O   0  0  0  0  0  0  0  0  0  0  0  0
   -9.3594   -2.4386   -1.8313 C   0  0  1  0  0  0  0  0  0  0  0  0
   -7.9003   -2.5421   -1.9153 O   0  0  0  0  0  0  0  0  0  0  0  0
   -9.9343   -3.7655   -1.2720 C   0  0  0  0  0  0  0  0  0  0  0  0
   -0.9023   -4.0030   -6.0993 N   0  3  0  0  0  0  0  0  0  0  0  0
   -4.2586    0.8838   -0.8904 O   0  0  0  0  0  0  0  0  0  0  0  0
   -9.8795    1.1071   -1.6485 O   0  0  0  0  0  0  0  0  0  0  0  0
   -9.4560   -1.4678    0.4175 O   0  0  0  0  0  0  0  0  0  0  0  0
   -2.2941   -3.8273   -2.1740 O   0  0  0  0  0  0  0  0  0  0  0  0
   -0.9436    2.6319   -3.6756 O   0  0  0  0  0  0  0  0  0  0  0  0
   -9.1908   -4.2640   -0.1004 N   0  3  0  0  0  0  0  0  0  0  0  0
   -7.3191    1.0712   -3.0137 N   0  3  0  0  0  0  0  0  0  0  0  0
  1  2  1  6  0  0  0
  1  3  1  0  0  0  0
  1 10  1  0  0  0  0
  3  4  1  6  0  0  0
  3  5  1  0  0  0  0
  5  6  1  6  0  0  0
  5  7  1  0  0  0  0
  7  8  1  6  0  0  0
  7  9  1  0  0  0  0
  9 10  1  0  0  0  0
  9 11  1  1  0  0  0
 11 35  1  0  0  0  0
 12 13  1  1  0  0  0
 12 14  1  0  0  0  0
 12 20  1  0  0  0  0
 14 15  1  0  0  0  0
 14 40  1  6  0  0  0
 15 16  1  1  0  0  0
 15 17  1  0  0  0  0
 17  2  1  6  0  0  0
 17 18  1  0  0  0  0
 18 19  1  1  0  0  0
 18 20  1  0  0  0  0
 21 16  1  6  0  0  0
 21 22  1  0  0  0  0
 21 25  1  0  0  0  0
 22 23  1  0  0  0  0
 22 36  1  1  0  0  0
 23 24  1  0  0  0  0
 23 31  1  1  0  0  0
 24 25  1  0  0  0  0
 24 26  1  6  0  0  0
 26 39  1  0  0  0  0
 27 28  1  0  0  0  0
 27 32  1  0  0  0  0
 27 38  1  1  0  0  0
 28 29  1  0  0  0  0
 28 37  1  6  0  0  0
 29 30  1  0  0  0  0
 29 42  1  1  0  0  0
 30 31  1  1  0  0  0
 30 33  1  0  0  0  0
 32 33  1  0  0  0  0
 32 34  1  1  0  0  0
 34 41  1  0  0  0  0
M  CHG  6   4   1  13   1  19   1  35   1  41   1  42   1
M  END
>  <CHROM.1>
-129.91725321,12.58966292,90.36234950,-170.86312742,165.82630055,-67.69846242
-6.09620558,129.59514089,-57.69438314,25.42619710,71.57487344,72.96399001
77.54251215,117.74675045,165.03824138,179.35482125,-97.70275070,-74.32648345
179.13054576,-103.76420857,-76.28452362,-150.60214995,-4.77802900,-0.45344693
-4.13197220,0.07753241,-0.80939216,-2.83193876

>  <Name>


>  <RI>
0

>  <Rbt.Current_Directory>
/home/itssahil/PROJECTS/Mol_Feturizer/New_Systems/rnas/1ei2

>  <Rbt.Executable>
rbdock ($Id: //depot/dev/client3/rdock/2013.1/src/exe/rbdock.cxx#4 $)

>  <Rbt.Library>
libRbt.so (2013.1, Build901 2013/11/27)

>  <Rbt.Parameter_File>
/export/apps/rDock/src/rDock_2013.1_src/data/scripts/dock_solv.prm

>  <Rbt.Receptor>
prm/blind_docking_100.prm

>  <SCORE>
4.50301

>  <SCORE.INTER>
-8.21491

>  <SCORE.INTER.CONST>
1

>  <SCORE.INTER.POLAR>
-2.84218

>  <SCORE.INTER.ROT>
9

>  <SCORE.INTER.SOLV>
39.9929

>  <SCORE.INTER.VDW>
-18.9336

>  <SCORE.INTER.norm>
-0.195593

>  <SCORE.INTRA>
1.97122

>  <SCORE.INTRA.DIHEDRAL>
12.6238

>  <SCORE.INTRA.DIHEDRAL.0>
40.8761

>  <SCORE.INTRA.POLAR>
-0.430036

>  <SCORE.INTRA.POLAR.0>
-0.0268208

>  <SCORE.INTRA.REPUL>
-0.64144

>  <SCORE.INTRA.REPUL.0>
0.641615

>  <SCORE.INTRA.SOLV>
-4.52193

>  <SCORE.INTRA.SOLV.lig_0>
-162.567

>  <SCORE.INTRA.VDW>
2.58961

>  <SCORE.INTRA.VDW.0>
-4.80338

>  <SCORE.INTRA.norm>
0.0469338

>  <SCORE.RESTR>
10.7467

>  <SCORE.RESTR.CAVITY>
10.7467

>  <SCORE.RESTR.norm>
0.255874

>  <SCORE.SYSTEM>
0

>  <SCORE.SYSTEM.CONST>
0

>  <SCORE.SYSTEM.DIHEDRAL>
0

>  <SCORE.SYSTEM.SOLV>
0

>  <SCORE.SYSTEM.norm>
0

>  <SCORE.heavy>
42

>  <SCORE.norm>
0.107215

>  <RMSD>
9.206

$$$$

 OpenBabel11021811393D
libRbt.so/2013.1/901 2013/11/27
 42 45  0  0  0  0  0  0  0  0999 V2000
   -3.1968   -0.4754   -6.7795 C   0  0  2  0  0  0  0  0  0  0  0  0
   -4.4351    0.1940   -6.3892 O   0  0  0  0  0  0  0  0  0  0  0  0
   -3.3761   -1.2938   -8.0993 C   0  0  2  0  0  0  0  0  0  0  0  0
   -4.6181   -0.9167   -8.8122 N   0  3  0  0  0  0  0  0  0  0  0  0
   -3.3580   -2.8241   -7.8045 C   0  0  1  0  0  0  0  0  0  0  0  0
   -3.5119   -3.5598   -9.0163 O   0  0  0  0  0  0  0  0  0  0  0  0
   -2.0332   -3.2648   -7.1261 C   0  0  2  0  0  0  0  0  0  0  0  0
   -2.1937   -4.5878   -6.6266 O   0  0  0  0  0  0  0  0  0  0  0  0
   -1.6421   -2.2966   -5.9629 C   0  0  2  0  0  0  0  0  0  0  0  0
   -2.7352   -1.3578   -5.6999 O   0  0  0  0  0  0  0  0  0  0  0  0
   -0.3849   -1.4396   -6.2368 C   0  0  0  0  0  0  0  0  0  0  0  0
   -3.1735    4.0394   -4.8922 C   0  0  1  0  0  0  0  0  0  0  0  0
   -3.0446    5.2697   -4.0797 N   0  3  0  0  0  0  0  0  0  0  0  0
   -2.6625    2.7931   -4.1229 C   0  0  1  0  0  0  0  0  0  0  0  0
   -2.9122    1.4396   -4.8749 C   0  0  1  0  0  0  0  0  0  0  0  0
   -2.6976    0.3522   -3.9355 O   0  0  0  0  0  0  0  0  0  0  0  0
   -4.3748    1.2997   -5.4367 C   0  0  1  0  0  0  0  0  0  0  0  0
   -4.8449    2.5943   -6.1755 C   0  0  1  0  0  0  0  0  0  0  0  0
   -6.2658    2.5211   -6.5727 N   0  3  0  0  0  0  0  0  0  0  0  0
   -4.6487    3.8559   -5.3050 C   0  0  0  0  0  0  0  0  0  0  0  0
   -2.8491    0.5964   -2.5071 C   0  0  1  0  0  0  0  0  0  0  0  0
   -4.3353    0.7091   -2.1889 C   0  0  1  0  0  0  0  0  0  0  0  0
   -4.7083   -0.7661   -2.1335 C   0  0  1  0  0  0  0  0  0  0  0  0
   -3.5027   -1.3633   -1.3938 C   0  0  2  0  0  0  0  0  0  0  0  0
   -2.3730   -0.5363   -1.7618 O   0  0  0  0  0  0  0  0  0  0  0  0
   -3.2308   -2.8304   -1.7718 C   0  0  0  0  0  0  0  0  0  0  0  0
   -9.7097   -1.4679   -0.7960 C   0  0  1  0  0  0  0  0  0  0  0  0
   -9.0806   -0.3376   -1.6575 C   0  0  1  0  0  0  0  0  0  0  0  0
   -8.0619   -0.8413   -2.7203 C   0  0  2  0  0  0  0  0  0  0  0  0
   -6.9784   -1.7619   -2.0719 C   0  0  1  0  0  0  0  0  0  0  0  0
   -5.9508   -0.9770   -1.4031 O   0  0  0  0  0  0  0  0  0  0  0  0
   -9.0461   -2.8422   -1.1140 C   0  0  1  0  0  0  0  0  0  0  0  0
   -7.5881   -2.6980   -1.0995 O   0  0  0  0  0  0  0  0  0  0  0  0
   -9.4602   -3.9470   -0.1082 C   0  0  0  0  0  0  0  0  0  0  0  0
   -0.3308   -0.1773   -5.4786 N   0  3  0  0  0  0  0  0  0  0  0  0
   -4.5112    1.3414   -0.9209 O   0  0  0  0  0  0  0  0  0  0  0  0
  -10.1328    0.3548   -2.3283 O   0  0  0  0  0  0  0  0  0  0  0  0
   -9.5265   -1.1399    0.5831 O   0  0  0  0  0  0  0  0  0  0  0  0
   -3.3341   -3.0189   -3.1727 O   0  0  0  0  0  0  0  0  0  0  0  0
   -1.2604    2.9363   -3.8971 O   0  0  0  0  0  0  0  0  0  0  0  0
   -8.4500   -5.0132    0.0207 N   0  3  0  0  0  0  0  0  0  0  0  0
   -7.4711    0.2869   -3.4820 N   0  3  0  0  0  0  0  0  0  0  0  0
  1  2  1  1  0  0  0
  1  3  1  0  0  0  0
  1 10  1  0  0  0  0
  3  4  1  1  0  0  0
  3  5  1  0  0  0  0
  5  6  1  6  0  0  0
  5  7  1  0  0  0  0
  7  8  1  1  0  0  0
  7  9  1  0  0  0  0
  9 10  1  0  0  0  0
  9 11  1  6  0  0  0
 11 35  1  0  0  0  0
 12 13  1  1  0  0  0
 12 14  1  0  0  0  0
 12 20  1  0  0  0  0
 14 15  1  0  0  0  0
 14 40  1  6  0  0  0
 15 16  1  1  0  0  0
 15 17  1  0  0  0  0
 17  2  1  6  0  0  0
 17 18  1  0  0  0  0
 18 19  1  1  0  0  0
 18 20  1  0  0  0  0
 21 16  1  6  0  0  0
 21 22  1  0  0  0  0
 21 25  1  0  0  0  0
 22 23  1  0  0  0  0
 22 36  1  1  0  0  0
 23 24  1  0  0  0  0
 23 31  1  1  0  0  0
 24 25  1  0  0  0  0
 24 26  1  6  0  0  0
 26 39  1  0  0  0  0
 27 28  1  0  0  0  0
 27 32  1  0  0  0  0
 27 38  1  1  0  0  0
 28 29  1  0  0  0  0
 28 37  1  6  0  0  0
 29 30  1  0  0  0  0
 29 42  1  1  0  0  0
 30 31  1  1  0  0  0
 30 33  1  0  0  0  0
 32 33  1  0  0  0  0
 32 34  1  1  0  0  0
 34 41  1  0  0  0  0
M  CHG  6   4   1  13   1  19   1  35   1  41   1  42   1
M  END
>  <CHROM.1>
-161.96755290,-6.70616801,45.42909672,-64.94927981,-174.50313384,155.05041937
-130.14251119,73.33823471,-60.21792843,24.47923039,74.42429372,-67.41440432
-169.23353356,128.16376546,43.74477678,51.24880515,174.61120022,-81.97291153
-76.06552600,-99.34124366,-153.61731934,-70.86986466,-4.72436801,-0.50918461
-3.93578403,-0.11024689,-0.76056428,-2.96174838

>  <Name>


>  <RI>
0

>  <Rbt.Current_Directory>
/home/itssahil/PROJECTS/Mol_Feturizer/New_Systems/rnas/1ei2

>  <Rbt.Executable>
rbdock ($Id: //depot/dev/client3/rdock/2013.1/src/exe/rbdock.cxx#4 $)

>  <Rbt.Library>
libRbt.so (2013.1, Build901 2013/11/27)

>  <Rbt.Parameter_File>
/export/apps/rDock/src/rDock_2013.1_src/data/scripts/dock_solv.prm

>  <Rbt.Receptor>
prm/blind_docking_20.prm

>  <SCORE>
-0.967675

>  <SCORE.INTER>
-5.2043

>  <SCORE.INTER.CONST>
1

>  <SCORE.INTER.POLAR>
-2.19892

>  <SCORE.INTER.ROT>
9

>  <SCORE.INTER.SOLV>
39.46

>  <SCORE.INTER.VDW>
-18.8931

>  <SCORE.INTER.norm>
-0.123912

>  <SCORE.INTRA>
-5.04594

>  <SCORE.INTRA.DIHEDRAL>
-0.614272

>  <SCORE.INTRA.DIHEDRAL.0>
40.8761

>  <SCORE.INTRA.POLAR>
-1.54383

>  <SCORE.INTRA.POLAR.0>
-0.0268208

>  <SCORE.INTRA.REPUL>
-0.241351

>  <SCORE.INTRA.REPUL.0>
0.641615

>  <SCORE.INTRA.SOLV>
-1.2599

>  <SCORE.INTRA.SOLV.lig_0>
-162.567

>  <SCORE.INTRA.VDW>
2.34693

>  <SCORE.INTRA.VDW.0>
-4.80338

>  <SCORE.INTRA.norm>
-0.120141

>  <SCORE.RESTR>
9.28256

>  <SCORE.RESTR.CAVITY>
9.28256

>  <SCORE.RESTR.norm>
0.221013

>  <SCORE.SYSTEM>
0

>  <SCORE.SYSTEM.CONST>
0

>  <SCORE.SYSTEM.DIHEDRAL>
0

>  <SCORE.SYSTEM.SOLV>
0

>  <SCORE.SYSTEM.norm>
0

>  <SCORE.heavy>
42

>  <SCORE.norm>
-0.0230399

>  <RMSD>
9.208

$$$$

 OpenBabel11021811393D
libRbt.so/2013.1/901 2013/11/27
 42 45  0  0  0  0  0  0  0  0999 V2000
   -3.4840   -0.8417   -6.4092 C   0  0  2  0  0  0  0  0  0  0  0  0
   -4.5733    0.1067   -6.1909 O   0  0  0  0  0  0  0  0  0  0  0  0
   -2.7996   -0.6228   -7.7975 C   0  0  2  0  0  0  0  0  0  0  0  0
   -3.1692    0.6834   -8.3895 N   0  3  0  0  0  0  0  0  0  0  0  0
   -3.1520   -1.7851   -8.7742 C   0  0  1  0  0  0  0  0  0  0  0  0
   -2.5142   -1.5797  -10.0329 O   0  0  0  0  0  0  0  0  0  0  0  0
   -2.7059   -3.1628   -8.2153 C   0  0  2  0  0  0  0  0  0  0  0  0
   -3.3051   -4.1892   -8.9984 O   0  0  0  0  0  0  0  0  0  0  0  0
   -3.1144   -3.3258   -6.7153 C   0  0  2  0  0  0  0  0  0  0  0  0
   -3.9828   -2.2194   -6.3067 O   0  0  0  0  0  0  0  0  0  0  0  0
   -1.9272   -3.3396   -5.7251 C   0  0  0  0  0  0  0  0  0  0  0  0
   -2.9816    3.9530   -5.0539 C   0  0  1  0  0  0  0  0  0  0  0  0
   -2.7046    5.2120   -4.3268 N   0  3  0  0  0  0  0  0  0  0  0  0
   -2.4337    2.7207   -4.2874 C   0  0  1  0  0  0  0  0  0  0  0  0
   -2.8284    1.3473   -4.9339 C   0  0  1  0  0  0  0  0  0  0  0  0
   -2.5473    0.2954   -3.9719 O   0  0  0  0  0  0  0  0  0  0  0  0
   -4.3526    1.2511   -5.3104 C   0  0  1  0  0  0  0  0  0  0  0  0
   -4.8543    2.5311   -6.0539 C   0  0  1  0  0  0  0  0  0  0  0  0
   -6.3145    2.5070   -6.2756 N   0  3  0  0  0  0  0  0  0  0  0  0
   -4.5023    3.8208   -5.2789 C   0  0  0  0  0  0  0  0  0  0  0  0
   -2.7424    0.5507   -2.5507 C   0  0  1  0  0  0  0  0  0  0  0  0
   -4.2372    0.6744   -2.2806 C   0  0  1  0  0  0  0  0  0  0  0  0
   -4.6206   -0.7982   -2.2267 C   0  0  1  0  0  0  0  0  0  0  0  0
   -3.4427   -1.3971   -1.4451 C   0  0  2  0  0  0  0  0  0  0  0  0
   -2.2969   -0.5793   -1.7828 O   0  0  0  0  0  0  0  0  0  0  0  0
   -3.1678   -2.8685   -1.8040 C   0  0  0  0  0  0  0  0  0  0  0  0
   -9.6671   -1.1584   -0.8843 C   0  0  1  0  0  0  0  0  0  0  0  0
   -8.8952    0.0966   -1.3787 C   0  0  1  0  0  0  0  0  0  0  0  0
   -7.9770   -0.1655   -2.6072 C   0  0  2  0  0  0  0  0  0  0  0  0
   -7.0276   -1.3804   -2.3535 C   0  0  1  0  0  0  0  0  0  0  0  0
   -5.8869   -0.9966   -1.5345 O   0  0  0  0  0  0  0  0  0  0  0  0
   -9.2141   -2.4305   -1.6633 C   0  0  1  0  0  0  0  0  0  0  0  0
   -7.7506   -2.4920   -1.6937 O   0  0  0  0  0  0  0  0  0  0  0  0
   -9.7674   -3.7368   -1.0375 C   0  0  0  0  0  0  0  0  0  0  0  0
   -0.9552   -4.4231   -5.9541 N   0  3  0  0  0  0  0  0  0  0  0  0
   -4.4493    1.3168   -1.0232 O   0  0  0  0  0  0  0  0  0  0  0  0
   -9.8468    1.1010   -1.7281 O   0  0  0  0  0  0  0  0  0  0  0  0
   -9.4164   -1.3215    0.5134 O   0  0  0  0  0  0  0  0  0  0  0  0
   -4.1640   -3.3699   -2.6785 O   0  0  0  0  0  0  0  0  0  0  0  0
   -1.0099    2.8076   -4.2372 O   0  0  0  0  0  0  0  0  0  0  0  0
   -8.9431   -4.2311    0.0805 N   0  3  0  0  0  0  0  0  0  0  0  0
   -7.2416    1.0604   -3.0055 N   0  3  0  0  0  0  0  0  0  0  0  0
  1  2  1  6  0  0  0
  1  3  1  0  0  0  0
  1 10  1  0  0  0  0
  3  4  1  6  0  0  0
  3  5  1  0  0  0  0
  5  6  1  6  0  0  0
  5  7  1  0  0  0  0
  7  8  1  6  0  0  0
  7  9  1  0  0  0  0
  9 10  1  0  0  0  0
  9 11  1  1  0  0  0
 11 35  1  0  0  0  0
 12 13  1  1  0  0  0
 12 14  1  0  0  0  0
 12 20  1  0  0  0  0
 14 15  1  0  0  0  0
 14 40  1  6  0  0  0
 15 16  1  1  0  0  0
 15 17  1  0  0  0  0
 17  2  1  6  0  0  0
 17 18  1  0  0  0  0
 18 19  1  1  0  0  0
 18 20  1  0  0  0  0
 21 16  1  6  0  0  0
 21 22  1  0  0  0  0
 21 25  1  0  0  0  0
 22 23  1  0  0  0  0
 22 36  1  1  0  0  0
 23 24  1  0  0  0  0
 23 31  1  1  0  0  0
 24 25  1  0  0  0  0
 24 26  1  6  0  0  0
 26 39  1  0  0  0  0
 27 28  1  0  0  0  0
 27 32  1  0  0  0  0
 27 38  1  1  0  0  0
 28 29  1  0  0  0  0
 28 37  1  6  0  0  0
 29 30  1  0  0  0  0
 29 42  1  1  0  0  0
 30 31  1  1  0  0  0
 30 33  1  0  0  0  0
 32 33  1  0  0  0  0
 32 34  1  1  0  0  0
 34 41  1  0  0  0  0
M  CHG  6   4   1  13   1  19   1  35   1  41   1  42   1
M  END
>  <CHROM.1>
-102.82731519,9.19084329,135.39529081,-51.32019019,-40.07942739,-59.82068197
-18.18313701,135.26746791,-177.12272460,35.14398285,69.54782044,-61.42433168
-155.21435881,108.75765304,-6.13387381,75.10777473,174.22461498,-74.68598719
-49.31604412,-102.63456620,-83.82945980,-24.72090059,-4.79189802,-0.49250350
-4.10238097,0.04575347,-0.82021313,-2.91463769

>  <Name>


>  <RI>
0

>  <Rbt.Current_Directory>
/home/itssahil/PROJECTS/Mol_Feturizer/New_Systems/rnas/1ei2

>  <Rbt.Executable>
rbdock ($Id: //depot/dev/client3/rdock/2013.1/src/exe/rbdock.cxx#4 $)

>  <Rbt.Library>
libRbt.so (2013.1, Build901 2013/11/27)

>  <Rbt.Parameter_File>
/export/apps/rDock/src/rDock_2013.1_src/data/scripts/dock_solv.prm

>  <Rbt.Receptor>
prm/blind_docking_20.prm

>  <SCORE>
0.335748

>  <SCORE.INTER>
-17.7396

>  <SCORE.INTER.CONST>
1

>  <SCORE.INTER.POLAR>
-3.36937

>  <SCORE.INTER.ROT>
9

>  <SCORE.INTER.SOLV>
42.9432

>  <SCORE.INTER.VDW>
-24.5096

>  <SCORE.INTER.norm>
-0.422372

>  <SCORE.INTRA>
5.22182

>  <SCORE.INTRA.DIHEDRAL>
13.035

>  <SCORE.INTRA.DIHEDRAL.0>
40.8761

>  <SCORE.INTRA.POLAR>
-0.409862

>  <SCORE.INTRA.POLAR.0>
-0.0268208

>  <SCORE.INTRA.REPUL>
-0.630975

>  <SCORE.INTRA.REPUL.0>
0.641615

>  <SCORE.INTRA.SOLV>
-0.86024

>  <SCORE.INTRA.SOLV.lig_0>
-162.567

>  <SCORE.INTRA.VDW>
3.68283

>  <SCORE.INTRA.VDW.0>
-4.80338

>  <SCORE.INTRA.norm>
0.124329

>  <SCORE.RESTR>
12.8535

>  <SCORE.RESTR.CAVITY>
12.8535

>  <SCORE.RESTR.norm>
0.306037

>  <SCORE.SYSTEM>
0

>  <SCORE.SYSTEM.CONST>
0

>  <SCORE.SYSTEM.DIHEDRAL>
0

>  <SCORE.SYSTEM.SOLV>
0

>  <SCORE.SYSTEM.norm>
0

>  <SCORE.heavy>
42

>  <SCORE.norm>
0.007994

>  <RMSD>
9.211

$$$$

 OpenBabel11021811393D
libRbt.so/2013.1/901 2013/11/27
 42 45  0  0  0  0  0  0  0  0999 V2000
   -3.4244   -0.1075   -6.9296 C   0  0  2  0  0  0  0  0  0  0  0  0
   -2.5999    1.0568   -6.6163 O   0  0  0  0  0  0  0  0  0  0  0  0
   -2.8353   -1.4147   -6.3065 C   0  0  2  0  0  0  0  0  0  0  0  0
   -1.8121   -1.1173   -5.2780 N   0  3  0  0  0  0  0  0  0  0  0  0
   -2.2437   -2.3352   -7.4162 C   0  0  1  0  0  0  0  0  0  0  0  0
   -1.7190   -3.5280   -6.8371 O   0  0  0  0  0  0  0  0  0  0  0  0
   -3.3136   -2.7288   -8.4696 C   0  0  2  0  0  0  0  0  0  0  0  0
   -2.6586   -3.3136   -9.5897 O   0  0  0  0  0  0  0  0  0  0  0  0
   -4.1460   -1.4864   -8.9243 C   0  0  2  0  0  0  0  0  0  0  0  0
   -3.5555   -0.2595   -8.3846 O   0  0  0  0  0  0  0  0  0  0  0  0
   -5.6224   -1.5005   -8.4656 C   0  0  0  0  0  0  0  0  0  0  0  0
   -2.0315    3.5496   -3.1402 C   0  0  1  0  0  0  0  0  0  0  0  0
   -2.2531    4.5021   -2.0294 N   0  3  0  0  0  0  0  0  0  0  0  0
   -2.8259    2.2341   -2.9289 C   0  0  1  0  0  0  0  0  0  0  0  0
   -2.7495    1.2470   -4.1454 C   0  0  1  0  0  0  0  0  0  0  0  0
   -3.7716    0.2296   -3.9691 O   0  0  0  0  0  0  0  0  0  0  0  0
   -3.0085    1.9449   -5.5311 C   0  0  1  0  0  0  0  0  0  0  0  0
   -2.2052    3.2779   -5.6749 C   0  0  1  0  0  0  0  0  0  0  0  0
   -2.5599    4.0087   -6.9087 N   0  3  0  0  0  0  0  0  0  0  0  0
   -2.4335    4.2192   -4.4708 C   0  0  0  0  0  0  0  0  0  0  0  0
   -5.1443    0.6309   -3.6910 C   0  0  1  0  0  0  0  0  0  0  0  0
   -5.9374   -0.6042   -3.2807 C   0  0  1  0  0  0  0  0  0  0  0  0
   -5.5126   -0.7211   -1.8231 C   0  0  1  0  0  0  0  0  0  0  0  0
   -5.5233    0.7483   -1.3781 C   0  0  2  0  0  0  0  0  0  0  0  0
   -5.1782    1.5135   -2.5575 O   0  0  0  0  0  0  0  0  0  0  0  0
   -4.5238    1.0415   -0.2449 C   0  0  0  0  0  0  0  0  0  0  0  0
   -9.8151   -2.7957    0.2935 C   0  0  1  0  0  0  0  0  0  0  0  0
   -9.3696   -1.3074    0.2526 C   0  0  1  0  0  0  0  0  0  0  0  0
   -8.8459   -0.8390   -1.1358 C   0  0  2  0  0  0  0  0  0  0  0  0
   -7.7397   -1.8015   -1.6759 C   0  0  1  0  0  0  0  0  0  0  0  0
   -6.4521   -1.5267   -1.0548 O   0  0  0  0  0  0  0  0  0  0  0  0
   -9.4867   -3.5101   -1.0526 C   0  0  1  0  0  0  0  0  0  0  0  0
   -8.1040   -3.2174   -1.4388 O   0  0  0  0  0  0  0  0  0  0  0  0
   -9.6799   -5.0463   -0.9707 C   0  0  0  0  0  0  0  0  0  0  0  0
   -6.5181   -2.3007   -9.3193 N   0  3  0  0  0  0  0  0  0  0  0  0
   -7.3358   -0.3416   -3.3989 O   0  0  0  0  0  0  0  0  0  0  0  0
  -10.4845   -0.4942    0.6161 O   0  0  0  0  0  0  0  0  0  0  0  0
   -9.1353   -3.4414    1.3724 O   0  0  0  0  0  0  0  0  0  0  0  0
   -4.4919   -0.0241    0.6891 O   0  0  0  0  0  0  0  0  0  0  0  0
   -2.3159    1.5711   -1.7723 O   0  0  0  0  0  0  0  0  0  0  0  0
   -8.7989   -5.6828    0.0255 N   0  3  0  0  0  0  0  0  0  0  0  0
   -8.4026    0.5767   -1.0983 N   0  3  0  0  0  0  0  0  0  0  0  0
  1  2  1  6  0  0  0
  1  3  1  0  0  0  0
  1 10  1  0  0  0  0
  3  4  1  1  0  0  0
  3  5  1  0  0  0  0
  5  6  1  1  0  0  0
  5  7  1  0  0  0  0
  7  8  1  6  0  0  0
  7  9  1  0  0  0  0
  9 10  1  0  0  0  0
  9 11  1  1  0  0  0
 11 35  1  0  0  0  0
 12 13  1  1  0  0  0
 12 14  1  0  0  0  0
 12 20  1  0  0  0  0
 14 15  1  0  0  0  0
 14 40  1  1  0  0  0
 15 16  1  1  0  0  0
 15 17  1  0  0  0  0
 17  2  1  6  0  0  0
 17 18  1  0  0  0  0
 18 19  1  6  0  0  0
 18 20  1  0  0  0  0
 21 16  1  1  0  0  0
 21 22  1  0  0  0  0
 21 25  1  0  0  0  0
 22 23  1  0  0  0  0
 22 36  1  1  0  0  0
 23 24  1  0  0  0  0
 23 31  1  1  0  0  0
 24 25  1  0  0  0  0
 24 26  1  1  0  0  0
 26 39  1  0  0  0  0
 27 28  1  0  0  0  0
 27 32  1  0  0  0  0
 27 38  1  1  0  0  0
 28 29  1  0  0  0  0
 28 37  1  6  0  0  0
 29 30  1  0  0  0  0
 29 42  1  1  0  0  0
 30 31  1  1  0  0  0
 30 33  1  0  0  0  0
 32 33  1  0  0  0  0
 32 34  1  1  0  0  0
 34 41  1  0  0  0  0
M  CHG  6   4   1  13   1  19   1  35   1  41   1  42   1
M  END
>  <CHROM.1>
-99.82455992,73.29733660,89.25323067,-144.00489552,78.28670369,-82.30368042
-40.09111931,-156.13763930,-56.78165071,50.89378247,-168.87961338,46.62864684
40.02852752,-14.01743960,-39.00666061,-52.71806474,105.30607593,149.07706130
172.37759457,-99.35196319,-61.33436826,-94.87099097,-5.16010916,-0.47300205
-3.66114443,0.39150029,-0.80692023,-2.24904543

>  <Name>


>  <RI>
0

>  <Rbt.Current_Directory>
/home/itssahil/PROJECTS/Mol_Feturizer/New_Systems/rnas/1ei2

>  <Rbt.Executable>
rbdock ($Id: //depot/dev/client3/rdock/2013.1/src/exe/rbdock.cxx#4 $)

>  <Rbt.Library>
libRbt.so (2013.1, Build901 2013/11/27)

>  <Rbt.Parameter_File>
/export/apps/rDock/src/rDock_2013.1_src/data/scripts/dock_solv.prm

>  <Rbt.Receptor>
prm/blind_docking_100.prm

>  <SCORE>
31.0231

>  <SCORE.INTER>
14.4955

>  <SCORE.INTER.CONST>
1

>  <SCORE.INTER.POLAR>
-5.51639

>  <SCORE.INTER.ROT>
9

>  <SCORE.INTER.SOLV>
45.2756

>  <SCORE.INTER.VDW>
3.35979

>  <SCORE.INTER.norm>
0.345131

>  <SCORE.INTRA>
6.0565

>  <SCORE.INTRA.DIHEDRAL>
6.28563

>  <SCORE.INTRA.DIHEDRAL.0>
40.8761

>  <SCORE.INTRA.POLAR>
-2.28164

>  <SCORE.INTRA.POLAR.0>
-0.0268208

>  <SCORE.INTRA.REPUL>
-0.641615

>  <SCORE.INTRA.REPUL.0>
0.641615

>  <SCORE.INTRA.SOLV>
0.783074

>  <SCORE.INTRA.SOLV.lig_0>
-162.567

>  <SCORE.INTRA.VDW>
13.4878

>  <SCORE.INTRA.VDW.0>
-4.80338

>  <SCORE.INTRA.norm>
0.144202

>  <SCORE.RESTR>
10.4711

>  <SCORE.RESTR.CAVITY>
10.4711

>  <SCORE.RESTR.norm>
0.249312

>  <SCORE.SYSTEM>
0

>  <SCORE.SYSTEM.CONST>
0

>  <SCORE.SYSTEM.DIHEDRAL>
0

>  <SCORE.SYSTEM.SOLV>
0

>  <SCORE.SYSTEM.norm>
0

>  <SCORE.heavy>
42

>  <SCORE.norm>
0.738646

>  <RMSD>
9.212

$$$$

 OpenBabel11021811393D
libRbt.so/2013.1/901 2013/11/27
 42 45  0  0  0  0  0  0  0  0999 V2000
   -2.9017    0.8996   -4.7969 C   0  0  2  0  0  0  0  0  0  0  0  0
   -3.0312   -0.1831   -5.7688 O   0  0  0  0  0  0  0  0  0  0  0  0
   -3.9509    2.0303   -5.0514 C   0  0  2  0  0  0  0  0  0  0  0  0
   -5.0270    1.5822   -5.9648 N   0  3  0  0  0  0  0  0  0  0  0  0
   -3.2570    3.3092   -5.6100 C   0  0  1  0  0  0  0  0  0  0  0  0
   -4.2219    4.3362   -5.8284 O   0  0  0  0  0  0  0  0  0  0  0  0
   -2.1749    3.8494   -4.6370 C   0  0  2  0  0  0  0  0  0  0  0  0
   -1.3917    4.8224   -5.3193 O   0  0  0  0  0  0  0  0  0  0  0  0
   -1.2587    2.6972   -4.1111 C   0  0  2  0  0  0  0  0  0  0  0  0
   -1.5433    1.4567   -4.8361 O   0  0  0  0  0  0  0  0  0  0  0  0
   -1.4308    2.3758   -2.6087 C   0  0  0  0  0  0  0  0  0  0  0  0
   -1.9232   -4.2811   -6.5423 C   0  0  1  0  0  0  0  0  0  0  0  0
   -1.3022   -5.6214   -6.4509 N   0  3  0  0  0  0  0  0  0  0  0  0
   -2.9298   -4.0402   -5.3869 C   0  0  1  0  0  0  0  0  0  0  0  0
   -3.5073   -2.5826   -5.3451 C   0  0  1  0  0  0  0  0  0  0  0  0
   -4.1625   -2.3907   -4.0626 O   0  0  0  0  0  0  0  0  0  0  0  0
   -2.4032   -1.4709   -5.4850 C   0  0  1  0  0  0  0  0  0  0  0  0
   -1.4026   -1.7817   -6.6447 C   0  0  1  0  0  0  0  0  0  0  0  0
   -0.2817   -0.8203   -6.6825 N   0  3  0  0  0  0  0  0  0  0  0  0
   -0.8159   -3.2067   -6.5310 C   0  0  0  0  0  0  0  0  0  0  0  0
   -4.6936   -1.0789   -3.7163 C   0  0  1  0  0  0  0  0  0  0  0  0
   -6.1186   -1.2519   -3.2042 C   0  0  1  0  0  0  0  0  0  0  0  0
   -5.8360   -1.6867   -1.7725 C   0  0  1  0  0  0  0  0  0  0  0  0
   -4.6719   -0.7611   -1.3913 C   0  0  2  0  0  0  0  0  0  0  0  0
   -3.9484   -0.5204   -2.6218 O   0  0  0  0  0  0  0  0  0  0  0  0
   -3.7343   -1.3759   -0.3367 C   0  0  0  0  0  0  0  0  0  0  0  0
   -9.8593   -3.3219    0.8614 C   0  0  1  0  0  0  0  0  0  0  0  0
   -9.7374   -1.7793    0.7168 C   0  0  1  0  0  0  0  0  0  0  0  0
   -9.4730   -1.2966   -0.7386 C   0  0  2  0  0  0  0  0  0  0  0  0
   -8.2561   -2.0466   -1.3698 C   0  0  1  0  0  0  0  0  0  0  0  0
   -6.9941   -1.4830   -0.9128 O   0  0  0  0  0  0  0  0  0  0  0  0
   -9.5362   -4.0325   -0.4880 C   0  0  1  0  0  0  0  0  0  0  0  0
   -8.2930   -3.4907   -1.0425 O   0  0  0  0  0  0  0  0  0  0  0  0
   -9.3984   -5.5688   -0.3305 C   0  0  0  0  0  0  0  0  0  0  0  0
   -2.8299    2.2079   -2.1778 N   0  3  0  0  0  0  0  0  0  0  0  0
   -6.8021    0.0009   -3.2454 O   0  0  0  0  0  0  0  0  0  0  0  0
  -10.9508   -1.1872    1.1790 O   0  0  0  0  0  0  0  0  0  0  0  0
   -8.9496   -3.7539    1.8757 O   0  0  0  0  0  0  0  0  0  0  0  0
   -2.6835   -0.4819   -0.0121 O   0  0  0  0  0  0  0  0  0  0  0  0
   -4.0157   -4.9561   -5.5262 O   0  0  0  0  0  0  0  0  0  0  0  0
   -9.8238   -6.3090   -1.5326 N   0  3  0  0  0  0  0  0  0  0  0  0
   -9.3299    0.1791   -0.8025 N   0  3  0  0  0  0  0  0  0  0  0  0
  1  2  1  6  0  0  0
  1  3  1  0  0  0  0
  1 10  1  0  0  0  0
  3  4  1  6  0  0  0
  3  5  1  0  0  0  0
  5  6  1  1  0  0  0
  5  7  1  0  0  0  0
  7  8  1  6  0  0  0
  7  9  1  0  0  0  0
  9 10  1  0  0  0  0
  9 11  1  1  0  0  0
 11 35  1  0  0  0  0
 12 13  1  1  0  0  0
 12 14  1  0  0  0  0
 12 20  1  0  0  0  0
 14 15  1  0  0  0  0
 14 40  1  6  0  0  0
 15 16  1  1  0  0  0
 15 17  1  0  0  0  0
 17  2  1  6  0  0  0
 17 18  1  0  0  0  0
 18 19  1  1  0  0  0
 18 20  1  0  0  0  0
 21 16  1  1  0  0  0
 21 22  1  0  0  0  0
 21 25  1  0  0  0  0
 22 23  1  0  0  0  0
 22 36  1  1  0  0  0
 23 24  1  0  0  0  0
 23 31  1  1  0  0  0
 24 25  1  0  0  0  0
 24 26  1  1  0  0  0
 26 39  1  0  0  0  0
 27 28  1  0  0  0  0
 27 32  1  0  0  0  0
 27 38  1  1  0  0  0
 28 29  1  0  0  0  0
 28 37  1  6  0  0  0
 29 30  1  0  0  0  0
 29 42  1  1  0  0  0
 30 31  1  1  0  0  0
 30 33  1  0  0  0  0
 32 33  1  0  0  0  0
 32 34  1  1  0  0  0
 34 41  1  0  0  0  0
M  CHG  6   4   1  13   1  19   1  35   1  41   1  42   1
M  END
>  <CHROM.1>
-163.45951171,116.14289831,177.48000108,-65.37412753,58.74308069,48.80142878
68.97197356,-176.84828710,54.04448305,174.99195931,131.48012760,-17.75326819
-50.21034422,52.05314815,-179.60449582,73.98032600,173.75632170,-164.68887245
48.25067964,-156.20557504,148.53238959,-133.28790068,-4.89400573,-1.01024878
-3.18772466,0.31282122,0.68513173,0.16461897

>  <Name>


>  <RI>
0

>  <Rbt.Current_Directory>
/home/itssahil/PROJECTS/Mol_Feturizer/New_Systems/rnas/1ei2

>  <Rbt.Executable>
rbdock ($Id: //depot/dev/client3/rdock/2013.1/src/exe/rbdock.cxx#4 $)

>  <Rbt.Library>
libRbt.so (2013.1, Build901 2013/11/27)

>  <Rbt.Parameter_File>
/export/apps/rDock/src/rDock_2013.1_src/data/scripts/dock_solv.prm

>  <Rbt.Receptor>
prm/blind_docking_20.prm

>  <SCORE>
47.5605

>  <SCORE.INTER>
56.4342

>  <SCORE.INTER.CONST>
1

>  <SCORE.INTER.POLAR>
-6.50573

>  <SCORE.INTER.ROT>
9

>  <SCORE.INTER.SOLV>
63.1888

>  <SCORE.INTER.VDW>
28.6456

>  <SCORE.INTER.norm>
1.34367

>  <SCORE.INTRA>
-13.4165

>  <SCORE.INTRA.DIHEDRAL>
-9.31326

>  <SCORE.INTRA.DIHEDRAL.0>
40.8761

>  <SCORE.INTRA.POLAR>
-2.10935

>  <SCORE.INTRA.POLAR.0>
-0.0268208

>  <SCORE.INTRA.REPUL>
-0.641615

>  <SCORE.INTRA.REPUL.0>
0.641615

>  <SCORE.INTRA.SOLV>
-1.91056

>  <SCORE.INTRA.SOLV.lig_0>
-162.567

>  <SCORE.INTRA.VDW>
2.57533

>  <SCORE.INTRA.VDW.0>
-4.80338

>  <SCORE.INTRA.norm>
-0.319439

>  <SCORE.RESTR>
4.54275

>  <SCORE.RESTR.CAVITY>
4.54275

>  <SCORE.RESTR.norm>
0.108161

>  <SCORE.SYSTEM>
0

>  <SCORE.SYSTEM.CONST>
0

>  <SCORE.SYSTEM.DIHEDRAL>
0

>  <SCORE.SYSTEM.SOLV>
0

>  <SCORE.SYSTEM.norm>
0

>  <SCORE.heavy>
42

>  <SCORE.norm>
1.13239

>  <RMSD>
9.215

$$$$

 OpenBabel11021811393D
libRbt.so/2013.1/901 2013/11/27
 42 45  0  0  0  0  0  0  0  0999 V2000
   -2.7333   -0.0455   -7.1316 C   0  0  2  0  0  0  0  0  0  0  0  0
   -3.5761    1.1324   -6.9417 O   0  0  0  0  0  0  0  0  0  0  0  0
   -2.5713   -0.3994   -8.6456 C   0  0  2  0  0  0  0  0  0  0  0  0
   -2.9999    0.7184   -9.5174 N   0  3  0  0  0  0  0  0  0  0  0  0
   -3.3593   -1.6980   -8.9945 C   0  0  1  0  0  0  0  0  0  0  0  0
   -3.1958   -2.0162  -10.3749 O   0  0  0  0  0  0  0  0  0  0  0  0
   -2.8784   -2.9084   -8.1501 C   0  0  2  0  0  0  0  0  0  0  0  0
   -3.8134   -3.9708   -8.3004 O   0  0  0  0  0  0  0  0  0  0  0  0
   -2.7387   -2.5273   -6.6405 C   0  0  2  0  0  0  0  0  0  0  0  0
   -3.2931   -1.1923   -6.4046 O   0  0  0  0  0  0  0  0  0  0  0  0
   -1.2836   -2.4958   -6.1189 C   0  0  0  0  0  0  0  0  0  0  0  0
   -2.4363    3.7598   -3.7140 C   0  0  1  0  0  0  0  0  0  0  0  0
   -2.4204    4.5144   -2.4409 N   0  3  0  0  0  0  0  0  0  0  0  0
   -2.2321    2.2404   -3.4776 C   0  0  1  0  0  0  0  0  0  0  0  0
   -2.3893    1.3720   -4.7743 C   0  0  1  0  0  0  0  0  0  0  0  0
   -2.5013   -0.0209   -4.3767 O   0  0  0  0  0  0  0  0  0  0  0  0
   -3.6709    1.7308   -5.6126 C   0  0  1  0  0  0  0  0  0  0  0  0
   -3.8398    3.2741   -5.7933 C   0  0  1  0  0  0  0  0  0  0  0  0
   -5.1172    3.6191   -6.4498 N   0  3  0  0  0  0  0  0  0  0  0  0
   -3.7709    4.0216   -4.4426 C   0  0  0  0  0  0  0  0  0  0  0  0
   -2.4549   -0.3706   -2.9631 C   0  0  1  0  0  0  0  0  0  0  0  0
   -3.7039    0.1806   -2.2855 C   0  0  1  0  0  0  0  0  0  0  0  0
   -4.7132   -0.8904   -2.6761 C   0  0  1  0  0  0  0  0  0  0  0  0
   -3.8864   -2.1729   -2.5054 C   0  0  2  0  0  0  0  0  0  0  0  0
   -2.5213   -1.7976   -2.8074 O   0  0  0  0  0  0  0  0  0  0  0  0
   -4.3415   -3.3110   -3.4364 C   0  0  0  0  0  0  0  0  0  0  0  0
   -9.5502   -0.9176   -0.6859 C   0  0  1  0  0  0  0  0  0  0  0  0
   -8.9376    0.0691   -1.7187 C   0  0  1  0  0  0  0  0  0  0  0  0
   -8.1218   -0.6209   -2.8498 C   0  0  2  0  0  0  0  0  0  0  0  0
   -7.0534   -1.5971   -2.2604 C   0  0  1  0  0  0  0  0  0  0  0  0
   -5.8764   -0.8750   -1.7993 O   0  0  0  0  0  0  0  0  0  0  0  0
   -9.0677   -2.3749   -0.9575 C   0  0  1  0  0  0  0  0  0  0  0  0
   -7.6138   -2.3846   -1.1381 O   0  0  0  0  0  0  0  0  0  0  0  0
   -9.4466   -3.3478    0.1887 C   0  0  0  0  0  0  0  0  0  0  0  0
   -0.5962   -1.2063   -6.3084 N   0  3  0  0  0  0  0  0  0  0  0  0
   -3.5073    0.2239   -0.8720 O   0  0  0  0  0  0  0  0  0  0  0  0
   -9.9996    0.8140   -2.3134 O   0  0  0  0  0  0  0  0  0  0  0  0
   -9.1547   -0.5039    0.6238 O   0  0  0  0  0  0  0  0  0  0  0  0
   -3.6783   -4.5218   -3.1160 O   0  0  0  0  0  0  0  0  0  0  0  0
   -0.9244    2.0307   -2.9453 O   0  0  0  0  0  0  0  0  0  0  0  0
   -9.0722   -4.7449   -0.0976 N   0  3  0  0  0  0  0  0  0  0  0  0
   -7.5338    0.3756   -3.7791 N   0  3  0  0  0  0  0  0  0  0  0  0
  1  2  1  6  0  0  0
  1  3  1  0  0  0  0
  1 10  1  0  0  0  0
  3  4  1  6  0  0  0
  3  5  1  0  0  0  0
  5  6  1  6  0  0  0
  5  7  1  0  0  0  0
  7  8  1  1  0  0  0
  7  9  1  0  0  0  0
  9 10  1  0  0  0  0
  9 11  1  6  0  0  0
 11 35  1  0  0  0  0
 12 13  1  1  0  0  0
 12 14  1  0  0  0  0
 12 20  1  0  0  0  0
 14 15  1  0  0  0  0
 14 40  1  6  0  0  0
 15 16  1  1  0  0  0
 15 17  1  0  0  0  0
 17  2  1  6  0  0  0
 17 18  1  0  0  0  0
 18 19  1  1  0  0  0
 18 20  1  0  0  0  0
 21 16  1  6  0  0  0
 21 22  1  0  0  0  0
 21 25  1  0  0  0  0
 22 23  1  0  0  0  0
 22 36  1  1  0  0  0
 23 24  1  0  0  0  0
 23 31  1  1  0  0  0
 24 25  1  0  0  0  0
 24 26  1  6  0  0  0
 26 39  1  0  0  0  0
 27 28  1  0  0  0  0
 27 32  1  0  0  0  0
 27 38  1  1  0  0  0
 28 29  1  0  0  0  0
 28 37  1  6  0  0  0
 29 30  1  0  0  0  0
 29 42  1  1  0  0  0
 30 31  1  1  0  0  0
 30 33  1  0  0  0  0
 32 33  1  0  0  0  0
 32 34  1  1  0  0  0
 34 41  1  0  0  0  0
M  CHG  6   4   1  13   1  19   1  35   1  41   1  42   1
M  END
>  <CHROM.1>
-170.66638714,24.31230076,51.32917719,76.00926346,65.72016798,87.18216447
-175.70992953,41.07013344,-164.41840696,-0.00991185,67.24833564,-55.12844639
53.05562762,164.59078864,-171.90112972,-39.94308273,-30.30711132,-166.26935095
138.86596713,-101.25979242,176.27778640,-171.21507742,-4.58494673,-0.45414883
-4.17053094,0.18307598,-0.82146522,-2.65090085

>  <Name>


>  <RI>
0

>  <Rbt.Current_Directory>
/home/itssahil/PROJECTS/Mol_Feturizer/New_Systems/rnas/1ei2

>  <Rbt.Executable>
rbdock ($Id: //depot/dev/client3/rdock/2013.1/src/exe/rbdock.cxx#4 $)

>  <Rbt.Library>
libRbt.so (2013.1, Build901 2013/11/27)

>  <Rbt.Parameter_File>
/export/apps/rDock/src/rDock_2013.1_src/data/scripts/dock_solv.prm

>  <Rbt.Receptor>
prm/blind_docking_100.prm

>  <SCORE>
-15.2963

>  <SCORE.INTER>
-21.5697

>  <SCORE.INTER.CONST>
1

>  <SCORE.INTER.POLAR>
-4.00774

>  <SCORE.INTER.ROT>
9

>  <SCORE.INTER.SOLV>
41.2481

>  <SCORE.INTER.VDW>
-24.37

>  <SCORE.INTER.norm>
-0.513563

>  <SCORE.INTRA>
-0.633495

>  <SCORE.INTRA.DIHEDRAL>
-5.53605

>  <SCORE.INTRA.DIHEDRAL.0>
40.8761

>  <SCORE.INTRA.POLAR>
-1.06778

>  <SCORE.INTRA.POLAR.0>
-0.0268208

>  <SCORE.INTRA.REPUL>
-0.641615

>  <SCORE.INTRA.REPUL.0>
0.641615

>  <SCORE.INTRA.SOLV>
-5.83918

>  <SCORE.INTRA.SOLV.lig_0>
-162.567

>  <SCORE.INTRA.VDW>
11.8927

>  <SCORE.INTRA.VDW.0>
-4.80338

>  <SCORE.INTRA.norm>
-0.0150832

>  <SCORE.RESTR>
6.90686

>  <SCORE.RESTR.CAVITY>
6.90686

>  <SCORE.RESTR.norm>
0.164449

>  <SCORE.SYSTEM>
0

>  <SCORE.SYSTEM.CONST>
0

>  <SCORE.SYSTEM.DIHEDRAL>
0

>  <SCORE.SYSTEM.SOLV>
0

>  <SCORE.SYSTEM.norm>
0

>  <SCORE.heavy>
42

>  <SCORE.norm>
-0.364198

>  <RMSD>
9.224

$$$$

 OpenBabel11021811393D
libRbt.so/2013.1/901 2013/11/27
 42 45  0  0  0  0  0  0  0  0999 V2000
   -3.5679   -3.1143   -5.8826 C   0  0  2  0  0  0  0  0  0  0  0  0
   -3.9873   -3.3386   -7.2637 O   0  0  0  0  0  0  0  0  0  0  0  0
   -2.1710   -3.7540   -5.5940 C   0  0  2  0  0  0  0  0  0  0  0  0
   -1.4645   -4.1122   -6.8453 N   0  3  0  0  0  0  0  0  0  0  0  0
   -2.3172   -5.0021   -4.6722 C   0  0  1  0  0  0  0  0  0  0  0  0
   -1.0365   -5.5706   -4.4079 O   0  0  0  0  0  0  0  0  0  0  0  0
   -2.9854   -4.6433   -3.3179 C   0  0  2  0  0  0  0  0  0  0  0  0
   -3.3507   -5.8487   -2.6550 O   0  0  0  0  0  0  0  0  0  0  0  0
   -4.2467   -3.7442   -3.5282 C   0  0  2  0  0  0  0  0  0  0  0  0
   -4.5694   -3.6547   -4.9541 O   0  0  0  0  0  0  0  0  0  0  0  0
   -4.0906   -2.2917   -3.0223 C   0  0  0  0  0  0  0  0  0  0  0  0
   -2.9335   -0.8493  -10.6271 C   0  0  1  0  0  0  0  0  0  0  0  0
   -2.9438    0.2017  -11.6690 N   0  3  0  0  0  0  0  0  0  0  0  0
   -2.6906   -0.2505   -9.2169 C   0  0  1  0  0  0  0  0  0  0  0  0
   -2.8183   -1.2965   -8.0553 C   0  0  1  0  0  0  0  0  0  0  0  0
   -2.8957   -0.5716   -6.7985 O   0  0  0  0  0  0  0  0  0  0  0  0
   -4.1046   -2.1951   -8.1648 C   0  0  1  0  0  0  0  0  0  0  0  0
   -4.3131   -2.7458   -9.6127 C   0  0  1  0  0  0  0  0  0  0  0  0
   -5.5958   -3.4647   -9.7532 N   0  3  0  0  0  0  0  0  0  0  0  0
   -4.2708   -1.6178  -10.6680 C   0  0  0  0  0  0  0  0  0  0  0  0
   -4.1739   -0.4664   -6.1073 C   0  0  1  0  0  0  0  0  0  0  0  0
   -4.0454    0.5788   -5.0055 C   0  0  1  0  0  0  0  0  0  0  0  0
   -4.2084    1.8513   -5.8256 C   0  0  1  0  0  0  0  0  0  0  0  0
   -5.3334    1.4554   -6.7924 C   0  0  2  0  0  0  0  0  0  0  0  0
   -5.1788    0.0319   -7.0056 O   0  0  0  0  0  0  0  0  0  0  0  0
   -5.2635    2.2032   -8.1360 C   0  0  0  0  0  0  0  0  0  0  0  0
   -1.2857    1.8125   -3.4150 C   0  0  1  0  0  0  0  0  0  0  0  0
   -1.4754    2.2173   -4.9035 C   0  0  1  0  0  0  0  0  0  0  0  0
   -2.1730    3.5938   -5.1035 C   0  0  2  0  0  0  0  0  0  0  0  0
   -3.5082    3.6727   -4.2956 C   0  0  1  0  0  0  0  0  0  0  0  0
   -4.5861    2.9825   -4.9890 O   0  0  0  0  0  0  0  0  0  0  0  0
   -1.9842    2.8358   -2.4688 C   0  0  1  0  0  0  0  0  0  0  0  0
   -3.3467    3.0915   -2.9428 O   0  0  0  0  0  0  0  0  0  0  0  0
   -2.0385    2.3429   -0.9998 C   0  0  0  0  0  0  0  0  0  0  0  0
   -2.7153   -1.7672   -3.0904 N   0  3  0  0  0  0  0  0  0  0  0  0
   -5.1082    0.4224   -4.0650 O   0  0  0  0  0  0  0  0  0  0  0  0
   -0.1911    2.2639   -5.5239 O   0  0  0  0  0  0  0  0  0  0  0  0
   -1.8412    0.5091   -3.2270 O   0  0  0  0  0  0  0  0  0  0  0  0
   -4.0157    2.8584   -8.2855 O   0  0  0  0  0  0  0  0  0  0  0  0
   -1.3805    0.3149   -9.1782 O   0  0  0  0  0  0  0  0  0  0  0  0
   -0.7765    1.7231   -0.5558 N   0  3  0  0  0  0  0  0  0  0  0  0
   -2.3574    3.9037   -6.5430 N   0  3  0  0  0  0  0  0  0  0  0  0
  1  2  1  6  0  0  0
  1  3  1  0  0  0  0
  1 10  1  0  0  0  0
  3  4  1  6  0  0  0
  3  5  1  0  0  0  0
  5  6  1  1  0  0  0
  5  7  1  0  0  0  0
  7  8  1  6  0  0  0
  7  9  1  0  0  0  0
  9 10  1  0  0  0  0
  9 11  1  6  0  0  0
 11 35  1  0  0  0  0
 12 13  1  6  0  0  0
 12 14  1  0  0  0  0
 12 20  1  0  0  0  0
 14 15  1  0  0  0  0
 14 40  1  6  0  0  0
 15 16  1  1  0  0  0
 15 17  1  0  0  0  0
 17  2  1  1  0  0  0
 17 18  1  0  0  0  0
 18 19  1  1  0  0  0
 18 20  1  0  0  0  0
 21 16  1  6  0  0  0
 21 22  1  0  0  0  0
 21 25  1  0  0  0  0
 22 23  1  0  0  0  0
 22 36  1  1  0  0  0
 23 24  1  0  0  0  0
 23 31  1  1  0  0  0
 24 25  1  0  0  0  0
 24 26  1  6  0  0  0
 26 39  1  0  0  0  0
 27 28  1  0  0  0  0
 27 32  1  0  0  0  0
 27 38  1  6  0  0  0
 28 29  1  0  0  0  0
 28 37  1  1  0  0  0
 29 30  1  0  0  0  0
 29 42  1  6  0  0  0
 30 31  1  6  0  0  0
 30 33  1  0  0  0  0
 32 33  1  0  0  0  0
 32 34  1  1  0  0  0
 34 41  1  0  0  0  0
M  CHG  6   4   1  13   1  19   1  35   1  41   1  42   1
M  END
>  <CHROM.1>
-113.73322830,47.73274253,178.45246023,96.81678270,79.82901706,30.50402623
26.72674390,56.02767029,-61.03422451,105.48487284,-167.76279331,32.06940433
43.55848545,82.75121062,13.10635320,-177.46695390,176.18577469,-37.05739267
-138.14596634,30.02606686,42.73496781,25.33501367,-3.14568427,-0.47043341
-5.83162346,-2.33254265,-1.36449836,-0.18549659

>  <Name>


>  <RI>
0

>  <Rbt.Current_Directory>
/home/itssahil/PROJECTS/Mol_Feturizer/New_Systems/rnas/1ei2

>  <Rbt.Executable>
rbdock ($Id: //depot/dev/client3/rdock/2013.1/src/exe/rbdock.cxx#4 $)

>  <Rbt.Library>
libRbt.so (2013.1, Build901 2013/11/27)

>  <Rbt.Parameter_File>
/export/apps/rDock/src/rDock_2013.1_src/data/scripts/dock_solv.prm

>  <Rbt.Receptor>
prm/blind_docking_100.prm

>  <SCORE>
-5.7012

>  <SCORE.INTER>
-30.0988

>  <SCORE.INTER.CONST>
1

>  <SCORE.INTER.POLAR>
-7.98957

>  <SCORE.INTER.ROT>
9

>  <SCORE.INTER.SOLV>
45.7605

>  <SCORE.INTER.VDW>
-18.2875

>  <SCORE.INTER.norm>
-0.716639

>  <SCORE.INTRA>
11.4382

>  <SCORE.INTRA.DIHEDRAL>
7.14745

>  <SCORE.INTRA.DIHEDRAL.0>
40.8761

>  <SCORE.INTRA.POLAR>
-1.38979

>  <SCORE.INTRA.POLAR.0>
-0.0268208

>  <SCORE.INTRA.REPUL>
-0.416533

>  <SCORE.INTRA.REPUL.0>
0.641615

>  <SCORE.INTRA.SOLV>
7.5496

>  <SCORE.INTRA.SOLV.lig_0>
-162.567

>  <SCORE.INTRA.VDW>
10.8976

>  <SCORE.INTRA.VDW.0>
-4.80338

>  <SCORE.INTRA.norm>
0.272339

>  <SCORE.RESTR>
12.9594

>  <SCORE.RESTR.CAVITY>
12.9594

>  <SCORE.RESTR.norm>
0.308557

>  <SCORE.SYSTEM>
0

>  <SCORE.SYSTEM.CONST>
0

>  <SCORE.SYSTEM.DIHEDRAL>
0

>  <SCORE.SYSTEM.SOLV>
0

>  <SCORE.SYSTEM.norm>
0

>  <SCORE.heavy>
42

>  <SCORE.norm>
-0.135743

>  <RMSD>
9.229

$$$$

 OpenBabel11021811393D
libRbt.so/2013.1/901 2013/11/27
 42 45  0  0  0  0  0  0  0  0999 V2000
   -4.0384    0.5153   -5.8374 C   0  0  2  0  0  0  0  0  0  0  0  0
   -4.2446   -0.6300   -6.7203 O   0  0  0  0  0  0  0  0  0  0  0  0
   -4.9042    1.7417   -6.2735 C   0  0  2  0  0  0  0  0  0  0  0  0
   -5.9642    1.3501   -7.2307 N   0  3  0  0  0  0  0  0  0  0  0  0
   -4.0060    2.8614   -6.8805 C   0  0  1  0  0  0  0  0  0  0  0  0
   -4.8051    3.9781   -7.2648 O   0  0  0  0  0  0  0  0  0  0  0  0
   -2.9318    3.3489   -5.8715 C   0  0  2  0  0  0  0  0  0  0  0  0
   -1.9781    4.1434   -6.5678 O   0  0  0  0  0  0  0  0  0  0  0  0
   -2.2195    2.1444   -5.1751 C   0  0  2  0  0  0  0  0  0  0  0  0
   -2.6177    0.8870   -5.8121 O   0  0  0  0  0  0  0  0  0  0  0  0
   -2.5388    1.9933   -3.6700 C   0  0  0  0  0  0  0  0  0  0  0  0
   -2.7504   -4.6304   -7.3397 C   0  0  1  0  0  0  0  0  0  0  0  0
   -1.8566   -5.7994   -7.4976 N   0  3  0  0  0  0  0  0  0  0  0  0
   -2.7518   -4.1081   -5.8791 C   0  0  1  0  0  0  0  0  0  0  0  0
   -3.5632   -2.7803   -5.6832 C   0  0  1  0  0  0  0  0  0  0  0  0
   -3.2245   -2.2291   -4.3823 O   0  0  0  0  0  0  0  0  0  0  0  0
   -3.2349   -1.6845   -6.7629 C   0  0  1  0  0  0  0  0  0  0  0  0
   -3.2193   -2.2743   -8.2103 C   0  0  1  0  0  0  0  0  0  0  0  0
   -2.7664   -1.2836   -9.2079 N   0  3  0  0  0  0  0  0  0  0  0  0
   -2.3087   -3.5185   -8.3139 C   0  0  0  0  0  0  0  0  0  0  0  0
   -3.6622   -0.8833   -4.0360 C   0  0  1  0  0  0  0  0  0  0  0  0
   -5.1582   -0.9189   -3.7468 C   0  0  1  0  0  0  0  0  0  0  0  0
   -5.1407   -1.4474   -2.3189 C   0  0  1  0  0  0  0  0  0  0  0  0
   -3.9572   -0.6763   -1.7172 C   0  0  2  0  0  0  0  0  0  0  0  0
   -3.0359   -0.4623   -2.8131 O   0  0  0  0  0  0  0  0  0  0  0  0
   -3.2578   -1.4397   -0.5782 C   0  0  0  0  0  0  0  0  0  0  0  0
   -9.8277   -1.9271   -0.1060 C   0  0  1  0  0  0  0  0  0  0  0  0
   -9.4340   -0.5953   -0.8036 C   0  0  1  0  0  0  0  0  0  0  0  0
   -8.7818   -0.7804   -2.2042 C   0  0  2  0  0  0  0  0  0  0  0  0
   -7.5903   -1.7895   -2.1432 C   0  0  1  0  0  0  0  0  0  0  0  0
   -6.3873   -1.1547   -1.6245 O   0  0  0  0  0  0  0  0  0  0  0  0
   -9.3316   -3.1531   -0.9313 C   0  0  1  0  0  0  0  0  0  0  0  0
   -7.9269   -2.9601   -1.3004 O   0  0  0  0  0  0  0  0  0  0  0  0
   -9.4772   -4.4876   -0.1556 C   0  0  0  0  0  0  0  0  0  0  0  0
   -2.0347    3.0916   -2.8269 N   0  3  0  0  0  0  0  0  0  0  0  0
   -5.6937    0.4032   -3.8090 O   0  0  0  0  0  0  0  0  0  0  0  0
  -10.6099    0.1998   -0.9509 O   0  0  0  0  0  0  0  0  0  0  0  0
   -9.2445   -1.9433    1.1988 O   0  0  0  0  0  0  0  0  0  0  0  0
   -4.0113   -2.5773   -0.1950 O   0  0  0  0  0  0  0  0  0  0  0  0
   -3.3115   -5.1124   -5.0333 O   0  0  0  0  0  0  0  0  0  0  0  0
   -9.5475   -5.6625   -1.0437 N   0  3  0  0  0  0  0  0  0  0  0  0
   -8.3962    0.5234   -2.7989 N   0  3  0  0  0  0  0  0  0  0  0  0
  1  2  1  6  0  0  0
  1  3  1  0  0  0  0
  1 10  1  0  0  0  0
  3  4  1  6  0  0  0
  3  5  1  0  0  0  0
  5  6  1  1  0  0  0
  5  7  1  0  0  0  0
  7  8  1  6  0  0  0
  7  9  1  0  0  0  0
  9 10  1  0  0  0  0
  9 11  1  1  0  0  0
 11 35  1  0  0  0  0
 12 13  1  1  0  0  0
 12 14  1  0  0  0  0
 12 20  1  0  0  0  0
 14 15  1  0  0  0  0
 14 40  1  1  0  0  0
 15 16  1  1  0  0  0
 15 17  1  0  0  0  0
 17  2  1  6  0  0  0
 17 18  1  0  0  0  0
 18 19  1  6  0  0  0
 18 20  1  0  0  0  0
 21 16  1  1  0  0  0
 21 22  1  0  0  0  0
 21 25  1  0  0  0  0
 22 23  1  0  0  0  0
 22 36  1  1  0  0  0
 23 24  1  0  0  0  0
 23 31  1  1  0  0  0
 24 25  1  0  0  0  0
 24 26  1  1  0  0  0
 26 39  1  0  0  0  0
 27 28  1  0  0  0  0
 27 32  1  0  0  0  0
 27 38  1  1  0  0  0
 28 29  1  0  0  0  0
 28 37  1  6  0  0  0
 29 30  1  0  0  0  0
 29 42  1  1  0  0  0
 30 31  1  1  0  0  0
 30 33  1  0  0  0  0
 32 33  1  0  0  0  0
 32 34  1  1  0  0  0
 34 41  1  0  0  0  0
M  CHG  6   4   1  13   1  19   1  35   1  41   1  42   1
M  END
>  <CHROM.1>
159.71863727,89.73196821,-62.25558461,83.53440749,62.47397967,-66.13273693
-66.16095724,-175.89918725,57.02254937,169.70045956,74.17964892,-164.34000218
-51.39896278,64.50681731,-10.12469439,-52.06493051,157.11350834,-29.22243673
146.34857824,-136.18972947,156.66578004,-35.42249061,-5.05546722,-0.93193407
-4.04937288,0.28899637,0.80766132,0.00499001

>  <Name>


>  <RI>
0

>  <Rbt.Current_Directory>
/home/itssahil/PROJECTS/Mol_Feturizer/New_Systems/rnas/1ei2

>  <Rbt.Executable>
rbdock ($Id: //depot/dev/client3/rdock/2013.1/src/exe/rbdock.cxx#4 $)

>  <Rbt.Library>
libRbt.so (2013.1, Build901 2013/11/27)

>  <Rbt.Parameter_File>
/export/apps/rDock/src/rDock_2013.1_src/data/scripts/dock_solv.prm

>  <Rbt.Receptor>
prm/blind_docking_100.prm

>  <SCORE>
14.0152

>  <SCORE.INTER>
3.61502

>  <SCORE.INTER.CONST>
1

>  <SCORE.INTER.POLAR>
-6.13437

>  <SCORE.INTER.ROT>
9

>  <SCORE.INTER.SOLV>
45.9969

>  <SCORE.INTER.VDW>
-2.07438

>  <SCORE.INTER.norm>
0.0860719

>  <SCORE.INTRA>
3.59015

>  <SCORE.INTRA.DIHEDRAL>
-7.08292

>  <SCORE.INTRA.DIHEDRAL.0>
40.8761

>  <SCORE.INTRA.POLAR>
-1.18625

>  <SCORE.INTRA.POLAR.0>
-0.0268208

>  <SCORE.INTRA.REPUL>
-0.641615

>  <SCORE.INTRA.REPUL.0>
0.641615

>  <SCORE.INTRA.SOLV>
-9.01311

>  <SCORE.INTRA.SOLV.lig_0>
-162.567

>  <SCORE.INTRA.VDW>
18.8795

>  <SCORE.INTRA.VDW.0>
-4.80338

>  <SCORE.INTRA.norm>
0.0854799

>  <SCORE.RESTR>
6.81004

>  <SCORE.RESTR.CAVITY>
6.81004

>  <SCORE.RESTR.norm>
0.162144

>  <SCORE.SYSTEM>
0

>  <SCORE.SYSTEM.CONST>
0

>  <SCORE.SYSTEM.DIHEDRAL>
0

>  <SCORE.SYSTEM.SOLV>
0

>  <SCORE.SYSTEM.norm>
0

>  <SCORE.heavy>
42

>  <SCORE.norm>
0.333696

>  <RMSD>
9.229

$$$$

 OpenBabel11021811393D
libRbt.so/2013.1/901 2013/11/27
 42 45  0  0  0  0  0  0  0  0999 V2000
   -3.0661   -0.5387   -6.7219 C   0  0  2  0  0  0  0  0  0  0  0  0
   -3.9489    0.6148   -6.5677 O   0  0  0  0  0  0  0  0  0  0  0  0
   -2.6014   -0.7140   -8.2042 C   0  0  2  0  0  0  0  0  0  0  0  0
   -2.8668    0.5013   -9.0078 N   0  3  0  0  0  0  0  0  0  0  0  0
   -3.2833   -1.9570   -8.8513 C   0  0  1  0  0  0  0  0  0  0  0  0
   -2.8442   -2.1124  -10.1991 O   0  0  0  0  0  0  0  0  0  0  0  0
   -2.9597   -3.2615   -8.0748 C   0  0  2  0  0  0  0  0  0  0  0  0
   -3.8289   -4.2922   -8.5305 O   0  0  0  0  0  0  0  0  0  0  0  0
   -3.1282   -3.0609   -6.5337 C   0  0  2  0  0  0  0  0  0  0  0  0
   -3.7402   -1.7589   -6.2591 O   0  0  0  0  0  0  0  0  0  0  0  0
   -1.8062   -3.1012   -5.7332 C   0  0  0  0  0  0  0  0  0  0  0  0
   -2.5979    3.6647   -3.8304 C   0  0  1  0  0  0  0  0  0  0  0  0
   -2.4782    4.5690   -2.6649 N   0  3  0  0  0  0  0  0  0  0  0  0
   -2.2780    2.1962   -3.4466 C   0  0  1  0  0  0  0  0  0  0  0  0
   -2.5338    1.1699   -4.6048 C   0  0  1  0  0  0  0  0  0  0  0  0
   -2.5162   -0.1677   -4.0380 O   0  0  0  0  0  0  0  0  0  0  0  0
   -3.9234    1.3660   -5.3153 C   0  0  1  0  0  0  0  0  0  0  0  0
   -4.2030    2.8667   -5.6513 C   0  0  1  0  0  0  0  0  0  0  0  0
   -5.5664    3.0714   -6.1815 N   0  3  0  0  0  0  0  0  0  0  0  0
   -4.0214    3.7757   -4.4150 C   0  0  0  0  0  0  0  0  0  0  0  0
   -2.5922   -0.3367   -2.5928 C   0  0  1  0  0  0  0  0  0  0  0  0
   -3.9431    0.1816   -2.1139 C   0  0  1  0  0  0  0  0  0  0  0  0
   -4.8228   -1.0134   -2.4553 C   0  0  1  0  0  0  0  0  0  0  0  0
   -3.9247   -2.1880   -2.0415 C   0  0  2  0  0  0  0  0  0  0  0  0
   -2.5674   -1.7343   -2.2595 O   0  0  0  0  0  0  0  0  0  0  0  0
   -4.1931   -3.4668   -2.8551 C   0  0  0  0  0  0  0  0  0  0  0  0
   -9.7342   -1.4355   -0.6474 C   0  0  1  0  0  0  0  0  0  0  0  0
   -9.1758   -0.2412   -1.4703 C   0  0  1  0  0  0  0  0  0  0  0  0
   -8.3266   -0.6618   -2.7044 C   0  0  2  0  0  0  0  0  0  0  0  0
   -7.2075   -1.6750   -2.3008 C   0  0  1  0  0  0  0  0  0  0  0  0
   -6.0694   -0.9930   -1.7019 O   0  0  0  0  0  0  0  0  0  0  0  0
   -9.1763   -2.7883   -1.1850 C   0  0  1  0  0  0  0  0  0  0  0  0
   -7.7241   -2.6884   -1.3521 O   0  0  0  0  0  0  0  0  0  0  0  0
   -9.5018   -3.9785   -0.2462 C   0  0  0  0  0  0  0  0  0  0  0  0
   -0.9502   -4.2637   -6.0284 N   0  3  0  0  0  0  0  0  0  0  0  0
   -3.8996    0.4143   -0.7059 O   0  0  0  0  0  0  0  0  0  0  0  0
  -10.2764    0.5466   -1.9227 O   0  0  0  0  0  0  0  0  0  0  0  0
   -9.3589   -1.2567    0.7201 O   0  0  0  0  0  0  0  0  0  0  0  0
   -4.1537   -3.1984   -4.2462 O   0  0  0  0  0  0  0  0  0  0  0  0
   -0.9071    2.1117   -3.0583 O   0  0  0  0  0  0  0  0  0  0  0  0
   -8.3368   -4.8468    0.0041 N   0  3  0  0  0  0  0  0  0  0  0  0
   -7.7933    0.5214   -3.4239 N   0  3  0  0  0  0  0  0  0  0  0  0
  1  2  1  6  0  0  0
  1  3  1  0  0  0  0
  1 10  1  0  0  0  0
  3  4  1  6  0  0  0
  3  5  1  0  0  0  0
  5  6  1  6  0  0  0
  5  7  1  0  0  0  0
  7  8  1  6  0  0  0
  7  9  1  0  0  0  0
  9 10  1  0  0  0  0
  9 11  1  1  0  0  0
 11 35  1  0  0  0  0
 12 13  1  1  0  0  0
 12 14  1  0  0  0  0
 12 20  1  0  0  0  0
 14 15  1  0  0  0  0
 14 40  1  6  0  0  0
 15 16  1  1  0  0  0
 15 17  1  0  0  0  0
 17  2  1  6  0  0  0
 17 18  1  0  0  0  0
 18 19  1  1  0  0  0
 18 20  1  0  0  0  0
 21 16  1  6  0  0  0
 21 22  1  0  0  0  0
 21 25  1  0  0  0  0
 22 23  1  0  0  0  0
 22 36  1  1  0  0  0
 23 24  1  0  0  0  0
 23 31  1  1  0  0  0
 24 25  1  0  0  0  0
 24 26  1  6  0  0  0
 26 39  1  0  0  0  0
 27 28  1  0  0  0  0
 27 32  1  0  0  0  0
 27 38  1  1  0  0  0
 28 29  1  0  0  0  0
 28 37  1  6  0  0  0
 29 30  1  0  0  0  0
 29 42  1  1  0  0  0
 30 31  1  1  0  0  0
 30 33  1  0  0  0  0
 32 33  1  0  0  0  0
 32 34  1  1  0  0  0
 34 41  1  0  0  0  0
M  CHG  6   4   1  13   1  19   1  35   1  41   1  42   1
M  END
>  <CHROM.1>
-147.65484715,24.32367620,-170.60256636,60.01516051,75.55875368,-49.95818065
-139.72979158,32.99336615,-74.33986620,13.94603575,64.25324412,-150.10181309
61.33062420,153.95955764,51.72783667,-69.91582534,161.82509744,54.09807386
-165.34414016,-113.00763611,-133.55733528,-92.73625241,-4.73506913,-0.72612412
-4.03890526,0.18768060,-0.80056372,-2.70823127

>  <Name>


>  <RI>
0

>  <Rbt.Current_Directory>
/home/itssahil/PROJECTS/Mol_Feturizer/New_Systems/rnas/1ei2

>  <Rbt.Executable>
rbdock ($Id: //depot/dev/client3/rdock/2013.1/src/exe/rbdock.cxx#4 $)

>  <Rbt.Library>
libRbt.so (2013.1, Build901 2013/11/27)

>  <Rbt.Parameter_File>
/export/apps/rDock/src/rDock_2013.1_src/data/scripts/dock_solv.prm

>  <Rbt.Receptor>
prm/blind_docking_80.prm

>  <SCORE>
-11.2289

>  <SCORE.INTER>
-16.8482

>  <SCORE.INTER.CONST>
1

>  <SCORE.INTER.POLAR>
-5.13749

>  <SCORE.INTER.ROT>
9

>  <SCORE.INTER.SOLV>
43.6821

>  <SCORE.INTER.VDW>
-18.2679

>  <SCORE.INTER.norm>
-0.401148

>  <SCORE.INTRA>
-2.01118

>  <SCORE.INTRA.DIHEDRAL>
3.04151

>  <SCORE.INTRA.DIHEDRAL.0>
40.8761

>  <SCORE.INTRA.POLAR>
-0.21484

>  <SCORE.INTRA.POLAR.0>
-0.0268208

>  <SCORE.INTRA.REPUL>
-0.634578

>  <SCORE.INTRA.REPUL.0>
0.641615

>  <SCORE.INTRA.SOLV>
-9.47028

>  <SCORE.INTRA.SOLV.lig_0>
-162.567

>  <SCORE.INTRA.VDW>
5.10655

>  <SCORE.INTRA.VDW.0>
-4.80338

>  <SCORE.INTRA.norm>
-0.0478851

>  <SCORE.RESTR>
7.63049

>  <SCORE.RESTR.CAVITY>
7.63049

>  <SCORE.RESTR.norm>
0.181678

>  <SCORE.SYSTEM>
0

>  <SCORE.SYSTEM.CONST>
0

>  <SCORE.SYSTEM.DIHEDRAL>
0

>  <SCORE.SYSTEM.SOLV>
0

>  <SCORE.SYSTEM.norm>
0

>  <SCORE.heavy>
42

>  <SCORE.norm>
-0.267355

>  <RMSD>
9.250

$$$$

 OpenBabel11021811393D
libRbt.so/2013.1/901 2013/11/27
 42 45  0  0  0  0  0  0  0  0999 V2000
   -3.2029   -0.3823   -6.7682 C   0  0  2  0  0  0  0  0  0  0  0  0
   -4.4671    0.2494   -6.3989 O   0  0  0  0  0  0  0  0  0  0  0  0
   -3.3708   -1.3288   -8.0010 C   0  0  2  0  0  0  0  0  0  0  0  0
   -4.6529   -1.0905   -8.7028 N   0  3  0  0  0  0  0  0  0  0  0  0
   -3.2534   -2.8215   -7.5686 C   0  0  1  0  0  0  0  0  0  0  0  0
   -3.3979   -3.6743   -8.7023 O   0  0  0  0  0  0  0  0  0  0  0  0
   -1.8859   -3.1215   -6.8982 C   0  0  2  0  0  0  0  0  0  0  0  0
   -1.9532   -4.3992   -6.2748 O   0  0  0  0  0  0  0  0  0  0  0  0
   -1.5200   -2.0288   -5.8420 C   0  0  2  0  0  0  0  0  0  0  0  0
   -2.6590   -1.1328   -5.6289 O   0  0  0  0  0  0  0  0  0  0  0  0
   -0.3243   -1.1312   -6.2355 C   0  0  0  0  0  0  0  0  0  0  0  0
   -3.2183    4.0527   -4.7878 C   0  0  1  0  0  0  0  0  0  0  0  0
   -3.1225    5.2792   -3.9651 N   0  3  0  0  0  0  0  0  0  0  0  0
   -2.8213    2.7911   -3.9772 C   0  0  1  0  0  0  0  0  0  0  0  0
   -3.0470    1.4456   -4.7509 C   0  0  1  0  0  0  0  0  0  0  0  0
   -2.9550    0.3531   -3.7975 O   0  0  0  0  0  0  0  0  0  0  0  0
   -4.4564    1.3540   -5.4432 C   0  0  1  0  0  0  0  0  0  0  0  0
   -4.8140    2.6625   -6.2196 C   0  0  1  0  0  0  0  0  0  0  0  0
   -6.1946    2.6363   -6.7441 N   0  3  0  0  0  0  0  0  0  0  0  0
   -4.6554    3.9181   -5.3330 C   0  0  0  0  0  0  0  0  0  0  0  0
   -3.1629    0.6172   -2.3798 C   0  0  1  0  0  0  0  0  0  0  0  0
   -4.6613    0.6190   -2.1011 C   0  0  1  0  0  0  0  0  0  0  0  0
   -4.9183   -0.8795   -2.0179 C   0  0  1  0  0  0  0  0  0  0  0  0
   -3.6894   -1.3620   -1.2343 C   0  0  2  0  0  0  0  0  0  0  0  0
   -2.6190   -0.4567   -1.5950 O   0  0  0  0  0  0  0  0  0  0  0  0
   -3.2930   -2.8113   -1.5686 C   0  0  0  0  0  0  0  0  0  0  0  0
   -9.8801   -1.6730   -0.5116 C   0  0  1  0  0  0  0  0  0  0  0  0
   -9.1923   -0.3007   -0.7549 C   0  0  1  0  0  0  0  0  0  0  0  0
   -8.3456   -0.2369   -2.0589 C   0  0  2  0  0  0  0  0  0  0  0  0
   -7.3342   -1.4257   -2.1341 C   0  0  1  0  0  0  0  0  0  0  0  0
   -6.1592   -1.1715   -1.3131 O   0  0  0  0  0  0  0  0  0  0  0  0
   -9.4281   -2.7166   -1.5778 C   0  0  1  0  0  0  0  0  0  0  0  0
   -7.9683   -2.6920   -1.7004 O   0  0  0  0  0  0  0  0  0  0  0  0
   -9.8874   -4.1560   -1.2299 C   0  0  0  0  0  0  0  0  0  0  0  0
   -0.6808    0.0242   -7.0777 N   0  3  0  0  0  0  0  0  0  0  0  0
   -4.9198    1.2643   -0.8539 O   0  0  0  0  0  0  0  0  0  0  0  0
  -10.2037    0.7039   -0.8197 O   0  0  0  0  0  0  0  0  0  0  0  0
   -9.5334   -2.1261    0.7989 O   0  0  0  0  0  0  0  0  0  0  0  0
   -3.1207   -2.9786   -2.9654 O   0  0  0  0  0  0  0  0  0  0  0  0
   -1.4415    2.8876   -3.6250 O   0  0  0  0  0  0  0  0  0  0  0  0
   -8.9951   -4.8255   -0.2658 N   0  3  0  0  0  0  0  0  0  0  0  0
   -7.6869    1.0839   -2.2131 N   0  3  0  0  0  0  0  0  0  0  0  0
  1  2  1  1  0  0  0
  1  3  1  0  0  0  0
  1 10  1  0  0  0  0
  3  4  1  1  0  0  0
  3  5  1  0  0  0  0
  5  6  1  6  0  0  0
  5  7  1  0  0  0  0
  7  8  1  1  0  0  0
  7  9  1  0  0  0  0
  9 10  1  0  0  0  0
  9 11  1  6  0  0  0
 11 35  1  0  0  0  0
 12 13  1  1  0  0  0
 12 14  1  0  0  0  0
 12 20  1  0  0  0  0
 14 15  1  0  0  0  0
 14 40  1  6  0  0  0
 15 16  1  1  0  0  0
 15 17  1  0  0  0  0
 17  2  1  6  0  0  0
 17 18  1  0  0  0  0
 18 19  1  1  0  0  0
 18 20  1  0  0  0  0
 21 16  1  6  0  0  0
 21 22  1  0  0  0  0
 21 25  1  0  0  0  0
 22 23  1  0  0  0  0
 22 36  1  1  0  0  0
 23 24  1  0  0  0  0
 23 31  1  1  0  0  0
 24 25  1  0  0  0  0
 24 26  1  6  0  0  0
 26 39  1  0  0  0  0
 27 28  1  0  0  0  0
 27 32  1  0  0  0  0
 27 38  1  1  0  0  0
 28 29  1  0  0  0  0
 28 37  1  6  0  0  0
 29 30  1  0  0  0  0
 29 42  1  1  0  0  0
 30 31  1  1  0  0  0
 30 33  1  0  0  0  0
 32 33  1  0  0  0  0
 32 34  1  1  0  0  0
 34 41  1  0  0  0  0
M  CHG  6   4   1  13   1  19   1  35   1  41   1  42   1
M  END
>  <CHROM.1>
-168.30221849,-12.22483388,-163.91778497,69.52775385,-49.05932115,85.41611131
68.01830081,70.35038330,-51.09105089,21.49149215,83.02775339,56.90569840
67.38694064,97.75146415,53.77636815,60.57286799,-178.62683191,53.66835510
-176.66932704,-108.13962282,-82.13800686,128.30844600,-4.84356364,-0.45635208
-3.83586173,-0.07759840,-0.75491003,-2.95158467

>  <Name>


>  <RI>
0

>  <Rbt.Current_Directory>
/home/itssahil/PROJECTS/Mol_Feturizer/New_Systems/rnas/1ei2

>  <Rbt.Executable>
rbdock ($Id: //depot/dev/client3/rdock/2013.1/src/exe/rbdock.cxx#4 $)

>  <Rbt.Library>
libRbt.so (2013.1, Build901 2013/11/27)

>  <Rbt.Parameter_File>
/export/apps/rDock/src/rDock_2013.1_src/data/scripts/dock_solv.prm

>  <Rbt.Receptor>
prm/blind_docking_20.prm

>  <SCORE>
-2.96818

>  <SCORE.INTER>
-16.9009

>  <SCORE.INTER.CONST>
1

>  <SCORE.INTER.POLAR>
-3.78776

>  <SCORE.INTER.ROT>
9

>  <SCORE.INTER.SOLV>
36.3784

>  <SCORE.INTER.VDW>
-20.3675

>  <SCORE.INTER.norm>
-0.402401

>  <SCORE.INTRA>
4.34538

>  <SCORE.INTRA.DIHEDRAL>
-3.89135

>  <SCORE.INTRA.DIHEDRAL.0>
40.8761

>  <SCORE.INTRA.POLAR>
-0.448795

>  <SCORE.INTRA.POLAR.0>
-0.0268208

>  <SCORE.INTRA.REPUL>
0.118976

>  <SCORE.INTRA.REPUL.0>
0.641615

>  <SCORE.INTRA.SOLV>
-0.185253

>  <SCORE.INTRA.SOLV.lig_0>
-162.567

>  <SCORE.INTRA.VDW>
7.31471

>  <SCORE.INTRA.VDW.0>
-4.80338

>  <SCORE.INTRA.norm>
0.103461

>  <SCORE.RESTR>
9.58731

>  <SCORE.RESTR.CAVITY>
9.58731

>  <SCORE.RESTR.norm>
0.228269

>  <SCORE.SYSTEM>
0

>  <SCORE.SYSTEM.CONST>
0

>  <SCORE.SYSTEM.DIHEDRAL>
0

>  <SCORE.SYSTEM.SOLV>
0

>  <SCORE.SYSTEM.norm>
0

>  <SCORE.heavy>
42

>  <SCORE.norm>
-0.0706708

>  <RMSD>
9.265

$$$$

 OpenBabel11021811393D
libRbt.so/2013.1/901 2013/11/27
 42 45  0  0  0  0  0  0  0  0999 V2000
   -3.9872    1.1672   -5.1653 C   0  0  2  0  0  0  0  0  0  0  0  0
   -4.0034   -0.0482   -5.9754 O   0  0  0  0  0  0  0  0  0  0  0  0
   -4.4800    2.4078   -5.9788 C   0  0  2  0  0  0  0  0  0  0  0  0
   -5.1662    2.0053   -7.2279 N   0  3  0  0  0  0  0  0  0  0  0  0
   -3.2926    3.3674   -6.2921 C   0  0  1  0  0  0  0  0  0  0  0  0
   -3.7559    4.4995   -7.0250 O   0  0  0  0  0  0  0  0  0  0  0  0
   -2.6001    3.8695   -4.9968 C   0  0  2  0  0  0  0  0  0  0  0  0
   -1.3695    4.4922   -5.3485 O   0  0  0  0  0  0  0  0  0  0  0  0
   -2.3398    2.6935   -4.0003 C   0  0  2  0  0  0  0  0  0  0  0  0
   -2.6357    1.4121   -4.6451 O   0  0  0  0  0  0  0  0  0  0  0  0
   -3.1936    2.7433   -2.7124 C   0  0  0  0  0  0  0  0  0  0  0  0
   -1.9908   -3.8256   -6.5238 C   0  0  1  0  0  0  0  0  0  0  0  0
   -1.0988   -4.9934   -6.3478 N   0  3  0  0  0  0  0  0  0  0  0  0
   -3.0858   -3.7751   -5.4262 C   0  0  1  0  0  0  0  0  0  0  0  0
   -3.9679   -2.4791   -5.4723 C   0  0  1  0  0  0  0  0  0  0  0  0
   -4.7165   -2.3954   -4.2299 O   0  0  0  0  0  0  0  0  0  0  0  0
   -3.1263   -1.1573   -5.6092 C   0  0  1  0  0  0  0  0  0  0  0  0
   -2.0217   -1.2773   -6.7085 C   0  0  1  0  0  0  0  0  0  0  0  0
   -1.1365   -0.0952   -6.7364 N   0  3  0  0  0  0  0  0  0  0  0  0
   -1.1460   -2.5347   -6.5082 C   0  0  0  0  0  0  0  0  0  0  0  0
   -5.1129   -1.0908   -3.7165 C   0  0  1  0  0  0  0  0  0  0  0  0
   -6.4840   -1.2221   -3.0640 C   0  0  1  0  0  0  0  0  0  0  0  0
   -6.0822   -1.8030   -1.7151 C   0  0  1  0  0  0  0  0  0  0  0  0
   -4.8212   -0.9897   -1.3902 C   0  0  2  0  0  0  0  0  0  0  0  0
   -4.2175   -0.6820   -2.6695 O   0  0  0  0  0  0  0  0  0  0  0  0
   -3.8228   -1.7553   -0.5034 C   0  0  0  0  0  0  0  0  0  0  0  0
   -9.4833   -4.0969    1.0104 C   0  0  1  0  0  0  0  0  0  0  0  0
   -9.4251   -2.5704    1.2964 C   0  0  1  0  0  0  0  0  0  0  0  0
   -9.5038   -1.6818    0.0215 C   0  0  2  0  0  0  0  0  0  0  0  0
   -8.4468   -2.1241   -1.0410 C   0  0  1  0  0  0  0  0  0  0  0  0
   -7.1247   -1.6082   -0.7165 O   0  0  0  0  0  0  0  0  0  0  0  0
   -9.4594   -4.3750   -0.5234 C   0  0  1  0  0  0  0  0  0  0  0  0
   -8.3829   -3.6001   -1.1457 O   0  0  0  0  0  0  0  0  0  0  0  0
   -9.2619   -5.8777   -0.8501 C   0  0  0  0  0  0  0  0  0  0  0  0
   -2.9382    1.6406   -1.7690 N   0  3  0  0  0  0  0  0  0  0  0  0
   -7.0770    0.0689   -2.9222 O   0  0  0  0  0  0  0  0  0  0  0  0
  -10.5138   -2.2320    2.1546 O   0  0  0  0  0  0  0  0  0  0  0  0
   -8.3611   -4.7179    1.6411 O   0  0  0  0  0  0  0  0  0  0  0  0
   -2.8254   -2.3828   -1.2909 O   0  0  0  0  0  0  0  0  0  0  0  0
   -3.9375   -4.9108   -5.5754 O   0  0  0  0  0  0  0  0  0  0  0  0
   -9.9335   -6.2866   -2.0974 N   0  3  0  0  0  0  0  0  0  0  0  0
   -9.4055   -0.2400    0.3590 N   0  3  0  0  0  0  0  0  0  0  0  0
  1  2  1  6  0  0  0
  1  3  1  0  0  0  0
  1 10  1  0  0  0  0
  3  4  1  6  0  0  0
  3  5  1  0  0  0  0
  5  6  1  1  0  0  0
  5  7  1  0  0  0  0
  7  8  1  6  0  0  0
  7  9  1  0  0  0  0
  9 10  1  0  0  0  0
  9 11  1  1  0  0  0
 11 35  1  0  0  0  0
 12 13  1  1  0  0  0
 12 14  1  0  0  0  0
 12 20  1  0  0  0  0
 14 15  1  0  0  0  0
 14 40  1  6  0  0  0
 15 16  1  1  0  0  0
 15 17  1  0  0  0  0
 17  2  1  6  0  0  0
 17 18  1  0  0  0  0
 18 19  1  1  0  0  0
 18 20  1  0  0  0  0
 21 16  1  1  0  0  0
 21 22  1  0  0  0  0
 21 25  1  0  0  0  0
 22 23  1  0  0  0  0
 22 36  1  1  0  0  0
 23 24  1  0  0  0  0
 23 31  1  1  0  0  0
 24 25  1  0  0  0  0
 24 26  1  1  0  0  0
 26 39  1  0  0  0  0
 27 28  1  0  0  0  0
 27 32  1  0  0  0  0
 27 38  1  1  0  0  0
 28 29  1  0  0  0  0
 28 37  1  1  0  0  0
 29 30  1  0  0  0  0
 29 42  1  1  0  0  0
 30 31  1  1  0  0  0
 30 33  1  0  0  0  0
 32 33  1  0  0  0  0
 32 34  1  1  0  0  0
 34 41  1  0  0  0  0
M  CHG  6   4   1  13   1  19   1  35   1  41   1  42   1
M  END
>  <CHROM.1>
156.19445206,126.77250390,29.15671168,-45.46608926,63.79471757,-179.48185588
63.22337083,-172.42820979,62.18770174,151.83190415,144.05241092,-147.96837732
-58.67053599,55.77615284,95.76519885,-173.19087751,-105.66460644,65.21102460
-9.70547718,-172.37270623,148.52763019,69.76451771,-5.13412187,-1.10690476
-3.26582584,0.44531987,0.77373894,0.07457441

>  <Name>


>  <RI>
0

>  <Rbt.Current_Directory>
/home/itssahil/PROJECTS/Mol_Feturizer/New_Systems/rnas/1ei2

>  <Rbt.Executable>
rbdock ($Id: //depot/dev/client3/rdock/2013.1/src/exe/rbdock.cxx#4 $)

>  <Rbt.Library>
libRbt.so (2013.1, Build901 2013/11/27)

>  <Rbt.Parameter_File>
/export/apps/rDock/src/rDock_2013.1_src/data/scripts/dock_solv.prm

>  <Rbt.Receptor>
prm/blind_docking_100.prm

>  <SCORE>
61.6574

>  <SCORE.INTER>
66.2667

>  <SCORE.INTER.CONST>
1

>  <SCORE.INTER.POLAR>
-7.11145

>  <SCORE.INTER.ROT>
9

>  <SCORE.INTER.SOLV>
66.0015

>  <SCORE.INTER.VDW>
36.2821

>  <SCORE.INTER.norm>
1.57778

>  <SCORE.INTRA>
-11.5971

>  <SCORE.INTRA.DIHEDRAL>
-0.738837

>  <SCORE.INTRA.DIHEDRAL.0>
40.8761

>  <SCORE.INTRA.POLAR>
-2.26571

>  <SCORE.INTRA.POLAR.0>
-0.0268208

>  <SCORE.INTRA.REPUL>
-0.641615

>  <SCORE.INTRA.REPUL.0>
0.641615

>  <SCORE.INTRA.SOLV>
-6.4194

>  <SCORE.INTRA.SOLV.lig_0>
-162.567

>  <SCORE.INTRA.VDW>
2.89346

>  <SCORE.INTRA.VDW.0>
-4.80338

>  <SCORE.INTRA.norm>
-0.276122

>  <SCORE.RESTR>
6.9878

>  <SCORE.RESTR.CAVITY>
6.9878

>  <SCORE.RESTR.norm>
0.166376

>  <SCORE.SYSTEM>
0

>  <SCORE.SYSTEM.CONST>
0

>  <SCORE.SYSTEM.DIHEDRAL>
0

>  <SCORE.SYSTEM.SOLV>
0

>  <SCORE.SYSTEM.norm>
0

>  <SCORE.heavy>
42

>  <SCORE.norm>
1.46803

>  <RMSD>
9.268

$$$$

 OpenBabel11021811393D
libRbt.so/2013.1/901 2013/11/27
 42 45  0  0  0  0  0  0  0  0999 V2000
   -3.4893   -0.8171   -6.4046 C   0  0  2  0  0  0  0  0  0  0  0  0
   -4.6047    0.0932   -6.1580 O   0  0  0  0  0  0  0  0  0  0  0  0
   -3.0324   -0.7762   -7.8991 C   0  0  2  0  0  0  0  0  0  0  0  0
   -3.5831    0.4021   -8.6072 N   0  3  0  0  0  0  0  0  0  0  0  0
   -3.4328   -2.0916   -8.6329 C   0  0  1  0  0  0  0  0  0  0  0  0
   -3.0022   -2.0468   -9.9916 O   0  0  0  0  0  0  0  0  0  0  0  0
   -2.8060   -3.3414   -7.9589 C   0  0  2  0  0  0  0  0  0  0  0  0
   -3.4321   -4.5065   -8.4846 O   0  0  0  0  0  0  0  0  0  0  0  0
   -2.9787   -3.2950   -6.4060 C   0  0  2  0  0  0  0  0  0  0  0  0
   -3.8608   -2.1878   -6.0301 O   0  0  0  0  0  0  0  0  0  0  0  0
   -1.6628   -3.0929   -5.6200 C   0  0  0  0  0  0  0  0  0  0  0  0
   -2.8042    3.8792   -5.1361 C   0  0  1  0  0  0  0  0  0  0  0  0
   -2.4965    5.1695   -4.4797 N   0  3  0  0  0  0  0  0  0  0  0  0
   -2.4628    2.6773   -4.2168 C   0  0  1  0  0  0  0  0  0  0  0  0
   -2.9066    1.2901   -4.7988 C   0  0  1  0  0  0  0  0  0  0  0  0
   -2.8346    0.3065   -3.7320 O   0  0  0  0  0  0  0  0  0  0  0  0
   -4.3806    1.2878   -5.3478 C   0  0  1  0  0  0  0  0  0  0  0  0
   -4.6746    2.5352   -6.2424 C   0  0  1  0  0  0  0  0  0  0  0  0
   -6.0962    2.6126   -6.6360 N   0  3  0  0  0  0  0  0  0  0  0  0
   -4.2952    3.8540   -5.5320 C   0  0  0  0  0  0  0  0  0  0  0  0
   -3.2116    0.6872   -2.3771 C   0  0  1  0  0  0  0  0  0  0  0  0
   -4.7019    1.0058   -2.3594 C   0  0  1  0  0  0  0  0  0  0  0  0
   -5.2745   -0.4033   -2.2885 C   0  0  1  0  0  0  0  0  0  0  0  0
   -4.3172   -1.0776   -1.2953 C   0  0  2  0  0  0  0  0  0  0  0  0
   -3.0380   -0.4277   -1.4871 O   0  0  0  0  0  0  0  0  0  0  0  0
   -4.1812   -2.5935   -1.5248 C   0  0  0  0  0  0  0  0  0  0  0  0
   -9.9361   -1.8522   -0.4553 C   0  0  1  0  0  0  0  0  0  0  0  0
   -9.8224   -0.6983   -1.4902 C   0  0  1  0  0  0  0  0  0  0  0  0
   -8.8900   -1.0151   -2.6949 C   0  0  2  0  0  0  0  0  0  0  0  0
   -7.4905   -1.5131   -2.2099 C   0  0  1  0  0  0  0  0  0  0  0  0
   -6.6470   -0.3995   -1.8005 O   0  0  0  0  0  0  0  0  0  0  0  0
   -8.9562   -3.0121   -0.8082 C   0  0  1  0  0  0  0  0  0  0  0  0
   -7.6254   -2.4638   -1.0822 O   0  0  0  0  0  0  0  0  0  0  0  0
   -8.8515   -4.0648    0.3253 C   0  0  0  0  0  0  0  0  0  0  0  0
   -0.6624   -2.2599   -6.3104 N   0  3  0  0  0  0  0  0  0  0  0  0
   -5.0207    1.7597   -1.1895 O   0  0  0  0  0  0  0  0  0  0  0  0
  -11.1283   -0.4114   -1.9890 O   0  0  0  0  0  0  0  0  0  0  0  0
   -9.6338   -1.3288    0.8399 O   0  0  0  0  0  0  0  0  0  0  0  0
   -2.9167   -2.9089   -2.0817 O   0  0  0  0  0  0  0  0  0  0  0  0
   -1.0519    2.6504   -4.0021 O   0  0  0  0  0  0  0  0  0  0  0  0
   -9.1104   -5.4389   -0.1425 N   0  3  0  0  0  0  0  0  0  0  0  0
   -8.7952    0.1377   -3.6246 N   0  3  0  0  0  0  0  0  0  0  0  0
  1  2  1  6  0  0  0
  1  3  1  0  0  0  0
  1 10  1  0  0  0  0
  3  4  1  6  0  0  0
  3  5  1  0  0  0  0
  5  6  1  6  0  0  0
  5  7  1  0  0  0  0
  7  8  1  6  0  0  0
  7  9  1  0  0  0  0
  9 10  1  0  0  0  0
  9 11  1  1  0  0  0
 11 35  1  0  0  0  0
 12 13  1  1  0  0  0
 12 14  1  0  0  0  0
 12 20  1  0  0  0  0
 14 15  1  0  0  0  0
 14 40  1  6  0  0  0
 15 16  1  1  0  0  0
 15 17  1  0  0  0  0
 17  2  1  6  0  0  0
 17 18  1  0  0  0  0
 18 19  1  1  0  0  0
 18 20  1  0  0  0  0
 21 16  1  6  0  0  0
 21 22  1  0  0  0  0
 21 25  1  0  0  0  0
 22 23  1  0  0  0  0
 22 36  1  1  0  0  0
 23 24  1  0  0  0  0
 23 31  1  1  0  0  0
 24 25  1  0  0  0  0
 24 26  1  6  0  0  0
 26 39  1  0  0  0  0
 27 28  1  0  0  0  0
 27 32  1  0  0  0  0
 27 38  1  1  0  0  0
 28 29  1  0  0  0  0
 28 37  1  6  0  0  0
 29 30  1  0  0  0  0
 29 42  1  1  0  0  0
 30 31  1  1  0  0  0
 30 33  1  0  0  0  0
 32 33  1  0  0  0  0
 32 34  1  1  0  0  0
 34 41  1  0  0  0  0
M  CHG  6   4   1  13   1  19   1  35   1  41   1  42   1
M  END
>  <CHROM.1>
-110.53651752,-3.91549982,-30.51777803,-76.46165972,65.28094240,32.93624356
1.99505006,12.42252987,74.07140284,37.35413566,65.76579638,-169.28526151
81.73469178,154.13674236,107.62147388,91.45338683,-20.94788392,-43.68624077
178.64917199,-133.95000700,126.48554108,-165.62487575,-5.00593640,-0.56340386
-4.01806188,0.01300654,-0.81153943,-2.79842171

>  <Name>


>  <RI>
0

>  <Rbt.Current_Directory>
/home/itssahil/PROJECTS/Mol_Feturizer/New_Systems/rnas/1ei2

>  <Rbt.Executable>
rbdock ($Id: //depot/dev/client3/rdock/2013.1/src/exe/rbdock.cxx#4 $)

>  <Rbt.Library>
libRbt.so (2013.1, Build901 2013/11/27)

>  <Rbt.Parameter_File>
/export/apps/rDock/src/rDock_2013.1_src/data/scripts/dock_solv.prm

>  <Rbt.Receptor>
prm/blind_docking_80.prm

>  <SCORE>
8.07454

>  <SCORE.INTER>
-7.27042

>  <SCORE.INTER.CONST>
1

>  <SCORE.INTER.POLAR>
-8.41636

>  <SCORE.INTER.ROT>
9

>  <SCORE.INTER.SOLV>
49.9455

>  <SCORE.INTER.VDW>
-3.0409

>  <SCORE.INTER.norm>
-0.173105

>  <SCORE.INTRA>
6.87238

>  <SCORE.INTRA.DIHEDRAL>
21.2651

>  <SCORE.INTRA.DIHEDRAL.0>
40.8761

>  <SCORE.INTRA.POLAR>
-0.147884

>  <SCORE.INTRA.POLAR.0>
-0.0268208

>  <SCORE.INTRA.REPUL>
-0.641615

>  <SCORE.INTRA.REPUL.0>
0.641615

>  <SCORE.INTRA.SOLV>
-7.85179

>  <SCORE.INTRA.SOLV.lig_0>
-162.567

>  <SCORE.INTRA.VDW>
3.87659

>  <SCORE.INTRA.VDW.0>
-4.80338

>  <SCORE.INTRA.norm>
0.163628

>  <SCORE.RESTR>
8.47257

>  <SCORE.RESTR.CAVITY>
8.47257

>  <SCORE.RESTR.norm>
0.201728

>  <SCORE.SYSTEM>
0

>  <SCORE.SYSTEM.CONST>
0

>  <SCORE.SYSTEM.DIHEDRAL>
0

>  <SCORE.SYSTEM.SOLV>
0

>  <SCORE.SYSTEM.norm>
0

>  <SCORE.heavy>
42

>  <SCORE.norm>
0.192251

>  <RMSD>
9.269

$$$$

 OpenBabel11021811393D
libRbt.so/2013.1/901 2013/11/27
 42 45  0  0  0  0  0  0  0  0999 V2000
   -3.2828   -0.0892   -6.8920 C   0  0  2  0  0  0  0  0  0  0  0  0
   -2.4341    1.0187   -6.4607 O   0  0  0  0  0  0  0  0  0  0  0  0
   -2.8308   -1.4429   -6.2541 C   0  0  2  0  0  0  0  0  0  0  0  0
   -1.9038   -1.2300   -5.1190 N   0  3  0  0  0  0  0  0  0  0  0  0
   -2.1784   -2.3660   -7.3271 C   0  0  1  0  0  0  0  0  0  0  0  0
   -1.7796   -3.6009   -6.7359 O   0  0  0  0  0  0  0  0  0  0  0  0
   -3.1543   -2.6717   -8.4947 C   0  0  2  0  0  0  0  0  0  0  0  0
   -2.4201   -3.2630   -9.5610 O   0  0  0  0  0  0  0  0  0  0  0  0
   -3.8688   -1.3733   -8.9917 C   0  0  2  0  0  0  0  0  0  0  0  0
   -3.2724   -0.1957   -8.3568 O   0  0  0  0  0  0  0  0  0  0  0  0
   -5.3830   -1.3167   -8.6846 C   0  0  0  0  0  0  0  0  0  0  0  0
   -2.2209    4.1996   -3.5528 C   0  0  1  0  0  0  0  0  0  0  0  0
   -2.5805    5.2739   -2.6005 N   0  3  0  0  0  0  0  0  0  0  0  0
   -2.6500    2.8051   -3.0262 C   0  0  1  0  0  0  0  0  0  0  0  0
   -2.4305    1.6446   -4.0582 C   0  0  1  0  0  0  0  0  0  0  0  0
   -3.1555    0.4764   -3.5884 O   0  0  0  0  0  0  0  0  0  0  0  0
   -2.9609    1.9843   -5.4996 C   0  0  1  0  0  0  0  0  0  0  0  0
   -2.5220    3.4106   -5.9643 C   0  0  1  0  0  0  0  0  0  0  0  0
   -3.1407    3.7894   -7.2510 N   0  3  0  0  0  0  0  0  0  0  0  0
   -2.8780    4.4906   -4.9181 C   0  0  0  0  0  0  0  0  0  0  0  0
   -3.3205    0.2609   -2.1570 C   0  0  1  0  0  0  0  0  0  0  0  0
   -4.7698    0.5521   -1.7862 C   0  0  1  0  0  0  0  0  0  0  0  0
   -5.4221   -0.7552   -2.2150 C   0  0  1  0  0  0  0  0  0  0  0  0
   -4.3882   -1.7873   -1.7426 C   0  0  2  0  0  0  0  0  0  0  0  0
   -3.1051   -1.1242   -1.8405 O   0  0  0  0  0  0  0  0  0  0  0  0
   -4.3875   -3.0710   -2.5919 C   0  0  0  0  0  0  0  0  0  0  0  0
   -9.8812   -2.6923   -0.2817 C   0  0  1  0  0  0  0  0  0  0  0  0
   -9.8554   -1.3772   -1.1096 C   0  0  1  0  0  0  0  0  0  0  0  0
   -9.0023   -1.4608   -2.4082 C   0  0  2  0  0  0  0  0  0  0  0  0
   -7.5658   -1.9967   -2.1065 C   0  0  1  0  0  0  0  0  0  0  0  0
   -6.7132   -0.9467   -1.5683 O   0  0  0  0  0  0  0  0  0  0  0  0
   -8.9102   -3.7495   -0.8898 C   0  0  1  0  0  0  0  0  0  0  0  0
   -7.6095   -3.1279   -1.1514 O   0  0  0  0  0  0  0  0  0  0  0  0
   -8.7130   -4.9758    0.0381 C   0  0  0  0  0  0  0  0  0  0  0  0
   -6.1909   -2.3070   -9.4181 N   0  3  0  0  0  0  0  0  0  0  0  0
   -4.8768    0.7527   -0.3766 O   0  0  0  0  0  0  0  0  0  0  0  0
  -11.1963   -1.0446   -1.4669 O   0  0  0  0  0  0  0  0  0  0  0  0
   -9.4994   -2.3881    1.0616 O   0  0  0  0  0  0  0  0  0  0  0  0
   -3.2637   -3.8787   -2.2862 O   0  0  0  0  0  0  0  0  0  0  0  0
   -1.9039    2.5111   -1.8454 O   0  0  0  0  0  0  0  0  0  0  0  0
   -9.2942   -4.7798    1.3789 N   0  3  0  0  0  0  0  0  0  0  0  0
   -8.9882   -0.1651   -3.1316 N   0  3  0  0  0  0  0  0  0  0  0  0
  1  2  1  6  0  0  0
  1  3  1  0  0  0  0
  1 10  1  0  0  0  0
  3  4  1  1  0  0  0
  3  5  1  0  0  0  0
  5  6  1  1  0  0  0
  5  7  1  0  0  0  0
  7  8  1  6  0  0  0
  7  9  1  0  0  0  0
  9 10  1  0  0  0  0
  9 11  1  1  0  0  0
 11 35  1  0  0  0  0
 12 13  1  1  0  0  0
 12 14  1  0  0  0  0
 12 20  1  0  0  0  0
 14 15  1  0  0  0  0
 14 40  1  1  0  0  0
 15 16  1  1  0  0  0
 15 17  1  0  0  0  0
 17  2  1  6  0  0  0
 17 18  1  0  0  0  0
 18 19  1  6  0  0  0
 18 20  1  0  0  0  0
 21 16  1  6  0  0  0
 21 22  1  0  0  0  0
 21 25  1  0  0  0  0
 22 23  1  0  0  0  0
 22 36  1  1  0  0  0
 23 24  1  0  0  0  0
 23 31  1  1  0  0  0
 24 25  1  0  0  0  0
 24 26  1  6  0  0  0
 26 39  1  0  0  0  0
 27 28  1  0  0  0  0
 27 32  1  0  0  0  0
 27 38  1  1  0  0  0
 28 29  1  0  0  0  0
 28 37  1  6  0  0  0
 29 30  1  0  0  0  0
 29 42  1  1  0  0  0
 30 31  1  1  0  0  0
 30 33  1  0  0  0  0
 32 33  1  0  0  0  0
 32 34  1  1  0  0  0
 34 41  1  0  0  0  0
M  CHG  6   4   1  13   1  19   1  35   1  41   1  42   1
M  END
>  <CHROM.1>
-106.38765729,99.66637066,-177.25479963,-64.88430981,-178.87067829,-67.20179146
174.41931204,-62.55539108,-50.91153024,-31.20265307,107.10299457,53.46692834
66.92024078,166.90052181,168.95784595,-59.68987558,60.82843375,-68.82651630
-78.43052270,-128.75011531,-9.74356501,86.66175880,-4.91074741,-0.63341543
-3.82380959,0.25297315,-0.82458113,-2.31055763

>  <Name>


>  <RI>
0

>  <Rbt.Current_Directory>
/home/itssahil/PROJECTS/Mol_Feturizer/New_Systems/rnas/1ei2

>  <Rbt.Executable>
rbdock ($Id: //depot/dev/client3/rdock/2013.1/src/exe/rbdock.cxx#4 $)

>  <Rbt.Library>
libRbt.so (2013.1, Build901 2013/11/27)

>  <Rbt.Parameter_File>
/export/apps/rDock/src/rDock_2013.1_src/data/scripts/dock_solv.prm

>  <Rbt.Receptor>
prm/blind_docking_40.prm

>  <SCORE>
27.1854

>  <SCORE.INTER>
27.6399

>  <SCORE.INTER.CONST>
1

>  <SCORE.INTER.POLAR>
-3.44303

>  <SCORE.INTER.ROT>
9

>  <SCORE.INTER.SOLV>
49.116

>  <SCORE.INTER.VDW>
3.93137

>  <SCORE.INTER.norm>
0.658093

>  <SCORE.INTRA>
-9.24144

>  <SCORE.INTRA.DIHEDRAL>
-2.03276

>  <SCORE.INTRA.DIHEDRAL.0>
40.8761

>  <SCORE.INTRA.POLAR>
-1.73617

>  <SCORE.INTRA.POLAR.0>
-0.0268208

>  <SCORE.INTRA.REPUL>
-0.641615

>  <SCORE.INTRA.REPUL.0>
0.641615

>  <SCORE.INTRA.SOLV>
-4.59868

>  <SCORE.INTRA.SOLV.lig_0>
-162.567

>  <SCORE.INTRA.VDW>
3.18534

>  <SCORE.INTRA.VDW.0>
-4.80338

>  <SCORE.INTRA.norm>
-0.220034

>  <SCORE.RESTR>
8.78691

>  <SCORE.RESTR.CAVITY>
8.78691

>  <SCORE.RESTR.norm>
0.209212

>  <SCORE.SYSTEM>
0

>  <SCORE.SYSTEM.CONST>
0

>  <SCORE.SYSTEM.DIHEDRAL>
0

>  <SCORE.SYSTEM.SOLV>
0

>  <SCORE.SYSTEM.norm>
0

>  <SCORE.heavy>
42

>  <SCORE.norm>
0.647271

>  <RMSD>
9.277

$$$$

 OpenBabel11021811393D
libRbt.so/2013.1/901 2013/11/27
 42 45  0  0  0  0  0  0  0  0999 V2000
   -3.1350   -0.7370   -6.7038 C   0  0  2  0  0  0  0  0  0  0  0  0
   -4.0912    0.3570   -6.5542 O   0  0  0  0  0  0  0  0  0  0  0  0
   -2.5989   -0.8368   -8.1689 C   0  0  2  0  0  0  0  0  0  0  0  0
   -2.9030    0.3860   -8.9470 N   0  3  0  0  0  0  0  0  0  0  0  0
   -3.1772   -2.0964   -8.8818 C   0  0  1  0  0  0  0  0  0  0  0  0
   -2.6735   -2.1822  -10.2131 O   0  0  0  0  0  0  0  0  0  0  0  0
   -2.8085   -3.4038   -8.1308 C   0  0  2  0  0  0  0  0  0  0  0  0
   -3.5944   -4.4687   -8.6544 O   0  0  0  0  0  0  0  0  0  0  0  0
   -3.0532   -3.2633   -6.5933 C   0  0  2  0  0  0  0  0  0  0  0  0
   -3.7533   -2.0089   -6.3073 O   0  0  0  0  0  0  0  0  0  0  0  0
   -1.7658   -3.2514   -5.7373 C   0  0  0  0  0  0  0  0  0  0  0  0
   -2.8911    3.6585   -4.0482 C   0  0  1  0  0  0  0  0  0  0  0  0
   -2.7895    4.6248   -2.9318 N   0  3  0  0  0  0  0  0  0  0  0  0
   -2.3892    2.2514   -3.6305 C   0  0  1  0  0  0  0  0  0  0  0  0
   -2.6121    1.1501   -4.7247 C   0  0  1  0  0  0  0  0  0  0  0  0
   -2.4115   -0.1498   -4.1076 O   0  0  0  0  0  0  0  0  0  0  0  0
   -4.0604    1.1657   -5.3382 C   0  0  1  0  0  0  0  0  0  0  0  0
   -4.5226    2.6111   -5.7125 C   0  0  1  0  0  0  0  0  0  0  0  0
   -5.9335    2.6466   -6.1486 N   0  3  0  0  0  0  0  0  0  0  0  0
   -4.3553    3.5920   -4.5303 C   0  0  0  0  0  0  0  0  0  0  0  0
   -2.4997   -0.2788   -2.6590 C   0  0  1  0  0  0  0  0  0  0  0  0
   -3.8520    0.2583   -2.2055 C   0  0  1  0  0  0  0  0  0  0  0  0
   -4.7344   -0.9418   -2.5211 C   0  0  1  0  0  0  0  0  0  0  0  0
   -3.8451   -2.1085   -2.0681 C   0  0  2  0  0  0  0  0  0  0  0  0
   -2.4840   -1.6668   -2.2874 O   0  0  0  0  0  0  0  0  0  0  0  0
   -4.1128   -3.4079   -2.8485 C   0  0  0  0  0  0  0  0  0  0  0  0
   -9.6575   -1.3093   -0.7329 C   0  0  1  0  0  0  0  0  0  0  0  0
   -9.0953   -0.1401   -1.5886 C   0  0  1  0  0  0  0  0  0  0  0  0
   -8.2384   -0.5974   -2.8042 C   0  0  2  0  0  0  0  0  0  0  0  0
   -7.1209   -1.5966   -2.3631 C   0  0  1  0  0  0  0  0  0  0  0  0
   -5.9869   -0.8953   -1.7787 O   0  0  0  0  0  0  0  0  0  0  0  0
   -9.0952   -2.6773   -1.2255 C   0  0  1  0  0  0  0  0  0  0  0  0
   -7.6422   -2.5809   -1.3869 O   0  0  0  0  0  0  0  0  0  0  0  0
   -9.4253   -3.8385   -0.2527 C   0  0  0  0  0  0  0  0  0  0  0  0
   -1.4966   -4.5125   -5.0242 N   0  3  0  0  0  0  0  0  0  0  0  0
   -3.8187    0.5293   -0.8040 O   0  0  0  0  0  0  0  0  0  0  0  0
  -10.1939    0.6323   -2.0715 O   0  0  0  0  0  0  0  0  0  0  0  0
   -9.2906   -1.0883    0.6307 O   0  0  0  0  0  0  0  0  0  0  0  0
   -4.9700   -3.1677   -3.9514 O   0  0  0  0  0  0  0  0  0  0  0  0
   -0.9937    2.3295   -3.3411 O   0  0  0  0  0  0  0  0  0  0  0  0
   -9.6151   -5.1279   -0.9422 N   0  3  0  0  0  0  0  0  0  0  0  0
   -7.7018    0.5638   -3.5565 N   0  3  0  0  0  0  0  0  0  0  0  0
  1  2  1  6  0  0  0
  1  3  1  0  0  0  0
  1 10  1  0  0  0  0
  3  4  1  6  0  0  0
  3  5  1  0  0  0  0
  5  6  1  6  0  0  0
  5  7  1  0  0  0  0
  7  8  1  6  0  0  0
  7  9  1  0  0  0  0
  9 10  1  0  0  0  0
  9 11  1  1  0  0  0
 11 35  1  0  0  0  0
 12 13  1  1  0  0  0
 12 14  1  0  0  0  0
 12 20  1  0  0  0  0
 14 15  1  0  0  0  0
 14 40  1  6  0  0  0
 15 16  1  1  0  0  0
 15 17  1  0  0  0  0
 17  2  1  6  0  0  0
 17 18  1  0  0  0  0
 18 19  1  1  0  0  0
 18 20  1  0  0  0  0
 21 16  1  6  0  0  0
 21 22  1  0  0  0  0
 21 25  1  0  0  0  0
 22 23  1  0  0  0  0
 22 36  1  1  0  0  0
 23 24  1  0  0  0  0
 23 31  1  1  0  0  0
 24 25  1  0  0  0  0
 24 26  1  6  0  0  0
 26 39  1  0  0  0  0
 27 28  1  0  0  0  0
 27 32  1  0  0  0  0
 27 38  1  1  0  0  0
 28 29  1  0  0  0  0
 28 37  1  6  0  0  0
 29 30  1  0  0  0  0
 29 42  1  1  0  0  0
 30 31  1  1  0  0  0
 30 33  1  0  0  0  0
 32 33  1  0  0  0  0
 32 34  1  1  0  0  0
 34 41  1  0  0  0  0
M  CHG  6   4   1  13   1  19   1  35   1  41   1  42   1
M  END
>  <CHROM.1>
-140.76720044,26.66295498,-158.80115532,-66.34868399,169.91084856,-103.88742552
11.56095119,-83.18775933,-175.74013995,19.94646558,55.38541616,178.55018137
70.88105019,154.38447530,9.42841127,60.12537383,47.92145798,175.85739576
170.45574737,-113.23768002,147.76106905,-34.16488366,-4.80635444,-0.75923282
-4.09598296,0.18813054,-0.77547741,-2.72759396

>  <Name>


>  <RI>
0

>  <Rbt.Current_Directory>
/home/itssahil/PROJECTS/Mol_Feturizer/New_Systems/rnas/1ei2

>  <Rbt.Executable>
rbdock ($Id: //depot/dev/client3/rdock/2013.1/src/exe/rbdock.cxx#4 $)

>  <Rbt.Library>
libRbt.so (2013.1, Build901 2013/11/27)

>  <Rbt.Parameter_File>
/export/apps/rDock/src/rDock_2013.1_src/data/scripts/dock_solv.prm

>  <Rbt.Receptor>
prm/blind_docking_100.prm

>  <SCORE>
-15.16

>  <SCORE.INTER>
-18.6896

>  <SCORE.INTER.CONST>
1

>  <SCORE.INTER.POLAR>
-5.3051

>  <SCORE.INTER.ROT>
9

>  <SCORE.INTER.SOLV>
41.6887

>  <SCORE.INTER.VDW>
-18.2723

>  <SCORE.INTER.norm>
-0.44499

>  <SCORE.INTRA>
-4.84078

>  <SCORE.INTRA.DIHEDRAL>
5.9792

>  <SCORE.INTRA.DIHEDRAL.0>
40.8761

>  <SCORE.INTRA.POLAR>
-1.15733

>  <SCORE.INTRA.POLAR.0>
-0.0268208

>  <SCORE.INTRA.REPUL>
-0.641615

>  <SCORE.INTRA.REPUL.0>
0.641615

>  <SCORE.INTRA.SOLV>
-7.14257

>  <SCORE.INTRA.SOLV.lig_0>
-162.567

>  <SCORE.INTRA.VDW>
2.88391

>  <SCORE.INTRA.VDW.0>
-4.80338

>  <SCORE.INTRA.norm>
-0.115257

>  <SCORE.RESTR>
8.37034

>  <SCORE.RESTR.CAVITY>
8.37034

>  <SCORE.RESTR.norm>
0.199294

>  <SCORE.SYSTEM>
0

>  <SCORE.SYSTEM.CONST>
0

>  <SCORE.SYSTEM.DIHEDRAL>
0

>  <SCORE.SYSTEM.SOLV>
0

>  <SCORE.SYSTEM.norm>
0

>  <SCORE.heavy>
42

>  <SCORE.norm>
-0.360953

>  <RMSD>
9.279

$$$$

 OpenBabel11021811393D
libRbt.so/2013.1/901 2013/11/27
 42 45  0  0  0  0  0  0  0  0999 V2000
   -3.1279   -0.7800   -7.0641 C   0  0  2  0  0  0  0  0  0  0  0  0
   -2.3618    0.3257   -6.4948 O   0  0  0  0  0  0  0  0  0  0  0  0
   -3.1220   -2.0289   -6.1238 C   0  0  2  0  0  0  0  0  0  0  0  0
   -2.6590   -1.6843   -4.7600 N   0  3  0  0  0  0  0  0  0  0  0  0
   -2.2459   -3.1678   -6.7272 C   0  0  1  0  0  0  0  0  0  0  0  0
   -2.2565   -4.3045   -5.8662 O   0  0  0  0  0  0  0  0  0  0  0  0
   -2.7541   -3.6059   -8.1269 C   0  0  2  0  0  0  0  0  0  0  0  0
   -1.7622   -4.4234   -8.7380 O   0  0  0  0  0  0  0  0  0  0  0  0
   -3.0607   -2.3687   -9.0319 C   0  0  2  0  0  0  0  0  0  0  0  0
   -2.5928   -1.1418   -8.3832 O   0  0  0  0  0  0  0  0  0  0  0  0
   -4.5605   -2.1561   -9.3412 C   0  0  0  0  0  0  0  0  0  0  0  0
   -2.8790    4.1008   -4.4697 C   0  0  1  0  0  0  0  0  0  0  0  0
   -3.4528    5.2301   -3.7043 N   0  3  0  0  0  0  0  0  0  0  0  0
   -2.6653    2.8545   -3.5713 C   0  0  1  0  0  0  0  0  0  0  0  0
   -2.2004    1.5800   -4.3583 C   0  0  1  0  0  0  0  0  0  0  0  0
   -2.3506    0.4280   -3.4858 O   0  0  0  0  0  0  0  0  0  0  0  0
   -3.0463    1.3061   -5.6558 C   0  0  1  0  0  0  0  0  0  0  0  0
   -3.2529    2.6019   -6.5050 C   0  0  1  0  0  0  0  0  0  0  0  0
   -4.1690    2.3795   -7.6422 N   0  3  0  0  0  0  0  0  0  0  0  0
   -3.8102    3.7643   -5.6530 C   0  0  0  0  0  0  0  0  0  0  0  0
   -2.6262    0.6305   -2.0695 C   0  0  1  0  0  0  0  0  0  0  0  0
   -4.1175    0.8941   -1.8982 C   0  0  1  0  0  0  0  0  0  0  0  0
   -4.6483   -0.5319   -1.9562 C   0  0  1  0  0  0  0  0  0  0  0  0
   -3.5981   -1.2876   -1.1296 C   0  0  2  0  0  0  0  0  0  0  0  0
   -2.3545   -0.5766   -1.3386 O   0  0  0  0  0  0  0  0  0  0  0  0
   -3.4444   -2.7596   -1.5524 C   0  0  0  0  0  0  0  0  0  0  0  0
   -9.7026   -1.3803   -0.8214 C   0  0  1  0  0  0  0  0  0  0  0  0
   -9.1380   -0.1800   -1.6314 C   0  0  1  0  0  0  0  0  0  0  0  0
   -8.0805   -0.5771   -2.7015 C   0  0  2  0  0  0  0  0  0  0  0  0
   -6.9472   -1.4533   -2.0773 C   0  0  1  0  0  0  0  0  0  0  0  0
   -5.9767   -0.6330   -1.3670 O   0  0  0  0  0  0  0  0  0  0  0  0
   -8.9515   -2.6970   -1.1851 C   0  0  1  0  0  0  0  0  0  0  0  0
   -7.5056   -2.4631   -1.1487 O   0  0  0  0  0  0  0  0  0  0  0  0
   -9.3044   -3.8643   -0.2276 C   0  0  0  0  0  0  0  0  0  0  0  0
   -5.2509   -3.3501   -9.8598 N   0  3  0  0  0  0  0  0  0  0  0  0
   -4.3592    1.4911   -0.6239 O   0  0  0  0  0  0  0  0  0  0  0  0
  -10.2256    0.4715   -2.2866 O   0  0  0  0  0  0  0  0  0  0  0  0
   -9.5523   -1.0961    0.5713 O   0  0  0  0  0  0  0  0  0  0  0  0
   -4.5809   -3.1988   -2.2764 O   0  0  0  0  0  0  0  0  0  0  0  0
   -1.6817    3.1637   -2.5842 O   0  0  0  0  0  0  0  0  0  0  0  0
   -9.6092   -5.1186   -0.9403 N   0  3  0  0  0  0  0  0  0  0  0  0
   -7.5549    0.6148   -3.4123 N   0  3  0  0  0  0  0  0  0  0  0  0
  1  2  1  1  0  0  0
  1  3  1  0  0  0  0
  1 10  1  0  0  0  0
  3  4  1  1  0  0  0
  3  5  1  0  0  0  0
  5  6  1  1  0  0  0
  5  7  1  0  0  0  0
  7  8  1  6  0  0  0
  7  9  1  0  0  0  0
  9 10  1  0  0  0  0
  9 11  1  1  0  0  0
 11 35  1  0  0  0  0
 12 13  1  1  0  0  0
 12 14  1  0  0  0  0
 12 20  1  0  0  0  0
 14 15  1  0  0  0  0
 14 40  1  1  0  0  0
 15 16  1  1  0  0  0
 15 17  1  0  0  0  0
 17  2  1  6  0  0  0
 17 18  1  0  0  0  0
 18 19  1  6  0  0  0
 18 20  1  0  0  0  0
 21 16  1  6  0  0  0
 21 22  1  0  0  0  0
 21 25  1  0  0  0  0
 22 23  1  0  0  0  0
 22 36  1  1  0  0  0
 23 24  1  0  0  0  0
 23 31  1  1  0  0  0
 24 25  1  0  0  0  0
 24 26  1  6  0  0  0
 26 39  1  0  0  0  0
 27 28  1  0  0  0  0
 27 32  1  0  0  0  0
 27 38  1  1  0  0  0
 28 29  1  0  0  0  0
 28 37  1  6  0  0  0
 29 30  1  0  0  0  0
 29 42  1  1  0  0  0
 30 31  1  1  0  0  0
 30 33  1  0  0  0  0
 32 33  1  0  0  0  0
 32 34  1  1  0  0  0
 34 41  1  0  0  0  0
M  CHG  6   4   1  13   1  19   1  35   1  41   1  42   1
M  END
>  <CHROM.1>
-90.94883020,133.96122879,-173.12259469,65.58595562,71.21779988,-51.36727258
-98.16096830,-162.33558379,-65.47327730,-11.16751527,81.24575363,67.39372426
-162.22247922,137.60108473,-19.50605634,81.51148178,175.28773776,172.30038043
56.06173216,-110.97211615,133.22387901,-32.40562771,-4.72453369,-0.61635383
-4.00035017,0.35032314,-0.79135243,-2.51998119

>  <Name>


>  <RI>
0

>  <Rbt.Current_Directory>
/home/itssahil/PROJECTS/Mol_Feturizer/New_Systems/rnas/1ei2

>  <Rbt.Executable>
rbdock ($Id: //depot/dev/client3/rdock/2013.1/src/exe/rbdock.cxx#4 $)

>  <Rbt.Library>
libRbt.so (2013.1, Build901 2013/11/27)

>  <Rbt.Parameter_File>
/export/apps/rDock/src/rDock_2013.1_src/data/scripts/dock_solv.prm

>  <Rbt.Receptor>
prm/blind_docking_60.prm

>  <SCORE>
-5.23584

>  <SCORE.INTER>
-17.5243

>  <SCORE.INTER.CONST>
1

>  <SCORE.INTER.POLAR>
-3.57564

>  <SCORE.INTER.ROT>
9

>  <SCORE.INTER.SOLV>
37.1232

>  <SCORE.INTER.VDW>
-21.7385

>  <SCORE.INTER.norm>
-0.417246

>  <SCORE.INTRA>
0.944964

>  <SCORE.INTRA.DIHEDRAL>
9.78788

>  <SCORE.INTRA.DIHEDRAL.0>
40.8761

>  <SCORE.INTRA.POLAR>
-0.259378

>  <SCORE.INTRA.POLAR.0>
-0.0268208

>  <SCORE.INTRA.REPUL>
-0.641615

>  <SCORE.INTRA.REPUL.0>
0.641615

>  <SCORE.INTRA.SOLV>
-3.24062

>  <SCORE.INTRA.SOLV.lig_0>
-162.567

>  <SCORE.INTRA.VDW>
1.76129

>  <SCORE.INTRA.VDW.0>
-4.80338

>  <SCORE.INTRA.norm>
0.0224992

>  <SCORE.RESTR>
11.3435

>  <SCORE.RESTR.CAVITY>
11.3435

>  <SCORE.RESTR.norm>
0.270084

>  <SCORE.SYSTEM>
0

>  <SCORE.SYSTEM.CONST>
0

>  <SCORE.SYSTEM.DIHEDRAL>
0

>  <SCORE.SYSTEM.SOLV>
0

>  <SCORE.SYSTEM.norm>
0

>  <SCORE.heavy>
42

>  <SCORE.norm>
-0.124663

>  <RMSD>
9.279

$$$$

 OpenBabel11021811393D
libRbt.so/2013.1/901 2013/11/27
 42 45  0  0  0  0  0  0  0  0999 V2000
   -3.3462   -1.4209   -5.8930 C   0  0  2  0  0  0  0  0  0  0  0  0
   -4.1898   -0.2984   -6.2953 O   0  0  0  0  0  0  0  0  0  0  0  0
   -2.4198   -1.8925   -7.0606 C   0  0  2  0  0  0  0  0  0  0  0  0
   -2.3602   -0.8909   -8.1499 N   0  3  0  0  0  0  0  0  0  0  0  0
   -2.8888   -3.2726   -7.6120 C   0  0  1  0  0  0  0  0  0  0  0  0
   -2.0308   -3.6968   -8.6690 O   0  0  0  0  0  0  0  0  0  0  0  0
   -2.8876   -4.3646   -6.5089 C   0  0  2  0  0  0  0  0  0  0  0  0
   -3.5897   -5.5041   -6.9930 O   0  0  0  0  0  0  0  0  0  0  0  0
   -3.5537   -3.8436   -5.1942 C   0  0  2  0  0  0  0  0  0  0  0  0
   -4.1773   -2.5391   -5.4282 O   0  0  0  0  0  0  0  0  0  0  0  0
   -2.5768   -3.6562   -4.0108 C   0  0  0  0  0  0  0  0  0  0  0  0
   -2.8604    3.6581   -5.2008 C   0  0  1  0  0  0  0  0  0  0  0  0
   -2.7444    4.9847   -4.5549 N   0  3  0  0  0  0  0  0  0  0  0  0
   -2.5171    2.5123   -4.2132 C   0  0  1  0  0  0  0  0  0  0  0  0
   -2.7674    1.0782   -4.7970 C   0  0  1  0  0  0  0  0  0  0  0  0
   -2.7267    0.1278   -3.6988 O   0  0  0  0  0  0  0  0  0  0  0  0
   -4.1651    0.9283   -5.5028 C   0  0  1  0  0  0  0  0  0  0  0  0
   -4.4683    2.1244   -6.4622 C   0  0  1  0  0  0  0  0  0  0  0  0
   -5.8385    2.0619   -7.0104 N   0  3  0  0  0  0  0  0  0  0  0  0
   -4.2899    3.4870   -5.7557 C   0  0  0  0  0  0  0  0  0  0  0  0
   -2.9976    0.5852   -2.3423 C   0  0  1  0  0  0  0  0  0  0  0  0
   -4.4973    0.8160   -2.1983 C   0  0  1  0  0  0  0  0  0  0  0  0
   -4.9665   -0.6152   -1.9749 C   0  0  1  0  0  0  0  0  0  0  0  0
   -3.8771   -1.1562   -1.0381 C   0  0  2  0  0  0  0  0  0  0  0  0
   -2.6673   -0.4482   -1.4000 O   0  0  0  0  0  0  0  0  0  0  0  0
   -3.6640   -2.6744   -1.1760 C   0  0  0  0  0  0  0  0  0  0  0  0
   -9.9413   -1.5216   -0.5722 C   0  0  1  0  0  0  0  0  0  0  0  0
   -9.4415   -0.1591   -1.1281 C   0  0  1  0  0  0  0  0  0  0  0  0
   -8.5243   -0.2814   -2.3791 C   0  0  2  0  0  0  0  0  0  0  0  0
   -7.3506   -1.2808   -2.1230 C   0  0  1  0  0  0  0  0  0  0  0  0
   -6.2838   -0.6559   -1.3544 O   0  0  0  0  0  0  0  0  0  0  0  0
   -9.2719   -2.7086   -1.3293 C   0  0  1  0  0  0  0  0  0  0  0  0
   -7.8256   -2.4875   -1.4075 O   0  0  0  0  0  0  0  0  0  0  0  0
   -9.5437   -4.0746   -0.6481 C   0  0  0  0  0  0  0  0  0  0  0  0
   -1.5456   -4.7030   -3.9001 N   0  3  0  0  0  0  0  0  0  0  0  0
   -4.7526    1.6347   -1.0568 O   0  0  0  0  0  0  0  0  0  0  0  0
  -10.5792    0.6300   -1.4738 O   0  0  0  0  0  0  0  0  0  0  0  0
   -9.6251   -1.5847    0.8203 O   0  0  0  0  0  0  0  0  0  0  0  0
   -2.4305   -3.0661   -0.5983 O   0  0  0  0  0  0  0  0  0  0  0  0
   -1.1421    2.6202   -3.8454 O   0  0  0  0  0  0  0  0  0  0  0  0
   -8.3319   -4.6727   -0.0584 N   0  3  0  0  0  0  0  0  0  0  0  0
   -8.0520    1.0488   -2.8369 N   0  3  0  0  0  0  0  0  0  0  0  0
  1  2  1  6  0  0  0
  1  3  1  0  0  0  0
  1 10  1  0  0  0  0
  3  4  1  6  0  0  0
  3  5  1  0  0  0  0
  5  6  1  6  0  0  0
  5  7  1  0  0  0  0
  7  8  1  6  0  0  0
  7  9  1  0  0  0  0
  9 10  1  0  0  0  0
  9 11  1  1  0  0  0
 11 35  1  0  0  0  0
 12 13  1  1  0  0  0
 12 14  1  0  0  0  0
 12 20  1  0  0  0  0
 14 15  1  0  0  0  0
 14 40  1  6  0  0  0
 15 16  1  1  0  0  0
 15 17  1  0  0  0  0
 17  2  1  6  0  0  0
 17 18  1  0  0  0  0
 18 19  1  1  0  0  0
 18 20  1  0  0  0  0
 21 16  1  6  0  0  0
 21 22  1  0  0  0  0
 21 25  1  0  0  0  0
 22 23  1  0  0  0  0
 22 36  1  1  0  0  0
 23 24  1  0  0  0  0
 23 31  1  1  0  0  0
 24 25  1  0  0  0  0
 24 26  1  6  0  0  0
 26 39  1  0  0  0  0
 27 28  1  0  0  0  0
 27 32  1  0  0  0  0
 27 38  1  1  0  0  0
 28 29  1  0  0  0  0
 28 37  1  6  0  0  0
 29 30  1  0  0  0  0
 29 42  1  1  0  0  0
 30 31  1  1  0  0  0
 30 33  1  0  0  0  0
 32 33  1  0  0  0  0
 32 34  1  1  0  0  0
 34 41  1  0  0  0  0
M  CHG  6   4   1  13   1  19   1  35   1  41   1  42   1
M  END
>  <CHROM.1>
-125.30036701,27.67948908,40.49376244,-49.73317598,-176.54822870,-39.04227125
-53.99163747,-103.78633816,-59.58157588,23.49088457,75.08606442,51.65963268
177.15932997,117.73466767,163.44968716,-136.86939842,178.92440497,65.23861615
152.73027855,-120.98321901,-111.99590706,123.25340325,-4.84460732,-0.85034593
-3.63544813,-0.11469875,-0.73708412,-3.12177109

>  <Name>


>  <RI>
0

>  <Rbt.Current_Directory>
/home/itssahil/PROJECTS/Mol_Feturizer/New_Systems/rnas/1ei2

>  <Rbt.Executable>
rbdock ($Id: //depot/dev/client3/rdock/2013.1/src/exe/rbdock.cxx#4 $)

>  <Rbt.Library>
libRbt.so (2013.1, Build901 2013/11/27)

>  <Rbt.Parameter_File>
/export/apps/rDock/src/rDock_2013.1_src/data/scripts/dock_solv.prm

>  <Rbt.Receptor>
prm/blind_docking_20.prm

>  <SCORE>
5.23589

>  <SCORE.INTER>
-4.23022

>  <SCORE.INTER.CONST>
1

>  <SCORE.INTER.POLAR>
-6.31313

>  <SCORE.INTER.ROT>
9

>  <SCORE.INTER.SOLV>
50.9601

>  <SCORE.INTER.VDW>
-8.36308

>  <SCORE.INTER.norm>
-0.10072

>  <SCORE.INTRA>
1.14951

>  <SCORE.INTRA.DIHEDRAL>
13.7898

>  <SCORE.INTRA.DIHEDRAL.0>
40.8761

>  <SCORE.INTRA.POLAR>
-0.336956

>  <SCORE.INTRA.POLAR.0>
-0.0268208

>  <SCORE.INTRA.REPUL>
-0.641615

>  <SCORE.INTRA.REPUL.0>
0.641615

>  <SCORE.INTRA.SOLV>
-7.53216

>  <SCORE.INTRA.SOLV.lig_0>
-162.567

>  <SCORE.INTRA.VDW>
2.3744

>  <SCORE.INTRA.VDW.0>
-4.80338

>  <SCORE.INTRA.norm>
0.0273693

>  <SCORE.RESTR>
8.3166

>  <SCORE.RESTR.CAVITY>
8.3166

>  <SCORE.RESTR.norm>
0.198014

>  <SCORE.SYSTEM>
0

>  <SCORE.SYSTEM.CONST>
0

>  <SCORE.SYSTEM.DIHEDRAL>
0

>  <SCORE.SYSTEM.SOLV>
0

>  <SCORE.SYSTEM.norm>
0

>  <SCORE.heavy>
42

>  <SCORE.norm>
0.124664

>  <RMSD>
9.282

$$$$

 OpenBabel11021811393D
libRbt.so/2013.1/901 2013/11/27
 42 45  0  0  0  0  0  0  0  0999 V2000
   -3.4749   -0.9049   -6.4503 C   0  0  2  0  0  0  0  0  0  0  0  0
   -4.5270    0.0837   -6.2278 O   0  0  0  0  0  0  0  0  0  0  0  0
   -2.9200   -0.8365   -7.9102 C   0  0  2  0  0  0  0  0  0  0  0  0
   -3.3267    0.4139   -8.5917 N   0  3  0  0  0  0  0  0  0  0  0  0
   -3.3766   -2.0800   -8.7313 C   0  0  1  0  0  0  0  0  0  0  0  0
   -2.8563   -2.0114  -10.0572 O   0  0  0  0  0  0  0  0  0  0  0  0
   -2.8978   -3.4064   -8.0826 C   0  0  2  0  0  0  0  0  0  0  0  0
   -3.5803   -4.4907   -8.7026 O   0  0  0  0  0  0  0  0  0  0  0  0
   -3.1668   -3.4144   -6.5428 C   0  0  2  0  0  0  0  0  0  0  0  0
   -3.9793   -2.2550   -6.1674 O   0  0  0  0  0  0  0  0  0  0  0  0
   -1.8928   -3.3579   -5.6688 C   0  0  0  0  0  0  0  0  0  0  0  0
   -2.7061    3.8443   -5.1499 C   0  0  1  0  0  0  0  0  0  0  0  0
   -2.3620    5.1014   -4.4487 N   0  3  0  0  0  0  0  0  0  0  0  0
   -2.2616    2.5996   -4.3379 C   0  0  1  0  0  0  0  0  0  0  0  0
   -2.7327    1.2385   -4.9587 C   0  0  1  0  0  0  0  0  0  0  0  0
   -2.5467    0.1970   -3.9628 O   0  0  0  0  0  0  0  0  0  0  0  0
   -4.2504    1.2344   -5.3718 C   0  0  1  0  0  0  0  0  0  0  0  0
   -4.6463    2.5243   -6.1608 C   0  0  1  0  0  0  0  0  0  0  0  0
   -6.0990    2.5921   -6.4194 N   0  3  0  0  0  0  0  0  0  0  0  0
   -4.2264    3.8083   -5.4106 C   0  0  0  0  0  0  0  0  0  0  0  0
   -2.7269    0.5119   -2.5517 C   0  0  1  0  0  0  0  0  0  0  0  0
   -4.2175    0.6701   -2.2763 C   0  0  1  0  0  0  0  0  0  0  0  0
   -4.6236   -0.7929   -2.1608 C   0  0  1  0  0  0  0  0  0  0  0  0
   -3.4492   -1.3788   -1.3641 C   0  0  2  0  0  0  0  0  0  0  0  0
   -2.2934   -0.5936   -1.7424 O   0  0  0  0  0  0  0  0  0  0  0  0
   -3.2002   -2.8676   -1.6658 C   0  0  0  0  0  0  0  0  0  0  0  0
   -9.6545   -1.3448   -0.8306 C   0  0  1  0  0  0  0  0  0  0  0  0
   -8.9978   -0.1966   -1.6465 C   0  0  1  0  0  0  0  0  0  0  0  0
   -8.0044   -0.6827   -2.7410 C   0  0  2  0  0  0  0  0  0  0  0  0
   -6.9448   -1.6649   -2.1458 C   0  0  1  0  0  0  0  0  0  0  0  0
   -5.8875   -0.9433   -1.4524 O   0  0  0  0  0  0  0  0  0  0  0  0
   -9.0370   -2.7231   -1.2170 C   0  0  1  0  0  0  0  0  0  0  0  0
   -7.5752   -2.6249   -1.2105 O   0  0  0  0  0  0  0  0  0  0  0  0
   -9.4770   -3.8592   -0.2580 C   0  0  0  0  0  0  0  0  0  0  0  0
   -0.8276   -4.2878   -6.0834 N   0  3  0  0  0  0  0  0  0  0  0  0
   -4.4099    1.3654   -1.0442 O   0  0  0  0  0  0  0  0  0  0  0  0
  -10.0334    0.5578   -2.2748 O   0  0  0  0  0  0  0  0  0  0  0  0
   -9.4493   -1.0857    0.5600 O   0  0  0  0  0  0  0  0  0  0  0  0
   -2.9918   -3.0743   -3.0523 O   0  0  0  0  0  0  0  0  0  0  0  0
   -0.8367    2.5921   -4.2532 O   0  0  0  0  0  0  0  0  0  0  0  0
   -9.5983   -5.1645   -0.9329 N   0  3  0  0  0  0  0  0  0  0  0  0
   -7.3851    0.4602   -3.4569 N   0  3  0  0  0  0  0  0  0  0  0  0
  1  2  1  6  0  0  0
  1  3  1  0  0  0  0
  1 10  1  0  0  0  0
  3  4  1  6  0  0  0
  3  5  1  0  0  0  0
  5  6  1  6  0  0  0
  5  7  1  0  0  0  0
  7  8  1  6  0  0  0
  7  9  1  0  0  0  0
  9 10  1  0  0  0  0
  9 11  1  1  0  0  0
 11 35  1  0  0  0  0
 12 13  1  1  0  0  0
 12 14  1  0  0  0  0
 12 20  1  0  0  0  0
 14 15  1  0  0  0  0
 14 40  1  6  0  0  0
 15 16  1  1  0  0  0
 15 17  1  0  0  0  0
 17  2  1  6  0  0  0
 17 18  1  0  0  0  0
 18 19  1  1  0  0  0
 18 20  1  0  0  0  0
 21 16  1  6  0  0  0
 21 22  1  0  0  0  0
 21 25  1  0  0  0  0
 22 23  1  0  0  0  0
 22 36  1  1  0  0  0
 23 24  1  0  0  0  0
 23 31  1  1  0  0  0
 24 25  1  0  0  0  0
 24 26  1  6  0  0  0
 26 39  1  0  0  0  0
 27 28  1  0  0  0  0
 27 32  1  0  0  0  0
 27 38  1  1  0  0  0
 28 29  1  0  0  0  0
 28 37  1  6  0  0  0
 29 30  1  0  0  0  0
 29 42  1  1  0  0  0
 30 31  1  1  0  0  0
 30 33  1  0  0  0  0
 32 33  1  0  0  0  0
 32 34  1  1  0  0  0
 34 41  1  0  0  0  0
M  CHG  6   4   1  13   1  19   1  35   1  41   1  42   1
M  END
>  <CHROM.1>
-109.15090035,5.95708781,-19.36924765,63.61489598,178.20487791,-46.52819304
106.46781810,4.43863649,-58.07130235,33.68257381,73.60599997,-48.39733278
-44.73095258,124.33533353,56.14349965,-151.62144543,176.37710170,-76.70259571
76.65019705,-102.15082864,147.11532201,81.03507840,-4.75181598,-0.63907288
-4.13436745,0.04893007,-0.80413237,-2.81662974

>  <Name>


>  <RI>
0

>  <Rbt.Current_Directory>
/home/itssahil/PROJECTS/Mol_Feturizer/New_Systems/rnas/1ei2

>  <Rbt.Executable>
rbdock ($Id: //depot/dev/client3/rdock/2013.1/src/exe/rbdock.cxx#4 $)

>  <Rbt.Library>
libRbt.so (2013.1, Build901 2013/11/27)

>  <Rbt.Parameter_File>
/export/apps/rDock/src/rDock_2013.1_src/data/scripts/dock_solv.prm

>  <Rbt.Receptor>
prm/blind_docking_80.prm

>  <SCORE>
-12.8129

>  <SCORE.INTER>
-24.391

>  <SCORE.INTER.CONST>
1

>  <SCORE.INTER.POLAR>
-6.66958

>  <SCORE.INTER.ROT>
9

>  <SCORE.INTER.SOLV>
48.9681

>  <SCORE.INTER.VDW>
-19.9514

>  <SCORE.INTER.norm>
-0.580739

>  <SCORE.INTRA>
3.20205

>  <SCORE.INTRA.DIHEDRAL>
11.1017

>  <SCORE.INTRA.DIHEDRAL.0>
40.8761

>  <SCORE.INTRA.POLAR>
-0.177636

>  <SCORE.INTRA.POLAR.0>
-0.0268208

>  <SCORE.INTRA.REPUL>
-0.292855

>  <SCORE.INTRA.REPUL.0>
0.641615

>  <SCORE.INTRA.SOLV>
-6.19251

>  <SCORE.INTRA.SOLV.lig_0>
-162.567

>  <SCORE.INTRA.VDW>
2.81571

>  <SCORE.INTRA.VDW.0>
-4.80338

>  <SCORE.INTRA.norm>
0.0762393

>  <SCORE.RESTR>
8.37604

>  <SCORE.RESTR.CAVITY>
8.37604

>  <SCORE.RESTR.norm>
0.199429

>  <SCORE.SYSTEM>
0

>  <SCORE.SYSTEM.CONST>
0

>  <SCORE.SYSTEM.DIHEDRAL>
0

>  <SCORE.SYSTEM.SOLV>
0

>  <SCORE.SYSTEM.norm>
0

>  <SCORE.heavy>
42

>  <SCORE.norm>
-0.30507

>  <RMSD>
9.282

$$$$

 OpenBabel11021811393D
libRbt.so/2013.1/901 2013/11/27
 42 45  0  0  0  0  0  0  0  0999 V2000
   -3.3110   -1.5644   -5.9706 C   0  0  2  0  0  0  0  0  0  0  0  0
   -4.1970   -0.4483   -6.2919 O   0  0  0  0  0  0  0  0  0  0  0  0
   -2.4811   -2.0175   -7.2156 C   0  0  2  0  0  0  0  0  0  0  0  0
   -2.5234   -1.0076   -8.2980 N   0  3  0  0  0  0  0  0  0  0  0  0
   -2.9805   -3.3987   -7.7367 C   0  0  1  0  0  0  0  0  0  0  0  0
   -2.2099   -3.8060   -8.8653 O   0  0  0  0  0  0  0  0  0  0  0  0
   -2.8755   -4.4984   -6.6463 C   0  0  2  0  0  0  0  0  0  0  0  0
   -3.6040   -5.6420   -7.0789 O   0  0  0  0  0  0  0  0  0  0  0  0
   -3.4343   -3.9941   -5.2763 C   0  0  2  0  0  0  0  0  0  0  0  0
   -4.0886   -2.6948   -5.4467 O   0  0  0  0  0  0  0  0  0  0  0  0
   -2.3634   -3.8044   -4.1775 C   0  0  0  0  0  0  0  0  0  0  0  0
   -2.6607    3.4981   -5.4638 C   0  0  1  0  0  0  0  0  0  0  0  0
   -2.4471    4.8402   -4.8777 N   0  3  0  0  0  0  0  0  0  0  0  0
   -2.2569    2.3739   -4.4741 C   0  0  1  0  0  0  0  0  0  0  0  0
   -2.6011    0.9306   -4.9821 C   0  0  1  0  0  0  0  0  0  0  0  0
   -2.4825    0.0145   -3.8607 O   0  0  0  0  0  0  0  0  0  0  0  0
   -4.0631    0.8015   -5.5478 C   0  0  1  0  0  0  0  0  0  0  0  0
   -4.4229    1.9754   -6.5149 C   0  0  1  0  0  0  0  0  0  0  0  0
   -5.8402    1.9379   -6.9293 N   0  3  0  0  0  0  0  0  0  0  0  0
   -4.1406    3.3536   -5.8756 C   0  0  0  0  0  0  0  0  0  0  0  0
   -2.7488    0.4933   -2.5106 C   0  0  1  0  0  0  0  0  0  0  0  0
   -4.2439    0.7562   -2.3750 C   0  0  1  0  0  0  0  0  0  0  0  0
   -4.7431   -0.6624   -2.1367 C   0  0  1  0  0  0  0  0  0  0  0  0
   -3.6683   -1.2145   -1.1896 C   0  0  2  0  0  0  0  0  0  0  0  0
   -2.4431   -0.5356   -1.5551 O   0  0  0  0  0  0  0  0  0  0  0  0
   -3.4858   -2.7382   -1.3089 C   0  0  0  0  0  0  0  0  0  0  0  0
   -9.8235   -1.1144   -0.8884 C   0  0  1  0  0  0  0  0  0  0  0  0
   -9.1442    0.1987   -1.3678 C   0  0  1  0  0  0  0  0  0  0  0  0
   -8.2048    0.0166   -2.5948 C   0  0  2  0  0  0  0  0  0  0  0  0
   -7.1695   -1.1277   -2.3482 C   0  0  1  0  0  0  0  0  0  0  0  0
   -6.0632   -0.6689   -1.5207 O   0  0  0  0  0  0  0  0  0  0  0  0
   -9.2754   -2.3422   -1.6772 C   0  0  1  0  0  0  0  0  0  0  0  0
   -7.8112   -2.2957   -1.7018 O   0  0  0  0  0  0  0  0  0  0  0  0
   -9.7334   -3.6916   -1.0660 C   0  0  0  0  0  0  0  0  0  0  0  0
   -1.3782   -4.8967   -4.0916 N   0  3  0  0  0  0  0  0  0  0  0  0
   -4.4865    1.5933   -1.2441 O   0  0  0  0  0  0  0  0  0  0  0  0
  -10.1659    1.1336   -1.7121 O   0  0  0  0  0  0  0  0  0  0  0  0
   -9.5666   -1.2720    0.5088 O   0  0  0  0  0  0  0  0  0  0  0  0
   -4.3815   -3.2812   -2.2636 O   0  0  0  0  0  0  0  0  0  0  0  0
   -0.8507    2.4511   -4.2412 O   0  0  0  0  0  0  0  0  0  0  0  0
   -9.0508   -4.0079    0.2020 N   0  3  0  0  0  0  0  0  0  0  0  0
   -7.5602    1.2970   -2.9785 N   0  3  0  0  0  0  0  0  0  0  0  0
  1  2  1  6  0  0  0
  1  3  1  0  0  0  0
  1 10  1  0  0  0  0
  3  4  1  6  0  0  0
  3  5  1  0  0  0  0
  5  6  1  6  0  0  0
  5  7  1  0  0  0  0
  7  8  1  6  0  0  0
  7  9  1  0  0  0  0
  9 10  1  0  0  0  0
  9 11  1  1  0  0  0
 11 35  1  0  0  0  0
 12 13  1  1  0  0  0
 12 14  1  0  0  0  0
 12 20  1  0  0  0  0
 14 15  1  0  0  0  0
 14 40  1  6  0  0  0
 15 16  1  1  0  0  0
 15 17  1  0  0  0  0
 17  2  1  6  0  0  0
 17 18  1  0  0  0  0
 18 19  1  1  0  0  0
 18 20  1  0  0  0  0
 21 16  1  6  0  0  0
 21 22  1  0  0  0  0
 21 25  1  0  0  0  0
 22 23  1  0  0  0  0
 22 36  1  1  0  0  0
 23 24  1  0  0  0  0
 23 31  1  1  0  0  0
 24 25  1  0  0  0  0
 24 26  1  6  0  0  0
 26 39  1  0  0  0  0
 27 28  1  0  0  0  0
 27 32  1  0  0  0  0
 27 38  1  1  0  0  0
 28 29  1  0  0  0  0
 28 37  1  6  0  0  0
 29 30  1  0  0  0  0
 29 42  1  1  0  0  0
 30 31  1  1  0  0  0
 30 33  1  0  0  0  0
 32 33  1  0  0  0  0
 32 34  1  1  0  0  0
 34 41  1  0  0  0  0
M  CHG  6   4   1  13   1  19   1  35   1  41   1  42   1
M  END
>  <CHROM.1>
-121.62151458,25.07964421,-81.14073951,-62.61700917,-170.88666429,-43.71927284
-157.83875819,131.45749267,-170.43929047,29.89913691,70.35680956,-40.23319198
65.37315766,110.32796019,-0.95211415,58.81419178,72.75344307,65.04710398
-178.89716705,-116.18655334,-72.77861702,-63.50946444,-4.78970462,-0.84210961
-3.84017703,0.01578052,-0.71995853,-3.05149351

>  <Name>


>  <RI>
0

>  <Rbt.Current_Directory>
/home/itssahil/PROJECTS/Mol_Feturizer/New_Systems/rnas/1ei2

>  <Rbt.Executable>
rbdock ($Id: //depot/dev/client3/rdock/2013.1/src/exe/rbdock.cxx#4 $)

>  <Rbt.Library>
libRbt.so (2013.1, Build901 2013/11/27)

>  <Rbt.Parameter_File>
/export/apps/rDock/src/rDock_2013.1_src/data/scripts/dock_solv.prm

>  <Rbt.Receptor>
prm/blind_docking_40.prm

>  <SCORE>
-17.4091

>  <SCORE.INTER>
-23.475

>  <SCORE.INTER.CONST>
1

>  <SCORE.INTER.POLAR>
-4.30364

>  <SCORE.INTER.ROT>
9

>  <SCORE.INTER.SOLV>
47.8356

>  <SCORE.INTER.VDW>
-26.8498

>  <SCORE.INTER.norm>
-0.55893

>  <SCORE.INTRA>
-3.27908

>  <SCORE.INTRA.DIHEDRAL>
4.25924

>  <SCORE.INTRA.DIHEDRAL.0>
40.8761

>  <SCORE.INTRA.POLAR>
-0.84262

>  <SCORE.INTRA.POLAR.0>
-0.0268208

>  <SCORE.INTRA.REPUL>
-0.637435

>  <SCORE.INTRA.REPUL.0>
0.641615

>  <SCORE.INTRA.SOLV>
-4.83957

>  <SCORE.INTRA.SOLV.lig_0>
-162.567

>  <SCORE.INTRA.VDW>
3.06317

>  <SCORE.INTRA.VDW.0>
-4.80338

>  <SCORE.INTRA.norm>
-0.0780733

>  <SCORE.RESTR>
9.34499

>  <SCORE.RESTR.CAVITY>
9.34499

>  <SCORE.RESTR.norm>
0.2225

>  <SCORE.SYSTEM>
0

>  <SCORE.SYSTEM.CONST>
0

>  <SCORE.SYSTEM.DIHEDRAL>
0

>  <SCORE.SYSTEM.SOLV>
0

>  <SCORE.SYSTEM.norm>
0

>  <SCORE.heavy>
42

>  <SCORE.norm>
-0.414503

>  <RMSD>
9.294

$$$$

 OpenBabel11021811393D
libRbt.so/2013.1/901 2013/11/27
 42 45  0  0  0  0  0  0  0  0999 V2000
   -3.0788   -1.6252   -8.8793 C   0  0  2  0  0  0  0  0  0  0  0  0
   -3.7451   -2.4273   -7.8564 O   0  0  0  0  0  0  0  0  0  0  0  0
   -3.1135   -0.1019   -8.5297 C   0  0  2  0  0  0  0  0  0  0  0  0
   -3.4840    0.1259   -7.1141 N   0  3  0  0  0  0  0  0  0  0  0  0
   -4.0880    0.6584   -9.4790 C   0  0  1  0  0  0  0  0  0  0  0  0
   -4.1035    2.0476   -9.1573 O   0  0  0  0  0  0  0  0  0  0  0  0
   -3.6802    0.5028  -10.9686 C   0  0  2  0  0  0  0  0  0  0  0  0
   -4.7507    0.9628  -11.7860 O   0  0  0  0  0  0  0  0  0  0  0  0
   -3.3446   -0.9847  -11.3124 C   0  0  2  0  0  0  0  0  0  0  0  0
   -3.7021   -1.8543  -10.1894 O   0  0  0  0  0  0  0  0  0  0  0  0
   -1.8524   -1.2521  -11.6157 C   0  0  0  0  0  0  0  0  0  0  0  0
   -2.7299   -5.6603   -5.1849 C   0  0  1  0  0  0  0  0  0  0  0  0
   -2.0095   -6.5446   -4.2418 N   0  3  0  0  0  0  0  0  0  0  0  0
   -3.0973   -4.3048   -4.5264 C   0  0  1  0  0  0  0  0  0  0  0  0
   -3.7286   -3.2692   -5.5209 C   0  0  1  0  0  0  0  0  0  0  0  0
   -3.7232   -1.9646   -4.8815 O   0  0  0  0  0  0  0  0  0  0  0  0
   -2.9338   -3.1389   -6.8720 C   0  0  1  0  0  0  0  0  0  0  0  0
   -2.5667   -4.5343   -7.4728 C   0  0  1  0  0  0  0  0  0  0  0  0
   -1.6946   -4.4152   -8.6590 N   0  3  0  0  0  0  0  0  0  0  0  0
   -1.8578   -5.4368   -6.4380 C   0  0  0  0  0  0  0  0  0  0  0  0
   -3.7187   -1.8772   -3.4272 C   0  0  1  0  0  0  0  0  0  0  0  0
   -2.8681   -0.6816   -3.0154 C   0  0  1  0  0  0  0  0  0  0  0  0
   -3.8687    0.4450   -3.2344 C   0  0  1  0  0  0  0  0  0  0  0  0
   -5.1624   -0.1794   -2.6922 C   0  0  2  0  0  0  0  0  0  0  0  0
   -5.0446   -1.5994   -2.9475 O   0  0  0  0  0  0  0  0  0  0  0  0
   -6.4286    0.3772   -3.3676 C   0  0  0  0  0  0  0  0  0  0  0  0
   -2.0592    3.3666   -5.6120 C   0  0  1  0  0  0  0  0  0  0  0  0
   -2.8442    4.0787   -4.4753 C   0  0  1  0  0  0  0  0  0  0  0  0
   -2.3137    3.7681   -3.0459 C   0  0  2  0  0  0  0  0  0  0  0  0
   -2.1987    2.2278   -2.8088 C   0  0  1  0  0  0  0  0  0  0  0  0
   -3.4950    1.6439   -2.4961 O   0  0  0  0  0  0  0  0  0  0  0  0
   -1.0035    2.3817   -5.0241 C   0  0  1  0  0  0  0  0  0  0  0  0
   -1.6301    1.5477   -3.9953 O   0  0  0  0  0  0  0  0  0  0  0  0
   -0.3758    1.4691   -6.1091 C   0  0  0  0  0  0  0  0  0  0  0  0
   -0.9182   -0.3474  -10.9230 N   0  3  0  0  0  0  0  0  0  0  0  0
   -2.5043   -0.7985   -1.6397 O   0  0  0  0  0  0  0  0  0  0  0  0
   -2.7700    5.4873   -4.6918 O   0  0  0  0  0  0  0  0  0  0  0  0
   -2.9924    2.6576   -6.4301 O   0  0  0  0  0  0  0  0  0  0  0  0
   -7.5845   -0.3078   -2.9167 O   0  0  0  0  0  0  0  0  0  0  0  0
   -4.0261   -4.5451   -3.4695 O   0  0  0  0  0  0  0  0  0  0  0  0
   -0.4337    0.0381   -5.7585 N   0  3  0  0  0  0  0  0  0  0  0  0
   -3.1271    4.4467   -2.0067 N   0  3  0  0  0  0  0  0  0  0  0  0
  1  2  1  1  0  0  0
  1  3  1  0  0  0  0
  1 10  1  0  0  0  0
  3  4  1  1  0  0  0
  3  5  1  0  0  0  0
  5  6  1  1  0  0  0
  5  7  1  0  0  0  0
  7  8  1  6  0  0  0
  7  9  1  0  0  0  0
  9 10  1  0  0  0  0
  9 11  1  1  0  0  0
 11 35  1  0  0  0  0
 12 13  1  1  0  0  0
 12 14  1  0  0  0  0
 12 20  1  0  0  0  0
 14 15  1  0  0  0  0
 14 40  1  1  0  0  0
 15 16  1  1  0  0  0
 15 17  1  0  0  0  0
 17  2  1  6  0  0  0
 17 18  1  0  0  0  0
 18 19  1  6  0  0  0
 18 20  1  0  0  0  0
 21 16  1  6  0  0  0
 21 22  1  0  0  0  0
 21 25  1  0  0  0  0
 22 23  1  0  0  0  0
 22 36  1  1  0  0  0
 23 24  1  0  0  0  0
 23 31  1  1  0  0  0
 24 25  1  0  0  0  0
 24 26  1  6  0  0  0
 26 39  1  0  0  0  0
 27 28  1  0  0  0  0
 27 32  1  0  0  0  0
 27 38  1  6  0  0  0
 28 29  1  0  0  0  0
 28 37  1  6  0  0  0
 29 30  1  0  0  0  0
 29 42  1  1  0  0  0
 30 31  1  6  0  0  0
 30 33  1  0  0  0  0
 32 33  1  0  0  0  0
 32 34  1  6  0  0  0
 34 41  1  0  0  0  0
M  CHG  6   4   1  13   1  19   1  35   1  41   1  42   1
M  END
>  <CHROM.1>
-101.16253896,150.11397623,-176.28553514,179.16989029,-63.33179500,29.19443292
-158.47938692,134.30183393,-144.96907050,-25.06267204,144.14532843,-31.86942963
48.41450142,59.40209362,175.03805875,55.49397677,69.49371583,177.73175235
-62.05755131,131.57717284,-128.30098802,43.08938277,-3.12259187,-0.44893903
-5.96234154,-0.86795250,1.47027123,0.19258005

>  <Name>


>  <RI>
0

>  <Rbt.Current_Directory>
/home/itssahil/PROJECTS/Mol_Feturizer/New_Systems/rnas/1ei2

>  <Rbt.Executable>
rbdock ($Id: //depot/dev/client3/rdock/2013.1/src/exe/rbdock.cxx#4 $)

>  <Rbt.Library>
libRbt.so (2013.1, Build901 2013/11/27)

>  <Rbt.Parameter_File>
/export/apps/rDock/src/rDock_2013.1_src/data/scripts/dock_solv.prm

>  <Rbt.Receptor>
prm/blind_docking_100.prm

>  <SCORE>
-11.2262

>  <SCORE.INTER>
-26.3662

>  <SCORE.INTER.CONST>
1

>  <SCORE.INTER.POLAR>
-4.18618

>  <SCORE.INTER.ROT>
9

>  <SCORE.INTER.SOLV>
43.7998

>  <SCORE.INTER.VDW>
-27.8234

>  <SCORE.INTER.norm>
-0.627766

>  <SCORE.INTRA>
4.44986

>  <SCORE.INTRA.DIHEDRAL>
4.79978

>  <SCORE.INTRA.DIHEDRAL.0>
40.8761

>  <SCORE.INTRA.POLAR>
-1.73974

>  <SCORE.INTRA.POLAR.0>
-0.0268208

>  <SCORE.INTRA.REPUL>
-0.573189

>  <SCORE.INTRA.REPUL.0>
0.641615

>  <SCORE.INTRA.SOLV>
6.24667

>  <SCORE.INTRA.SOLV.lig_0>
-162.567

>  <SCORE.INTRA.VDW>
7.70769

>  <SCORE.INTRA.VDW.0>
-4.80338

>  <SCORE.INTRA.norm>
0.105949

>  <SCORE.RESTR>
10.6901

>  <SCORE.RESTR.CAVITY>
10.6901

>  <SCORE.RESTR.norm>
0.254526

>  <SCORE.SYSTEM>
0

>  <SCORE.SYSTEM.CONST>
0

>  <SCORE.SYSTEM.DIHEDRAL>
0

>  <SCORE.SYSTEM.SOLV>
0

>  <SCORE.SYSTEM.norm>
0

>  <SCORE.heavy>
42

>  <SCORE.norm>
-0.267291

>  <RMSD>
9.295

$$$$

 OpenBabel11021811393D
libRbt.so/2013.1/901 2013/11/27
 42 45  0  0  0  0  0  0  0  0999 V2000
   -2.9885   -1.6085   -5.6414 C   0  0  2  0  0  0  0  0  0  0  0  0
   -3.3845   -0.4345   -6.4152 O   0  0  0  0  0  0  0  0  0  0  0  0
   -1.4829   -1.9647   -5.8655 C   0  0  2  0  0  0  0  0  0  0  0  0
   -0.7470   -0.8510   -6.5066 N   0  3  0  0  0  0  0  0  0  0  0  0
   -1.3455   -3.2680   -6.7090 C   0  0  1  0  0  0  0  0  0  0  0  0
    0.0311   -3.5882   -6.8979 O   0  0  0  0  0  0  0  0  0  0  0  0
   -2.0418   -4.4742   -6.0236 C   0  0  2  0  0  0  0  0  0  0  0  0
   -2.1335   -5.5417   -6.9605 O   0  0  0  0  0  0  0  0  0  0  0  0
   -3.4667   -4.0893   -5.5089 C   0  0  2  0  0  0  0  0  0  0  0  0
   -3.8342   -2.7567   -5.9930 O   0  0  0  0  0  0  0  0  0  0  0  0
   -3.6035   -4.0492   -3.9695 C   0  0  0  0  0  0  0  0  0  0  0  0
   -2.3480    3.6151   -5.3448 C   0  0  1  0  0  0  0  0  0  0  0  0
   -2.3850    4.9867   -4.7900 N   0  3  0  0  0  0  0  0  0  0  0  0
   -2.2360    2.5500   -4.2227 C   0  0  1  0  0  0  0  0  0  0  0  0
   -2.3437    1.0732   -4.7398 C   0  0  1  0  0  0  0  0  0  0  0  0
   -2.5520    0.2051   -3.5935 O   0  0  0  0  0  0  0  0  0  0  0  0
   -3.5435    0.8462   -5.7312 C   0  0  1  0  0  0  0  0  0  0  0  0
   -3.6229    1.9642   -6.8206 C   0  0  1  0  0  0  0  0  0  0  0  0
   -4.8322    1.8364   -7.6592 N   0  3  0  0  0  0  0  0  0  0  0  0
   -3.6131    3.3773   -6.1953 C   0  0  0  0  0  0  0  0  0  0  0  0
   -2.8748    0.7899   -2.2987 C   0  0  1  0  0  0  0  0  0  0  0  0
   -4.3808    1.0135   -2.2290 C   0  0  1  0  0  0  0  0  0  0  0  0
   -4.8432   -0.3951   -1.8815 C   0  0  1  0  0  0  0  0  0  0  0  0
   -3.7818   -0.8267   -0.8596 C   0  0  2  0  0  0  0  0  0  0  0  0
   -2.5673   -0.1415   -1.2484 O   0  0  0  0  0  0  0  0  0  0  0  0
   -3.5487   -2.3481   -0.8398 C   0  0  0  0  0  0  0  0  0  0  0  0
   -9.8224   -1.2965   -0.4920 C   0  0  1  0  0  0  0  0  0  0  0  0
   -9.3643   -0.0272   -1.2630 C   0  0  1  0  0  0  0  0  0  0  0  0
   -8.3953   -0.3173   -2.4454 C   0  0  2  0  0  0  0  0  0  0  0  0
   -7.1879   -1.1953   -1.9835 C   0  0  1  0  0  0  0  0  0  0  0  0
   -6.1809   -0.3924   -1.3049 O   0  0  0  0  0  0  0  0  0  0  0  0
   -9.0711   -2.5607   -1.0093 C   0  0  1  0  0  0  0  0  0  0  0  0
   -7.6346   -2.2823   -1.0820 O   0  0  0  0  0  0  0  0  0  0  0  0
   -9.3063   -3.8000   -0.1077 C   0  0  0  0  0  0  0  0  0  0  0  0
   -2.3310   -4.1935   -3.2406 N   0  3  0  0  0  0  0  0  0  0  0  0
   -4.6842    1.9368   -1.1831 O   0  0  0  0  0  0  0  0  0  0  0  0
  -10.5227    0.6302   -1.7752 O   0  0  0  0  0  0  0  0  0  0  0  0
   -9.5571   -1.1006    0.8988 O   0  0  0  0  0  0  0  0  0  0  0  0
   -4.6096   -3.0304   -1.4860 O   0  0  0  0  0  0  0  0  0  0  0  0
   -0.9812    2.7103   -3.5616 O   0  0  0  0  0  0  0  0  0  0  0  0
   -9.6177   -5.0184   -0.8773 N   0  3  0  0  0  0  0  0  0  0  0  0
   -7.9670    0.9358   -3.1150 N   0  3  0  0  0  0  0  0  0  0  0  0
  1  2  1  6  0  0  0
  1  3  1  0  0  0  0
  1 10  1  0  0  0  0
  3  4  1  6  0  0  0
  3  5  1  0  0  0  0
  5  6  1  1  0  0  0
  5  7  1  0  0  0  0
  7  8  1  6  0  0  0
  7  9  1  0  0  0  0
  9 10  1  0  0  0  0
  9 11  1  1  0  0  0
 11 35  1  0  0  0  0
 12 13  1  1  0  0  0
 12 14  1  0  0  0  0
 12 20  1  0  0  0  0
 14 15  1  0  0  0  0
 14 40  1  6  0  0  0
 15 16  1  1  0  0  0
 15 17  1  0  0  0  0
 17  2  1  6  0  0  0
 17 18  1  0  0  0  0
 18 19  1  1  0  0  0
 18 20  1  0  0  0  0
 21 16  1  6  0  0  0
 21 22  1  0  0  0  0
 21 25  1  0  0  0  0
 22 23  1  0  0  0  0
 22 36  1  1  0  0  0
 23 24  1  0  0  0  0
 23 31  1  1  0  0  0
 24 25  1  0  0  0  0
 24 26  1  6  0  0  0
 26 39  1  0  0  0  0
 27 28  1  0  0  0  0
 27 32  1  0  0  0  0
 27 38  1  1  0  0  0
 28 29  1  0  0  0  0
 28 37  1  6  0  0  0
 29 30  1  0  0  0  0
 29 42  1  1  0  0  0
 30 31  1  1  0  0  0
 30 33  1  0  0  0  0
 32 33  1  0  0  0  0
 32 34  1  1  0  0  0
 34 41  1  0  0  0  0
M  CHG  6   4   1  13   1  19   1  35   1  41   1  42   1
M  END
>  <CHROM.1>
-103.72698787,44.21418788,-111.97297316,67.77953065,-164.85693481,8.15177830
-83.45345785,144.37067917,-65.10277690,11.54421700,85.34632176,-164.80502963
-44.00258858,122.68856293,-16.33573508,55.63415270,43.26319476,170.05148728
173.39017827,-121.14632878,134.14915679,-146.31800316,-4.56539281,-0.79501094
-3.54191325,-0.13074961,-0.63840377,-3.12836627

>  <Name>


>  <RI>
0

>  <Rbt.Current_Directory>
/home/itssahil/PROJECTS/Mol_Feturizer/New_Systems/rnas/1ei2

>  <Rbt.Executable>
rbdock ($Id: //depot/dev/client3/rdock/2013.1/src/exe/rbdock.cxx#4 $)

>  <Rbt.Library>
libRbt.so (2013.1, Build901 2013/11/27)

>  <Rbt.Parameter_File>
/export/apps/rDock/src/rDock_2013.1_src/data/scripts/dock_solv.prm

>  <Rbt.Receptor>
prm/blind_docking_40.prm

>  <SCORE>
17.8961

>  <SCORE.INTER>
-1.50723

>  <SCORE.INTER.CONST>
1

>  <SCORE.INTER.POLAR>
-5.46018

>  <SCORE.INTER.ROT>
9

>  <SCORE.INTER.SOLV>
54.8882

>  <SCORE.INTER.VDW>
-10.7003

>  <SCORE.INTER.norm>
-0.0358863

>  <SCORE.INTRA>
11.2377

>  <SCORE.INTRA.DIHEDRAL>
18.3013

>  <SCORE.INTRA.DIHEDRAL.0>
40.8761

>  <SCORE.INTRA.POLAR>
0.0103507

>  <SCORE.INTRA.POLAR.0>
-0.0268208

>  <SCORE.INTRA.REPUL>
-0.63882

>  <SCORE.INTRA.REPUL.0>
0.641615

>  <SCORE.INTRA.SOLV>
-4.85565

>  <SCORE.INTRA.SOLV.lig_0>
-162.567

>  <SCORE.INTRA.VDW>
7.67372

>  <SCORE.INTRA.VDW.0>
-4.80338

>  <SCORE.INTRA.norm>
0.267563

>  <SCORE.RESTR>
8.16567

>  <SCORE.RESTR.CAVITY>
8.16567

>  <SCORE.RESTR.norm>
0.194421

>  <SCORE.SYSTEM>
0

>  <SCORE.SYSTEM.CONST>
0

>  <SCORE.SYSTEM.DIHEDRAL>
0

>  <SCORE.SYSTEM.SOLV>
0

>  <SCORE.SYSTEM.norm>
0

>  <SCORE.heavy>
42

>  <SCORE.norm>
0.426098

>  <RMSD>
9.296

$$$$

 OpenBabel11021811393D
libRbt.so/2013.1/901 2013/11/27
 42 45  0  0  0  0  0  0  0  0999 V2000
   -2.2635   -2.7586   -6.1208 C   0  0  2  0  0  0  0  0  0  0  0  0
   -1.6130   -1.4989   -5.7691 O   0  0  0  0  0  0  0  0  0  0  0  0
   -3.1309   -3.3075   -4.9417 C   0  0  2  0  0  0  0  0  0  0  0  0
   -3.3688   -2.2723   -3.9098 N   0  3  0  0  0  0  0  0  0  0  0  0
   -2.4658   -4.5672   -4.3094 C   0  0  1  0  0  0  0  0  0  0  0  0
   -3.2706   -5.0645   -3.2424 O   0  0  0  0  0  0  0  0  0  0  0  0
   -2.2736   -5.7018   -5.3511 C   0  0  2  0  0  0  0  0  0  0  0  0
   -1.4142   -6.6911   -4.7959 O   0  0  0  0  0  0  0  0  0  0  0  0
   -1.6677   -5.1523   -6.6831 C   0  0  2  0  0  0  0  0  0  0  0  0
   -1.2592   -3.7561   -6.5124 O   0  0  0  0  0  0  0  0  0  0  0  0
   -2.6359   -5.1812   -7.8881 C   0  0  0  0  0  0  0  0  0  0  0  0
   -2.7811    2.5862   -6.5223 C   0  0  1  0  0  0  0  0  0  0  0  0
   -3.5264    3.8647   -6.5444 N   0  3  0  0  0  0  0  0  0  0  0  0
   -2.2352    2.2701   -5.1051 C   0  0  1  0  0  0  0  0  0  0  0  0
   -1.5660    0.8566   -4.9861 C   0  0  1  0  0  0  0  0  0  0  0  0
   -1.3967    0.5520   -3.5756 O   0  0  0  0  0  0  0  0  0  0  0  0
   -2.4282   -0.2961   -5.6203 C   0  0  1  0  0  0  0  0  0  0  0  0
   -2.9742    0.0901   -7.0330 C   0  0  1  0  0  0  0  0  0  0  0  0
   -3.9037   -0.9271   -7.5653 N   0  3  0  0  0  0  0  0  0  0  0  0
   -3.7041    1.4520   -7.0143 C   0  0  0  0  0  0  0  0  0  0  0  0
   -1.9537    1.4520   -2.5744 C   0  0  1  0  0  0  0  0  0  0  0  0
   -3.4365    1.6469   -2.8682 C   0  0  1  0  0  0  0  0  0  0  0  0
   -3.9988    0.3702   -2.2579 C   0  0  1  0  0  0  0  0  0  0  0  0
   -3.1746    0.2540   -0.9677 C   0  0  2  0  0  0  0  0  0  0  0  0
   -1.8880    0.8423   -1.2748 O   0  0  0  0  0  0  0  0  0  0  0  0
   -2.9937   -1.2005   -0.4978 C   0  0  0  0  0  0  0  0  0  0  0  0
   -9.1266   -0.4310   -1.5613 C   0  0  1  0  0  0  0  0  0  0  0  0
   -8.5858    0.7265   -2.4462 C   0  0  1  0  0  0  0  0  0  0  0  0
   -7.4491    0.3031   -3.4209 C   0  0  2  0  0  0  0  0  0  0  0  0
   -6.3052   -0.4449   -2.6634 C   0  0  1  0  0  0  0  0  0  0  0  0
   -5.4238    0.4917   -1.9813 O   0  0  0  0  0  0  0  0  0  0  0  0
   -8.2835   -1.7262   -1.7662 C   0  0  1  0  0  0  0  0  0  0  0  0
   -6.8573   -1.4024   -1.6774 O   0  0  0  0  0  0  0  0  0  0  0  0
   -8.6235   -2.8252   -0.7268 C   0  0  0  0  0  0  0  0  0  0  0  0
   -2.8986   -6.5274   -8.4266 N   0  3  0  0  0  0  0  0  0  0  0  0
   -3.9153    2.8072   -2.1879 O   0  0  0  0  0  0  0  0  0  0  0  0
   -9.6696    1.2511   -3.2120 O   0  0  0  0  0  0  0  0  0  0  0  0
   -9.0710   -0.0184   -0.1940 O   0  0  0  0  0  0  0  0  0  0  0  0
   -3.9027   -2.0625   -1.1606 O   0  0  0  0  0  0  0  0  0  0  0  0
   -1.2701    3.2614   -4.7537 O   0  0  0  0  0  0  0  0  0  0  0  0
   -9.8092   -3.6189   -1.0984 N   0  3  0  0  0  0  0  0  0  0  0  0
   -6.9522    1.4586   -4.2083 N   0  3  0  0  0  0  0  0  0  0  0  0
  1  2  1  1  0  0  0
  1  3  1  0  0  0  0
  1 10  1  0  0  0  0
  3  4  1  1  0  0  0
  3  5  1  0  0  0  0
  5  6  1  1  0  0  0
  5  7  1  0  0  0  0
  7  8  1  1  0  0  0
  7  9  1  0  0  0  0
  9 10  1  0  0  0  0
  9 11  1  6  0  0  0
 11 35  1  0  0  0  0
 12 13  1  1  0  0  0
 12 14  1  0  0  0  0
 12 20  1  0  0  0  0
 14 15  1  0  0  0  0
 14 40  1  6  0  0  0
 15 16  1  1  0  0  0
 15 17  1  0  0  0  0
 17  2  1  6  0  0  0
 17 18  1  0  0  0  0
 18 19  1  1  0  0  0
 18 20  1  0  0  0  0
 21 16  1  6  0  0  0
 21 22  1  0  0  0  0
 21 25  1  0  0  0  0
 22 23  1  0  0  0  0
 22 36  1  1  0  0  0
 23 24  1  0  0  0  0
 23 31  1  1  0  0  0
 24 25  1  0  0  0  0
 24 26  1  6  0  0  0
 26 39  1  0  0  0  0
 27 28  1  0  0  0  0
 27 32  1  0  0  0  0
 27 38  1  1  0  0  0
 28 29  1  0  0  0  0
 28 37  1  6  0  0  0
 29 30  1  0  0  0  0
 29 42  1  1  0  0  0
 30 31  1  1  0  0  0
 30 33  1  0  0  0  0
 32 33  1  0  0  0  0
 32 34  1  1  0  0  0
 34 41  1  0  0  0  0
M  CHG  6   4   1  13   1  19   1  35   1  41   1  42   1
M  END
>  <CHROM.1>
-70.11354723,169.51330445,-163.92909089,-151.23523069,-172.25642143,-72.39936394
114.79896287,83.51400089,-72.01839081,6.17023772,54.02692116,164.95227077
-154.49928952,119.56885899,-14.94855036,-52.79228927,76.48736753,-179.70412132
-73.22068971,-127.00148723,83.03590435,-43.33953796,-4.20798133,-0.98628928
-3.92885848,0.58213020,-0.62277428,-3.02722074

>  <Name>


>  <RI>
0

>  <Rbt.Current_Directory>
/home/itssahil/PROJECTS/Mol_Feturizer/New_Systems/rnas/1ei2

>  <Rbt.Executable>
rbdock ($Id: //depot/dev/client3/rdock/2013.1/src/exe/rbdock.cxx#4 $)

>  <Rbt.Library>
libRbt.so (2013.1, Build901 2013/11/27)

>  <Rbt.Parameter_File>
/export/apps/rDock/src/rDock_2013.1_src/data/scripts/dock_solv.prm

>  <Rbt.Receptor>
prm/blind_docking_20.prm

>  <SCORE>
-15.4148

>  <SCORE.INTER>
-25.9578

>  <SCORE.INTER.CONST>
1

>  <SCORE.INTER.POLAR>
-4.74359

>  <SCORE.INTER.ROT>
9

>  <SCORE.INTER.SOLV>
40.7594

>  <SCORE.INTER.VDW>
-24.6797

>  <SCORE.INTER.norm>
-0.618042

>  <SCORE.INTRA>
0.231603

>  <SCORE.INTRA.DIHEDRAL>
4.13168

>  <SCORE.INTRA.DIHEDRAL.0>
40.8761

>  <SCORE.INTRA.POLAR>
-1.8218

>  <SCORE.INTRA.POLAR.0>
-0.0268208

>  <SCORE.INTRA.REPUL>
-0.571444

>  <SCORE.INTRA.REPUL.0>
0.641615

>  <SCORE.INTRA.SOLV>
1.72188

>  <SCORE.INTRA.SOLV.lig_0>
-162.567

>  <SCORE.INTRA.VDW>
6.35618

>  <SCORE.INTRA.VDW.0>
-4.80338

>  <SCORE.INTRA.norm>
0.00551435

>  <SCORE.RESTR>
10.3114

>  <SCORE.RESTR.CAVITY>
10.3114

>  <SCORE.RESTR.norm>
0.245509

>  <SCORE.SYSTEM>
0

>  <SCORE.SYSTEM.CONST>
0

>  <SCORE.SYSTEM.DIHEDRAL>
0

>  <SCORE.SYSTEM.SOLV>
0

>  <SCORE.SYSTEM.norm>
0

>  <SCORE.heavy>
42

>  <SCORE.norm>
-0.367019

>  <RMSD>
9.300

$$$$

 OpenBabel11021811393D
libRbt.so/2013.1/901 2013/11/27
 42 45  0  0  0  0  0  0  0  0999 V2000
   -3.1214   -1.9943   -6.2506 C   0  0  2  0  0  0  0  0  0  0  0  0
   -4.0849   -0.9219   -6.4858 O   0  0  0  0  0  0  0  0  0  0  0  0
   -2.4168   -2.4360   -7.5744 C   0  0  2  0  0  0  0  0  0  0  0  0
   -2.6231   -1.4491   -8.6591 N   0  3  0  0  0  0  0  0  0  0  0  0
   -2.9114   -3.8461   -8.0169 C   0  0  1  0  0  0  0  0  0  0  0  0
   -2.2546   -4.2423   -9.2190 O   0  0  0  0  0  0  0  0  0  0  0  0
   -2.6381   -4.9200   -6.9299 C   0  0  2  0  0  0  0  0  0  0  0  0
   -3.3604   -6.1005   -7.2621 O   0  0  0  0  0  0  0  0  0  0  0  0
   -3.0617   -4.4137   -5.5130 C   0  0  2  0  0  0  0  0  0  0  0  0
   -3.7863   -3.1459   -5.6270 O   0  0  0  0  0  0  0  0  0  0  0  0
   -1.8840   -4.1595   -4.5441 C   0  0  0  0  0  0  0  0  0  0  0  0
   -2.7578    3.1117   -5.7185 C   0  0  1  0  0  0  0  0  0  0  0  0
   -2.5810    4.4549   -5.1228 N   0  3  0  0  0  0  0  0  0  0  0  0
   -2.1725    2.0026   -4.8055 C   0  0  1  0  0  0  0  0  0  0  0  0
   -2.4635    0.5473   -5.3127 C   0  0  1  0  0  0  0  0  0  0  0  0
   -2.1622   -0.3780   -4.2337 O   0  0  0  0  0  0  0  0  0  0  0  0
   -3.9638    0.3204   -5.7272 C   0  0  1  0  0  0  0  0  0  0  0  0
   -4.5067    1.4820   -6.6210 C   0  0  1  0  0  0  0  0  0  0  0  0
   -5.9533    1.3470   -6.8874 N   0  3  0  0  0  0  0  0  0  0  0  0
   -4.2586    2.8654   -5.9786 C   0  0  0  0  0  0  0  0  0  0  0  0
   -2.3836    0.0316   -2.8532 C   0  0  1  0  0  0  0  0  0  0  0  0
   -3.6327    0.9032   -2.7999 C   0  0  1  0  0  0  0  0  0  0  0  0
   -4.7094   -0.1734   -2.8158 C   0  0  1  0  0  0  0  0  0  0  0  0
   -4.1062   -1.2292   -1.8785 C   0  0  2  0  0  0  0  0  0  0  0  0
   -2.6719   -1.1175   -2.0399 O   0  0  0  0  0  0  0  0  0  0  0  0
   -4.5668   -2.6605   -2.2081 C   0  0  0  0  0  0  0  0  0  0  0  0
   -9.6062    0.3088   -1.0542 C   0  0  1  0  0  0  0  0  0  0  0  0
   -9.0306    1.2932   -2.1102 C   0  0  1  0  0  0  0  0  0  0  0  0
   -8.2648    0.6000   -3.2739 C   0  0  2  0  0  0  0  0  0  0  0  0
   -7.1786   -0.3824   -2.7288 C   0  0  1  0  0  0  0  0  0  0  0  0
   -5.9801    0.3330   -2.3152 O   0  0  0  0  0  0  0  0  0  0  0  0
   -9.1428   -1.1508   -1.3462 C   0  0  1  0  0  0  0  0  0  0  0  0
   -7.6975   -1.1681   -1.5854 O   0  0  0  0  0  0  0  0  0  0  0  0
   -9.4803   -2.1228   -0.1863 C   0  0  0  0  0  0  0  0  0  0  0  0
   -2.2702   -4.0748   -3.1246 N   0  3  0  0  0  0  0  0  0  0  0  0
   -3.6524    1.6451   -1.5801 O   0  0  0  0  0  0  0  0  0  0  0  0
  -10.1117    2.0443   -2.6610 O   0  0  0  0  0  0  0  0  0  0  0  0
   -9.1558    0.7192    0.2388 O   0  0  0  0  0  0  0  0  0  0  0  0
   -5.7881   -2.9613   -1.5550 O   0  0  0  0  0  0  0  0  0  0  0  0
   -0.7589    2.1797   -4.7174 O   0  0  0  0  0  0  0  0  0  0  0  0
   -8.7792   -3.4150   -0.2985 N   0  3  0  0  0  0  0  0  0  0  0  0
   -7.7096    1.5943   -4.2254 N   0  3  0  0  0  0  0  0  0  0  0  0
  1  2  1  6  0  0  0
  1  3  1  0  0  0  0
  1 10  1  0  0  0  0
  3  4  1  6  0  0  0
  3  5  1  0  0  0  0
  5  6  1  6  0  0  0
  5  7  1  0  0  0  0
  7  8  1  6  0  0  0
  7  9  1  0  0  0  0
  9 10  1  0  0  0  0
  9 11  1  1  0  0  0
 11 35  1  0  0  0  0
 12 13  1  1  0  0  0
 12 14  1  0  0  0  0
 12 20  1  0  0  0  0
 14 15  1  0  0  0  0
 14 40  1  6  0  0  0
 15 16  1  1  0  0  0
 15 17  1  0  0  0  0
 17  2  1  6  0  0  0
 17 18  1  0  0  0  0
 18 19  1  1  0  0  0
 18 20  1  0  0  0  0
 21 16  1  6  0  0  0
 21 22  1  0  0  0  0
 21 25  1  0  0  0  0
 22 23  1  0  0  0  0
 22 36  1  1  0  0  0
 23 24  1  0  0  0  0
 23 31  1  1  0  0  0
 24 25  1  0  0  0  0
 24 26  1  6  0  0  0
 26 39  1  0  0  0  0
 27 28  1  0  0  0  0
 27 32  1  0  0  0  0
 27 38  1  1  0  0  0
 28 29  1  0  0  0  0
 28 37  1  6  0  0  0
 29 30  1  0  0  0  0
 29 42  1  6  0  0  0
 30 31  1  1  0  0  0
 30 33  1  0  0  0  0
 32 33  1  0  0  0  0
 32 34  1  1  0  0  0
 34 41  1  0  0  0  0
M  CHG  6   4   1  13   1  19   1  35   1  41   1  42   1
M  END
>  <CHROM.1>
-124.79715060,27.35641789,-105.46151683,66.91794589,-160.28628043,-162.77642818
17.02397278,0.73637429,-53.75999789,33.00849653,36.22690497,18.73390669,-51.30487963
157.47137325,-86.61714253,64.99994362,75.14685982,58.80847537,99.58234395
-130.62370532,-166.40883087,39.97278101,-4.76688083,-0.73384251,-4.12260496
0.30631870,-0.72468666,-3.11848597

>  <Name>


>  <RI>
0

>  <Rbt.Current_Directory>
/home/itssahil/PROJECTS/Mol_Feturizer/New_Systems/rnas/1ei2

>  <Rbt.Executable>
rbdock ($Id: //depot/dev/client3/rdock/2013.1/src/exe/rbdock.cxx#4 $)

>  <Rbt.Library>
libRbt.so (2013.1, Build901 2013/11/27)

>  <Rbt.Parameter_File>
/export/apps/rDock/src/rDock_2013.1_src/data/scripts/dock_solv.prm

>  <Rbt.Receptor>
prm/blind_docking_40.prm

>  <SCORE>
-12.1819

>  <SCORE.INTER>
-26.164

>  <SCORE.INTER.CONST>
1

>  <SCORE.INTER.POLAR>
-4.65766

>  <SCORE.INTER.ROT>
9

>  <SCORE.INTER.SOLV>
42.8341

>  <SCORE.INTER.VDW>
-25.7952

>  <SCORE.INTER.norm>
-0.622953

>  <SCORE.INTRA>
-0.775379

>  <SCORE.INTRA.DIHEDRAL>
8.38183

>  <SCORE.INTRA.DIHEDRAL.0>
40.8761

>  <SCORE.INTRA.POLAR>
-3.02354

>  <SCORE.INTRA.POLAR.0>
-0.0268208

>  <SCORE.INTRA.REPUL>
-0.641615

>  <SCORE.INTRA.REPUL.0>
0.641615

>  <SCORE.INTRA.SOLV>
1.15552

>  <SCORE.INTRA.SOLV.lig_0>
-162.567

>  <SCORE.INTRA.VDW>
7.94407

>  <SCORE.INTRA.VDW.0>
-4.80338

>  <SCORE.INTRA.norm>
-0.0184614

>  <SCORE.RESTR>
14.7575

>  <SCORE.RESTR.CAVITY>
14.7575

>  <SCORE.RESTR.norm>
0.35137

>  <SCORE.SYSTEM>
0

>  <SCORE.SYSTEM.CONST>
0

>  <SCORE.SYSTEM.DIHEDRAL>
0

>  <SCORE.SYSTEM.SOLV>
0

>  <SCORE.SYSTEM.norm>
0

>  <SCORE.heavy>
42

>  <SCORE.norm>
-0.290044

>  <RMSD>
9.305

$$$$

 OpenBabel11021811393D
libRbt.so/2013.1/901 2013/11/27
 42 45  0  0  0  0  0  0  0  0999 V2000
   -3.4406    0.7616   -5.2130 C   0  0  2  0  0  0  0  0  0  0  0  0
   -3.3741   -0.3761   -6.1267 O   0  0  0  0  0  0  0  0  0  0  0  0
   -4.1926    1.9724   -5.8549 C   0  0  2  0  0  0  0  0  0  0  0  0
   -4.9498    1.5683   -7.0617 N   0  3  0  0  0  0  0  0  0  0  0  0
   -3.1963    3.1219   -6.1940 C   0  0  1  0  0  0  0  0  0  0  0  0
   -3.8949    4.2240   -6.7691 O   0  0  0  0  0  0  0  0  0  0  0  0
   -2.4418    3.6214   -4.9328 C   0  0  2  0  0  0  0  0  0  0  0  0
   -1.3594    4.4484   -5.3455 O   0  0  0  0  0  0  0  0  0  0  0  0
   -1.9072    2.4251   -4.0805 C   0  0  2  0  0  0  0  0  0  0  0  0
   -2.0880    1.1673   -4.8089 O   0  0  0  0  0  0  0  0  0  0  0  0
   -2.6100    2.2456   -2.7152 C   0  0  0  0  0  0  0  0  0  0  0  0
   -1.9435   -4.4303   -6.4964 C   0  0  1  0  0  0  0  0  0  0  0  0
   -1.2701   -5.7231   -6.2402 N   0  3  0  0  0  0  0  0  0  0  0  0
   -3.1189   -4.1958   -5.5117 C   0  0  1  0  0  0  0  0  0  0  0  0
   -3.7750   -2.7767   -5.6368 C   0  0  1  0  0  0  0  0  0  0  0  0
   -4.6191   -2.5629   -4.4738 O   0  0  0  0  0  0  0  0  0  0  0  0
   -2.7247   -1.6067   -5.6825 C   0  0  1  0  0  0  0  0  0  0  0  0
   -1.5507   -1.9114   -6.6683 C   0  0  1  0  0  0  0  0  0  0  0  0
   -0.4904   -0.8851   -6.6019 N   0  3  0  0  0  0  0  0  0  0  0  0
   -0.9099   -3.2898   -6.3900 C   0  0  0  0  0  0  0  0  0  0  0  0
   -4.8821   -1.2047   -4.0168 C   0  0  1  0  0  0  0  0  0  0  0  0
   -6.2948   -1.1492   -3.4474 C   0  0  1  0  0  0  0  0  0  0  0  0
   -6.0468   -1.7323   -2.0629 C   0  0  1  0  0  0  0  0  0  0  0  0
   -4.7168   -1.0675   -1.6800 C   0  0  2  0  0  0  0  0  0  0  0  0
   -4.0062   -0.8749   -2.9264 O   0  0  0  0  0  0  0  0  0  0  0  0
   -3.8733   -1.9203   -0.7153 C   0  0  0  0  0  0  0  0  0  0  0  0
   -9.7618   -3.6498    0.4726 C   0  0  1  0  0  0  0  0  0  0  0  0
   -9.5718   -2.1377    0.7771 C   0  0  1  0  0  0  0  0  0  0  0  0
   -9.5167   -1.2365   -0.4902 C   0  0  2  0  0  0  0  0  0  0  0  0
   -8.4651   -1.7688   -1.5161 C   0  0  1  0  0  0  0  0  0  0  0  0
   -7.1142   -1.3822   -1.1356 O   0  0  0  0  0  0  0  0  0  0  0  0
   -9.7040   -3.9180   -1.0620 C   0  0  1  0  0  0  0  0  0  0  0  0
   -8.5360   -3.2435   -1.6342 O   0  0  0  0  0  0  0  0  0  0  0  0
   -9.6358   -5.4303   -1.3970 C   0  0  0  0  0  0  0  0  0  0  0  0
   -2.1378    1.0887   -1.9342 N   0  3  0  0  0  0  0  0  0  0  0  0
   -6.7326    0.2078   -3.3731 O   0  0  0  0  0  0  0  0  0  0  0  0
  -10.6568   -1.7043    1.5966 O   0  0  0  0  0  0  0  0  0  0  0  0
   -8.7284   -4.3782    1.1392 O   0  0  0  0  0  0  0  0  0  0  0  0
   -2.7975   -1.1664   -0.1833 O   0  0  0  0  0  0  0  0  0  0  0  0
   -4.1215   -5.1833   -5.7507 O   0  0  0  0  0  0  0  0  0  0  0  0
   -8.9923   -6.2246   -0.3345 N   0  3  0  0  0  0  0  0  0  0  0  0
   -9.2969    0.1871   -0.1336 N   0  3  0  0  0  0  0  0  0  0  0  0
  1  2  1  6  0  0  0
  1  3  1  0  0  0  0
  1 10  1  0  0  0  0
  3  4  1  6  0  0  0
  3  5  1  0  0  0  0
  5  6  1  1  0  0  0
  5  7  1  0  0  0  0
  7  8  1  6  0  0  0
  7  9  1  0  0  0  0
  9 10  1  0  0  0  0
  9 11  1  1  0  0  0
 11 35  1  0  0  0  0
 12 13  1  1  0  0  0
 12 14  1  0  0  0  0
 12 20  1  0  0  0  0
 14 15  1  0  0  0  0
 14 40  1  6  0  0  0
 15 16  1  1  0  0  0
 15 17  1  0  0  0  0
 17  2  1  6  0  0  0
 17 18  1  0  0  0  0
 18 19  1  1  0  0  0
 18 20  1  0  0  0  0
 21 16  1  1  0  0  0
 21 22  1  0  0  0  0
 21 25  1  0  0  0  0
 22 23  1  0  0  0  0
 22 36  1  1  0  0  0
 23 24  1  0  0  0  0
 23 31  1  1  0  0  0
 24 25  1  0  0  0  0
 24 26  1  1  0  0  0
 26 39  1  0  0  0  0
 27 28  1  0  0  0  0
 27 32  1  0  0  0  0
 27 38  1  1  0  0  0
 28 29  1  0  0  0  0
 28 37  1  1  0  0  0
 29 30  1  0  0  0  0
 29 42  1  1  0  0  0
 30 31  1  1  0  0  0
 30 33  1  0  0  0  0
 32 33  1  0  0  0  0
 32 34  1  1  0  0  0
 34 41  1  0  0  0  0
M  CHG  6   4   1  13   1  19   1  35   1  41   1  42   1
M  END
>  <CHROM.1>
-178.94923635,116.44844687,64.10853970,76.00768106,67.31713594,177.92756180
-73.03659305,-71.30470267,56.14152063,153.55194144,146.27485281,92.58488815
177.66860709,57.00265570,-168.29693928,56.85271305,70.81314342,71.90171615
-130.41383670,-175.60699912,-28.35874997,12.36963215,-4.98495726,-1.18663730
-3.36884082,0.36123680,0.71391225,0.07907107

>  <Name>


>  <RI>
0

>  <Rbt.Current_Directory>
/home/itssahil/PROJECTS/Mol_Feturizer/New_Systems/rnas/1ei2

>  <Rbt.Executable>
rbdock ($Id: //depot/dev/client3/rdock/2013.1/src/exe/rbdock.cxx#4 $)

>  <Rbt.Library>
libRbt.so (2013.1, Build901 2013/11/27)

>  <Rbt.Parameter_File>
/export/apps/rDock/src/rDock_2013.1_src/data/scripts/dock_solv.prm

>  <Rbt.Receptor>
prm/blind_docking_40.prm

>  <SCORE>
63.993

>  <SCORE.INTER>
71.6882

>  <SCORE.INTER.CONST>
1

>  <SCORE.INTER.POLAR>
-6.71644

>  <SCORE.INTER.ROT>
9

>  <SCORE.INTER.SOLV>
60.8536

>  <SCORE.INTER.VDW>
40.2957

>  <SCORE.INTER.norm>
1.70686

>  <SCORE.INTRA>
-11.5686

>  <SCORE.INTRA.DIHEDRAL>
-10.1705

>  <SCORE.INTRA.DIHEDRAL.0>
40.8761

>  <SCORE.INTRA.POLAR>
-2.51933

>  <SCORE.INTRA.POLAR.0>
-0.0268208

>  <SCORE.INTRA.REPUL>
-0.641615

>  <SCORE.INTRA.REPUL.0>
0.641615

>  <SCORE.INTRA.SOLV>
-1.87189

>  <SCORE.INTRA.SOLV.lig_0>
-162.567

>  <SCORE.INTRA.VDW>
6.22636

>  <SCORE.INTRA.VDW.0>
-4.80338

>  <SCORE.INTRA.norm>
-0.275444

>  <SCORE.RESTR>
3.8734

>  <SCORE.RESTR.CAVITY>
3.8734

>  <SCORE.RESTR.norm>
0.0922239

>  <SCORE.SYSTEM>
0

>  <SCORE.SYSTEM.CONST>
0

>  <SCORE.SYSTEM.DIHEDRAL>
0

>  <SCORE.SYSTEM.SOLV>
0

>  <SCORE.SYSTEM.norm>
0

>  <SCORE.heavy>
42

>  <SCORE.norm>
1.52364

>  <RMSD>
9.306

$$$$

 OpenBabel11021811393D
libRbt.so/2013.1/901 2013/11/27
 42 45  0  0  0  0  0  0  0  0999 V2000
   -3.3190   -0.9214   -6.4921 C   0  0  2  0  0  0  0  0  0  0  0  0
   -4.2085    0.2119   -6.7327 O   0  0  0  0  0  0  0  0  0  0  0  0
   -2.4662   -1.2627   -7.7571 C   0  0  2  0  0  0  0  0  0  0  0  0
   -2.4994   -0.1656   -8.7513 N   0  3  0  0  0  0  0  0  0  0  0  0
   -2.9466   -2.5984   -8.4005 C   0  0  1  0  0  0  0  0  0  0  0  0
   -2.1552   -2.9043   -9.5467 O   0  0  0  0  0  0  0  0  0  0  0  0
   -2.8500   -3.7853   -7.4048 C   0  0  2  0  0  0  0  0  0  0  0  0
   -3.5627   -4.8931   -7.9439 O   0  0  0  0  0  0  0  0  0  0  0  0
   -3.4341   -3.4017   -6.0066 C   0  0  2  0  0  0  0  0  0  0  0  0
   -4.0959   -2.0970   -6.0778 O   0  0  0  0  0  0  0  0  0  0  0  0
   -2.3821   -3.2982   -4.8784 C   0  0  0  0  0  0  0  0  0  0  0  0
   -3.3128    3.9329   -4.7399 C   0  0  1  0  0  0  0  0  0  0  0  0
   -3.3572    5.0961   -3.8258 N   0  3  0  0  0  0  0  0  0  0  0  0
   -2.9280    2.6321   -3.9875 C   0  0  1  0  0  0  0  0  0  0  0  0
   -3.0111    1.3409   -4.8740 C   0  0  1  0  0  0  0  0  0  0  0  0
   -2.9516    0.1839   -3.9971 O   0  0  0  0  0  0  0  0  0  0  0  0
   -4.3436    1.2396   -5.7036 C   0  0  1  0  0  0  0  0  0  0  0  0
   -4.6948    2.5863   -6.4148 C   0  0  1  0  0  0  0  0  0  0  0  0
   -6.0176    2.5387   -7.0704 N   0  3  0  0  0  0  0  0  0  0  0  0
   -4.6842    3.7764   -5.4292 C   0  0  0  0  0  0  0  0  0  0  0  0
   -3.1850    0.3522   -2.5688 C   0  0  1  0  0  0  0  0  0  0  0  0
   -4.6371    0.7652   -2.3597 C   0  0  1  0  0  0  0  0  0  0  0  0
   -5.3182   -0.5923   -2.4684 C   0  0  1  0  0  0  0  0  0  0  0  0
   -4.3440   -1.4911   -1.6935 C   0  0  2  0  0  0  0  0  0  0  0  0
   -3.0344   -0.9079   -1.8946 O   0  0  0  0  0  0  0  0  0  0  0  0
   -4.3545   -2.9511   -2.1809 C   0  0  0  0  0  0  0  0  0  0  0  0
   -9.9519   -1.8696   -0.4071 C   0  0  1  0  0  0  0  0  0  0  0  0
   -9.8168   -0.7282   -1.4533 C   0  0  1  0  0  0  0  0  0  0  0  0
   -8.9365   -1.0946   -2.6829 C   0  0  2  0  0  0  0  0  0  0  0  0
   -7.5473   -1.6534   -2.2363 C   0  0  1  0  0  0  0  0  0  0  0  0
   -6.6418   -0.5773   -1.8603 O   0  0  0  0  0  0  0  0  0  0  0  0
   -9.0371   -3.0753   -0.7806 C   0  0  1  0  0  0  0  0  0  0  0  0
   -7.6915   -2.5903   -1.0982 O   0  0  0  0  0  0  0  0  0  0  0  0
   -8.9465   -4.1250    0.3568 C   0  0  0  0  0  0  0  0  0  0  0  0
   -2.4672   -2.0646   -4.0770 N   0  3  0  0  0  0  0  0  0  0  0  0
   -4.7964    1.3279   -1.0572 O   0  0  0  0  0  0  0  0  0  0  0  0
  -11.1227   -0.3847   -1.9150 O   0  0  0  0  0  0  0  0  0  0  0  0
   -9.5871   -1.3530    0.8747 O   0  0  0  0  0  0  0  0  0  0  0  0
   -3.0966   -3.5661   -1.9614 O   0  0  0  0  0  0  0  0  0  0  0  0
   -1.5936    2.7630   -3.4980 O   0  0  0  0  0  0  0  0  0  0  0  0
   -9.0485   -5.5119   -0.1332 N   0  3  0  0  0  0  0  0  0  0  0  0
   -8.8172    0.0471   -3.6234 N   0  3  0  0  0  0  0  0  0  0  0  0
  1  2  1  6  0  0  0
  1  3  1  0  0  0  0
  1 10  1  0  0  0  0
  3  4  1  6  0  0  0
  3  5  1  0  0  0  0
  5  6  1  6  0  0  0
  5  7  1  0  0  0  0
  7  8  1  6  0  0  0
  7  9  1  0  0  0  0
  9 10  1  0  0  0  0
  9 11  1  1  0  0  0
 11 35  1  0  0  0  0
 12 13  1  1  0  0  0
 12 14  1  0  0  0  0
 12 20  1  0  0  0  0
 14 15  1  0  0  0  0
 14 40  1  6  0  0  0
 15 16  1  1  0  0  0
 15 17  1  0  0  0  0
 17  2  1  6  0  0  0
 17 18  1  0  0  0  0
 18 19  1  1  0  0  0
 18 20  1  0  0  0  0
 21 16  1  6  0  0  0
 21 22  1  0  0  0  0
 21 25  1  0  0  0  0
 22 23  1  0  0  0  0
 22 36  1  1  0  0  0
 23 24  1  0  0  0  0
 23 31  1  1  0  0  0
 24 25  1  0  0  0  0
 24 26  1  6  0  0  0
 26 39  1  0  0  0  0
 27 28  1  0  0  0  0
 27 32  1  0  0  0  0
 27 38  1  1  0  0  0
 28 29  1  0  0  0  0
 28 37  1  6  0  0  0
 29 30  1  0  0  0  0
 29 42  1  6  0  0  0
 30 31  1  1  0  0  0
 30 33  1  0  0  0  0
 32 33  1  0  0  0  0
 32 34  1  1  0  0  0
 34 41  1  0  0  0  0
M  CHG  6   4   1  13   1  19   1  35   1  41   1  42   1
M  END
>  <CHROM.1>
-137.09814182,29.25234991,-50.14807723,-161.51742622,78.37888259,130.85936739
144.54038836,66.63909796,-51.97571758,15.95235594,66.48532202,65.74586741
176.40487423,162.08944965,151.53048316,61.87099225,157.51357419,-41.90433548
-65.69970470,-129.47322638,136.53682704,-163.03986363,-5.08432605,-0.74788149
-3.92040761,-0.10372762,-0.80790097,-2.96187831

>  <Name>


>  <RI>
0

>  <Rbt.Current_Directory>
/home/itssahil/PROJECTS/Mol_Feturizer/New_Systems/rnas/1ei2

>  <Rbt.Executable>
rbdock ($Id: //depot/dev/client3/rdock/2013.1/src/exe/rbdock.cxx#4 $)

>  <Rbt.Library>
libRbt.so (2013.1, Build901 2013/11/27)

>  <Rbt.Parameter_File>
/export/apps/rDock/src/rDock_2013.1_src/data/scripts/dock_solv.prm

>  <Rbt.Receptor>
prm/blind_docking_60.prm

>  <SCORE>
23.5812

>  <SCORE.INTER>
13.65

>  <SCORE.INTER.CONST>
1

>  <SCORE.INTER.POLAR>
-6.4456

>  <SCORE.INTER.ROT>
9

>  <SCORE.INTER.SOLV>
41.7118

>  <SCORE.INTER.VDW>
7.08142

>  <SCORE.INTER.norm>
0.325001

>  <SCORE.INTRA>
3.57472

>  <SCORE.INTRA.DIHEDRAL>
6.27569

>  <SCORE.INTRA.DIHEDRAL.0>
40.8761

>  <SCORE.INTRA.POLAR>
-0.70986

>  <SCORE.INTRA.POLAR.0>
-0.0268208

>  <SCORE.INTRA.REPUL>
-0.641615

>  <SCORE.INTRA.REPUL.0>
0.641615

>  <SCORE.INTRA.SOLV>
-0.233195

>  <SCORE.INTRA.SOLV.lig_0>
-162.567

>  <SCORE.INTRA.VDW>
6.17507

>  <SCORE.INTRA.VDW.0>
-4.80338

>  <SCORE.INTRA.norm>
0.0851124

>  <SCORE.RESTR>
6.35647

>  <SCORE.RESTR.CAVITY>
6.35647

>  <SCORE.RESTR.norm>
0.151345

>  <SCORE.SYSTEM>
0

>  <SCORE.SYSTEM.CONST>
0

>  <SCORE.SYSTEM.DIHEDRAL>
0

>  <SCORE.SYSTEM.SOLV>
0

>  <SCORE.SYSTEM.norm>
0

>  <SCORE.heavy>
42

>  <SCORE.norm>
0.561458

>  <RMSD>
9.311

$$$$

 OpenBabel11021811393D
libRbt.so/2013.1/901 2013/11/27
 42 45  0  0  0  0  0  0  0  0999 V2000
   -3.2162   -1.0591   -6.3991 C   0  0  2  0  0  0  0  0  0  0  0  0
   -4.1293    0.0612   -6.6107 O   0  0  0  0  0  0  0  0  0  0  0  0
   -2.3999   -1.3886   -7.6910 C   0  0  2  0  0  0  0  0  0  0  0  0
   -2.4812   -0.2925   -8.6836 N   0  3  0  0  0  0  0  0  0  0  0  0
   -2.8815   -2.7314   -8.3187 C   0  0  1  0  0  0  0  0  0  0  0  0
   -2.1234   -3.0262   -9.4899 O   0  0  0  0  0  0  0  0  0  0  0  0
   -2.7357   -3.9163   -7.3267 C   0  0  2  0  0  0  0  0  0  0  0  0
   -3.4494   -5.0345   -7.8425 O   0  0  0  0  0  0  0  0  0  0  0  0
   -3.2796   -3.5406   -5.9102 C   0  0  2  0  0  0  0  0  0  0  0  0
   -3.9622   -2.2456   -5.9599 O   0  0  0  0  0  0  0  0  0  0  0  0
   -2.1932   -3.4215   -4.8167 C   0  0  0  0  0  0  0  0  0  0  0  0
   -3.0429    3.8470   -4.8480 C   0  0  1  0  0  0  0  0  0  0  0  0
   -3.0071    5.0487   -3.9849 N   0  3  0  0  0  0  0  0  0  0  0  0
   -2.6277    2.5727   -4.0669 C   0  0  1  0  0  0  0  0  0  0  0  0
   -2.7908    1.2465   -4.8882 C   0  0  1  0  0  0  0  0  0  0  0  0
   -2.6894    0.1272   -3.9675 O   0  0  0  0  0  0  0  0  0  0  0  0
   -4.1782    1.1342   -5.6209 C   0  0  1  0  0  0  0  0  0  0  0  0
   -4.5563    2.4555   -6.3653 C   0  0  1  0  0  0  0  0  0  0  0  0
   -5.9213    2.4041   -6.9274 N   0  3  0  0  0  0  0  0  0  0  0  0
   -4.4603    3.6862   -5.4357 C   0  0  0  0  0  0  0  0  0  0  0  0
   -2.8576    0.3550   -2.5383 C   0  0  1  0  0  0  0  0  0  0  0  0
   -4.3326    0.6186   -2.2591 C   0  0  1  0  0  0  0  0  0  0  0  0
   -4.8612   -0.8093   -2.2508 C   0  0  1  0  0  0  0  0  0  0  0  0
   -3.7488   -1.5476   -1.4927 C   0  0  2  0  0  0  0  0  0  0  0  0
   -2.5271   -0.8379   -1.8083 O   0  0  0  0  0  0  0  0  0  0  0  0
   -3.6224   -3.0268   -1.8993 C   0  0  0  0  0  0  0  0  0  0  0  0
   -9.8746   -1.3512   -0.7891 C   0  0  1  0  0  0  0  0  0  0  0  0
   -9.2132   -0.0348   -1.2841 C   0  0  1  0  0  0  0  0  0  0  0  0
   -8.3213   -0.2080   -2.5473 C   0  0  2  0  0  0  0  0  0  0  0  0
   -7.2782   -1.3544   -2.3491 C   0  0  1  0  0  0  0  0  0  0  0  0
   -6.1408   -0.9024   -1.5609 O   0  0  0  0  0  0  0  0  0  0  0  0
   -9.3577   -2.5733   -1.6075 C   0  0  1  0  0  0  0  0  0  0  0  0
   -7.8955   -2.5271   -1.6876 O   0  0  0  0  0  0  0  0  0  0  0  0
   -9.7930   -3.9270   -0.9896 C   0  0  0  0  0  0  0  0  0  0  0  0
   -1.5339   -4.6933   -4.4717 N   0  3  0  0  0  0  0  0  0  0  0  0
   -4.4791    1.2384   -0.9812 O   0  0  0  0  0  0  0  0  0  0  0  0
  -10.2466    0.9031   -1.5821 O   0  0  0  0  0  0  0  0  0  0  0  0
   -9.5647   -1.5195    0.5960 O   0  0  0  0  0  0  0  0  0  0  0  0
   -4.4025   -3.3031   -3.0498 O   0  0  0  0  0  0  0  0  0  0  0  0
   -1.2612    2.6999   -3.6747 O   0  0  0  0  0  0  0  0  0  0  0  0
   -9.2119   -4.1616    0.3450 N   0  3  0  0  0  0  0  0  0  0  0  0
   -7.6909    1.0751   -2.9456 N   0  3  0  0  0  0  0  0  0  0  0  0
  1  2  1  6  0  0  0
  1  3  1  0  0  0  0
  1 10  1  0  0  0  0
  3  4  1  6  0  0  0
  3  5  1  0  0  0  0
  5  6  1  6  0  0  0
  5  7  1  0  0  0  0
  7  8  1  6  0  0  0
  7  9  1  0  0  0  0
  9 10  1  0  0  0  0
  9 11  1  1  0  0  0
 11 35  1  0  0  0  0
 12 13  1  1  0  0  0
 12 14  1  0  0  0  0
 12 20  1  0  0  0  0
 14 15  1  0  0  0  0
 14 40  1  6  0  0  0
 15 16  1  1  0  0  0
 15 17  1  0  0  0  0
 17  2  1  6  0  0  0
 17 18  1  0  0  0  0
 18 19  1  1  0  0  0
 18 20  1  0  0  0  0
 21 16  1  6  0  0  0
 21 22  1  0  0  0  0
 21 25  1  0  0  0  0
 22 23  1  0  0  0  0
 22 36  1  1  0  0  0
 23 24  1  0  0  0  0
 23 31  1  1  0  0  0
 24 25  1  0  0  0  0
 24 26  1  6  0  0  0
 26 39  1  0  0  0  0
 27 28  1  0  0  0  0
 27 32  1  0  0  0  0
 27 38  1  1  0  0  0
 28 29  1  0  0  0  0
 28 37  1  6  0  0  0
 29 30  1  0  0  0  0
 29 42  1  1  0  0  0
 30 31  1  1  0  0  0
 30 33  1  0  0  0  0
 32 33  1  0  0  0  0
 32 34  1  1  0  0  0
 34 41  1  0  0  0  0
M  CHG  6   4   1  13   1  19   1  35   1  41   1  42   1
M  END
>  <CHROM.1>
-132.92190545,27.59895590,64.00889854,-167.94214897,172.75229233,-67.08663944
88.13679175,-45.59125511,-56.43957510,17.56991963,72.95648247,-64.74523173
-153.66738422,118.33398772,10.51984813,-177.43367801,71.00878121,70.28750473
67.93951298,-112.34138182,-64.35423699,-72.86042079,-4.87325448,-0.72546427
-3.94416849,0.02204709,-0.76984978,-2.98855659

>  <Name>


>  <RI>
0

>  <Rbt.Current_Directory>
/home/itssahil/PROJECTS/Mol_Feturizer/New_Systems/rnas/1ei2

>  <Rbt.Executable>
rbdock ($Id: //depot/dev/client3/rdock/2013.1/src/exe/rbdock.cxx#4 $)

>  <Rbt.Library>
libRbt.so (2013.1, Build901 2013/11/27)

>  <Rbt.Parameter_File>
/export/apps/rDock/src/rDock_2013.1_src/data/scripts/dock_solv.prm

>  <Rbt.Receptor>
prm/blind_docking_60.prm

>  <SCORE>
-16.5165

>  <SCORE.INTER>
-17.5515

>  <SCORE.INTER.CONST>
1

>  <SCORE.INTER.POLAR>
-3.35131

>  <SCORE.INTER.ROT>
9

>  <SCORE.INTER.SOLV>
41.5857

>  <SCORE.INTER.VDW>
-23.9919

>  <SCORE.INTER.norm>
-0.417894

>  <SCORE.INTRA>
-6.1645

>  <SCORE.INTRA.DIHEDRAL>
3.59161

>  <SCORE.INTRA.DIHEDRAL.0>
40.8761

>  <SCORE.INTRA.POLAR>
-0.944302

>  <SCORE.INTRA.POLAR.0>
-0.0268208

>  <SCORE.INTRA.REPUL>
-0.641615

>  <SCORE.INTRA.REPUL.0>
0.641615

>  <SCORE.INTRA.SOLV>
-4.82793

>  <SCORE.INTRA.SOLV.lig_0>
-162.567

>  <SCORE.INTRA.VDW>
0.872358

>  <SCORE.INTRA.VDW.0>
-4.80338

>  <SCORE.INTRA.norm>
-0.146774

>  <SCORE.RESTR>
7.1995

>  <SCORE.RESTR.CAVITY>
7.1995

>  <SCORE.RESTR.norm>
0.171417

>  <SCORE.SYSTEM>
0

>  <SCORE.SYSTEM.CONST>
0

>  <SCORE.SYSTEM.DIHEDRAL>
0

>  <SCORE.SYSTEM.SOLV>
0

>  <SCORE.SYSTEM.norm>
0

>  <SCORE.heavy>
42

>  <SCORE.norm>
-0.393251

>  <RMSD>
9.320

$$$$

 OpenBabel11021811393D
libRbt.so/2013.1/901 2013/11/27
 42 45  0  0  0  0  0  0  0  0999 V2000
   -4.5637    0.9715   -5.8173 C   0  0  2  0  0  0  0  0  0  0  0  0
   -4.6477   -0.4369   -6.1952 O   0  0  0  0  0  0  0  0  0  0  0  0
   -5.6272    1.8344   -6.5712 C   0  0  2  0  0  0  0  0  0  0  0  0
   -6.6710    0.9911   -7.1978 N   0  3  0  0  0  0  0  0  0  0  0  0
   -4.9436    2.7414   -7.6384 C   0  0  1  0  0  0  0  0  0  0  0  0
   -5.9219    3.5306   -8.3119 O   0  0  0  0  0  0  0  0  0  0  0  0
   -3.8972    3.6939   -7.0002 C   0  0  2  0  0  0  0  0  0  0  0  0
   -3.1154    4.2750   -8.0380 O   0  0  0  0  0  0  0  0  0  0  0  0
   -2.9732    2.9309   -5.9966 C   0  0  2  0  0  0  0  0  0  0  0  0
   -3.2155    1.4891   -6.0851 O   0  0  0  0  0  0  0  0  0  0  0  0
   -3.1775    3.3192   -4.5141 C   0  0  0  0  0  0  0  0  0  0  0  0
   -2.4064   -4.1238   -6.2503 C   0  0  1  0  0  0  0  0  0  0  0  0
   -1.3416   -5.1364   -6.0731 N   0  3  0  0  0  0  0  0  0  0  0  0
   -3.0312   -3.7112   -4.8917 C   0  0  1  0  0  0  0  0  0  0  0  0
   -4.0603   -2.5327   -5.0010 C   0  0  1  0  0  0  0  0  0  0  0  0
   -4.3195   -2.0310   -3.6623 O   0  0  0  0  0  0  0  0  0  0  0  0
   -3.5378   -1.3277   -5.8665 C   0  0  1  0  0  0  0  0  0  0  0  0
   -2.8940   -1.8058   -7.2081 C   0  0  1  0  0  0  0  0  0  0  0  0
   -2.2709   -0.6920   -7.9519 N   0  3  0  0  0  0  0  0  0  0  0  0
   -1.8217   -2.8938   -6.9752 C   0  0  0  0  0  0  0  0  0  0  0  0
   -5.1757   -0.8656   -3.4851 C   0  0  1  0  0  0  0  0  0  0  0  0
   -6.4885   -1.3188   -2.8574 C   0  0  1  0  0  0  0  0  0  0  0  0
   -6.0645   -1.4218   -1.3986 C   0  0  1  0  0  0  0  0  0  0  0  0
   -5.1839   -0.1738   -1.2427 C   0  0  2  0  0  0  0  0  0  0  0  0
   -4.5821    0.0414   -2.5416 O   0  0  0  0  0  0  0  0  0  0  0  0
   -4.0899   -0.3387   -0.1726 C   0  0  0  0  0  0  0  0  0  0  0  0
   -9.6639   -3.9758    0.9260 C   0  0  1  0  0  0  0  0  0  0  0  0
   -9.7253   -2.4443    1.1835 C   0  0  1  0  0  0  0  0  0  0  0  0
   -9.6665   -1.5800   -0.1090 C   0  0  2  0  0  0  0  0  0  0  0  0
   -8.4474   -1.9803   -1.0009 C   0  0  1  0  0  0  0  0  0  0  0  0
   -7.2134   -1.3894   -0.5037 O   0  0  0  0  0  0  0  0  0  0  0  0
   -9.4071   -4.2746   -0.5823 C   0  0  1  0  0  0  0  0  0  0  0  0
   -8.2938   -3.4521   -1.0627 O   0  0  0  0  0  0  0  0  0  0  0  0
   -9.0884   -5.7691   -0.8444 C   0  0  0  0  0  0  0  0  0  0  0  0
   -2.8904    4.7319   -4.2091 N   0  3  0  0  0  0  0  0  0  0  0  0
   -7.4851   -0.3134   -3.0431 O   0  0  0  0  0  0  0  0  0  0  0  0
  -10.9412   -2.1524    1.8710 O   0  0  0  0  0  0  0  0  0  0  0  0
   -8.6129   -4.5262    1.7231 O   0  0  0  0  0  0  0  0  0  0  0  0
   -4.6095   -0.0941    1.1232 O   0  0  0  0  0  0  0  0  0  0  0  0
   -3.6938   -4.8433   -4.3289 O   0  0  0  0  0  0  0  0  0  0  0  0
  -10.1356   -6.4501   -1.6277 N   0  3  0  0  0  0  0  0  0  0  0  0
   -9.6913   -0.1302    0.2070 N   0  3  0  0  0  0  0  0  0  0  0  0
  1  2  1  6  0  0  0
  1  3  1  0  0  0  0
  1 10  1  0  0  0  0
  3  4  1  6  0  0  0
  3  5  1  0  0  0  0
  5  6  1  1  0  0  0
  5  7  1  0  0  0  0
  7  8  1  6  0  0  0
  7  9  1  0  0  0  0
  9 10  1  0  0  0  0
  9 11  1  1  0  0  0
 11 35  1  0  0  0  0
 12 13  1  1  0  0  0
 12 14  1  0  0  0  0
 12 20  1  0  0  0  0
 14 15  1  0  0  0  0
 14 40  1  6  0  0  0
 15 16  1  1  0  0  0
 15 17  1  0  0  0  0
 17  2  1  6  0  0  0
 17 18  1  0  0  0  0
 18 19  1  1  0  0  0
 18 20  1  0  0  0  0
 21 16  1  1  0  0  0
 21 22  1  0  0  0  0
 21 25  1  0  0  0  0
 22 23  1  0  0  0  0
 22 36  1  1  0  0  0
 23 24  1  0  0  0  0
 23 31  1  1  0  0  0
 24 25  1  0  0  0  0
 24 26  1  1  0  0  0
 26 39  1  0  0  0  0
 27 28  1  0  0  0  0
 27 32  1  0  0  0  0
 27 38  1  1  0  0  0
 28 29  1  0  0  0  0
 28 37  1  6  0  0  0
 29 30  1  0  0  0  0
 29 42  1  1  0  0  0
 30 31  1  1  0  0  0
 30 33  1  0  0  0  0
 32 33  1  0  0  0  0
 32 34  1  1  0  0  0
 34 41  1  0  0  0  0
M  CHG  6   4   1  13   1  19   1  35   1  41   1  42   1
M  END
>  <CHROM.1>
164.53281698,123.24806411,-24.87022784,-168.22439126,67.80790482,-61.79773526
-169.95384325,172.53276144,166.24918666,175.74821618,109.36027581,7.98227888
49.85274874,32.43178029,-82.20456205,-61.25914707,88.36818237,79.44774285
58.93749008,-166.27049623,113.31402346,15.18663039,-5.62613656,-0.97529595
-3.54296635,0.60624684,0.84251452,-0.15995385

>  <Name>


>  <RI>
0

>  <Rbt.Current_Directory>
/home/itssahil/PROJECTS/Mol_Feturizer/New_Systems/rnas/1ei2

>  <Rbt.Executable>
rbdock ($Id: //depot/dev/client3/rdock/2013.1/src/exe/rbdock.cxx#4 $)

>  <Rbt.Library>
libRbt.so (2013.1, Build901 2013/11/27)

>  <Rbt.Parameter_File>
/export/apps/rDock/src/rDock_2013.1_src/data/scripts/dock_solv.prm

>  <Rbt.Receptor>
prm/blind_docking_60.prm

>  <SCORE>
74.0622

>  <SCORE.INTER>
77.3384

>  <SCORE.INTER.CONST>
1

>  <SCORE.INTER.POLAR>
-7.65861

>  <SCORE.INTER.ROT>
9

>  <SCORE.INTER.SOLV>
63.4448

>  <SCORE.INTER.VDW>
46.3394

>  <SCORE.INTER.norm>
1.84139

>  <SCORE.INTRA>
-12.1627

>  <SCORE.INTRA.DIHEDRAL>
1.86214

>  <SCORE.INTRA.DIHEDRAL.0>
40.8761

>  <SCORE.INTRA.POLAR>
-1.51428

>  <SCORE.INTRA.POLAR.0>
-0.0268208

>  <SCORE.INTRA.REPUL>
-0.641615

>  <SCORE.INTRA.REPUL.0>
0.641615

>  <SCORE.INTRA.SOLV>
-13.2818

>  <SCORE.INTRA.SOLV.lig_0>
-162.567

>  <SCORE.INTRA.VDW>
1.90378

>  <SCORE.INTRA.VDW.0>
-4.80338

>  <SCORE.INTRA.norm>
-0.289588

>  <SCORE.RESTR>
8.8865

>  <SCORE.RESTR.CAVITY>
8.8865

>  <SCORE.RESTR.norm>
0.211583

>  <SCORE.SYSTEM>
0

>  <SCORE.SYSTEM.CONST>
0

>  <SCORE.SYSTEM.DIHEDRAL>
0

>  <SCORE.SYSTEM.SOLV>
0

>  <SCORE.SYSTEM.norm>
0

>  <SCORE.heavy>
42

>  <SCORE.norm>
1.76339

>  <RMSD>
9.322

$$$$

 OpenBabel11021811393D
libRbt.so/2013.1/901 2013/11/27
 42 45  0  0  0  0  0  0  0  0999 V2000
   -2.8970   -0.3706   -6.9003 C   0  0  2  0  0  0  0  0  0  0  0  0
   -3.7625    0.7978   -6.7607 O   0  0  0  0  0  0  0  0  0  0  0  0
   -2.5449   -0.6506   -8.3974 C   0  0  2  0  0  0  0  0  0  0  0  0
   -2.8660    0.5089   -9.2608 N   0  3  0  0  0  0  0  0  0  0  0  0
   -3.2768   -1.9295   -8.9049 C   0  0  1  0  0  0  0  0  0  0  0  0
   -2.9400   -2.1803  -10.2677 O   0  0  0  0  0  0  0  0  0  0  0  0
   -2.8998   -3.1803   -8.0666 C   0  0  2  0  0  0  0  0  0  0  0  0
   -3.8036   -4.2328   -8.3844 O   0  0  0  0  0  0  0  0  0  0  0  0
   -2.9522   -2.8734   -6.5348 C   0  0  2  0  0  0  0  0  0  0  0  0
   -3.5382   -1.5508   -6.3058 O   0  0  0  0  0  0  0  0  0  0  0  0
   -1.5742   -2.8694   -5.8338 C   0  0  0  0  0  0  0  0  0  0  0  0
   -2.5508    3.7157   -3.8217 C   0  0  1  0  0  0  0  0  0  0  0  0
   -2.4948    4.5714   -2.6154 N   0  3  0  0  0  0  0  0  0  0  0  0
   -2.2763    2.2283   -3.4776 C   0  0  1  0  0  0  0  0  0  0  0  0
   -2.4702    1.2526   -4.6902 C   0  0  1  0  0  0  0  0  0  0  0  0
   -2.5073   -0.1064   -4.1778 O   0  0  0  0  0  0  0  0  0  0  0  0
   -3.8081    1.4987   -5.4800 C   0  0  1  0  0  0  0  0  0  0  0  0
   -4.0452    3.0157   -5.7725 C   0  0  1  0  0  0  0  0  0  0  0  0
   -5.3685    3.2629   -6.3805 N   0  3  0  0  0  0  0  0  0  0  0  0
   -3.9319    3.8724   -4.4915 C   0  0  0  0  0  0  0  0  0  0  0  0
   -2.5539   -0.3307   -2.7389 C   0  0  1  0  0  0  0  0  0  0  0  0
   -3.8833    0.1931   -2.2088 C   0  0  1  0  0  0  0  0  0  0  0  0
   -4.7934   -0.9711   -2.5757 C   0  0  1  0  0  0  0  0  0  0  0  0
   -3.9091   -2.1774   -2.2291 C   0  0  2  0  0  0  0  0  0  0  0  0
   -2.5486   -1.7405   -2.4609 O   0  0  0  0  0  0  0  0  0  0  0  0
   -4.2205   -3.4181   -3.0853 C   0  0  0  0  0  0  0  0  0  0  0  0
   -9.6856   -1.3313   -0.7082 C   0  0  1  0  0  0  0  0  0  0  0  0
   -9.1217   -0.1732   -1.5779 C   0  0  1  0  0  0  0  0  0  0  0  0
   -8.2809   -0.6469   -2.7986 C   0  0  2  0  0  0  0  0  0  0  0  0
   -7.1679   -1.6527   -2.3613 C   0  0  1  0  0  0  0  0  0  0  0  0
   -6.0220   -0.9574   -1.7932 O   0  0  0  0  0  0  0  0  0  0  0  0
   -9.1403   -2.7077   -1.1965 C   0  0  1  0  0  0  0  0  0  0  0  0
   -7.6881   -2.6254   -1.3729 O   0  0  0  0  0  0  0  0  0  0  0  0
   -9.4709   -3.8590   -0.2120 C   0  0  0  0  0  0  0  0  0  0  0  0
   -0.7904   -4.1027   -6.0236 N   0  3  0  0  0  0  0  0  0  0  0  0
   -3.8036    0.3694   -0.7942 O   0  0  0  0  0  0  0  0  0  0  0  0
  -10.2181    0.6054   -2.0555 O   0  0  0  0  0  0  0  0  0  0  0  0
   -9.3031   -1.1037    0.6501 O   0  0  0  0  0  0  0  0  0  0  0  0
   -3.3163   -4.4708   -2.7972 O   0  0  0  0  0  0  0  0  0  0  0  0
   -0.9347    2.1067   -3.0058 O   0  0  0  0  0  0  0  0  0  0  0  0
   -9.6002   -5.1664   -0.8812 N   0  3  0  0  0  0  0  0  0  0  0  0
   -7.7416    0.5041   -3.5645 N   0  3  0  0  0  0  0  0  0  0  0  0
  1  2  1  6  0  0  0
  1  3  1  0  0  0  0
  1 10  1  0  0  0  0
  3  4  1  6  0  0  0
  3  5  1  0  0  0  0
  5  6  1  6  0  0  0
  5  7  1  0  0  0  0
  7  8  1  1  0  0  0
  7  9  1  0  0  0  0
  9 10  1  0  0  0  0
  9 11  1  6  0  0  0
 11 35  1  0  0  0  0
 12 13  1  1  0  0  0
 12 14  1  0  0  0  0
 12 20  1  0  0  0  0
 14 15  1  0  0  0  0
 14 40  1  6  0  0  0
 15 16  1  1  0  0  0
 15 17  1  0  0  0  0
 17  2  1  6  0  0  0
 17 18  1  0  0  0  0
 18 19  1  1  0  0  0
 18 20  1  0  0  0  0
 21 16  1  6  0  0  0
 21 22  1  0  0  0  0
 21 25  1  0  0  0  0
 22 23  1  0  0  0  0
 22 36  1  1  0  0  0
 23 24  1  0  0  0  0
 23 31  1  1  0  0  0
 24 25  1  0  0  0  0
 24 26  1  6  0  0  0
 26 39  1  0  0  0  0
 27 28  1  0  0  0  0
 27 32  1  0  0  0  0
 27 38  1  1  0  0  0
 28 29  1  0  0  0  0
 28 37  1  6  0  0  0
 29 30  1  0  0  0  0
 29 42  1  1  0  0  0
 30 31  1  1  0  0  0
 30 33  1  0  0  0  0
 32 33  1  0  0  0  0
 32 34  1  1  0  0  0
 34 41  1  0  0  0  0
M  CHG  6   4   1  13   1  19   1  35   1  41   1  42   1
M  END
>  <CHROM.1>
-158.06104624,24.91932099,-71.44205447,57.25652905,156.33736215,-54.59727184
-0.69358550,32.28538099,-73.80092543,8.26743364,66.14525341,65.25661308,-52.48133403
156.96946193,175.72144816,-65.19896502,152.35110269,165.39338237,173.32248852
-110.64489403,151.16391304,85.67305515,-4.68499680,-0.70590042,-4.10583141
0.11012784,-0.78723491,-2.75803706

>  <Name>


>  <RI>
0

>  <Rbt.Current_Directory>
/home/itssahil/PROJECTS/Mol_Feturizer/New_Systems/rnas/1ei2

>  <Rbt.Executable>
rbdock ($Id: //depot/dev/client3/rdock/2013.1/src/exe/rbdock.cxx#4 $)

>  <Rbt.Library>
libRbt.so (2013.1, Build901 2013/11/27)

>  <Rbt.Parameter_File>
/export/apps/rDock/src/rDock_2013.1_src/data/scripts/dock_solv.prm

>  <Rbt.Receptor>
prm/blind_docking_100.prm

>  <SCORE>
-26.1946

>  <SCORE.INTER>
-26.513

>  <SCORE.INTER.CONST>
1

>  <SCORE.INTER.POLAR>
-6.48399

>  <SCORE.INTER.ROT>
9

>  <SCORE.INTER.SOLV>
46.8831

>  <SCORE.INTER.VDW>
-21.2898

>  <SCORE.INTER.norm>
-0.631262

>  <SCORE.INTRA>
-6.8848

>  <SCORE.INTRA.DIHEDRAL>
0.171709

>  <SCORE.INTRA.DIHEDRAL.0>
40.8761

>  <SCORE.INTRA.POLAR>
0.0261539

>  <SCORE.INTRA.POLAR.0>
-0.0268208

>  <SCORE.INTRA.REPUL>
-0.641615

>  <SCORE.INTRA.REPUL.0>
0.641615

>  <SCORE.INTRA.SOLV>
-12.7239

>  <SCORE.INTRA.SOLV.lig_0>
-162.567

>  <SCORE.INTRA.VDW>
2.51043

>  <SCORE.INTRA.VDW.0>
-4.80338

>  <SCORE.INTRA.norm>
-0.163924

>  <SCORE.RESTR>
7.20324

>  <SCORE.RESTR.CAVITY>
7.20324

>  <SCORE.RESTR.norm>
0.171506

>  <SCORE.SYSTEM>
0

>  <SCORE.SYSTEM.CONST>
0

>  <SCORE.SYSTEM.DIHEDRAL>
0

>  <SCORE.SYSTEM.SOLV>
0

>  <SCORE.SYSTEM.norm>
0

>  <SCORE.heavy>
42

>  <SCORE.norm>
-0.623681

>  <RMSD>
9.325

$$$$

 OpenBabel11021811393D
libRbt.so/2013.1/901 2013/11/27
 42 45  0  0  0  0  0  0  0  0999 V2000
   -3.1455   -0.7211   -6.8831 C   0  0  2  0  0  0  0  0  0  0  0  0
   -4.3436    0.0273   -6.5116 O   0  0  0  0  0  0  0  0  0  0  0  0
   -3.2868   -1.3680   -8.2993 C   0  0  2  0  0  0  0  0  0  0  0  0
   -4.4210   -0.7881   -9.0546 N   0  3  0  0  0  0  0  0  0  0  0  0
   -3.4399   -2.9147   -8.1849 C   0  0  1  0  0  0  0  0  0  0  0  0
   -3.5577   -3.4941   -9.4825 O   0  0  0  0  0  0  0  0  0  0  0  0
   -2.2268   -3.5623   -7.4649 C   0  0  2  0  0  0  0  0  0  0  0  0
   -2.5550   -4.9078   -7.1369 O   0  0  0  0  0  0  0  0  0  0  0  0
   -1.8476   -2.7725   -6.1704 C   0  0  2  0  0  0  0  0  0  0  0  0
   -2.8650   -1.7590   -5.8825 O   0  0  0  0  0  0  0  0  0  0  0  0
   -0.4956   -2.0266   -6.2469 C   0  0  0  0  0  0  0  0  0  0  0  0
   -2.8197    3.8330   -5.1647 C   0  0  1  0  0  0  0  0  0  0  0  0
   -2.6121    5.0870   -4.4065 N   0  3  0  0  0  0  0  0  0  0  0  0
   -2.4192    2.5894   -4.3285 C   0  0  1  0  0  0  0  0  0  0  0  0
   -2.7577    1.2246   -5.0233 C   0  0  1  0  0  0  0  0  0  0  0  0
   -2.6436    0.1697   -4.0308 O   0  0  0  0  0  0  0  0  0  0  0  0
   -4.2163    1.1690   -5.6094 C   0  0  1  0  0  0  0  0  0  0  0  0
   -4.5731    2.4591   -6.4164 C   0  0  1  0  0  0  0  0  0  0  0  0
   -5.9880    2.4745   -6.8403 N   0  3  0  0  0  0  0  0  0  0  0  0
   -4.2970    3.7420   -5.6003 C   0  0  0  0  0  0  0  0  0  0  0  0
   -2.8108    0.4899   -2.6194 C   0  0  1  0  0  0  0  0  0  0  0  0
   -4.3003    0.6209   -2.3246 C   0  0  1  0  0  0  0  0  0  0  0  0
   -4.6762   -0.8489   -2.1947 C   0  0  1  0  0  0  0  0  0  0  0  0
   -3.4800   -1.4069   -1.4106 C   0  0  2  0  0  0  0  0  0  0  0  0
   -2.3449   -0.6018   -1.8093 O   0  0  0  0  0  0  0  0  0  0  0  0
   -3.2062   -2.8924   -1.7065 C   0  0  0  0  0  0  0  0  0  0  0  0
   -9.6890   -1.4251   -0.8175 C   0  0  1  0  0  0  0  0  0  0  0  0
   -9.0398   -0.2760   -1.6382 C   0  0  1  0  0  0  0  0  0  0  0  0
   -8.0544   -0.7610   -2.7405 C   0  0  2  0  0  0  0  0  0  0  0  0
   -6.9891   -1.7420   -2.1535 C   0  0  1  0  0  0  0  0  0  0  0  0
   -5.9273   -1.0193   -1.4683 O   0  0  0  0  0  0  0  0  0  0  0  0
   -9.0730   -2.8026   -1.2088 C   0  0  1  0  0  0  0  0  0  0  0  0
   -7.6112   -2.7028   -1.2136 O   0  0  0  0  0  0  0  0  0  0  0  0
   -9.5042   -3.9393   -0.2466 C   0  0  0  0  0  0  0  0  0  0  0  0
   -0.5581   -0.6094   -5.8482 N   0  3  0  0  0  0  0  0  0  0  0  0
   -4.4895    1.3202   -1.0942 O   0  0  0  0  0  0  0  0  0  0  0  0
  -10.0811    0.4773   -2.2585 O   0  0  0  0  0  0  0  0  0  0  0  0
   -9.4734   -1.1658    0.5715 O   0  0  0  0  0  0  0  0  0  0  0  0
   -3.3173   -3.1602   -3.0939 O   0  0  0  0  0  0  0  0  0  0  0  0
   -1.0145    2.6371   -4.0794 O   0  0  0  0  0  0  0  0  0  0  0  0
   -8.4287   -4.9156    0.0063 N   0  3  0  0  0  0  0  0  0  0  0  0
   -7.4419    0.3827   -3.4610 N   0  3  0  0  0  0  0  0  0  0  0  0
  1  2  1  1  0  0  0
  1  3  1  0  0  0  0
  1 10  1  0  0  0  0
  3  4  1  1  0  0  0
  3  5  1  0  0  0  0
  5  6  1  6  0  0  0
  5  7  1  0  0  0  0
  7  8  1  1  0  0  0
  7  9  1  0  0  0  0
  9 10  1  0  0  0  0
  9 11  1  6  0  0  0
 11 35  1  0  0  0  0
 12 13  1  1  0  0  0
 12 14  1  0  0  0  0
 12 20  1  0  0  0  0
 14 15  1  0  0  0  0
 14 40  1  6  0  0  0
 15 16  1  1  0  0  0
 15 17  1  0  0  0  0
 17  2  1  6  0  0  0
 17 18  1  0  0  0  0
 18 19  1  1  0  0  0
 18 20  1  0  0  0  0
 21 16  1  6  0  0  0
 21 22  1  0  0  0  0
 21 25  1  0  0  0  0
 22 23  1  0  0  0  0
 22 36  1  1  0  0  0
 23 24  1  0  0  0  0
 23 31  1  1  0  0  0
 24 25  1  0  0  0  0
 24 26  1  6  0  0  0
 26 39  1  0  0  0  0
 27 28  1  0  0  0  0
 27 32  1  0  0  0  0
 27 38  1  1  0  0  0
 28 29  1  0  0  0  0
 28 37  1  6  0  0  0
 29 30  1  0  0  0  0
 29 42  1  1  0  0  0
 30 31  1  1  0  0  0
 30 33  1  0  0  0  0
 32 33  1  0  0  0  0
 32 34  1  1  0  0  0
 34 41  1  0  0  0  0
M  CHG  6   4   1  13   1  19   1  35   1  41   1  42   1
M  END
>  <CHROM.1>
-151.17175844,-8.93656064,-170.28773318,48.79994174,-66.20169299,129.60827952
-83.11166112,146.35411237,-46.48861356,24.89987807,78.51986676,-174.56295138
-55.03529190,123.11772406,42.70298157,66.75355429,67.05396427,-82.92821939
172.04149191,-101.20286704,-143.19992041,-83.61426130,-4.67473080,-0.61664748
-4.08481736,-0.01322207,-0.79240196,-2.88451909

>  <Name>


>  <RI>
0

>  <Rbt.Current_Directory>
/home/itssahil/PROJECTS/Mol_Feturizer/New_Systems/rnas/1ei2

>  <Rbt.Executable>
rbdock ($Id: //depot/dev/client3/rdock/2013.1/src/exe/rbdock.cxx#4 $)

>  <Rbt.Library>
libRbt.so (2013.1, Build901 2013/11/27)

>  <Rbt.Parameter_File>
/export/apps/rDock/src/rDock_2013.1_src/data/scripts/dock_solv.prm

>  <Rbt.Receptor>
prm/blind_docking_80.prm

>  <SCORE>
-1.59601

>  <SCORE.INTER>
-8.10662

>  <SCORE.INTER.CONST>
1

>  <SCORE.INTER.POLAR>
-2.86596

>  <SCORE.INTER.ROT>
9

>  <SCORE.INTER.SOLV>
39.0924

>  <SCORE.INTER.VDW>
-18.482

>  <SCORE.INTER.norm>
-0.193015

>  <SCORE.INTRA>
-0.868321

>  <SCORE.INTRA.DIHEDRAL>
7.29787

>  <SCORE.INTRA.DIHEDRAL.0>
40.8761

>  <SCORE.INTRA.POLAR>
-1.28976

>  <SCORE.INTRA.POLAR.0>
-0.0268208

>  <SCORE.INTRA.REPUL>
-0.541608

>  <SCORE.INTRA.REPUL.0>
0.641615

>  <SCORE.INTRA.SOLV>
-0.594027

>  <SCORE.INTRA.SOLV.lig_0>
-162.567

>  <SCORE.INTRA.VDW>
2.87297

>  <SCORE.INTRA.VDW.0>
-4.80338

>  <SCORE.INTRA.norm>
-0.0206743

>  <SCORE.RESTR>
7.37893

>  <SCORE.RESTR.CAVITY>
7.37893

>  <SCORE.RESTR.norm>
0.175689

>  <SCORE.SYSTEM>
0

>  <SCORE.SYSTEM.CONST>
0

>  <SCORE.SYSTEM.DIHEDRAL>
0

>  <SCORE.SYSTEM.SOLV>
0

>  <SCORE.SYSTEM.norm>
0

>  <SCORE.heavy>
42

>  <SCORE.norm>
-0.0380002

>  <RMSD>
9.332

$$$$

 OpenBabel11021811393D
libRbt.so/2013.1/901 2013/11/27
 42 45  0  0  0  0  0  0  0  0999 V2000
   -3.3818   -0.8503   -6.6497 C   0  0  2  0  0  0  0  0  0  0  0  0
   -4.4765    0.1058   -6.5039 O   0  0  0  0  0  0  0  0  0  0  0  0
   -2.8948   -0.9463   -8.1321 C   0  0  2  0  0  0  0  0  0  0  0  0
   -3.3990    0.1824   -8.9475 N   0  3  0  0  0  0  0  0  0  0  0  0
   -3.3167   -2.3077   -8.7627 C   0  0  1  0  0  0  0  0  0  0  0  0
   -2.8585   -2.3878  -10.1107 O   0  0  0  0  0  0  0  0  0  0  0  0
   -2.7377   -3.5125   -7.9736 C   0  0  2  0  0  0  0  0  0  0  0  0
   -3.3850   -4.7009   -8.4143 O   0  0  0  0  0  0  0  0  0  0  0  0
   -2.9393   -3.3319   -6.4341 C   0  0  2  0  0  0  0  0  0  0  0  0
   -3.7980   -2.1749   -6.1708 O   0  0  0  0  0  0  0  0  0  0  0  0
   -1.6340   -3.0987   -5.6392 C   0  0  0  0  0  0  0  0  0  0  0  0
   -2.9802    3.8768   -5.0340 C   0  0  1  0  0  0  0  0  0  0  0  0
   -2.7686    5.0975   -4.2243 N   0  3  0  0  0  0  0  0  0  0  0  0
   -2.5196    2.6041   -4.2762 C   0  0  1  0  0  0  0  0  0  0  0  0
   -2.8570    1.2668   -5.0229 C   0  0  1  0  0  0  0  0  0  0  0  0
   -2.6801    0.1683   -4.0886 O   0  0  0  0  0  0  0  0  0  0  0  0
   -4.3368    1.2055   -5.5527 C   0  0  1  0  0  0  0  0  0  0  0  0
   -4.7535    2.5242   -6.2809 C   0  0  1  0  0  0  0  0  0  0  0  0
   -6.1846    2.5270   -6.6470 N   0  3  0  0  0  0  0  0  0  0  0  0
   -4.4718    3.7725   -5.4146 C   0  0  0  0  0  0  0  0  0  0  0  0
   -2.7985    0.4160   -2.6577 C   0  0  1  0  0  0  0  0  0  0  0  0
   -4.2699    0.6284   -2.3220 C   0  0  1  0  0  0  0  0  0  0  0  0
   -4.7420   -0.8181   -2.2676 C   0  0  1  0  0  0  0  0  0  0  0  0
   -3.5717   -1.4994   -1.5440 C   0  0  2  0  0  0  0  0  0  0  0  0
   -2.3924   -0.7497   -1.9220 O   0  0  0  0  0  0  0  0  0  0  0  0
   -3.4049   -2.9800   -1.9303 C   0  0  0  0  0  0  0  0  0  0  0  0
   -9.7151   -1.4025   -0.7250 C   0  0  1  0  0  0  0  0  0  0  0  0
   -9.1106   -0.2284   -1.5445 C   0  0  1  0  0  0  0  0  0  0  0  0
   -8.1688   -0.6781   -2.6986 C   0  0  2  0  0  0  0  0  0  0  0  0
   -7.0717   -1.6629   -2.1808 C   0  0  1  0  0  0  0  0  0  0  0  0
   -5.9877   -0.9470   -1.5237 O   0  0  0  0  0  0  0  0  0  0  0  0
   -9.1050   -2.7647   -1.1749 C   0  0  1  0  0  0  0  0  0  0  0  0
   -7.6457   -2.6514   -1.2389 O   0  0  0  0  0  0  0  0  0  0  0  0
   -9.4859   -3.9277   -0.2230 C   0  0  0  0  0  0  0  0  0  0  0  0
   -0.6555   -2.2292   -6.3159 N   0  3  0  0  0  0  0  0  0  0  0  0
   -4.3879    1.2657   -1.0498 O   0  0  0  0  0  0  0  0  0  0  0  0
  -10.1833    0.5298   -2.1021 O   0  0  0  0  0  0  0  0  0  0  0  0
   -9.4430   -1.1742    0.6595 O   0  0  0  0  0  0  0  0  0  0  0  0
   -3.5215   -3.1528   -3.3322 O   0  0  0  0  0  0  0  0  0  0  0  0
   -1.1072    2.6724   -4.0811 O   0  0  0  0  0  0  0  0  0  0  0  0
   -9.6179   -5.2200   -0.9206 N   0  3  0  0  0  0  0  0  0  0  0  0
   -7.5966    0.4879   -3.4166 N   0  3  0  0  0  0  0  0  0  0  0  0
  1  2  1  6  0  0  0
  1  3  1  0  0  0  0
  1 10  1  0  0  0  0
  3  4  1  6  0  0  0
  3  5  1  0  0  0  0
  5  6  1  6  0  0  0
  5  7  1  0  0  0  0
  7  8  1  6  0  0  0
  7  9  1  0  0  0  0
  9 10  1  0  0  0  0
  9 11  1  1  0  0  0
 11 35  1  0  0  0  0
 12 13  1  1  0  0  0
 12 14  1  0  0  0  0
 12 20  1  0  0  0  0
 14 15  1  0  0  0  0
 14 40  1  6  0  0  0
 15 16  1  1  0  0  0
 15 17  1  0  0  0  0
 17  2  1  6  0  0  0
 17 18  1  0  0  0  0
 18 19  1  1  0  0  0
 18 20  1  0  0  0  0
 21 16  1  6  0  0  0
 21 22  1  0  0  0  0
 21 25  1  0  0  0  0
 22 23  1  0  0  0  0
 22 36  1  1  0  0  0
 23 24  1  0  0  0  0
 23 31  1  1  0  0  0
 24 25  1  0  0  0  0
 24 26  1  6  0  0  0
 26 39  1  0  0  0  0
 27 28  1  0  0  0  0
 27 32  1  0  0  0  0
 27 38  1  1  0  0  0
 28 29  1  0  0  0  0
 28 37  1  6  0  0  0
 29 30  1  0  0  0  0
 29 42  1  1  0  0  0
 30 31  1  1  0  0  0
 30 33  1  0  0  0  0
 32 33  1  0  0  0  0
 32 34  1  1  0  0  0
 34 41  1  0  0  0  0
M  CHG  6   4   1  13   1  19   1  35   1  41   1  42   1
M  END
>  <CHROM.1>
-124.05330010,9.70099984,-34.46958715,-179.65931068,85.45831744,39.26081387
-115.64924451,90.67435832,-174.50002704,24.99516793,73.19967846,-52.95146414
-36.77329095,128.46216492,44.40130924,179.02272484,174.46905363,152.38540912
70.56595860,-104.78517236,147.58755273,81.93980691,-4.82300979,-0.62733706
-4.17308388,0.07466410,-0.80856292,-2.80521932

>  <Name>


>  <RI>
0

>  <Rbt.Current_Directory>
/home/itssahil/PROJECTS/Mol_Feturizer/New_Systems/rnas/1ei2

>  <Rbt.Executable>
rbdock ($Id: //depot/dev/client3/rdock/2013.1/src/exe/rbdock.cxx#4 $)

>  <Rbt.Library>
libRbt.so (2013.1, Build901 2013/11/27)

>  <Rbt.Parameter_File>
/export/apps/rDock/src/rDock_2013.1_src/data/scripts/dock_solv.prm

>  <Rbt.Receptor>
prm/blind_docking_60.prm

>  <SCORE>
-15.1039

>  <SCORE.INTER>
-28.5056

>  <SCORE.INTER.CONST>
1

>  <SCORE.INTER.POLAR>
-6.10433

>  <SCORE.INTER.ROT>
9

>  <SCORE.INTER.SOLV>
44.0148

>  <SCORE.INTER.VDW>
-22.9276

>  <SCORE.INTER.norm>
-0.678706

>  <SCORE.INTRA>
5.07865

>  <SCORE.INTRA.DIHEDRAL>
13.9356

>  <SCORE.INTRA.DIHEDRAL.0>
40.8761

>  <SCORE.INTRA.POLAR>
-0.230253

>  <SCORE.INTRA.POLAR.0>
-0.0268208

>  <SCORE.INTRA.REPUL>
-0.45394

>  <SCORE.INTRA.REPUL.0>
0.641615

>  <SCORE.INTRA.SOLV>
-4.21953

>  <SCORE.INTRA.SOLV.lig_0>
-162.567

>  <SCORE.INTRA.VDW>
3.27318

>  <SCORE.INTRA.VDW.0>
-4.80338

>  <SCORE.INTRA.norm>
0.12092

>  <SCORE.RESTR>
8.32305

>  <SCORE.RESTR.CAVITY>
8.32305

>  <SCORE.RESTR.norm>
0.198168

>  <SCORE.SYSTEM>
0

>  <SCORE.SYSTEM.CONST>
0

>  <SCORE.SYSTEM.DIHEDRAL>
0

>  <SCORE.SYSTEM.SOLV>
0

>  <SCORE.SYSTEM.norm>
0

>  <SCORE.heavy>
42

>  <SCORE.norm>
-0.359618

>  <RMSD>
9.335

$$$$

 OpenBabel11021811393D
libRbt.so/2013.1/901 2013/11/27
 42 45  0  0  0  0  0  0  0  0999 V2000
   -2.7788   -0.0692   -6.9640 C   0  0  2  0  0  0  0  0  0  0  0  0
   -3.5984    1.1399   -6.9495 O   0  0  0  0  0  0  0  0  0  0  0  0
   -2.4001   -0.4906   -8.4210 C   0  0  2  0  0  0  0  0  0  0  0  0
   -2.6506    0.6019   -9.3888 N   0  3  0  0  0  0  0  0  0  0  0  0
   -3.1711   -1.7789   -8.8391 C   0  0  1  0  0  0  0  0  0  0  0  0
   -2.8100   -2.1591  -10.1652 O   0  0  0  0  0  0  0  0  0  0  0  0
   -2.8680   -2.9666   -7.8868 C   0  0  2  0  0  0  0  0  0  0  0  0
   -3.8061   -4.0065   -8.1403 O   0  0  0  0  0  0  0  0  0  0  0  0
   -2.9470   -2.5271   -6.3888 C   0  0  2  0  0  0  0  0  0  0  0  0
   -3.4833   -1.1678   -6.2903 O   0  0  0  0  0  0  0  0  0  0  0  0
   -1.5885   -2.5166   -5.6508 C   0  0  0  0  0  0  0  0  0  0  0  0
   -2.7754    3.9214   -3.7549 C   0  0  1  0  0  0  0  0  0  0  0  0
   -2.8914    4.7511   -2.5348 N   0  3  0  0  0  0  0  0  0  0  0  0
   -2.6616    2.4135   -3.4092 C   0  0  1  0  0  0  0  0  0  0  0  0
   -2.6870    1.4734   -4.6644 C   0  0  1  0  0  0  0  0  0  0  0  0
   -2.9023    0.1113   -4.2069 O   0  0  0  0  0  0  0  0  0  0  0  0
   -3.8374    1.8205   -5.6794 C   0  0  1  0  0  0  0  0  0  0  0  0
   -3.9222    3.3545   -5.9668 C   0  0  1  0  0  0  0  0  0  0  0  0
   -5.0919    3.6987   -6.8005 N   0  3  0  0  0  0  0  0  0  0  0  0
   -3.9959    4.1801   -4.6626 C   0  0  0  0  0  0  0  0  0  0  0  0
   -2.7756   -0.1988   -2.7890 C   0  0  1  0  0  0  0  0  0  0  0  0
   -4.0943    0.1318   -2.1002 C   0  0  1  0  0  0  0  0  0  0  0  0
   -4.9000   -1.1097   -2.4581 C   0  0  1  0  0  0  0  0  0  0  0  0
   -3.8544   -2.2199   -2.2808 C   0  0  2  0  0  0  0  0  0  0  0  0
   -2.5828   -1.6116   -2.6102 O   0  0  0  0  0  0  0  0  0  0  0  0
   -4.1099   -3.4378   -3.1867 C   0  0  0  0  0  0  0  0  0  0  0  0
   -9.6729   -1.5690   -0.3674 C   0  0  1  0  0  0  0  0  0  0  0  0
   -9.0827   -0.3760   -1.1697 C   0  0  1  0  0  0  0  0  0  0  0  0
   -8.3102   -0.7944   -2.4540 C   0  0  2  0  0  0  0  0  0  0  0  0
   -7.2342   -1.8822   -2.1365 C   0  0  1  0  0  0  0  0  0  0  0  0
   -6.0357   -1.2871   -1.5632 O   0  0  0  0  0  0  0  0  0  0  0  0
   -9.2147   -2.9284   -0.9776 C   0  0  1  0  0  0  0  0  0  0  0  0
   -7.7674   -2.9017   -1.2037 O   0  0  0  0  0  0  0  0  0  0  0  0
   -9.5677   -4.1345   -0.0694 C   0  0  0  0  0  0  0  0  0  0  0  0
   -0.4738   -1.9552   -6.4342 N   0  3  0  0  0  0  0  0  0  0  0  0
   -3.8905    0.2351   -0.6908 O   0  0  0  0  0  0  0  0  0  0  0  0
  -10.1549    0.4877   -1.5449 O   0  0  0  0  0  0  0  0  0  0  0  0
   -9.2319   -1.4641    0.9882 O   0  0  0  0  0  0  0  0  0  0  0  0
   -3.4290   -4.5815   -2.6998 O   0  0  0  0  0  0  0  0  0  0  0  0
   -1.4409    2.1958   -2.7022 O   0  0  0  0  0  0  0  0  0  0  0  0
   -9.6602   -5.4045   -0.8128 N   0  3  0  0  0  0  0  0  0  0  0  0
   -7.7413    0.3848   -3.1525 N   0  3  0  0  0  0  0  0  0  0  0  0
  1  2  1  6  0  0  0
  1  3  1  0  0  0  0
  1 10  1  0  0  0  0
  3  4  1  6  0  0  0
  3  5  1  0  0  0  0
  5  6  1  6  0  0  0
  5  7  1  0  0  0  0
  7  8  1  1  0  0  0
  7  9  1  0  0  0  0
  9 10  1  0  0  0  0
  9 11  1  6  0  0  0
 11 35  1  0  0  0  0
 12 13  1  1  0  0  0
 12 14  1  0  0  0  0
 12 20  1  0  0  0  0
 14 15  1  0  0  0  0
 14 40  1  6  0  0  0
 15 16  1  1  0  0  0
 15 17  1  0  0  0  0
 17  2  1  6  0  0  0
 17 18  1  0  0  0  0
 18 19  1  6  0  0  0
 18 20  1  0  0  0  0
 21 16  1  6  0  0  0
 21 22  1  0  0  0  0
 21 25  1  0  0  0  0
 22 23  1  0  0  0  0
 22 36  1  1  0  0  0
 23 24  1  0  0  0  0
 23 31  1  1  0  0  0
 24 25  1  0  0  0  0
 24 26  1  6  0  0  0
 26 39  1  0  0  0  0
 27 28  1  0  0  0  0
 27 32  1  0  0  0  0
 27 38  1  1  0  0  0
 28 29  1  0  0  0  0
 28 37  1  6  0  0  0
 29 30  1  0  0  0  0
 29 42  1  1  0  0  0
 30 31  1  1  0  0  0
 30 33  1  0  0  0  0
 32 33  1  0  0  0  0
 32 34  1  1  0  0  0
 34 41  1  0  0  0  0
M  CHG  6   4   1  13   1  19   1  35   1  41   1  42   1
M  END
>  <CHROM.1>
-168.67305397,23.99402204,149.37242551,60.91110088,78.96271064,42.35377170
4.25416091,76.68775038,60.36179097,-12.55327782,83.74442627,51.60082941,-60.98008856
146.94218862,-160.57298645,-56.32581454,54.41840598,174.20210997,63.65581741
-101.37619692,156.60454861,73.99745627,-4.71640600,-0.59542826,-4.03154965
0.01232802,-0.83872503,-2.77687624

>  <Name>


>  <RI>
0

>  <Rbt.Current_Directory>
/home/itssahil/PROJECTS/Mol_Feturizer/New_Systems/rnas/1ei2

>  <Rbt.Executable>
rbdock ($Id: //depot/dev/client3/rdock/2013.1/src/exe/rbdock.cxx#4 $)

>  <Rbt.Library>
libRbt.so (2013.1, Build901 2013/11/27)

>  <Rbt.Parameter_File>
/export/apps/rDock/src/rDock_2013.1_src/data/scripts/dock_solv.prm

>  <Rbt.Receptor>
prm/blind_docking_40.prm

>  <SCORE>
-14.2293

>  <SCORE.INTER>
-18.0853

>  <SCORE.INTER.CONST>
1

>  <SCORE.INTER.POLAR>
-8.1814

>  <SCORE.INTER.ROT>
9

>  <SCORE.INTER.SOLV>
47.2369

>  <SCORE.INTER.VDW>
-10.1311

>  <SCORE.INTER.norm>
-0.430601

>  <SCORE.INTRA>
-4.26621

>  <SCORE.INTRA.DIHEDRAL>
-3.49483

>  <SCORE.INTRA.DIHEDRAL.0>
40.8761

>  <SCORE.INTRA.POLAR>
0.00386597

>  <SCORE.INTRA.POLAR.0>
-0.0268208

>  <SCORE.INTRA.REPUL>
-0.641615

>  <SCORE.INTRA.REPUL.0>
0.641615

>  <SCORE.INTRA.SOLV>
-8.87823

>  <SCORE.INTRA.SOLV.lig_0>
-162.567

>  <SCORE.INTRA.VDW>
5.11525

>  <SCORE.INTRA.VDW.0>
-4.80338

>  <SCORE.INTRA.norm>
-0.101576

>  <SCORE.RESTR>
8.12219

>  <SCORE.RESTR.CAVITY>
8.12219

>  <SCORE.RESTR.norm>
0.193385

>  <SCORE.SYSTEM>
0

>  <SCORE.SYSTEM.CONST>
0

>  <SCORE.SYSTEM.DIHEDRAL>
0

>  <SCORE.SYSTEM.SOLV>
0

>  <SCORE.SYSTEM.norm>
0

>  <SCORE.heavy>
42

>  <SCORE.norm>
-0.338792

>  <RMSD>
9.348

$$$$

 OpenBabel11021811393D
libRbt.so/2013.1/901 2013/11/27
 42 45  0  0  0  0  0  0  0  0999 V2000
   -3.3967   -0.9240   -6.5791 C   0  0  2  0  0  0  0  0  0  0  0  0
   -4.4475    0.0794   -6.4289 O   0  0  0  0  0  0  0  0  0  0  0  0
   -2.7865   -0.9077   -8.0183 C   0  0  2  0  0  0  0  0  0  0  0  0
   -3.1559    0.3227   -8.7549 N   0  3  0  0  0  0  0  0  0  0  0  0
   -3.2229   -2.1739   -8.8153 C   0  0  1  0  0  0  0  0  0  0  0  0
   -2.6523   -2.1529  -10.1220 O   0  0  0  0  0  0  0  0  0  0  0  0
   -2.7809   -3.4821   -8.1063 C   0  0  2  0  0  0  0  0  0  0  0  0
   -3.4491   -4.5807   -8.7162 O   0  0  0  0  0  0  0  0  0  0  0  0
   -3.1078   -3.4375   -6.5783 C   0  0  2  0  0  0  0  0  0  0  0  0
   -3.9235   -2.2602   -6.2719 O   0  0  0  0  0  0  0  0  0  0  0  0
   -1.8673   -3.3623   -5.6588 C   0  0  0  0  0  0  0  0  0  0  0  0
   -2.8479    3.8357   -5.0319 C   0  0  1  0  0  0  0  0  0  0  0  0
   -2.5860    5.0535   -4.2327 N   0  3  0  0  0  0  0  0  0  0  0  0
   -2.3617    2.5582   -4.2984 C   0  0  1  0  0  0  0  0  0  0  0  0
   -2.7472    1.2246   -5.0285 C   0  0  1  0  0  0  0  0  0  0  0  0
   -2.5342    0.1236   -4.1047 O   0  0  0  0  0  0  0  0  0  0  0  0
   -4.2517    1.1768   -5.4850 C   0  0  1  0  0  0  0  0  0  0  0  0
   -4.6921    2.4999   -6.1910 C   0  0  1  0  0  0  0  0  0  0  0  0
   -6.1393    2.5156   -6.4863 N   0  3  0  0  0  0  0  0  0  0  0  0
   -4.3572    3.7447   -5.3388 C   0  0  0  0  0  0  0  0  0  0  0  0
   -2.6608    0.3535   -2.6716 C   0  0  1  0  0  0  0  0  0  0  0  0
   -4.1255    0.6274   -2.3515 C   0  0  1  0  0  0  0  0  0  0  0  0
   -4.6635   -0.7968   -2.3273 C   0  0  1  0  0  0  0  0  0  0  0  0
   -3.5354   -1.5422   -1.6000 C   0  0  2  0  0  0  0  0  0  0  0  0
   -2.3182   -0.8411   -1.9501 O   0  0  0  0  0  0  0  0  0  0  0  0
   -3.4305   -3.0225   -2.0087 C   0  0  0  0  0  0  0  0  0  0  0  0
   -9.6485   -1.3543   -0.8007 C   0  0  1  0  0  0  0  0  0  0  0  0
   -9.0552   -0.2019   -1.6582 C   0  0  1  0  0  0  0  0  0  0  0  0
   -8.1035   -0.6794   -2.7929 C   0  0  2  0  0  0  0  0  0  0  0  0
   -6.9965   -1.6322   -2.2376 C   0  0  1  0  0  0  0  0  0  0  0  0
   -5.9239   -0.8807   -1.6019 O   0  0  0  0  0  0  0  0  0  0  0  0
   -9.0200   -2.7236   -1.2012 C   0  0  1  0  0  0  0  0  0  0  0  0
   -7.5620   -2.5946   -1.2640 O   0  0  0  0  0  0  0  0  0  0  0  0
   -9.3904   -3.8577   -0.2110 C   0  0  0  0  0  0  0  0  0  0  0  0
   -0.8103   -4.3373   -5.9805 N   0  3  0  0  0  0  0  0  0  0  0  0
   -4.2320    1.2490   -1.0706 O   0  0  0  0  0  0  0  0  0  0  0  0
  -10.1349    0.5234   -2.2454 O   0  0  0  0  0  0  0  0  0  0  0  0
   -9.3845   -1.0751    0.5760 O   0  0  0  0  0  0  0  0  0  0  0  0
   -2.0996   -3.3557   -2.3640 O   0  0  0  0  0  0  0  0  0  0  0  0
   -0.9410    2.6140   -4.1729 O   0  0  0  0  0  0  0  0  0  0  0  0
   -9.6049   -5.1547   -0.8787 N   0  3  0  0  0  0  0  0  0  0  0  0
   -7.5429    0.4681   -3.5487 N   0  3  0  0  0  0  0  0  0  0  0  0
  1  2  1  6  0  0  0
  1  3  1  0  0  0  0
  1 10  1  0  0  0  0
  3  4  1  6  0  0  0
  3  5  1  0  0  0  0
  5  6  1  6  0  0  0
  5  7  1  0  0  0  0
  7  8  1  6  0  0  0
  7  9  1  0  0  0  0
  9 10  1  0  0  0  0
  9 11  1  1  0  0  0
 11 35  1  0  0  0  0
 12 13  1  1  0  0  0
 12 14  1  0  0  0  0
 12 20  1  0  0  0  0
 14 15  1  0  0  0  0
 14 40  1  6  0  0  0
 15 16  1  1  0  0  0
 15 17  1  0  0  0  0
 17  2  1  6  0  0  0
 17 18  1  0  0  0  0
 18 19  1  1  0  0  0
 18 20  1  0  0  0  0
 21 16  1  6  0  0  0
 21 22  1  0  0  0  0
 21 25  1  0  0  0  0
 22 23  1  0  0  0  0
 22 36  1  1  0  0  0
 23 24  1  0  0  0  0
 23 31  1  1  0  0  0
 24 25  1  0  0  0  0
 24 26  1  6  0  0  0
 26 39  1  0  0  0  0
 27 28  1  0  0  0  0
 27 32  1  0  0  0  0
 27 38  1  1  0  0  0
 28 29  1  0  0  0  0
 28 37  1  6  0  0  0
 29 30  1  0  0  0  0
 29 42  1  1  0  0  0
 30 31  1  1  0  0  0
 30 33  1  0  0  0  0
 32 33  1  0  0  0  0
 32 34  1  1  0  0  0
 34 41  1  0  0  0  0
M  CHG  6   4   1  13   1  19   1  35   1  41   1  42   1
M  END
>  <CHROM.1>
-115.96368130,12.76353535,97.17646110,62.80421045,173.62887893,-48.04149102
102.00927637,138.36496095,76.02257631,28.73635950,68.62367932,-48.22122404
75.54586649,133.41803156,129.41442775,164.84395102,66.86022516,-88.76164360
-62.08509134,-106.60762468,143.19744517,-38.74258275,-4.72513239,-0.68540873
-4.16270834,0.03322926,-0.79815012,-2.89413132

>  <Name>


>  <RI>
0

>  <Rbt.Current_Directory>
/home/itssahil/PROJECTS/Mol_Feturizer/New_Systems/rnas/1ei2

>  <Rbt.Executable>
rbdock ($Id: //depot/dev/client3/rdock/2013.1/src/exe/rbdock.cxx#4 $)

>  <Rbt.Library>
libRbt.so (2013.1, Build901 2013/11/27)

>  <Rbt.Parameter_File>
/export/apps/rDock/src/rDock_2013.1_src/data/scripts/dock_solv.prm

>  <Rbt.Receptor>
prm/blind_docking_60.prm

>  <SCORE>
-19.0812

>  <SCORE.INTER>
-29.2244

>  <SCORE.INTER.CONST>
1

>  <SCORE.INTER.POLAR>
-7.68929

>  <SCORE.INTER.ROT>
9

>  <SCORE.INTER.SOLV>
48.7119

>  <SCORE.INTER.VDW>
-19.6892

>  <SCORE.INTER.norm>
-0.695819

>  <SCORE.INTRA>
1.89758

>  <SCORE.INTRA.DIHEDRAL>
15.871

>  <SCORE.INTRA.DIHEDRAL.0>
40.8761

>  <SCORE.INTRA.POLAR>
-0.210871

>  <SCORE.INTRA.POLAR.0>
-0.0268208

>  <SCORE.INTRA.REPUL>
-0.641615

>  <SCORE.INTRA.REPUL.0>
0.641615

>  <SCORE.INTRA.SOLV>
-7.37006

>  <SCORE.INTRA.SOLV.lig_0>
-162.567

>  <SCORE.INTRA.VDW>
1.57212

>  <SCORE.INTRA.VDW.0>
-4.80338

>  <SCORE.INTRA.norm>
0.0451805

>  <SCORE.RESTR>
8.24559

>  <SCORE.RESTR.CAVITY>
8.24559

>  <SCORE.RESTR.norm>
0.196323

>  <SCORE.SYSTEM>
0

>  <SCORE.SYSTEM.CONST>
0

>  <SCORE.SYSTEM.DIHEDRAL>
0

>  <SCORE.SYSTEM.SOLV>
0

>  <SCORE.SYSTEM.norm>
0

>  <SCORE.heavy>
42

>  <SCORE.norm>
-0.454315

>  <RMSD>
9.355

$$$$

 OpenBabel11021811393D
libRbt.so/2013.1/901 2013/11/27
 42 45  0  0  0  0  0  0  0  0999 V2000
   -2.9288   -0.4634   -6.9449 C   0  0  2  0  0  0  0  0  0  0  0  0
   -4.2021    0.1913   -6.6555 O   0  0  0  0  0  0  0  0  0  0  0  0
   -3.0935   -1.5991   -8.0065 C   0  0  2  0  0  0  0  0  0  0  0  0
   -4.3929   -1.5050   -8.7108 N   0  3  0  0  0  0  0  0  0  0  0  0
   -2.9313   -3.0000   -7.3431 C   0  0  1  0  0  0  0  0  0  0  0  0
   -3.0734   -4.0268   -8.3224 O   0  0  0  0  0  0  0  0  0  0  0  0
   -1.5457   -3.1581   -6.6617 C   0  0  2  0  0  0  0  0  0  0  0  0
   -1.5703   -4.3203   -5.8405 O   0  0  0  0  0  0  0  0  0  0  0  0
   -1.1897   -1.9021   -5.8019 C   0  0  2  0  0  0  0  0  0  0  0  0
   -2.3471   -1.0090   -5.7116 O   0  0  0  0  0  0  0  0  0  0  0  0
   -0.0237   -1.0532   -6.3587 C   0  0  0  0  0  0  0  0  0  0  0  0
   -2.8871    3.9739   -5.0484 C   0  0  1  0  0  0  0  0  0  0  0  0
   -2.8007    5.2257   -4.2636 N   0  3  0  0  0  0  0  0  0  0  0  0
   -2.6664    2.7253   -4.1548 C   0  0  1  0  0  0  0  0  0  0  0  0
   -2.8949    1.3651   -4.9013 C   0  0  1  0  0  0  0  0  0  0  0  0
   -2.9811    0.3101   -3.9061 O   0  0  0  0  0  0  0  0  0  0  0  0
   -4.2228    1.3323   -5.7438 C   0  0  1  0  0  0  0  0  0  0  0  0
   -4.4050    2.6267   -6.6008 C   0  0  1  0  0  0  0  0  0  0  0  0
   -5.7184    2.6645   -7.2757 N   0  3  0  0  0  0  0  0  0  0  0  0
   -4.2614    3.9063   -5.7465 C   0  0  0  0  0  0  0  0  0  0  0  0
   -3.2102    0.6568   -2.5096 C   0  0  1  0  0  0  0  0  0  0  0  0
   -4.7123    0.6641   -2.2515 C   0  0  1  0  0  0  0  0  0  0  0  0
   -4.9605   -0.8287   -2.0824 C   0  0  1  0  0  0  0  0  0  0  0  0
   -3.7393   -1.2544   -1.2549 C   0  0  2  0  0  0  0  0  0  0  0  0
   -2.6700   -0.3642   -1.6548 O   0  0  0  0  0  0  0  0  0  0  0  0
   -3.3287   -2.7181   -1.4968 C   0  0  0  0  0  0  0  0  0  0  0  0
   -9.9340   -1.6292   -0.6235 C   0  0  1  0  0  0  0  0  0  0  0  0
   -9.2909   -0.2769   -1.0397 C   0  0  1  0  0  0  0  0  0  0  0  0
   -8.4017   -0.3619   -2.3138 C   0  0  2  0  0  0  0  0  0  0  0  0
   -7.3437   -1.5050   -2.1887 C   0  0  1  0  0  0  0  0  0  0  0  0
   -6.2090   -1.0873   -1.3780 O   0  0  0  0  0  0  0  0  0  0  0  0
   -9.4051   -2.7927   -1.5161 C   0  0  1  0  0  0  0  0  0  0  0  0
   -7.9439   -2.7233   -1.5976 O   0  0  0  0  0  0  0  0  0  0  0  0
   -9.8212   -4.1869   -0.9801 C   0  0  0  0  0  0  0  0  0  0  0  0
   -0.3691    0.3535   -6.6293 N   0  3  0  0  0  0  0  0  0  0  0  0
   -4.9922    1.3807   -1.0487 O   0  0  0  0  0  0  0  0  0  0  0  0
  -10.3370    0.6642   -1.2771 O   0  0  0  0  0  0  0  0  0  0  0  0
   -9.6168   -1.8772    0.7479 O   0  0  0  0  0  0  0  0  0  0  0  0
   -3.3468   -3.0261   -2.8801 O   0  0  0  0  0  0  0  0  0  0  0  0
   -1.3301    2.7504   -3.6535 O   0  0  0  0  0  0  0  0  0  0  0  0
   -9.2236   -4.4990    0.3311 N   0  3  0  0  0  0  0  0  0  0  0  0
   -7.7888    0.9508   -2.6354 N   0  3  0  0  0  0  0  0  0  0  0  0
  1  2  1  1  0  0  0
  1  3  1  0  0  0  0
  1 10  1  0  0  0  0
  3  4  1  1  0  0  0
  3  5  1  0  0  0  0
  5  6  1  6  0  0  0
  5  7  1  0  0  0  0
  7  8  1  1  0  0  0
  7  9  1  0  0  0  0
  9 10  1  0  0  0  0
  9 11  1  6  0  0  0
 11 35  1  0  0  0  0
 12 13  1  1  0  0  0
 12 14  1  0  0  0  0
 12 20  1  0  0  0  0
 14 15  1  0  0  0  0
 14 40  1  6  0  0  0
 15 16  1  1  0  0  0
 15 17  1  0  0  0  0
 17  2  1  6  0  0  0
 17 18  1  0  0  0  0
 18 19  1  1  0  0  0
 18 20  1  0  0  0  0
 21 16  1  6  0  0  0
 21 22  1  0  0  0  0
 21 25  1  0  0  0  0
 22 23  1  0  0  0  0
 22 36  1  1  0  0  0
 23 24  1  0  0  0  0
 23 31  1  1  0  0  0
 24 25  1  0  0  0  0
 24 26  1  6  0  0  0
 26 39  1  0  0  0  0
 27 28  1  0  0  0  0
 27 32  1  0  0  0  0
 27 38  1  1  0  0  0
 28 29  1  0  0  0  0
 28 37  1  6  0  0  0
 29 30  1  0  0  0  0
 29 42  1  1  0  0  0
 30 31  1  1  0  0  0
 30 33  1  0  0  0  0
 32 33  1  0  0  0  0
 32 34  1  1  0  0  0
 34 41  1  0  0  0  0
M  CHG  6   4   1  13   1  19   1  35   1  41   1  42   1
M  END
>  <CHROM.1>
-176.35153256,-17.30302015,64.90887331,179.19828294,-57.67154371,122.16890046
49.72914058,-84.68857712,76.20869099,16.18136576,90.97374382,122.26256068
53.29832780,102.60447456,44.29528388,164.07677695,65.78133357,84.35035335
-59.20395820,-107.38610115,-64.81130112,170.36533030,-4.72844056,-0.46432091
-3.88938424,-0.15035249,-0.72180518,-3.03802064

>  <Name>


>  <RI>
0

>  <Rbt.Current_Directory>
/home/itssahil/PROJECTS/Mol_Feturizer/New_Systems/rnas/1ei2

>  <Rbt.Executable>
rbdock ($Id: //depot/dev/client3/rdock/2013.1/src/exe/rbdock.cxx#4 $)

>  <Rbt.Library>
libRbt.so (2013.1, Build901 2013/11/27)

>  <Rbt.Parameter_File>
/export/apps/rDock/src/rDock_2013.1_src/data/scripts/dock_solv.prm

>  <Rbt.Receptor>
prm/blind_docking_20.prm

>  <SCORE>
6.18415

>  <SCORE.INTER>
-10.9294

>  <SCORE.INTER.CONST>
1

>  <SCORE.INTER.POLAR>
-1.89891

>  <SCORE.INTER.ROT>
9

>  <SCORE.INTER.SOLV>
40.6728

>  <SCORE.INTER.VDW>
-24.1142

>  <SCORE.INTER.norm>
-0.260224

>  <SCORE.INTRA>
8.77142

>  <SCORE.INTRA.DIHEDRAL>
4.1903

>  <SCORE.INTRA.DIHEDRAL.0>
40.8761

>  <SCORE.INTRA.POLAR>
-1.03155

>  <SCORE.INTRA.POLAR.0>
-0.0268208

>  <SCORE.INTRA.REPUL>
0.4281

>  <SCORE.INTRA.REPUL.0>
0.641615

>  <SCORE.INTRA.SOLV>
-0.926987

>  <SCORE.INTRA.SOLV.lig_0>
-162.567

>  <SCORE.INTRA.VDW>
8.50652

>  <SCORE.INTRA.VDW.0>
-4.80338

>  <SCORE.INTRA.norm>
0.208843

>  <SCORE.RESTR>
8.34213

>  <SCORE.RESTR.CAVITY>
8.34213

>  <SCORE.RESTR.norm>
0.198622

>  <SCORE.SYSTEM>
0

>  <SCORE.SYSTEM.CONST>
0

>  <SCORE.SYSTEM.DIHEDRAL>
0

>  <SCORE.SYSTEM.SOLV>
0

>  <SCORE.SYSTEM.norm>
0

>  <SCORE.heavy>
42

>  <SCORE.norm>
0.147242

>  <RMSD>
9.358

$$$$

 OpenBabel11021811393D
libRbt.so/2013.1/901 2013/11/27
 42 45  0  0  0  0  0  0  0  0999 V2000
   -2.6576   -0.2747   -7.2515 C   0  0  2  0  0  0  0  0  0  0  0  0
   -2.2334   -0.2911   -5.8539 O   0  0  0  0  0  0  0  0  0  0  0  0
   -3.7776    0.7871   -7.5009 C   0  0  2  0  0  0  0  0  0  0  0  0
   -3.8851    1.7432   -6.3751 N   0  3  0  0  0  0  0  0  0  0  0  0
   -5.1478    0.0911   -7.7598 C   0  0  1  0  0  0  0  0  0  0  0  0
   -6.1587    1.0687   -7.9959 O   0  0  0  0  0  0  0  0  0  0  0  0
   -5.0884   -0.8610   -8.9843 C   0  0  2  0  0  0  0  0  0  0  0  0
   -6.2586   -1.6710   -8.9906 O   0  0  0  0  0  0  0  0  0  0  0  0
   -3.8126   -1.7632   -8.9401 C   0  0  2  0  0  0  0  0  0  0  0  0
   -3.1290   -1.6062   -7.6543 O   0  0  0  0  0  0  0  0  0  0  0  0
   -2.7662   -1.4486  -10.0338 C   0  0  0  0  0  0  0  0  0  0  0  0
   -2.1343   -4.5888   -5.4802 C   0  0  1  0  0  0  0  0  0  0  0  0
   -1.8294   -5.9639   -5.0258 N   0  3  0  0  0  0  0  0  0  0  0  0
   -2.9874   -3.8207   -4.4371 C   0  0  1  0  0  0  0  0  0  0  0  0
   -3.2151   -2.3107   -4.7951 C   0  0  1  0  0  0  0  0  0  0  0  0
   -3.7302   -1.6373   -3.6151 O   0  0  0  0  0  0  0  0  0  0  0  0
   -1.8982   -1.5678   -5.2285 C   0  0  1  0  0  0  0  0  0  0  0  0
   -1.0669   -2.4011   -6.2569 C   0  0  1  0  0  0  0  0  0  0  0  0
    0.2385   -1.7756   -6.5512 N   0  3  0  0  0  0  0  0  0  0  0  0
   -0.8134   -3.8415   -5.7581 C   0  0  0  0  0  0  0  0  0  0  0  0
   -3.9886   -0.2042   -3.6612 C   0  0  1  0  0  0  0  0  0  0  0  0
   -5.4960    0.0159   -3.7085 C   0  0  1  0  0  0  0  0  0  0  0  0
   -5.8363   -0.1548   -2.2342 C   0  0  1  0  0  0  0  0  0  0  0  0
   -4.6722    0.5848   -1.5595 C   0  0  2  0  0  0  0  0  0  0  0  0
   -3.5395    0.4154   -2.4449 O   0  0  0  0  0  0  0  0  0  0  0  0
   -4.3389    0.0345   -0.1612 C   0  0  0  0  0  0  0  0  0  0  0  0
  -10.2568   -0.8131   -0.0852 C   0  0  1  0  0  0  0  0  0  0  0  0
  -10.0856    0.6044   -0.6991 C   0  0  1  0  0  0  0  0  0  0  0  0
   -9.5949    0.6021   -2.1757 C   0  0  2  0  0  0  0  0  0  0  0  0
   -8.3107   -0.2725   -2.3425 C   0  0  1  0  0  0  0  0  0  0  0  0
   -7.1221    0.4472   -1.9084 O   0  0  0  0  0  0  0  0  0  0  0  0
   -9.7465   -1.9090   -1.0696 C   0  0  1  0  0  0  0  0  0  0  0  0
   -8.4238   -1.5353   -1.5769 O   0  0  0  0  0  0  0  0  0  0  0  0
   -9.6630   -3.3082   -0.4069 C   0  0  0  0  0  0  0  0  0  0  0  0
   -3.3217   -1.3350  -11.3939 N   0  3  0  0  0  0  0  0  0  0  0  0
   -5.7767    1.3409   -4.1604 O   0  0  0  0  0  0  0  0  0  0  0  0
  -11.3436    1.2753   -0.6389 O   0  0  0  0  0  0  0  0  0  0  0  0
   -9.5194   -0.8678    1.1380 O   0  0  0  0  0  0  0  0  0  0  0  0
   -4.0444   -1.3506   -0.2202 O   0  0  0  0  0  0  0  0  0  0  0  0
   -4.2594   -4.4587   -4.3254 O   0  0  0  0  0  0  0  0  0  0  0  0
   -9.8342   -4.4105   -1.3709 N   0  3  0  0  0  0  0  0  0  0  0  0
   -9.4162    1.9828   -2.6894 N   0  3  0  0  0  0  0  0  0  0  0  0
  1  2  1  1  0  0  0
  1  3  1  0  0  0  0
  1 10  1  0  0  0  0
  3  4  1  1  0  0  0
  3  5  1  0  0  0  0
  5  6  1  6  0  0  0
  5  7  1  0  0  0  0
  7  8  1  1  0  0  0
  7  9  1  0  0  0  0
  9 10  1  0  0  0  0
  9 11  1  6  0  0  0
 11 35  1  0  0  0  0
 12 13  1  1  0  0  0
 12 14  1  0  0  0  0
 12 20  1  0  0  0  0
 14 15  1  0  0  0  0
 14 40  1  6  0  0  0
 15 16  1  1  0  0  0
 15 17  1  0  0  0  0
 17  2  1  6  0  0  0
 17 18  1  0  0  0  0
 18 19  1  1  0  0  0
 18 20  1  0  0  0  0
 21 16  1  1  0  0  0
 21 22  1  0  0  0  0
 21 25  1  0  0  0  0
 22 23  1  0  0  0  0
 22 36  1  1  0  0  0
 23 24  1  0  0  0  0
 23 31  1  6  0  0  0
 24 25  1  0  0  0  0
 24 26  1  1  0  0  0
 26 39  1  0  0  0  0
 27 28  1  0  0  0  0
 27 32  1  0  0  0  0
 27 38  1  1  0  0  0
 28 29  1  0  0  0  0
 28 37  1  6  0  0  0
 29 30  1  0  0  0  0
 29 42  1  1  0  0  0
 30 31  1  1  0  0  0
 30 33  1  0  0  0  0
 32 33  1  0  0  0  0
 32 34  1  1  0  0  0
 34 41  1  0  0  0  0
M  CHG  6   4   1  13   1  19   1  35   1  41   1  42   1
M  END
>  <CHROM.1>
142.82518441,-80.28455458,116.75960999,69.44455641,50.44159127,-48.41174774
98.33261255,-174.12080923,-176.70474984,177.95535989,106.57890127,27.40055434
-46.00303452,74.92020204,56.78127324,-58.83963351,29.53040480,172.91976884
77.24398730,-169.16488870,152.01664096,31.28676249,-5.28465243,-1.07433183
-4.33791626,0.62502960,0.55964148,-1.12147641

>  <Name>


>  <RI>
0

>  <Rbt.Current_Directory>
/home/itssahil/PROJECTS/Mol_Feturizer/New_Systems/rnas/1ei2

>  <Rbt.Executable>
rbdock ($Id: //depot/dev/client3/rdock/2013.1/src/exe/rbdock.cxx#4 $)

>  <Rbt.Library>
libRbt.so (2013.1, Build901 2013/11/27)

>  <Rbt.Parameter_File>
/export/apps/rDock/src/rDock_2013.1_src/data/scripts/dock_solv.prm

>  <Rbt.Receptor>
prm/blind_docking_100.prm

>  <SCORE>
24.1997

>  <SCORE.INTER>
20.705

>  <SCORE.INTER.CONST>
1

>  <SCORE.INTER.POLAR>
-5.23546

>  <SCORE.INTER.ROT>
9

>  <SCORE.INTER.SOLV>
54.5173

>  <SCORE.INTER.VDW>
3.48242

>  <SCORE.INTER.norm>
0.492976

>  <SCORE.INTRA>
-10.7938

>  <SCORE.INTRA.DIHEDRAL>
-6.26193

>  <SCORE.INTRA.DIHEDRAL.0>
40.8761

>  <SCORE.INTRA.POLAR>
-1.15547

>  <SCORE.INTRA.POLAR.0>
-0.0268208

>  <SCORE.INTRA.REPUL>
-0.63676

>  <SCORE.INTRA.REPUL.0>
0.641615

>  <SCORE.INTRA.SOLV>
-9.10052

>  <SCORE.INTRA.SOLV.lig_0>
-162.567

>  <SCORE.INTRA.VDW>
3.99982

>  <SCORE.INTRA.VDW.0>
-4.80338

>  <SCORE.INTRA.norm>
-0.256995

>  <SCORE.RESTR>
14.2885

>  <SCORE.RESTR.CAVITY>
14.2885

>  <SCORE.RESTR.norm>
0.340203

>  <SCORE.SYSTEM>
0

>  <SCORE.SYSTEM.CONST>
0

>  <SCORE.SYSTEM.DIHEDRAL>
0

>  <SCORE.SYSTEM.SOLV>
0

>  <SCORE.SYSTEM.norm>
0

>  <SCORE.heavy>
42

>  <SCORE.norm>
0.576184

>  <RMSD>
9.361

$$$$

 OpenBabel11021811393D
libRbt.so/2013.1/901 2013/11/27
 42 45  0  0  0  0  0  0  0  0999 V2000
   -3.2720   -1.3208   -6.4000 C   0  0  2  0  0  0  0  0  0  0  0  0
   -4.1723   -0.2798   -6.8893 O   0  0  0  0  0  0  0  0  0  0  0  0
   -2.4128   -1.9288   -7.5559 C   0  0  2  0  0  0  0  0  0  0  0  0
   -2.4547   -1.0836   -8.7712 N   0  3  0  0  0  0  0  0  0  0  0  0
   -2.8781   -3.3798   -7.8828 C   0  0  1  0  0  0  0  0  0  0  0  0
   -2.0810   -3.9272   -8.9308 O   0  0  0  0  0  0  0  0  0  0  0  0
   -2.7721   -4.3116   -6.6458 C   0  0  2  0  0  0  0  0  0  0  0  0
   -3.4722   -5.5195   -6.9222 O   0  0  0  0  0  0  0  0  0  0  0  0
   -3.3633   -3.6296   -5.3695 C   0  0  2  0  0  0  0  0  0  0  0  0
   -4.0380   -2.3812   -5.7322 O   0  0  0  0  0  0  0  0  0  0  0  0
   -2.3150   -3.2644   -4.2934 C   0  0  0  0  0  0  0  0  0  0  0  0
   -2.3135    3.4081   -5.6386 C   0  0  1  0  0  0  0  0  0  0  0  0
   -2.0902    4.7788   -5.1269 N   0  3  0  0  0  0  0  0  0  0  0  0
   -2.7809    2.4493   -4.5123 C   0  0  1  0  0  0  0  0  0  0  0  0
   -3.1775    1.0202   -5.0228 C   0  0  1  0  0  0  0  0  0  0  0  0
   -3.8919    0.3396   -3.9563 O   0  0  0  0  0  0  0  0  0  0  0  0
   -4.1190    1.0478   -6.2825 C   0  0  1  0  0  0  0  0  0  0  0  0
   -3.6142    2.0512   -7.3694 C   0  0  1  0  0  0  0  0  0  0  0  0
   -4.5728    2.1890   -8.4848 N   0  3  0  0  0  0  0  0  0  0  0  0
   -3.3524    3.4547   -6.7783 C   0  0  0  0  0  0  0  0  0  0  0  0
   -5.1512    0.8885   -3.4708 C   0  0  1  0  0  0  0  0  0  0  0  0
   -6.1806   -0.2341   -3.4152 C   0  0  1  0  0  0  0  0  0  0  0  0
   -5.7836   -0.8944   -2.1018 C   0  0  1  0  0  0  0  0  0  0  0  0
   -5.4891    0.3258   -1.2177 C   0  0  2  0  0  0  0  0  0  0  0  0
   -4.9978    1.3477   -2.1178 O   0  0  0  0  0  0  0  0  0  0  0  0
   -4.4463    0.0383   -0.1226 C   0  0  0  0  0  0  0  0  0  0  0  0
  -10.0273    0.4657   -1.7377 C   0  0  1  0  0  0  0  0  0  0  0  0
  -10.0072   -1.0881   -1.7112 C   0  0  1  0  0  0  0  0  0  0  0  0
   -9.1490   -1.6927   -0.5626 C   0  0  2  0  0  0  0  0  0  0  0  0
   -7.7101   -1.0834   -0.5521 C   0  0  1  0  0  0  0  0  0  0  0  0
   -6.8663   -1.7058   -1.5620 O   0  0  0  0  0  0  0  0  0  0  0  0
   -9.0474    1.0511   -0.6761 C   0  0  1  0  0  0  0  0  0  0  0  0
   -7.7498    0.3791   -0.7827 O   0  0  0  0  0  0  0  0  0  0  0  0
   -8.8454    2.5801   -0.8356 C   0  0  0  0  0  0  0  0  0  0  0  0
   -2.5920   -3.8233   -2.9585 N   0  3  0  0  0  0  0  0  0  0  0  0
   -7.4951    0.3190   -3.3466 O   0  0  0  0  0  0  0  0  0  0  0  0
  -11.3490   -1.5528   -1.5694 O   0  0  0  0  0  0  0  0  0  0  0  0
   -9.6522    0.9001   -3.0468 O   0  0  0  0  0  0  0  0  0  0  0  0
   -4.9887   -0.7986    0.8844 O   0  0  0  0  0  0  0  0  0  0  0  0
   -1.7283    2.3155   -3.5576 O   0  0  0  0  0  0  0  0  0  0  0  0
   -8.3990    2.9616   -2.1880 N   0  3  0  0  0  0  0  0  0  0  0  0
   -9.1409   -3.1758   -0.6153 N   0  3  0  0  0  0  0  0  0  0  0  0
  1  2  1  6  0  0  0
  1  3  1  0  0  0  0
  1 10  1  0  0  0  0
  3  4  1  6  0  0  0
  3  5  1  0  0  0  0
  5  6  1  6  0  0  0
  5  7  1  0  0  0  0
  7  8  1  6  0  0  0
  7  9  1  0  0  0  0
  9 10  1  0  0  0  0
  9 11  1  1  0  0  0
 11 35  1  0  0  0  0
 12 13  1  1  0  0  0
 12 14  1  0  0  0  0
 12 20  1  0  0  0  0
 14 15  1  0  0  0  0
 14 40  1  1  0  0  0
 15 16  1  1  0  0  0
 15 17  1  0  0  0  0
 17  2  1  6  0  0  0
 17 18  1  0  0  0  0
 18 19  1  6  0  0  0
 18 20  1  0  0  0  0
 21 16  1  1  0  0  0
 21 22  1  0  0  0  0
 21 25  1  0  0  0  0
 22 23  1  0  0  0  0
 22 36  1  1  0  0  0
 23 24  1  0  0  0  0
 23 31  1  1  0  0  0
 24 25  1  0  0  0  0
 24 26  1  1  0  0  0
 26 39  1  0  0  0  0
 27 28  1  0  0  0  0
 27 32  1  0  0  0  0
 27 38  1  6  0  0  0
 28 29  1  0  0  0  0
 28 37  1  1  0  0  0
 29 30  1  0  0  0  0
 29 42  1  6  0  0  0
 30 31  1  6  0  0  0
 30 33  1  0  0  0  0
 32 33  1  0  0  0  0
 32 34  1  6  0  0  0
 34 41  1  0  0  0  0
M  CHG  6   4   1  13   1  19   1  35   1  41   1  42   1
M  END
>  <CHROM.1>
-124.61651148,-7.99082080,38.68588317,-50.60648739,-171.98407243,-124.88084603
0.28293475,-83.29356370,66.92126867,62.06510381,131.54281066,-161.99759339
-60.56521402,-96.67760422,-71.48871233,56.99548093,32.38105117,93.10588103
20.52101640,152.15978495,-55.20388454,39.41507934,-5.24929820,-0.31464922
-3.95381614,0.17379028,-0.77798955,-3.05332351

>  <Name>


>  <RI>
0

>  <Rbt.Current_Directory>
/home/itssahil/PROJECTS/Mol_Feturizer/New_Systems/rnas/1ei2

>  <Rbt.Executable>
rbdock ($Id: //depot/dev/client3/rdock/2013.1/src/exe/rbdock.cxx#4 $)

>  <Rbt.Library>
libRbt.so (2013.1, Build901 2013/11/27)

>  <Rbt.Parameter_File>
/export/apps/rDock/src/rDock_2013.1_src/data/scripts/dock_solv.prm

>  <Rbt.Receptor>
prm/blind_docking_40.prm

>  <SCORE>
18.471

>  <SCORE.INTER>
-11.5565

>  <SCORE.INTER.CONST>
1

>  <SCORE.INTER.POLAR>
-5.37564

>  <SCORE.INTER.ROT>
9

>  <SCORE.INTER.SOLV>
48.3566

>  <SCORE.INTER.VDW>
-15.5044

>  <SCORE.INTER.norm>
-0.275155

>  <SCORE.INTRA>
10.4597

>  <SCORE.INTRA.DIHEDRAL>
11.9263

>  <SCORE.INTRA.DIHEDRAL.0>
40.8761

>  <SCORE.INTRA.POLAR>
-1.5239

>  <SCORE.INTRA.POLAR.0>
-0.0268208

>  <SCORE.INTRA.REPUL>
-0.641615

>  <SCORE.INTRA.REPUL.0>
0.641615

>  <SCORE.INTRA.SOLV>
-2.73271

>  <SCORE.INTRA.SOLV.lig_0>
-162.567

>  <SCORE.INTRA.VDW>
14.2523

>  <SCORE.INTRA.VDW.0>
-4.80338

>  <SCORE.INTRA.norm>
0.249041

>  <SCORE.RESTR>
19.5678

>  <SCORE.RESTR.CAVITY>
19.5678

>  <SCORE.RESTR.norm>
0.4659

>  <SCORE.SYSTEM>
0

>  <SCORE.SYSTEM.CONST>
0

>  <SCORE.SYSTEM.DIHEDRAL>
0

>  <SCORE.SYSTEM.SOLV>
0

>  <SCORE.SYSTEM.norm>
0

>  <SCORE.heavy>
42

>  <SCORE.norm>
0.439786

>  <RMSD>
9.367

$$$$

 OpenBabel11021811393D
libRbt.so/2013.1/901 2013/11/27
 42 45  0  0  0  0  0  0  0  0999 V2000
   -3.2111   -0.7758   -6.8752 C   0  0  2  0  0  0  0  0  0  0  0  0
   -4.2464    0.2546   -6.8676 O   0  0  0  0  0  0  0  0  0  0  0  0
   -2.6898   -1.0577   -8.3218 C   0  0  2  0  0  0  0  0  0  0  0  0
   -3.0980    0.0066   -9.2672 N   0  3  0  0  0  0  0  0  0  0  0  0
   -3.1795   -2.4503   -8.8215 C   0  0  1  0  0  0  0  0  0  0  0  0
   -2.6896   -2.7004  -10.1371 O   0  0  0  0  0  0  0  0  0  0  0  0
   -2.7008   -3.5974   -7.8917 C   0  0  2  0  0  0  0  0  0  0  0  0
   -3.4098   -4.7846   -8.2285 O   0  0  0  0  0  0  0  0  0  0  0  0
   -2.9337   -3.2428   -6.3872 C   0  0  2  0  0  0  0  0  0  0  0  0
   -3.7240   -2.0147   -6.2757 O   0  0  0  0  0  0  0  0  0  0  0  0
   -1.6391   -3.0057   -5.5762 C   0  0  0  0  0  0  0  0  0  0  0  0
   -3.0686    3.9112   -4.9024 C   0  0  1  0  0  0  0  0  0  0  0  0
   -2.9880    5.0499   -3.9605 N   0  3  0  0  0  0  0  0  0  0  0  0
   -2.6154    2.5867   -4.2342 C   0  0  1  0  0  0  0  0  0  0  0  0
   -2.8211    1.3205   -5.1367 C   0  0  1  0  0  0  0  0  0  0  0  0
   -2.6741    0.1400   -4.3027 O   0  0  0  0  0  0  0  0  0  0  0  0
   -4.2440    1.2558   -5.8042 C   0  0  1  0  0  0  0  0  0  0  0  0
   -4.6583    2.6248   -6.4344 C   0  0  1  0  0  0  0  0  0  0  0  0
   -6.0501    2.6090   -6.9288 N   0  3  0  0  0  0  0  0  0  0  0  0
   -4.5142    3.7880   -5.4273 C   0  0  0  0  0  0  0  0  0  0  0  0
   -2.6766    0.2801   -2.8524 C   0  0  1  0  0  0  0  0  0  0  0  0
   -4.1015    0.5695   -2.3953 C   0  0  1  0  0  0  0  0  0  0  0  0
   -4.6786   -0.8394   -2.4150 C   0  0  1  0  0  0  0  0  0  0  0  0
   -3.5182   -1.6583   -1.8318 C   0  0  2  0  0  0  0  0  0  0  0  0
   -2.3128   -0.9668   -2.2377 O   0  0  0  0  0  0  0  0  0  0  0  0
   -3.4919   -3.1113   -2.3391 C   0  0  0  0  0  0  0  0  0  0  0  0
   -9.6052   -1.1828   -0.7078 C   0  0  1  0  0  0  0  0  0  0  0  0
   -8.9790   -0.1345   -1.6692 C   0  0  1  0  0  0  0  0  0  0  0  0
   -8.0663   -0.7477   -2.7702 C   0  0  2  0  0  0  0  0  0  0  0  0
   -6.9905   -1.6954   -2.1486 C   0  0  1  0  0  0  0  0  0  0  0  0
   -5.8778   -0.9382   -1.5939 O   0  0  0  0  0  0  0  0  0  0  0  0
   -9.0403   -2.6068   -0.9962 C   0  0  1  0  0  0  0  0  0  0  0  0
   -7.5793   -2.5457   -1.0884 O   0  0  0  0  0  0  0  0  0  0  0  0
   -9.4408   -3.6350    0.0930 C   0  0  0  0  0  0  0  0  0  0  0  0
   -0.6175   -2.2089   -6.2781 N   0  3  0  0  0  0  0  0  0  0  0  0
   -4.0844    1.1096   -1.0737 O   0  0  0  0  0  0  0  0  0  0  0  0
  -10.0373    0.5828   -2.3032 O   0  0  0  0  0  0  0  0  0  0  0  0
   -9.3076   -0.7978    0.6361 O   0  0  0  0  0  0  0  0  0  0  0  0
   -2.1949   -3.6680   -2.2107 O   0  0  0  0  0  0  0  0  0  0  0  0
   -1.2306    2.6899   -3.9039 O   0  0  0  0  0  0  0  0  0  0  0  0
   -8.9299   -4.9904   -0.1821 N   0  3  0  0  0  0  0  0  0  0  0  0
   -7.4713    0.3057   -3.6296 N   0  3  0  0  0  0  0  0  0  0  0  0
  1  2  1  6  0  0  0
  1  3  1  0  0  0  0
  1 10  1  0  0  0  0
  3  4  1  6  0  0  0
  3  5  1  0  0  0  0
  5  6  1  6  0  0  0
  5  7  1  0  0  0  0
  7  8  1  6  0  0  0
  7  9  1  0  0  0  0
  9 10  1  0  0  0  0
  9 11  1  1  0  0  0
 11 35  1  0  0  0  0
 12 13  1  1  0  0  0
 12 14  1  0  0  0  0
 12 20  1  0  0  0  0
 14 15  1  0  0  0  0
 14 40  1  6  0  0  0
 15 16  1  1  0  0  0
 15 17  1  0  0  0  0
 17  2  1  6  0  0  0
 17 18  1  0  0  0  0
 18 19  1  1  0  0  0
 18 20  1  0  0  0  0
 21 16  1  6  0  0  0
 21 22  1  0  0  0  0
 21 25  1  0  0  0  0
 22 23  1  0  0  0  0
 22 36  1  1  0  0  0
 23 24  1  0  0  0  0
 23 31  1  1  0  0  0
 24 25  1  0  0  0  0
 24 26  1  6  0  0  0
 26 39  1  0  0  0  0
 27 28  1  0  0  0  0
 27 32  1  0  0  0  0
 27 38  1  1  0  0  0
 28 29  1  0  0  0  0
 28 37  1  6  0  0  0
 29 30  1  0  0  0  0
 29 42  1  1  0  0  0
 30 31  1  1  0  0  0
 30 33  1  0  0  0  0
 32 33  1  0  0  0  0
 32 34  1  1  0  0  0
 34 41  1  0  0  0  0
M  CHG  6   4   1  13   1  19   1  35   1  41   1  42   1
M  END
>  <CHROM.1>
-139.49631453,19.61430160,-161.61164561,43.90466685,64.06133032,42.50564094
-1.26172146,66.59181253,-66.51310800,13.33798542,73.53739874,49.08079948
94.99733288,137.31911827,157.80624212,-139.53201510,53.95822769,-84.48151825
-84.62317174,-99.56670537,179.05380032,65.09906215,-4.69567182,-0.62905166
-4.19209582,0.00289192,-0.84191404,-2.96638278

>  <Name>


>  <RI>
0

>  <Rbt.Current_Directory>
/home/itssahil/PROJECTS/Mol_Feturizer/New_Systems/rnas/1ei2

>  <Rbt.Executable>
rbdock ($Id: //depot/dev/client3/rdock/2013.1/src/exe/rbdock.cxx#4 $)

>  <Rbt.Library>
libRbt.so (2013.1, Build901 2013/11/27)

>  <Rbt.Parameter_File>
/export/apps/rDock/src/rDock_2013.1_src/data/scripts/dock_solv.prm

>  <Rbt.Receptor>
prm/blind_docking_20.prm

>  <SCORE>
-5.31466

>  <SCORE.INTER>
-18.7429

>  <SCORE.INTER.CONST>
1

>  <SCORE.INTER.POLAR>
-4.42119

>  <SCORE.INTER.ROT>
9

>  <SCORE.INTER.SOLV>
42.8215

>  <SCORE.INTER.VDW>
-21.6318

>  <SCORE.INTER.norm>
-0.44626

>  <SCORE.INTRA>
1.91957

>  <SCORE.INTRA.DIHEDRAL>
11.4883

>  <SCORE.INTRA.DIHEDRAL.0>
40.8761

>  <SCORE.INTRA.POLAR>
-0.111006

>  <SCORE.INTRA.POLAR.0>
-0.0268208

>  <SCORE.INTRA.REPUL>
-0.641615

>  <SCORE.INTRA.REPUL.0>
0.641615

>  <SCORE.INTRA.SOLV>
-6.30233

>  <SCORE.INTRA.SOLV.lig_0>
-162.567

>  <SCORE.INTRA.VDW>
2.91205

>  <SCORE.INTRA.VDW.0>
-4.80338

>  <SCORE.INTRA.norm>
0.045704

>  <SCORE.RESTR>
11.5087

>  <SCORE.RESTR.CAVITY>
11.5087

>  <SCORE.RESTR.norm>
0.274016

>  <SCORE.SYSTEM>
0

>  <SCORE.SYSTEM.CONST>
0

>  <SCORE.SYSTEM.DIHEDRAL>
0

>  <SCORE.SYSTEM.SOLV>
0

>  <SCORE.SYSTEM.norm>
0

>  <SCORE.heavy>
42

>  <SCORE.norm>
-0.12654

>  <RMSD>
9.386

$$$$

 OpenBabel11021811393D
libRbt.so/2013.1/901 2013/11/27
 42 45  0  0  0  0  0  0  0  0999 V2000
   -3.4064   -1.1379   -6.1510 C   0  0  2  0  0  0  0  0  0  0  0  0
   -4.4264   -0.1060   -6.3196 O   0  0  0  0  0  0  0  0  0  0  0  0
   -2.6099   -1.3818   -7.4738 C   0  0  2  0  0  0  0  0  0  0  0  0
   -2.8278   -0.2917   -8.4522 N   0  3  0  0  0  0  0  0  0  0  0  0
   -2.9871   -2.7595   -8.0972 C   0  0  1  0  0  0  0  0  0  0  0  0
   -2.2472   -2.9750   -9.2970 O   0  0  0  0  0  0  0  0  0  0  0  0
   -2.6967   -3.9321   -7.1225 C   0  0  2  0  0  0  0  0  0  0  0  0
   -3.3217   -5.1084   -7.6238 O   0  0  0  0  0  0  0  0  0  0  0  0
   -3.2222   -3.6176   -5.6843 C   0  0  2  0  0  0  0  0  0  0  0  0
   -4.0231   -2.3914   -5.6975 O   0  0  0  0  0  0  0  0  0  0  0  0
   -2.1131   -3.4051   -4.6283 C   0  0  0  0  0  0  0  0  0  0  0  0
   -2.4901    3.6620   -5.4995 C   0  0  1  0  0  0  0  0  0  0  0  0
   -2.1888    5.0168   -4.9856 N   0  3  0  0  0  0  0  0  0  0  0  0
   -2.4566    2.6030   -4.3666 C   0  0  1  0  0  0  0  0  0  0  0  0
   -2.9149    1.1741   -4.8230 C   0  0  1  0  0  0  0  0  0  0  0  0
   -3.1511    0.3723   -3.6346 O   0  0  0  0  0  0  0  0  0  0  0  0
   -4.2462    1.1850   -5.6606 C   0  0  1  0  0  0  0  0  0  0  0  0
   -4.2338    2.2895   -6.7663 C   0  0  1  0  0  0  0  0  0  0  0  0
   -5.5363    2.4003   -7.4541 N   0  3  0  0  0  0  0  0  0  0  0  0
   -3.8702    3.6761   -6.1893 C   0  0  0  0  0  0  0  0  0  0  0  0
   -3.6950    1.0026   -2.4390 C   0  0  1  0  0  0  0  0  0  0  0  0
   -5.2165    0.9506   -2.5123 C   0  0  1  0  0  0  0  0  0  0  0  0
   -5.4562   -0.4815   -2.0541 C   0  0  1  0  0  0  0  0  0  0  0  0
   -4.4393   -0.6160   -0.9116 C   0  0  2  0  0  0  0  0  0  0  0  0
   -3.3320    0.2429   -1.2745 O   0  0  0  0  0  0  0  0  0  0  0  0
   -3.9462   -2.0604   -0.7114 C   0  0  0  0  0  0  0  0  0  0  0  0
   -9.8450   -2.6933   -0.3538 C   0  0  1  0  0  0  0  0  0  0  0  0
   -9.9204   -1.4131   -1.2318 C   0  0  1  0  0  0  0  0  0  0  0  0
   -9.0098   -1.4532   -2.4929 C   0  0  2  0  0  0  0  0  0  0  0  0
   -7.5395   -1.8248   -2.1160 C   0  0  1  0  0  0  0  0  0  0  0  0
   -6.8230   -0.6728   -1.5881 O   0  0  0  0  0  0  0  0  0  0  0  0
   -8.7456   -3.6641   -0.8822 C   0  0  1  0  0  0  0  0  0  0  0  0
   -7.5062   -2.9195   -1.1189 O   0  0  0  0  0  0  0  0  0  0  0  0
   -8.4619   -4.8292    0.1007 C   0  0  0  0  0  0  0  0  0  0  0  0
   -2.4643   -3.8676   -3.2741 N   0  3  0  0  0  0  0  0  0  0  0  0
   -5.7766    1.8934   -1.5979 O   0  0  0  0  0  0  0  0  0  0  0  0
  -11.2724   -1.2356   -1.6525 O   0  0  0  0  0  0  0  0  0  0  0  0
   -9.5530   -2.3031    0.9899 O   0  0  0  0  0  0  0  0  0  0  0  0
   -2.6412   -2.0768   -0.1589 O   0  0  0  0  0  0  0  0  0  0  0  0
   -1.1246    2.5139   -3.8614 O   0  0  0  0  0  0  0  0  0  0  0  0
   -9.2767   -6.0260   -0.1781 N   0  3  0  0  0  0  0  0  0  0  0  0
   -9.0992   -0.1898   -3.2662 N   0  3  0  0  0  0  0  0  0  0  0  0
  1  2  1  6  0  0  0
  1  3  1  0  0  0  0
  1 10  1  0  0  0  0
  3  4  1  6  0  0  0
  3  5  1  0  0  0  0
  5  6  1  6  0  0  0
  5  7  1  0  0  0  0
  7  8  1  6  0  0  0
  7  9  1  0  0  0  0
  9 10  1  0  0  0  0
  9 11  1  1  0  0  0
 11 35  1  0  0  0  0
 12 13  1  1  0  0  0
 12 14  1  0  0  0  0
 12 20  1  0  0  0  0
 14 15  1  0  0  0  0
 14 40  1  6  0  0  0
 15 16  1  1  0  0  0
 15 17  1  0  0  0  0
 17  2  1  6  0  0  0
 17 18  1  0  0  0  0
 18 19  1  1  0  0  0
 18 20  1  0  0  0  0
 21 16  1  6  0  0  0
 21 22  1  0  0  0  0
 21 25  1  0  0  0  0
 22 23  1  0  0  0  0
 22 36  1  1  0  0  0
 23 24  1  0  0  0  0
 23 31  1  1  0  0  0
 24 25  1  0  0  0  0
 24 26  1  6  0  0  0
 26 39  1  0  0  0  0
 27 28  1  0  0  0  0
 27 32  1  0  0  0  0
 27 38  1  1  0  0  0
 28 29  1  0  0  0  0
 28 37  1  6  0  0  0
 29 30  1  0  0  0  0
 29 42  1  1  0  0  0
 30 31  1  1  0  0  0
 30 33  1  0  0  0  0
 32 33  1  0  0  0  0
 32 34  1  1  0  0  0
 34 41  1  0  0  0  0
M  CHG  6   4   1  13   1  19   1  35   1  41   1  42   1
M  END
>  <CHROM.1>
-109.99458379,-1.45887044,-39.14699275,-160.33909422,77.36910832,-146.52521592
-112.46918725,15.84272080,-48.91413172,34.89388699,88.94386867,78.90941806
66.12585067,131.22333160,152.32735303,-42.04742859,166.03159497,88.98928420
-63.20278903,-137.27107891,92.10274511,90.64293821,-5.01271617,-0.87772603
-3.76876239,-0.19077939,-0.82190170,-2.89543957

>  <Name>


>  <RI>
0

>  <Rbt.Current_Directory>
/home/itssahil/PROJECTS/Mol_Feturizer/New_Systems/rnas/1ei2

>  <Rbt.Executable>
rbdock ($Id: //depot/dev/client3/rdock/2013.1/src/exe/rbdock.cxx#4 $)

>  <Rbt.Library>
libRbt.so (2013.1, Build901 2013/11/27)

>  <Rbt.Parameter_File>
/export/apps/rDock/src/rDock_2013.1_src/data/scripts/dock_solv.prm

>  <Rbt.Receptor>
prm/blind_docking_20.prm

>  <SCORE>
31.5416

>  <SCORE.INTER>
20.6514

>  <SCORE.INTER.CONST>
1

>  <SCORE.INTER.POLAR>
-6.86545

>  <SCORE.INTER.ROT>
9

>  <SCORE.INTER.SOLV>
57.1398

>  <SCORE.INTER.VDW>
8.00581

>  <SCORE.INTER.norm>
0.491699

>  <SCORE.INTRA>
2.17451

>  <SCORE.INTRA.DIHEDRAL>
20.2371

>  <SCORE.INTRA.DIHEDRAL.0>
40.8761

>  <SCORE.INTRA.POLAR>
-0.385344

>  <SCORE.INTRA.POLAR.0>
-0.0268208

>  <SCORE.INTRA.REPUL>
-0.641615

>  <SCORE.INTRA.REPUL.0>
0.641615

>  <SCORE.INTRA.SOLV>
-10.4368

>  <SCORE.INTRA.SOLV.lig_0>
-162.567

>  <SCORE.INTRA.VDW>
1.79261

>  <SCORE.INTRA.VDW.0>
-4.80338

>  <SCORE.INTRA.norm>
0.051774

>  <SCORE.RESTR>
8.71576

>  <SCORE.RESTR.CAVITY>
8.71576

>  <SCORE.RESTR.norm>
0.207518

>  <SCORE.SYSTEM>
0

>  <SCORE.SYSTEM.CONST>
0

>  <SCORE.SYSTEM.DIHEDRAL>
0

>  <SCORE.SYSTEM.SOLV>
0

>  <SCORE.SYSTEM.norm>
0

>  <SCORE.heavy>
42

>  <SCORE.norm>
0.750991

>  <RMSD>
9.389

$$$$

 OpenBabel11021811393D
libRbt.so/2013.1/901 2013/11/27
 42 45  0  0  0  0  0  0  0  0999 V2000
   -3.4483   -0.8502   -6.7336 C   0  0  2  0  0  0  0  0  0  0  0  0
   -4.5246    0.1259   -6.5831 O   0  0  0  0  0  0  0  0  0  0  0  0
   -2.8551   -0.8347   -8.1799 C   0  0  2  0  0  0  0  0  0  0  0  0
   -3.2666    0.3761   -8.9268 N   0  3  0  0  0  0  0  0  0  0  0  0
   -3.2655   -2.1220   -8.9567 C   0  0  1  0  0  0  0  0  0  0  0  0
   -2.7105   -2.1013  -10.2701 O   0  0  0  0  0  0  0  0  0  0  0  0
   -2.7796   -3.4088   -8.2373 C   0  0  2  0  0  0  0  0  0  0  0  0
   -3.4242   -4.5327   -8.8263 O   0  0  0  0  0  0  0  0  0  0  0  0
   -3.0903   -3.3545   -6.7063 C   0  0  2  0  0  0  0  0  0  0  0  0
   -3.9346   -2.1964   -6.4044 O   0  0  0  0  0  0  0  0  0  0  0  0
   -1.8420   -3.2341   -5.8022 C   0  0  0  0  0  0  0  0  0  0  0  0
   -2.9404    3.8792   -5.1608 C   0  0  1  0  0  0  0  0  0  0  0  0
   -2.6973    5.1025   -4.3641 N   0  3  0  0  0  0  0  0  0  0  0  0
   -2.4987    2.6043   -4.3953 C   0  0  1  0  0  0  0  0  0  0  0  0
   -2.8694    1.2674   -5.1268 C   0  0  1  0  0  0  0  0  0  0  0  0
   -2.7062    0.1740   -4.1840 O   0  0  0  0  0  0  0  0  0  0  0  0
   -4.3547    1.2310   -5.6433 C   0  0  1  0  0  0  0  0  0  0  0  0
   -4.7513    2.5513   -6.3799 C   0  0  1  0  0  0  0  0  0  0  0  0
   -6.1851    2.5796   -6.7337 N   0  3  0  0  0  0  0  0  0  0  0  0
   -4.4370    3.8014   -5.5276 C   0  0  0  0  0  0  0  0  0  0  0  0
   -2.8099    0.4364   -2.7546 C   0  0  1  0  0  0  0  0  0  0  0  0
   -4.2827    0.5944   -2.3957 C   0  0  1  0  0  0  0  0  0  0  0  0
   -4.6952   -0.8690   -2.3141 C   0  0  1  0  0  0  0  0  0  0  0  0
   -3.4862   -1.4929   -1.6025 C   0  0  2  0  0  0  0  0  0  0  0  0
   -2.3447   -0.7019   -2.0111 O   0  0  0  0  0  0  0  0  0  0  0  0
   -3.2666   -2.9709   -1.9724 C   0  0  0  0  0  0  0  0  0  0  0  0
   -9.6723   -1.3827   -0.8031 C   0  0  1  0  0  0  0  0  0  0  0  0
   -9.0267   -0.2511   -1.6504 C   0  0  1  0  0  0  0  0  0  0  0  0
   -8.0747   -0.7608   -2.7708 C   0  0  2  0  0  0  0  0  0  0  0  0
   -7.0097   -1.7513   -2.1993 C   0  0  1  0  0  0  0  0  0  0  0  0
   -5.9218   -1.0374   -1.5466 O   0  0  0  0  0  0  0  0  0  0  0  0
   -9.0854   -2.7727   -1.1950 C   0  0  1  0  0  0  0  0  0  0  0  0
   -7.6229   -2.6940   -1.2354 O   0  0  0  0  0  0  0  0  0  0  0  0
   -9.5097   -3.8938   -0.2116 C   0  0  0  0  0  0  0  0  0  0  0  0
   -0.8729   -4.3340   -5.9518 N   0  3  0  0  0  0  0  0  0  0  0  0
   -4.4044    1.2438   -1.1300 O   0  0  0  0  0  0  0  0  0  0  0  0
  -10.0716    0.5110   -2.2534 O   0  0  0  0  0  0  0  0  0  0  0  0
   -9.4201   -1.1132    0.5777 O   0  0  0  0  0  0  0  0  0  0  0  0
   -3.6205   -3.2117   -3.3235 O   0  0  0  0  0  0  0  0  0  0  0  0
   -1.0836    2.6460   -4.2130 O   0  0  0  0  0  0  0  0  0  0  0  0
   -9.6390   -5.2099   -0.8634 N   0  3  0  0  0  0  0  0  0  0  0  0
   -7.4634    0.3669   -3.5170 N   0  3  0  0  0  0  0  0  0  0  0  0
  1  2  1  6  0  0  0
  1  3  1  0  0  0  0
  1 10  1  0  0  0  0
  3  4  1  6  0  0  0
  3  5  1  0  0  0  0
  5  6  1  6  0  0  0
  5  7  1  0  0  0  0
  7  8  1  6  0  0  0
  7  9  1  0  0  0  0
  9 10  1  0  0  0  0
  9 11  1  1  0  0  0
 11 35  1  0  0  0  0
 12 13  1  1  0  0  0
 12 14  1  0  0  0  0
 12 20  1  0  0  0  0
 14 15  1  0  0  0  0
 14 40  1  6  0  0  0
 15 16  1  1  0  0  0
 15 17  1  0  0  0  0
 17  2  1  6  0  0  0
 17 18  1  0  0  0  0
 18 19  1  1  0  0  0
 18 20  1  0  0  0  0
 21 16  1  6  0  0  0
 21 22  1  0  0  0  0
 21 25  1  0  0  0  0
 22 23  1  0  0  0  0
 22 36  1  1  0  0  0
 23 24  1  0  0  0  0
 23 31  1  1  0  0  0
 24 25  1  0  0  0  0
 24 26  1  6  0  0  0
 26 39  1  0  0  0  0
 27 28  1  0  0  0  0
 27 32  1  0  0  0  0
 27 38  1  1  0  0  0
 28 29  1  0  0  0  0
 28 37  1  6  0  0  0
 29 30  1  0  0  0  0
 29 42  1  1  0  0  0
 30 31  1  1  0  0  0
 30 33  1  0  0  0  0
 32 33  1  0  0  0  0
 32 34  1  1  0  0  0
 34 41  1  0  0  0  0
M  CHG  6   4   1  13   1  19   1  35   1  41   1  42   1
M  END
>  <CHROM.1>
-116.66572851,9.45005289,-174.05157164,60.40768345,174.60469726,-58.91679293
-8.87076237,-94.39480124,-47.90283398,25.12535533,76.62632662,-159.83541371
70.52893064,125.68130582,34.46436042,-177.44816974,172.51142248,-80.85483129
-63.99966089,-100.02768229,148.43918849,-162.02566965,-4.81261531,-0.67009478
-4.25971257,0.02465921,-0.82904621,-2.87638312

>  <Name>


>  <RI>
0

>  <Rbt.Current_Directory>
/home/itssahil/PROJECTS/Mol_Feturizer/New_Systems/rnas/1ei2

>  <Rbt.Executable>
rbdock ($Id: //depot/dev/client3/rdock/2013.1/src/exe/rbdock.cxx#4 $)

>  <Rbt.Library>
libRbt.so (2013.1, Build901 2013/11/27)

>  <Rbt.Parameter_File>
/export/apps/rDock/src/rDock_2013.1_src/data/scripts/dock_solv.prm

>  <Rbt.Receptor>
prm/blind_docking_100.prm

>  <SCORE>
-18.9114

>  <SCORE.INTER>
-27.0379

>  <SCORE.INTER.CONST>
1

>  <SCORE.INTER.POLAR>
-6.62372

>  <SCORE.INTER.ROT>
9

>  <SCORE.INTER.SOLV>
47.0561

>  <SCORE.INTER.VDW>
-21.2315

>  <SCORE.INTER.norm>
-0.64376

>  <SCORE.INTRA>
-1.36667

>  <SCORE.INTRA.DIHEDRAL>
7.7075

>  <SCORE.INTRA.DIHEDRAL.0>
40.8761

>  <SCORE.INTRA.POLAR>
0.0260036

>  <SCORE.INTRA.POLAR.0>
-0.0268208

>  <SCORE.INTRA.REPUL>
-0.56647

>  <SCORE.INTRA.REPUL.0>
0.641615

>  <SCORE.INTRA.SOLV>
-7.89027

>  <SCORE.INTRA.SOLV.lig_0>
-162.567

>  <SCORE.INTRA.VDW>
1.46866

>  <SCORE.INTRA.VDW.0>
-4.80338

>  <SCORE.INTRA.norm>
-0.0325397

>  <SCORE.RESTR>
9.4932

>  <SCORE.RESTR.CAVITY>
9.4932

>  <SCORE.RESTR.norm>
0.226029

>  <SCORE.SYSTEM>
0

>  <SCORE.SYSTEM.CONST>
0

>  <SCORE.SYSTEM.DIHEDRAL>
0

>  <SCORE.SYSTEM.SOLV>
0

>  <SCORE.SYSTEM.norm>
0

>  <SCORE.heavy>
42

>  <SCORE.norm>
-0.450271

>  <RMSD>
9.391

$$$$

 OpenBabel11021811393D
libRbt.so/2013.1/901 2013/11/27
 42 45  0  0  0  0  0  0  0  0999 V2000
   -3.2988   -1.3471   -6.2587 C   0  0  2  0  0  0  0  0  0  0  0  0
   -4.2475   -0.2519   -6.4430 O   0  0  0  0  0  0  0  0  0  0  0  0
   -2.5115   -1.6543   -7.5739 C   0  0  2  0  0  0  0  0  0  0  0  0
   -2.6508   -0.5607   -8.5627 N   0  3  0  0  0  0  0  0  0  0  0  0
   -2.9745   -3.0095   -8.1886 C   0  0  1  0  0  0  0  0  0  0  0  0
   -2.2427   -3.2836   -9.3814 O   0  0  0  0  0  0  0  0  0  0  0  0
   -2.7683   -4.1902   -7.2024 C   0  0  2  0  0  0  0  0  0  0  0  0
   -3.4661   -5.3272   -7.6984 O   0  0  0  0  0  0  0  0  0  0  0  0
   -3.2812   -3.8295   -5.7705 C   0  0  2  0  0  0  0  0  0  0  0  0
   -3.9996   -2.5534   -5.7994 O   0  0  0  0  0  0  0  0  0  0  0  0
   -2.1674   -3.6813   -4.7086 C   0  0  0  0  0  0  0  0  0  0  0  0
   -2.7075    3.5946   -5.2376 C   0  0  1  0  0  0  0  0  0  0  0  0
   -2.5070    4.8839   -4.5390 N   0  3  0  0  0  0  0  0  0  0  0  0
   -2.3652    2.3912   -4.3206 C   0  0  1  0  0  0  0  0  0  0  0  0
   -2.7011    0.9969   -4.9555 C   0  0  1  0  0  0  0  0  0  0  0  0
   -2.6476   -0.0050   -3.9045 O   0  0  0  0  0  0  0  0  0  0  0  0
   -4.1354    0.9344   -5.5982 C   0  0  1  0  0  0  0  0  0  0  0  0
   -4.4342    2.1850   -6.4867 C   0  0  1  0  0  0  0  0  0  0  0  0
   -5.8301    2.2014   -6.9695 N   0  3  0  0  0  0  0  0  0  0  0  0
   -4.1672    3.5051   -5.7291 C   0  0  0  0  0  0  0  0  0  0  0  0
   -2.8822    0.3908   -2.5221 C   0  0  1  0  0  0  0  0  0  0  0  0
   -4.3771    0.6152   -2.3285 C   0  0  1  0  0  0  0  0  0  0  0  0
   -4.8425   -0.8244   -2.1577 C   0  0  1  0  0  0  0  0  0  0  0  0
   -3.7297   -1.4076   -1.2753 C   0  0  2  0  0  0  0  0  0  0  0  0
   -2.5288   -0.6844   -1.6365 O   0  0  0  0  0  0  0  0  0  0  0  0
   -3.5225   -2.9181   -1.4872 C   0  0  0  0  0  0  0  0  0  0  0  0
   -9.8991   -1.3080   -0.8282 C   0  0  1  0  0  0  0  0  0  0  0  0
   -9.2070    0.0142   -1.2618 C   0  0  1  0  0  0  0  0  0  0  0  0
   -8.2910   -0.1285   -2.5115 C   0  0  2  0  0  0  0  0  0  0  0  0
   -7.2702   -1.2981   -2.3327 C   0  0  1  0  0  0  0  0  0  0  0  0
   -6.1431   -0.8928   -1.5053 O   0  0  0  0  0  0  0  0  0  0  0  0
   -9.3838   -2.5085   -1.6788 C   0  0  1  0  0  0  0  0  0  0  0  0
   -7.9197   -2.4832   -1.7265 O   0  0  0  0  0  0  0  0  0  0  0  0
   -9.8532   -3.8760   -1.1189 C   0  0  0  0  0  0  0  0  0  0  0  0
   -1.2838   -4.8539   -4.5845 N   0  3  0  0  0  0  0  0  0  0  0  0
   -4.6012    1.3816   -1.1448 O   0  0  0  0  0  0  0  0  0  0  0  0
  -10.2191    0.9788   -1.5476 O   0  0  0  0  0  0  0  0  0  0  0  0
   -9.6217   -1.5302    0.5562 O   0  0  0  0  0  0  0  0  0  0  0  0
   -2.2107   -3.1882   -1.9506 O   0  0  0  0  0  0  0  0  0  0  0  0
   -0.9712    2.4285   -4.0160 O   0  0  0  0  0  0  0  0  0  0  0  0
   -9.2220   -4.2153    0.1697 N   0  3  0  0  0  0  0  0  0  0  0  0
   -7.6324    1.1574   -2.8504 N   0  3  0  0  0  0  0  0  0  0  0  0
  1  2  1  6  0  0  0
  1  3  1  0  0  0  0
  1 10  1  0  0  0  0
  3  4  1  6  0  0  0
  3  5  1  0  0  0  0
  5  6  1  6  0  0  0
  5  7  1  0  0  0  0
  7  8  1  6  0  0  0
  7  9  1  0  0  0  0
  9 10  1  0  0  0  0
  9 11  1  1  0  0  0
 11 35  1  0  0  0  0
 12 13  1  1  0  0  0
 12 14  1  0  0  0  0
 12 20  1  0  0  0  0
 14 15  1  0  0  0  0
 14 40  1  6  0  0  0
 15 16  1  1  0  0  0
 15 17  1  0  0  0  0
 17  2  1  6  0  0  0
 17 18  1  0  0  0  0
 18 19  1  1  0  0  0
 18 20  1  0  0  0  0
 21 16  1  6  0  0  0
 21 22  1  0  0  0  0
 21 25  1  0  0  0  0
 22 23  1  0  0  0  0
 22 36  1  1  0  0  0
 23 24  1  0  0  0  0
 23 31  1  1  0  0  0
 24 25  1  0  0  0  0
 24 26  1  6  0  0  0
 26 39  1  0  0  0  0
 27 28  1  0  0  0  0
 27 32  1  0  0  0  0
 27 38  1  1  0  0  0
 28 29  1  0  0  0  0
 28 37  1  6  0  0  0
 29 30  1  0  0  0  0
 29 42  1  1  0  0  0
 30 31  1  1  0  0  0
 30 33  1  0  0  0  0
 32 33  1  0  0  0  0
 32 34  1  1  0  0  0
 34 41  1  0  0  0  0
M  CHG  6   4   1  13   1  19   1  35   1  41   1  42   1
M  END
>  <CHROM.1>
-121.82736714,18.75518507,-75.77207954,79.30618699,61.47686072,-55.02447810
93.54194416,-97.17115733,-166.59140928,25.64028196,75.76491477,-63.09779074
71.08016540,109.03357094,118.92999648,171.78996467,67.24056880,179.39884940
64.69842390,-113.64435607,-68.87752068,177.84530068,-4.77233715,-0.82174451
-3.92279505,0.02171206,-0.74432780,-3.02960449

>  <Name>


>  <RI>
0

>  <Rbt.Current_Directory>
/home/itssahil/PROJECTS/Mol_Feturizer/New_Systems/rnas/1ei2

>  <Rbt.Executable>
rbdock ($Id: //depot/dev/client3/rdock/2013.1/src/exe/rbdock.cxx#4 $)

>  <Rbt.Library>
libRbt.so (2013.1, Build901 2013/11/27)

>  <Rbt.Parameter_File>
/export/apps/rDock/src/rDock_2013.1_src/data/scripts/dock_solv.prm

>  <Rbt.Receptor>
prm/blind_docking_80.prm

>  <SCORE>
-13.7301

>  <SCORE.INTER>
-19.0523

>  <SCORE.INTER.CONST>
1

>  <SCORE.INTER.POLAR>
-4.33389

>  <SCORE.INTER.ROT>
9

>  <SCORE.INTER.SOLV>
45.5191

>  <SCORE.INTER.VDW>
-23.0283

>  <SCORE.INTER.norm>
-0.453627

>  <SCORE.INTRA>
-2.41846

>  <SCORE.INTRA.DIHEDRAL>
6.05152

>  <SCORE.INTRA.DIHEDRAL.0>
40.8761

>  <SCORE.INTRA.POLAR>
-0.62634

>  <SCORE.INTRA.POLAR.0>
-0.0268208

>  <SCORE.INTRA.REPUL>
-0.641615

>  <SCORE.INTRA.REPUL.0>
0.641615

>  <SCORE.INTRA.SOLV>
-4.91856

>  <SCORE.INTRA.SOLV.lig_0>
-162.567

>  <SCORE.INTRA.VDW>
2.35269

>  <SCORE.INTRA.VDW.0>
-4.80338

>  <SCORE.INTRA.norm>
-0.0575824

>  <SCORE.RESTR>
7.74065

>  <SCORE.RESTR.CAVITY>
7.74065

>  <SCORE.RESTR.norm>
0.184301

>  <SCORE.SYSTEM>
0

>  <SCORE.SYSTEM.CONST>
0

>  <SCORE.SYSTEM.DIHEDRAL>
0

>  <SCORE.SYSTEM.SOLV>
0

>  <SCORE.SYSTEM.norm>
0

>  <SCORE.heavy>
42

>  <SCORE.norm>
-0.326908

>  <RMSD>
9.392

$$$$

 OpenBabel11021811393D
libRbt.so/2013.1/901 2013/11/27
 42 45  0  0  0  0  0  0  0  0999 V2000
   -2.7800   -0.2424   -6.8955 C   0  0  2  0  0  0  0  0  0  0  0  0
   -3.5661    0.9862   -6.8152 O   0  0  0  0  0  0  0  0  0  0  0  0
   -2.4070   -0.5918   -8.3729 C   0  0  2  0  0  0  0  0  0  0  0  0
   -2.6233    0.5599   -9.2784 N   0  3  0  0  0  0  0  0  0  0  0  0
   -3.2115   -1.8327   -8.8648 C   0  0  1  0  0  0  0  0  0  0  0  0
   -2.8555   -2.1477  -10.2092 O   0  0  0  0  0  0  0  0  0  0  0  0
   -2.9452   -3.0799   -7.9800 C   0  0  2  0  0  0  0  0  0  0  0  0
   -3.9107   -4.0774   -8.2939 O   0  0  0  0  0  0  0  0  0  0  0  0
   -3.0184   -2.7232   -6.4598 C   0  0  2  0  0  0  0  0  0  0  0  0
   -3.5174   -1.3571   -6.2865 O   0  0  0  0  0  0  0  0  0  0  0  0
   -1.6632   -2.7918   -5.7189 C   0  0  0  0  0  0  0  0  0  0  0  0
   -1.9432    2.9853   -3.3526 C   0  0  1  0  0  0  0  0  0  0  0  0
   -1.8055    3.7759   -2.1090 N   0  3  0  0  0  0  0  0  0  0  0  0
   -2.6866    1.6479   -3.0974 C   0  0  1  0  0  0  0  0  0  0  0  0
   -2.9947    0.8366   -4.4039 C   0  0  1  0  0  0  0  0  0  0  0  0
   -3.9563   -0.2022   -4.0767 O   0  0  0  0  0  0  0  0  0  0  0  0
   -3.6170    1.7152   -5.5506 C   0  0  1  0  0  0  0  0  0  0  0  0
   -2.8451    3.0608   -5.7421 C   0  0  1  0  0  0  0  0  0  0  0  0
   -3.5143    3.9506   -6.7129 N   0  3  0  0  0  0  0  0  0  0  0  0
   -2.6875    3.8274   -4.4097 C   0  0  0  0  0  0  0  0  0  0  0  0
   -5.2094    0.1577   -3.4263 C   0  0  1  0  0  0  0  0  0  0  0  0
   -6.0925   -1.0823   -3.3541 C   0  0  1  0  0  0  0  0  0  0  0  0
   -5.4827   -1.7732   -2.1420 C   0  0  1  0  0  0  0  0  0  0  0  0
   -5.2341   -0.5860   -1.2007 C   0  0  2  0  0  0  0  0  0  0  0  0
   -4.9629    0.5438   -2.0642 O   0  0  0  0  0  0  0  0  0  0  0  0
   -4.0525   -0.8154   -0.2413 C   0  0  0  0  0  0  0  0  0  0  0  0
  -10.1058   -1.7818   -1.8589 C   0  0  1  0  0  0  0  0  0  0  0  0
   -9.5717   -3.2072   -1.5451 C   0  0  1  0  0  0  0  0  0  0  0  0
   -8.5370   -3.2564   -0.3840 C   0  0  2  0  0  0  0  0  0  0  0  0
   -7.3812   -2.2302   -0.6138 C   0  0  1  0  0  0  0  0  0  0  0  0
   -6.4010   -2.7428   -1.5602 O   0  0  0  0  0  0  0  0  0  0  0  0
   -9.3522   -0.7091   -1.0153 C   0  0  1  0  0  0  0  0  0  0  0  0
   -7.9080   -0.9374   -1.1086 O   0  0  0  0  0  0  0  0  0  0  0  0
   -9.6715    0.7371   -1.4742 C   0  0  0  0  0  0  0  0  0  0  0  0
   -0.9054   -4.0345   -5.9484 N   0  3  0  0  0  0  0  0  0  0  0  0
   -7.4460   -0.6980   -3.1116 O   0  0  0  0  0  0  0  0  0  0  0  0
  -10.6805   -4.0373   -1.2018 O   0  0  0  0  0  0  0  0  0  0  0  0
   -9.9242   -1.5282   -3.2538 O   0  0  0  0  0  0  0  0  0  0  0  0
   -3.6997    0.3862    0.4223 O   0  0  0  0  0  0  0  0  0  0  0  0
   -1.8886    0.8368   -2.2356 O   0  0  0  0  0  0  0  0  0  0  0  0
   -9.0923    1.7616   -0.5861 N   0  3  0  0  0  0  0  0  0  0  0  0
   -8.0393   -4.6364   -0.1599 N   0  3  0  0  0  0  0  0  0  0  0  0
  1  2  1  6  0  0  0
  1  3  1  0  0  0  0
  1 10  1  0  0  0  0
  3  4  1  6  0  0  0
  3  5  1  0  0  0  0
  5  6  1  6  0  0  0
  5  7  1  0  0  0  0
  7  8  1  1  0  0  0
  7  9  1  0  0  0  0
  9 10  1  0  0  0  0
  9 11  1  6  0  0  0
 11 35  1  0  0  0  0
 12 13  1  1  0  0  0
 12 14  1  0  0  0  0
 12 20  1  0  0  0  0
 14 15  1  0  0  0  0
 14 40  1  1  0  0  0
 15 16  1  1  0  0  0
 15 17  1  0  0  0  0
 17  2  1  6  0  0  0
 17 18  1  0  0  0  0
 18 19  1  6  0  0  0
 18 20  1  0  0  0  0
 21 16  1  1  0  0  0
 21 22  1  0  0  0  0
 21 25  1  0  0  0  0
 22 23  1  0  0  0  0
 22 36  1  1  0  0  0
 23 24  1  0  0  0  0
 23 31  1  1  0  0  0
 24 25  1  0  0  0  0
 24 26  1  1  0  0  0
 26 39  1  0  0  0  0
 27 28  1  0  0  0  0
 27 32  1  0  0  0  0
 27 38  1  6  0  0  0
 28 29  1  0  0  0  0
 28 37  1  1  0  0  0
 29 30  1  0  0  0  0
 29 42  1  6  0  0  0
 30 31  1  6  0  0  0
 30 33  1  0  0  0  0
 32 33  1  0  0  0  0
 32 34  1  6  0  0  0
 34 41  1  0  0  0  0
M  CHG  6   4   1  13   1  19   1  35   1  41   1  42   1
M  END
>  <CHROM.1>
-159.11562207,-10.96130640,44.56525867,58.41605678,82.13590768,-49.35159337
121.58926670,-30.09214333,-51.45864827,54.09528222,173.21037326,-166.41376410
-41.88502699,-84.66886691,168.80333039,-176.69262258,163.58595899,175.18305309
-129.33751657,163.74615510,173.21262676,-40.06501605,-5.00553641,-0.61011056
-3.87641315,0.34155266,-0.74322401,-2.40172987

>  <Name>


>  <RI>
0

>  <Rbt.Current_Directory>
/home/itssahil/PROJECTS/Mol_Feturizer/New_Systems/rnas/1ei2

>  <Rbt.Executable>
rbdock ($Id: //depot/dev/client3/rdock/2013.1/src/exe/rbdock.cxx#4 $)

>  <Rbt.Library>
libRbt.so (2013.1, Build901 2013/11/27)

>  <Rbt.Parameter_File>
/export/apps/rDock/src/rDock_2013.1_src/data/scripts/dock_solv.prm

>  <Rbt.Receptor>
prm/blind_docking_100.prm

>  <SCORE>
88.7536

>  <SCORE.INTER>
79.4031

>  <SCORE.INTER.CONST>
1

>  <SCORE.INTER.POLAR>
-5.54067

>  <SCORE.INTER.ROT>
9

>  <SCORE.INTER.SOLV>
54.5782

>  <SCORE.INTER.VDW>
43.6116

>  <SCORE.INTER.norm>
1.89055

>  <SCORE.INTRA>
2.67014

>  <SCORE.INTRA.DIHEDRAL>
-10.1891

>  <SCORE.INTRA.DIHEDRAL.0>
40.8761

>  <SCORE.INTRA.POLAR>
-0.0723173

>  <SCORE.INTRA.POLAR.0>
-0.0268208

>  <SCORE.INTRA.REPUL>
-0.475923

>  <SCORE.INTRA.REPUL.0>
0.641615

>  <SCORE.INTRA.SOLV>
-8.95179

>  <SCORE.INTRA.SOLV.lig_0>
-162.567

>  <SCORE.INTRA.VDW>
14.8661

>  <SCORE.INTRA.VDW.0>
-4.80338

>  <SCORE.INTRA.norm>
0.0635748

>  <SCORE.RESTR>
6.68036

>  <SCORE.RESTR.CAVITY>
6.68036

>  <SCORE.RESTR.norm>
0.159056

>  <SCORE.SYSTEM>
0

>  <SCORE.SYSTEM.CONST>
0

>  <SCORE.SYSTEM.DIHEDRAL>
0

>  <SCORE.SYSTEM.SOLV>
0

>  <SCORE.SYSTEM.norm>
0

>  <SCORE.heavy>
42

>  <SCORE.norm>
2.11318

>  <RMSD>
9.394

$$$$

 OpenBabel11021811393D
libRbt.so/2013.1/901 2013/11/27
 42 45  0  0  0  0  0  0  0  0999 V2000
   -2.7602    1.7332   -6.7874 C   0  0  2  0  0  0  0  0  0  0  0  0
   -2.4328    0.3141   -6.8999 O   0  0  0  0  0  0  0  0  0  0  0  0
   -1.7218    2.4951   -5.9012 C   0  0  2  0  0  0  0  0  0  0  0  0
   -0.4930    1.6961   -5.6896 N   0  3  0  0  0  0  0  0  0  0  0  0
   -2.3545    2.8973   -4.5350 C   0  0  1  0  0  0  0  0  0  0  0  0
   -1.4018    3.6000   -3.7401 O   0  0  0  0  0  0  0  0  0  0  0  0
   -3.6023    3.8015   -4.7216 C   0  0  2  0  0  0  0  0  0  0  0  0
   -4.2920    3.8906   -3.4797 O   0  0  0  0  0  0  0  0  0  0  0  0
   -4.5545    3.2339   -5.8236 C   0  0  2  0  0  0  0  0  0  0  0  0
   -4.1106    1.9000   -6.2346 O   0  0  0  0  0  0  0  0  0  0  0  0
   -4.6267    4.0874   -7.1107 C   0  0  0  0  0  0  0  0  0  0  0  0
   -5.8262   -0.7056   -9.3626 C   0  0  1  0  0  0  0  0  0  0  0  0
   -6.8242   -1.4550  -10.1582 N   0  3  0  0  0  0  0  0  0  0  0  0
   -5.9425   -1.0319   -7.8506 C   0  0  1  0  0  0  0  0  0  0  0  0
   -4.8144   -0.3831   -6.9752 C   0  0  1  0  0  0  0  0  0  0  0  0
   -4.8373   -1.0128   -5.6660 O   0  0  0  0  0  0  0  0  0  0  0  0
   -3.3723   -0.5803   -7.5715 C   0  0  1  0  0  0  0  0  0  0  0  0
   -3.3229   -0.2652   -9.1016 C   0  0  1  0  0  0  0  0  0  0  0  0
   -2.0092   -0.5918   -9.6928 N   0  3  0  0  0  0  0  0  0  0  0  0
   -4.4114   -1.0356   -9.8822 C   0  0  0  0  0  0  0  0  0  0  0  0
   -4.6217   -0.2019   -4.4749 C   0  0  1  0  0  0  0  0  0  0  0  0
   -5.9401   -0.0909   -3.7182 C   0  0  1  0  0  0  0  0  0  0  0  0
   -5.9450   -1.4303   -2.9941 C   0  0  1  0  0  0  0  0  0  0  0  0
   -4.4767   -1.5554   -2.5633 C   0  0  2  0  0  0  0  0  0  0  0  0
   -3.7130   -0.8693   -3.5839 O   0  0  0  0  0  0  0  0  0  0  0  0
   -4.0071   -3.0163   -2.4423 C   0  0  0  0  0  0  0  0  0  0  0  0
   -9.6559   -3.1358    0.1222 C   0  0  1  0  0  0  0  0  0  0  0  0
   -9.2608   -1.6378    0.2455 C   0  0  1  0  0  0  0  0  0  0  0  0
   -9.1690   -0.8909   -1.1165 C   0  0  2  0  0  0  0  0  0  0  0  0
   -8.2549   -1.6617   -2.1225 C   0  0  1  0  0  0  0  0  0  0  0  0
   -6.8461   -1.4167   -1.8496 O   0  0  0  0  0  0  0  0  0  0  0  0
   -9.7233   -3.5703   -1.3734 C   0  0  1  0  0  0  0  0  0  0  0  0
   -8.5162   -3.1186   -2.0703 O   0  0  0  0  0  0  0  0  0  0  0  0
   -9.8644   -5.1054   -1.5387 C   0  0  0  0  0  0  0  0  0  0  0  0
   -3.3279    4.3037   -7.7721 N   0  3  0  0  0  0  0  0  0  0  0  0
   -5.8793    1.0005   -2.7997 O   0  0  0  0  0  0  0  0  0  0  0  0
  -10.2326   -0.9820    1.0591 O   0  0  0  0  0  0  0  0  0  0  0  0
   -8.6837   -3.9183    0.8191 O   0  0  0  0  0  0  0  0  0  0  0  0
   -2.7123   -3.1784   -2.9954 O   0  0  0  0  0  0  0  0  0  0  0  0
   -7.2077   -0.5701   -7.3777 O   0  0  0  0  0  0  0  0  0  0  0  0
   -9.2880   -5.8592   -0.4102 N   0  3  0  0  0  0  0  0  0  0  0  0
   -8.7524    0.5215   -0.9330 N   0  3  0  0  0  0  0  0  0  0  0  0
  1  2  1  1  0  0  0
  1  3  1  0  0  0  0
  1 10  1  0  0  0  0
  3  4  1  1  0  0  0
  3  5  1  0  0  0  0
  5  6  1  1  0  0  0
  5  7  1  0  0  0  0
  7  8  1  1  0  0  0
  7  9  1  0  0  0  0
  9 10  1  0  0  0  0
  9 11  1  6  0  0  0
 11 35  1  0  0  0  0
 12 13  1  6  0  0  0
 12 14  1  0  0  0  0
 12 20  1  0  0  0  0
 14 15  1  0  0  0  0
 14 40  1  1  0  0  0
 15 16  1  1  0  0  0
 15 17  1  0  0  0  0
 17  2  1  1  0  0  0
 17 18  1  0  0  0  0
 18 19  1  6  0  0  0
 18 20  1  0  0  0  0
 21 16  1  6  0  0  0
 21 22  1  0  0  0  0
 21 25  1  0  0  0  0
 22 23  1  0  0  0  0
 22 36  1  1  0  0  0
 23 24  1  0  0  0  0
 23 31  1  1  0  0  0
 24 25  1  0  0  0  0
 24 26  1  6  0  0  0
 26 39  1  0  0  0  0
 27 28  1  0  0  0  0
 27 32  1  0  0  0  0
 27 38  1  1  0  0  0
 28 29  1  0  0  0  0
 28 37  1  1  0  0  0
 29 30  1  0  0  0  0
 29 42  1  1  0  0  0
 30 31  1  1  0  0  0
 30 33  1  0  0  0  0
 32 33  1  0  0  0  0
 32 34  1  1  0  0  0
 34 41  1  0  0  0  0
M  CHG  6   4   1  13   1  19   1  35   1  41   1  42   1
M  END
>  <CHROM.1>
173.48254204,-50.67743593,83.77121097,-162.56705065,70.67167528,57.47501054
-172.53702800,-172.76409095,-64.84478774,-140.63288783,109.28205425,-67.27172539
64.29447554,82.85873818,137.51658452,-169.95762518,-83.27540219,166.08905000
-168.02764533,-148.43695961,-27.16659103,-84.85101073,-5.45441332,-0.32588888
-4.42680015,-0.40848501,0.88431624,1.10177480

>  <Name>


>  <RI>
0

>  <Rbt.Current_Directory>
/home/itssahil/PROJECTS/Mol_Feturizer/New_Systems/rnas/1ei2

>  <Rbt.Executable>
rbdock ($Id: //depot/dev/client3/rdock/2013.1/src/exe/rbdock.cxx#4 $)

>  <Rbt.Library>
libRbt.so (2013.1, Build901 2013/11/27)

>  <Rbt.Parameter_File>
/export/apps/rDock/src/rDock_2013.1_src/data/scripts/dock_solv.prm

>  <Rbt.Receptor>
prm/blind_docking_100.prm

>  <SCORE>
32.4325

>  <SCORE.INTER>
22.4771

>  <SCORE.INTER.CONST>
1

>  <SCORE.INTER.POLAR>
-5.28862

>  <SCORE.INTER.ROT>
9

>  <SCORE.INTER.SOLV>
49.4333

>  <SCORE.INTER.VDW>
6.53573

>  <SCORE.INTER.norm>
0.53517

>  <SCORE.INTRA>
-2.62012

>  <SCORE.INTRA.DIHEDRAL>
-4.92517

>  <SCORE.INTRA.DIHEDRAL.0>
40.8761

>  <SCORE.INTRA.POLAR>
-0.367447

>  <SCORE.INTRA.POLAR.0>
-0.0268208

>  <SCORE.INTRA.REPUL>
-0.641615

>  <SCORE.INTRA.REPUL.0>
0.641615

>  <SCORE.INTRA.SOLV>
-3.33637

>  <SCORE.INTRA.SOLV.lig_0>
-162.567

>  <SCORE.INTRA.VDW>
5.96804

>  <SCORE.INTRA.VDW.0>
-4.80338

>  <SCORE.INTRA.norm>
-0.0623839

>  <SCORE.RESTR>
12.5755

>  <SCORE.RESTR.CAVITY>
12.5755

>  <SCORE.RESTR.norm>
0.299417

>  <SCORE.SYSTEM>
0

>  <SCORE.SYSTEM.CONST>
0

>  <SCORE.SYSTEM.DIHEDRAL>
0

>  <SCORE.SYSTEM.SOLV>
0

>  <SCORE.SYSTEM.norm>
0

>  <SCORE.heavy>
42

>  <SCORE.norm>
0.772203

>  <RMSD>
9.395

$$$$

 OpenBabel11021811393D
libRbt.so/2013.1/901 2013/11/27
 42 45  0  0  0  0  0  0  0  0999 V2000
   -2.6858   -2.0781   -6.5081 C   0  0  2  0  0  0  0  0  0  0  0  0
   -1.9345   -1.0872   -5.7418 O   0  0  0  0  0  0  0  0  0  0  0  0
   -2.8388   -3.4198   -5.7206 C   0  0  2  0  0  0  0  0  0  0  0  0
   -2.5090   -3.2528   -4.2866 N   0  3  0  0  0  0  0  0  0  0  0  0
   -1.9571   -4.5356   -6.3581 C   0  0  1  0  0  0  0  0  0  0  0  0
   -2.1127   -5.7565   -5.6379 O   0  0  0  0  0  0  0  0  0  0  0  0
   -2.3322   -4.7889   -7.8429 C   0  0  2  0  0  0  0  0  0  0  0  0
   -1.3196   -5.5916   -8.4395 O   0  0  0  0  0  0  0  0  0  0  0  0
   -2.4822   -3.4451   -8.6272 C   0  0  2  0  0  0  0  0  0  0  0  0
   -2.0298   -2.3251   -7.7988 O   0  0  0  0  0  0  0  0  0  0  0  0
   -3.9287   -3.1132   -9.0606 C   0  0  0  0  0  0  0  0  0  0  0  0
   -2.4232    2.9053   -4.1794 C   0  0  1  0  0  0  0  0  0  0  0  0
   -3.0069    4.1473   -3.6251 N   0  3  0  0  0  0  0  0  0  0  0  0
   -2.4681    1.7463   -3.1494 C   0  0  1  0  0  0  0  0  0  0  0  0
   -2.0012    0.3661   -3.7300 C   0  0  1  0  0  0  0  0  0  0  0  0
   -2.3912   -0.6749   -2.7946 O   0  0  0  0  0  0  0  0  0  0  0  0
   -2.6520    0.0230   -5.1203 C   0  0  1  0  0  0  0  0  0  0  0  0
   -2.6035    1.2357   -6.1052 C   0  0  1  0  0  0  0  0  0  0  0  0
   -3.3440    0.9655   -7.3544 N   0  3  0  0  0  0  0  0  0  0  0  0
   -3.1817    2.5183   -5.4661 C   0  0  0  0  0  0  0  0  0  0  0  0
   -2.9645   -0.3059   -1.5070 C   0  0  1  0  0  0  0  0  0  0  0  0
   -4.0314    0.7577   -1.7377 C   0  0  1  0  0  0  0  0  0  0  0  0
   -5.1937   -0.1221   -2.1773 C   0  0  1  0  0  0  0  0  0  0  0  0
   -5.0649   -1.3106   -1.2139 C   0  0  2  0  0  0  0  0  0  0  0  0
   -3.6498   -1.4313   -0.9335 O   0  0  0  0  0  0  0  0  0  0  0  0
   -5.6021   -2.6262   -1.8054 C   0  0  0  0  0  0  0  0  0  0  0  0
   -9.9166    0.1385   -0.3873 C   0  0  1  0  0  0  0  0  0  0  0  0
   -9.5287    1.2697   -1.3800 C   0  0  1  0  0  0  0  0  0  0  0  0
   -8.8634    0.7629   -2.6921 C   0  0  2  0  0  0  0  0  0  0  0  0
   -7.6637   -0.1902   -2.3851 C   0  0  1  0  0  0  0  0  0  0  0  0
   -6.4706    0.5624   -2.0256 O   0  0  0  0  0  0  0  0  0  0  0  0
   -9.4031   -1.2436   -0.8935 C   0  0  1  0  0  0  0  0  0  0  0  0
   -7.9971   -1.1296   -1.2896 O   0  0  0  0  0  0  0  0  0  0  0  0
   -9.5436   -2.3563    0.1771 C   0  0  0  0  0  0  0  0  0  0  0  0
   -4.0625   -1.8648   -9.8318 N   0  3  0  0  0  0  0  0  0  0  0  0
   -4.3179    1.4286   -0.5103 O   0  0  0  0  0  0  0  0  0  0  0  0
  -10.7101    1.9944   -1.7196 O   0  0  0  0  0  0  0  0  0  0  0  0
   -9.3441    0.4399    0.8872 O   0  0  0  0  0  0  0  0  0  0  0  0
   -4.6221   -3.2538   -2.6145 O   0  0  0  0  0  0  0  0  0  0  0  0
   -1.6295    2.0821   -2.0442 O   0  0  0  0  0  0  0  0  0  0  0  0
   -9.1385   -3.6842   -0.3192 N   0  3  0  0  0  0  0  0  0  0  0  0
   -8.4841    1.8912   -3.5782 N   0  3  0  0  0  0  0  0  0  0  0  0
  1  2  1  1  0  0  0
  1  3  1  0  0  0  0
  1 10  1  0  0  0  0
  3  4  1  1  0  0  0
  3  5  1  0  0  0  0
  5  6  1  1  0  0  0
  5  7  1  0  0  0  0
  7  8  1  6  0  0  0
  7  9  1  0  0  0  0
  9 10  1  0  0  0  0
  9 11  1  1  0  0  0
 11 35  1  0  0  0  0
 12 13  1  1  0  0  0
 12 14  1  0  0  0  0
 12 20  1  0  0  0  0
 14 15  1  0  0  0  0
 14 40  1  1  0  0  0
 15 16  1  1  0  0  0
 15 17  1  0  0  0  0
 17  2  1  6  0  0  0
 17 18  1  0  0  0  0
 18 19  1  6  0  0  0
 18 20  1  0  0  0  0
 21 16  1  6  0  0  0
 21 22  1  0  0  0  0
 21 25  1  0  0  0  0
 22 23  1  0  0  0  0
 22 36  1  1  0  0  0
 23 24  1  0  0  0  0
 23 31  1  1  0  0  0
 24 25  1  0  0  0  0
 24 26  1  6  0  0  0
 26 39  1  0  0  0  0
 27 28  1  0  0  0  0
 27 32  1  0  0  0  0
 27 38  1  1  0  0  0
 28 29  1  0  0  0  0
 28 37  1  6  0  0  0
 29 30  1  0  0  0  0
 29 42  1  1  0  0  0
 30 31  1  1  0  0  0
 30 33  1  0  0  0  0
 32 33  1  0  0  0  0
 32 34  1  1  0  0  0
 34 41  1  0  0  0  0
M  CHG  6   4   1  13   1  19   1  35   1  41   1  42   1
M  END
>  <CHROM.1>
-105.04422116,143.37252183,122.83192859,-177.14880859,-59.24947410,-178.40249374
41.88755250,63.38321430,-68.83593063,-6.48362289,46.59960208,64.61736170
69.64083334,-178.61193472,83.53015295,59.63339713,-54.95681589,64.61002803
60.71489160,-158.79850147,176.45024298,-163.70956562,-4.72448524,-0.82227892
-3.74608974,0.58730217,-0.64581789,-2.74504243

>  <Name>


>  <RI>
0

>  <Rbt.Current_Directory>
/home/itssahil/PROJECTS/Mol_Feturizer/New_Systems/rnas/1ei2

>  <Rbt.Executable>
rbdock ($Id: //depot/dev/client3/rdock/2013.1/src/exe/rbdock.cxx#4 $)

>  <Rbt.Library>
libRbt.so (2013.1, Build901 2013/11/27)

>  <Rbt.Parameter_File>
/export/apps/rDock/src/rDock_2013.1_src/data/scripts/dock_solv.prm

>  <Rbt.Receptor>
prm/blind_docking_20.prm

>  <SCORE>
26.2532

>  <SCORE.INTER>
11.5329

>  <SCORE.INTER.CONST>
1

>  <SCORE.INTER.POLAR>
-1.89566

>  <SCORE.INTER.ROT>
9

>  <SCORE.INTER.SOLV>
32.5429

>  <SCORE.INTER.VDW>
-6.44015

>  <SCORE.INTER.norm>
0.274593

>  <SCORE.INTRA>
-1.33269

>  <SCORE.INTRA.DIHEDRAL>
-11.3348

>  <SCORE.INTRA.DIHEDRAL.0>
40.8761

>  <SCORE.INTRA.POLAR>
-2.36568

>  <SCORE.INTRA.POLAR.0>
-0.0268208

>  <SCORE.INTRA.REPUL>
-0.46658

>  <SCORE.INTRA.REPUL.0>
0.641615

>  <SCORE.INTRA.SOLV>
-2.30775

>  <SCORE.INTRA.SOLV.lig_0>
-162.567

>  <SCORE.INTRA.VDW>
15.8648

>  <SCORE.INTRA.VDW.0>
-4.80338

>  <SCORE.INTRA.norm>
-0.0317307

>  <SCORE.RESTR>
16.053

>  <SCORE.RESTR.CAVITY>
16.053

>  <SCORE.RESTR.norm>
0.382214

>  <SCORE.SYSTEM>
0

>  <SCORE.SYSTEM.CONST>
0

>  <SCORE.SYSTEM.DIHEDRAL>
0

>  <SCORE.SYSTEM.SOLV>
0

>  <SCORE.SYSTEM.norm>
0

>  <SCORE.heavy>
42

>  <SCORE.norm>
0.625076

>  <RMSD>
9.419

$$$$

 OpenBabel11021811393D
libRbt.so/2013.1/901 2013/11/27
 42 45  0  0  0  0  0  0  0  0999 V2000
   -3.3915   -0.9166   -6.6453 C   0  0  2  0  0  0  0  0  0  0  0  0
   -4.4527    0.0824   -6.5475 O   0  0  0  0  0  0  0  0  0  0  0  0
   -2.7710   -0.9590   -8.0796 C   0  0  2  0  0  0  0  0  0  0  0  0
   -3.1464    0.2337   -8.8732 N   0  3  0  0  0  0  0  0  0  0  0  0
   -3.1898   -2.2637   -8.8220 C   0  0  1  0  0  0  0  0  0  0  0  0
   -2.6099   -2.2958  -10.1243 O   0  0  0  0  0  0  0  0  0  0  0  0
   -2.7409   -3.5345   -8.0519 C   0  0  2  0  0  0  0  0  0  0  0  0
   -3.3944   -4.6657   -8.6165 O   0  0  0  0  0  0  0  0  0  0  0  0
   -3.0794   -3.4246   -6.5298 C   0  0  2  0  0  0  0  0  0  0  0  0
   -3.9082   -2.2426   -6.2821 O   0  0  0  0  0  0  0  0  0  0  0  0
   -1.8463   -3.2964   -5.6060 C   0  0  0  0  0  0  0  0  0  0  0  0
   -2.7463    3.8190   -5.2261 C   0  0  1  0  0  0  0  0  0  0  0  0
   -2.4798    5.0678   -4.4779 N   0  3  0  0  0  0  0  0  0  0  0  0
   -2.4129    2.5645   -4.3768 C   0  0  1  0  0  0  0  0  0  0  0  0
   -2.8161    1.2121   -5.0613 C   0  0  1  0  0  0  0  0  0  0  0  0
   -2.7599    0.1618   -4.0591 O   0  0  0  0  0  0  0  0  0  0  0  0
   -4.2727    1.2244   -5.6548 C   0  0  1  0  0  0  0  0  0  0  0  0
   -4.5603    2.5234   -6.4750 C   0  0  1  0  0  0  0  0  0  0  0  0
   -5.9705    2.6059   -6.9067 N   0  3  0  0  0  0  0  0  0  0  0  0
   -4.2242    3.7981   -5.6688 C   0  0  0  0  0  0  0  0  0  0  0  0
   -2.9159    0.5030   -2.6512 C   0  0  1  0  0  0  0  0  0  0  0  0
   -4.4041    0.6061   -2.3388 C   0  0  1  0  0  0  0  0  0  0  0  0
   -4.7452   -0.8691   -2.1786 C   0  0  1  0  0  0  0  0  0  0  0  0
   -3.5267   -1.3866   -1.4009 C   0  0  2  0  0  0  0  0  0  0  0  0
   -2.4152   -0.5636   -1.8287 O   0  0  0  0  0  0  0  0  0  0  0  0
   -3.2235   -2.8706   -1.6748 C   0  0  0  0  0  0  0  0  0  0  0  0
   -9.7311   -1.4658   -0.7128 C   0  0  1  0  0  0  0  0  0  0  0  0
   -9.0942   -0.2920   -1.5078 C   0  0  1  0  0  0  0  0  0  0  0  0
   -8.1358   -0.7430   -2.6477 C   0  0  2  0  0  0  0  0  0  0  0  0
   -7.0629   -1.7484   -2.1185 C   0  0  1  0  0  0  0  0  0  0  0  0
   -5.9826   -1.0545   -1.4326 O   0  0  0  0  0  0  0  0  0  0  0  0
   -9.1310   -2.8317   -1.1648 C   0  0  1  0  0  0  0  0  0  0  0  0
   -7.6692   -2.7383   -1.1986 O   0  0  0  0  0  0  0  0  0  0  0  0
   -9.5468   -3.9990   -0.2329 C   0  0  0  0  0  0  0  0  0  0  0  0
   -0.8026   -4.3102   -5.8386 N   0  3  0  0  0  0  0  0  0  0  0  0
   -4.5929    1.3226   -1.1184 O   0  0  0  0  0  0  0  0  0  0  0  0
  -10.1449    0.4868   -2.0786 O   0  0  0  0  0  0  0  0  0  0  0  0
   -9.4836   -1.2555    0.6791 O   0  0  0  0  0  0  0  0  0  0  0  0
   -2.8713   -3.0723   -3.0327 O   0  0  0  0  0  0  0  0  0  0  0  0
   -1.0088    2.5440   -4.1206 O   0  0  0  0  0  0  0  0  0  0  0  0
   -9.6470   -5.2892   -0.9394 N   0  3  0  0  0  0  0  0  0  0  0  0
   -7.5334    0.4221   -3.3419 N   0  3  0  0  0  0  0  0  0  0  0  0
  1  2  1  6  0  0  0
  1  3  1  0  0  0  0
  1 10  1  0  0  0  0
  3  4  1  6  0  0  0
  3  5  1  0  0  0  0
  5  6  1  6  0  0  0
  5  7  1  0  0  0  0
  7  8  1  6  0  0  0
  7  9  1  0  0  0  0
  9 10  1  0  0  0  0
  9 11  1  1  0  0  0
 11 35  1  0  0  0  0
 12 13  1  1  0  0  0
 12 14  1  0  0  0  0
 12 20  1  0  0  0  0
 14 15  1  0  0  0  0
 14 40  1  6  0  0  0
 15 16  1  1  0  0  0
 15 17  1  0  0  0  0
 17  2  1  6  0  0  0
 17 18  1  0  0  0  0
 18 19  1  1  0  0  0
 18 20  1  0  0  0  0
 21 16  1  6  0  0  0
 21 22  1  0  0  0  0
 21 25  1  0  0  0  0
 22 23  1  0  0  0  0
 22 36  1  1  0  0  0
 23 24  1  0  0  0  0
 23 31  1  1  0  0  0
 24 25  1  0  0  0  0
 24 26  1  6  0  0  0
 26 39  1  0  0  0  0
 27 28  1  0  0  0  0
 27 32  1  0  0  0  0
 27 38  1  1  0  0  0
 28 29  1  0  0  0  0
 28 37  1  6  0  0  0
 29 30  1  0  0  0  0
 29 42  1  1  0  0  0
 30 31  1  1  0  0  0
 30 33  1  0  0  0  0
 32 33  1  0  0  0  0
 32 34  1  1  0  0  0
 34 41  1  0  0  0  0
M  CHG  6   4   1  13   1  19   1  35   1  41   1  42   1
M  END
>  <CHROM.1>
-115.83012055,6.21661298,-48.34842907,59.55270891,56.20938394,-50.49310911
-133.33435369,14.17968667,-59.04154132,24.81388848,82.87495901,72.54162925
-45.92478672,119.83235661,63.80030378,-72.54504544,173.63495856,66.78727941
-64.03828146,-101.42884563,149.15315652,-159.20727861,-4.77462768,-0.69935806
-4.17597546,0.01849093,-0.81735161,-2.87489346

>  <Name>


>  <RI>
0

>  <Rbt.Current_Directory>
/home/itssahil/PROJECTS/Mol_Feturizer/New_Systems/rnas/1ei2

>  <Rbt.Executable>
rbdock ($Id: //depot/dev/client3/rdock/2013.1/src/exe/rbdock.cxx#4 $)

>  <Rbt.Library>
libRbt.so (2013.1, Build901 2013/11/27)

>  <Rbt.Parameter_File>
/export/apps/rDock/src/rDock_2013.1_src/data/scripts/dock_solv.prm

>  <Rbt.Receptor>
prm/blind_docking_20.prm

>  <SCORE>
-20.7553

>  <SCORE.INTER>
-30.1979

>  <SCORE.INTER.CONST>
1

>  <SCORE.INTER.POLAR>
-6.92933

>  <SCORE.INTER.ROT>
9

>  <SCORE.INTER.SOLV>
49.0975

>  <SCORE.INTER.VDW>
-23

>  <SCORE.INTER.norm>
-0.718997

>  <SCORE.INTRA>
-1.41057

>  <SCORE.INTRA.DIHEDRAL>
6.81577

>  <SCORE.INTRA.DIHEDRAL.0>
40.8761

>  <SCORE.INTRA.POLAR>
0.0187258

>  <SCORE.INTRA.POLAR.0>
-0.0268208

>  <SCORE.INTRA.REPUL>
-0.641615

>  <SCORE.INTRA.REPUL.0>
0.641615

>  <SCORE.INTRA.SOLV>
-8.79723

>  <SCORE.INTRA.SOLV.lig_0>
-162.567

>  <SCORE.INTRA.VDW>
2.72457

>  <SCORE.INTRA.VDW.0>
-4.80338

>  <SCORE.INTRA.norm>
-0.0335849

>  <SCORE.RESTR>
10.8531

>  <SCORE.RESTR.CAVITY>
10.8531

>  <SCORE.RESTR.norm>
0.258407

>  <SCORE.SYSTEM>
0

>  <SCORE.SYSTEM.CONST>
0

>  <SCORE.SYSTEM.DIHEDRAL>
0

>  <SCORE.SYSTEM.SOLV>
0

>  <SCORE.SYSTEM.norm>
0

>  <SCORE.heavy>
42

>  <SCORE.norm>
-0.494175

>  <RMSD>
9.420

$$$$

 OpenBabel11021811393D
libRbt.so/2013.1/901 2013/11/27
 42 45  0  0  0  0  0  0  0  0999 V2000
   -3.4349   -0.8194   -6.7948 C   0  0  2  0  0  0  0  0  0  0  0  0
   -4.5464    0.1149   -6.6360 O   0  0  0  0  0  0  0  0  0  0  0  0
   -2.7649   -0.6836   -8.2007 C   0  0  2  0  0  0  0  0  0  0  0  0
   -3.1713    0.5672   -8.8815 N   0  3  0  0  0  0  0  0  0  0  0  0
   -3.0939   -1.9213   -9.0888 C   0  0  1  0  0  0  0  0  0  0  0  0
   -2.4694   -1.7908  -10.3642 O   0  0  0  0  0  0  0  0  0  0  0  0
   -2.6095   -3.2439   -8.4366 C   0  0  2  0  0  0  0  0  0  0  0  0
   -3.1873   -4.3384   -9.1393 O   0  0  0  0  0  0  0  0  0  0  0  0
   -3.0042   -3.3090   -6.9255 C   0  0  2  0  0  0  0  0  0  0  0  0
   -3.8979   -2.1981   -6.5900 O   0  0  0  0  0  0  0  0  0  0  0  0
   -1.8109   -3.2223   -5.9464 C   0  0  0  0  0  0  0  0  0  0  0  0
   -3.1265    3.8824   -5.0836 C   0  0  1  0  0  0  0  0  0  0  0  0
   -2.9406    5.0898   -4.2482 N   0  3  0  0  0  0  0  0  0  0  0  0
   -2.6443    2.6032   -4.3504 C   0  0  1  0  0  0  0  0  0  0  0  0
   -2.9541    1.2754   -5.1256 C   0  0  1  0  0  0  0  0  0  0  0  0
   -2.7595    0.1615   -4.2134 O   0  0  0  0  0  0  0  0  0  0  0  0
   -4.4307    1.1972   -5.6620 C   0  0  1  0  0  0  0  0  0  0  0  0
   -4.8698    2.5226   -6.3644 C   0  0  1  0  0  0  0  0  0  0  0  0
   -6.2995    2.5060   -6.7357 N   0  3  0  0  0  0  0  0  0  0  0  0
   -4.6145    3.7578   -5.4717 C   0  0  0  0  0  0  0  0  0  0  0  0
   -2.8289    0.3893   -2.7760 C   0  0  1  0  0  0  0  0  0  0  0  0
   -4.2905    0.5691   -2.3832 C   0  0  1  0  0  0  0  0  0  0  0  0
   -4.7328   -0.8869   -2.3300 C   0  0  1  0  0  0  0  0  0  0  0  0
   -3.5237   -1.5541   -1.6592 C   0  0  2  0  0  0  0  0  0  0  0  0
   -2.3737   -0.7772   -2.0710 O   0  0  0  0  0  0  0  0  0  0  0  0
   -3.3434   -3.0264   -2.0705 C   0  0  0  0  0  0  0  0  0  0  0  0
   -9.6768   -1.4070   -0.7049 C   0  0  1  0  0  0  0  0  0  0  0  0
   -9.0527   -0.2580   -1.5449 C   0  0  1  0  0  0  0  0  0  0  0  0
   -8.1320   -0.7443   -2.7012 C   0  0  2  0  0  0  0  0  0  0  0  0
   -7.0534   -1.7478   -2.1802 C   0  0  1  0  0  0  0  0  0  0  0  0
   -5.9472   -1.0489   -1.5420 O   0  0  0  0  0  0  0  0  0  0  0  0
   -9.1026   -2.7887   -1.1423 C   0  0  1  0  0  0  0  0  0  0  0  0
   -7.6416   -2.7104   -1.2204 O   0  0  0  0  0  0  0  0  0  0  0  0
   -9.5018   -3.9303   -0.1719 C   0  0  0  0  0  0  0  0  0  0  0  0
   -0.8551   -4.3390   -6.0502 N   0  3  0  0  0  0  0  0  0  0  0  0
   -4.3729    1.1884   -1.0994 O   0  0  0  0  0  0  0  0  0  0  0  0
  -10.1125    0.5178   -2.1029 O   0  0  0  0  0  0  0  0  0  0  0  0
   -9.3870   -1.1674    0.6741 O   0  0  0  0  0  0  0  0  0  0  0  0
   -3.2084   -3.1455   -3.4763 O   0  0  0  0  0  0  0  0  0  0  0  0
   -1.2342    2.6941   -4.1487 O   0  0  0  0  0  0  0  0  0  0  0  0
   -9.6433   -5.2335   -0.8469 N   0  3  0  0  0  0  0  0  0  0  0  0
   -7.5395    0.3986   -3.4393 N   0  3  0  0  0  0  0  0  0  0  0  0
  1  2  1  6  0  0  0
  1  3  1  0  0  0  0
  1 10  1  0  0  0  0
  3  4  1  6  0  0  0
  3  5  1  0  0  0  0
  5  6  1  6  0  0  0
  5  7  1  0  0  0  0
  7  8  1  6  0  0  0
  7  9  1  0  0  0  0
  9 10  1  0  0  0  0
  9 11  1  1  0  0  0
 11 35  1  0  0  0  0
 12 13  1  1  0  0  0
 12 14  1  0  0  0  0
 12 20  1  0  0  0  0
 14 15  1  0  0  0  0
 14 40  1  6  0  0  0
 15 16  1  1  0  0  0
 15 17  1  0  0  0  0
 17  2  1  6  0  0  0
 17 18  1  0  0  0  0
 18 19  1  1  0  0  0
 18 20  1  0  0  0  0
 21 16  1  6  0  0  0
 21 22  1  0  0  0  0
 21 25  1  0  0  0  0
 22 23  1  0  0  0  0
 22 36  1  1  0  0  0
 23 24  1  0  0  0  0
 23 31  1  1  0  0  0
 24 25  1  0  0  0  0
 24 26  1  6  0  0  0
 26 39  1  0  0  0  0
 27 28  1  0  0  0  0
 27 32  1  0  0  0  0
 27 38  1  1  0  0  0
 28 29  1  0  0  0  0
 28 37  1  6  0  0  0
 29 30  1  0  0  0  0
 29 42  1  1  0  0  0
 30 31  1  1  0  0  0
 30 33  1  0  0  0  0
 32 33  1  0  0  0  0
 32 34  1  1  0  0  0
 34 41  1  0  0  0  0
M  CHG  6   4   1  13   1  19   1  35   1  41   1  42   1
M  END
>  <CHROM.1>
-113.37476942,9.86758169,-157.29024125,61.50677436,-54.52921851,-63.32630013
120.96250044,-152.39374231,91.55371638,22.30575550,74.95298018,54.18497450
-157.24995221,126.93681790,57.55616539,-60.51269515,49.90672759,169.60554827
149.83696336,-101.12720111,148.75499612,-164.06007084,-4.82000217,-0.64487001
-4.27520429,0.02643251,-0.84048556,-2.91463364

>  <Name>


>  <RI>
0

>  <Rbt.Current_Directory>
/home/itssahil/PROJECTS/Mol_Feturizer/New_Systems/rnas/1ei2

>  <Rbt.Executable>
rbdock ($Id: //depot/dev/client3/rdock/2013.1/src/exe/rbdock.cxx#4 $)

>  <Rbt.Library>
libRbt.so (2013.1, Build901 2013/11/27)

>  <Rbt.Parameter_File>
/export/apps/rDock/src/rDock_2013.1_src/data/scripts/dock_solv.prm

>  <Rbt.Receptor>
prm/blind_docking_60.prm

>  <SCORE>
-19.862

>  <SCORE.INTER>
-28.166

>  <SCORE.INTER.CONST>
1

>  <SCORE.INTER.POLAR>
-5.94546

>  <SCORE.INTER.ROT>
9

>  <SCORE.INTER.SOLV>
45.7293

>  <SCORE.INTER.VDW>
-23.8023

>  <SCORE.INTER.norm>
-0.67062

>  <SCORE.INTRA>
-0.40939

>  <SCORE.INTRA.DIHEDRAL>
10.734

>  <SCORE.INTRA.DIHEDRAL.0>
40.8761

>  <SCORE.INTRA.POLAR>
-0.28871

>  <SCORE.INTRA.POLAR.0>
-0.0268208

>  <SCORE.INTRA.REPUL>
-0.641615

>  <SCORE.INTRA.REPUL.0>
0.641615

>  <SCORE.INTRA.SOLV>
-6.61799

>  <SCORE.INTRA.SOLV.lig_0>
-162.567

>  <SCORE.INTRA.VDW>
1.72231

>  <SCORE.INTRA.VDW.0>
-4.80338

>  <SCORE.INTRA.norm>
-0.00974738

>  <SCORE.RESTR>
8.7134

>  <SCORE.RESTR.CAVITY>
8.7134

>  <SCORE.RESTR.norm>
0.207462

>  <SCORE.SYSTEM>
0

>  <SCORE.SYSTEM.CONST>
0

>  <SCORE.SYSTEM.DIHEDRAL>
0

>  <SCORE.SYSTEM.SOLV>
0

>  <SCORE.SYSTEM.norm>
0

>  <SCORE.heavy>
42

>  <SCORE.norm>
-0.472905

>  <RMSD>
9.426

$$$$

 OpenBabel11021811393D
libRbt.so/2013.1/901 2013/11/27
 42 45  0  0  0  0  0  0  0  0999 V2000
   -2.4872    6.1791    2.2653 C   0  0  2  0  0  0  0  0  0  0  0  0
   -3.3479    6.5419    1.1423 O   0  0  0  0  0  0  0  0  0  0  0  0
   -1.9087    7.4437    2.9795 C   0  0  2  0  0  0  0  0  0  0  0  0
   -2.6340    8.6735    2.5861 N   0  3  0  0  0  0  0  0  0  0  0  0
   -0.3847    7.5910    2.6886 C   0  0  1  0  0  0  0  0  0  0  0  0
    0.1334    8.7414    3.3531 O   0  0  0  0  0  0  0  0  0  0  0  0
    0.4152    6.3476    3.1614 C   0  0  2  0  0  0  0  0  0  0  0  0
    1.7276    6.4136    2.6148 O   0  0  0  0  0  0  0  0  0  0  0  0
   -0.2837    5.0214    2.7184 C   0  0  2  0  0  0  0  0  0  0  0  0
   -1.3910    5.3160    1.8062 O   0  0  0  0  0  0  0  0  0  0  0  0
   -0.8807    4.1923    3.8788 C   0  0  0  0  0  0  0  0  0  0  0  0
   -5.9120    4.7460   -1.8276 C   0  0  1  0  0  0  0  0  0  0  0  0
   -6.7969    3.8077   -2.5535 N   0  3  0  0  0  0  0  0  0  0  0  0
   -6.6080    5.3262   -0.5686 C   0  0  1  0  0  0  0  0  0  0  0  0
   -5.6678    6.2101    0.3229 C   0  0  1  0  0  0  0  0  0  0  0  0
   -6.3203    6.4167    1.6045 O   0  0  0  0  0  0  0  0  0  0  0  0
   -4.2701    5.5455    0.6036 C   0  0  1  0  0  0  0  0  0  0  0  0
   -3.6313    4.9541   -0.6945 C   0  0  1  0  0  0  0  0  0  0  0  0
   -2.3929    4.2009   -0.4096 N   0  3  0  0  0  0  0  0  0  0  0  0
   -4.6082    4.0175   -1.4403 C   0  0  0  0  0  0  0  0  0  0  0  0
   -7.1235    7.6135    1.8171 C   0  0  1  0  0  0  0  0  0  0  0  0
   -8.5404    7.3407    1.3263 C   0  0  1  0  0  0  0  0  0  0  0  0
   -9.0916    6.5712    2.5190 C   0  0  1  0  0  0  0  0  0  0  0  0
   -8.5061    7.3633    3.6967 C   0  0  2  0  0  0  0  0  0  0  0  0
   -7.2405    7.8833    3.2238 O   0  0  0  0  0  0  0  0  0  0  0  0
   -8.2886    6.5013    4.9532 C   0  0  0  0  0  0  0  0  0  0  0  0
  -13.7651    5.0403    3.9572 C   0  0  1  0  0  0  0  0  0  0  0  0
  -13.6821    5.9247    2.6819 C   0  0  1  0  0  0  0  0  0  0  0  0
  -12.6014    5.4666    1.6604 C   0  0  2  0  0  0  0  0  0  0  0  0
  -11.2100    5.2935    2.3503 C   0  0  1  0  0  0  0  0  0  0  0  0
  -10.5482    6.5772    2.5329 O   0  0  0  0  0  0  0  0  0  0  0  0
  -12.6257    3.9764    3.9693 C   0  0  1  0  0  0  0  0  0  0  0  0
  -11.3471    4.6234    3.6640 O   0  0  0  0  0  0  0  0  0  0  0  0
  -12.5147    3.2425    5.3305 C   0  0  0  0  0  0  0  0  0  0  0  0
    0.1120    3.7023    4.8513 N   0  3  0  0  0  0  0  0  0  0  0  0
   -9.2315    8.5754    1.1353 O   0  0  0  0  0  0  0  0  0  0  0  0
  -14.9550    5.9043    2.0371 O   0  0  0  0  0  0  0  0  0  0  0  0
  -13.6592    5.8884    5.1028 O   0  0  0  0  0  0  0  0  0  0  0  0
   -9.4733    5.8048    5.2996 O   0  0  0  0  0  0  0  0  0  0  0  0
   -7.7195    6.1197   -0.9837 O   0  0  0  0  0  0  0  0  0  0  0  0
  -13.5506    2.2089    5.5109 N   0  3  0  0  0  0  0  0  0  0  0  0
  -12.5477    6.3720    0.4858 N   0  3  0  0  0  0  0  0  0  0  0  0
  1  2  1  6  0  0  0
  1  3  1  0  0  0  0
  1 10  1  0  0  0  0
  3  4  1  6  0  0  0
  3  5  1  0  0  0  0
  5  6  1  1  0  0  0
  5  7  1  0  0  0  0
  7  8  1  6  0  0  0
  7  9  1  0  0  0  0
  9 10  1  0  0  0  0
  9 11  1  1  0  0  0
 11 35  1  0  0  0  0
 12 13  1  1  0  0  0
 12 14  1  0  0  0  0
 12 20  1  0  0  0  0
 14 15  1  0  0  0  0
 14 40  1  6  0  0  0
 15 16  1  1  0  0  0
 15 17  1  0  0  0  0
 17  2  1  6  0  0  0
 17 18  1  0  0  0  0
 18 19  1  1  0  0  0
 18 20  1  0  0  0  0
 21 16  1  1  0  0  0
 21 22  1  0  0  0  0
 21 25  1  0  0  0  0
 22 23  1  0  0  0  0
 22 36  1  1  0  0  0
 23 24  1  0  0  0  0
 23 31  1  1  0  0  0
 24 25  1  0  0  0  0
 24 26  1  1  0  0  0
 26 39  1  0  0  0  0
 27 28  1  0  0  0  0
 27 32  1  0  0  0  0
 27 38  1  1  0  0  0
 28 29  1  0  0  0  0
 28 37  1  6  0  0  0
 29 30  1  0  0  0  0
 29 42  1  6  0  0  0
 30 31  1  1  0  0  0
 30 33  1  0  0  0  0
 32 33  1  0  0  0  0
 32 34  1  1  0  0  0
 34 41  1  0  0  0  0
M  CHG  6   4   1  13   1  19   1  35   1  41   1  42   1
M  END
>  <CHROM.1>
-162.51027825,136.98106278,-133.41739944,-76.07366396,-52.07721544,-62.87968146
-59.92573773,172.55617218,75.93411688,-94.26071262,86.58799775,-47.36406757
170.91382209,114.66408296,-52.42560222,76.48410439,63.30715028,167.67930650
-176.93353707,-150.37244279,77.60033300,-128.12938600,-6.81216075,5.85337349
2.18432498,-0.08807373,0.07057645,1.52622380

>  <Name>


>  <RI>
0

>  <Rbt.Current_Directory>
/home/itssahil/PROJECTS/Mol_Feturizer/New_Systems/rnas/1ei2

>  <Rbt.Executable>
rbdock ($Id: //depot/dev/client3/rdock/2013.1/src/exe/rbdock.cxx#4 $)

>  <Rbt.Library>
libRbt.so (2013.1, Build901 2013/11/27)

>  <Rbt.Parameter_File>
/export/apps/rDock/src/rDock_2013.1_src/data/scripts/dock_solv.prm

>  <Rbt.Receptor>
prm/pocket_docking_7.prm

>  <SCORE>
-47.907

>  <SCORE.INTER>
-32.6934

>  <SCORE.INTER.CONST>
1

>  <SCORE.INTER.POLAR>
-5.46629

>  <SCORE.INTER.ROT>
9

>  <SCORE.INTER.SOLV>
20.7838

>  <SCORE.INTER.VDW>
-20.1026

>  <SCORE.INTER.norm>
-0.778414

>  <SCORE.INTRA>
-15.2841

>  <SCORE.INTRA.DIHEDRAL>
-1.5544

>  <SCORE.INTRA.DIHEDRAL.0>
40.8761

>  <SCORE.INTRA.POLAR>
-1.98184

>  <SCORE.INTRA.POLAR.0>
-0.0268208

>  <SCORE.INTRA.REPUL>
-0.508298

>  <SCORE.INTRA.REPUL.0>
0.641615

>  <SCORE.INTRA.SOLV>
-9.17579

>  <SCORE.INTRA.SOLV.lig_0>
-162.567

>  <SCORE.INTRA.VDW>
-0.639231

>  <SCORE.INTRA.VDW.0>
-4.80338

>  <SCORE.INTRA.norm>
-0.363906

>  <SCORE.RESTR>
0.0704969

>  <SCORE.RESTR.CAVITY>
0.0704969

>  <SCORE.RESTR.norm>
0.0016785

>  <SCORE.SYSTEM>
0

>  <SCORE.SYSTEM.CONST>
0

>  <SCORE.SYSTEM.DIHEDRAL>
0

>  <SCORE.SYSTEM.SOLV>
0

>  <SCORE.SYSTEM.norm>
0

>  <SCORE.heavy>
42

>  <SCORE.norm>
-1.14064

>  <RMSD>
9.433

$$$$

 OpenBabel11021811393D
libRbt.so/2013.1/901 2013/11/27
 42 45  0  0  0  0  0  0  0  0999 V2000
   -3.2050    0.3531   -7.1118 C   0  0  2  0  0  0  0  0  0  0  0  0
   -4.3387    1.2312   -6.8337 O   0  0  0  0  0  0  0  0  0  0  0  0
   -3.3852   -0.4088   -8.4649 C   0  0  2  0  0  0  0  0  0  0  0  0
   -4.4569    0.1915   -9.2920 N   0  3  0  0  0  0  0  0  0  0  0  0
   -3.6715   -1.9197   -8.2116 C   0  0  1  0  0  0  0  0  0  0  0  0
   -3.8238   -2.6057   -9.4525 O   0  0  0  0  0  0  0  0  0  0  0  0
   -2.5265   -2.5972   -7.4120 C   0  0  2  0  0  0  0  0  0  0  0  0
   -2.9724   -3.8738   -6.9680 O   0  0  0  0  0  0  0  0  0  0  0  0
   -2.0957   -1.7249   -6.1886 C   0  0  2  0  0  0  0  0  0  0  0  0
   -3.0257   -0.6069   -6.0147 O   0  0  0  0  0  0  0  0  0  0  0  0
   -0.6840   -1.1059   -6.3074 C   0  0  0  0  0  0  0  0  0  0  0  0
   -2.6939    3.9410   -3.9059 C   0  0  1  0  0  0  0  0  0  0  0  0
   -2.5379    4.8531   -2.7509 N   0  3  0  0  0  0  0  0  0  0  0  0
   -2.9166    2.4757   -3.4481 C   0  0  1  0  0  0  0  0  0  0  0  0
   -3.2378    1.4880   -4.6233 C   0  0  1  0  0  0  0  0  0  0  0  0
   -3.7387    0.2498   -4.0513 O   0  0  0  0  0  0  0  0  0  0  0  0
   -4.3339    2.0316   -5.6119 C   0  0  1  0  0  0  0  0  0  0  0  0
   -4.0734    3.5191   -6.0149 C   0  0  1  0  0  0  0  0  0  0  0  0
   -5.1780    4.0765   -6.8218 N   0  3  0  0  0  0  0  0  0  0  0  0
   -3.8722    4.4228   -4.7777 C   0  0  0  0  0  0  0  0  0  0  0  0
   -3.5018   -0.0385   -2.6430 C   0  0  1  0  0  0  0  0  0  0  0  0
   -4.8259    0.0697   -1.8960 C   0  0  1  0  0  0  0  0  0  0  0  0
   -5.4321   -1.2863   -2.2311 C   0  0  1  0  0  0  0  0  0  0  0  0
   -4.2121   -2.2103   -2.1085 C   0  0  2  0  0  0  0  0  0  0  0  0
   -3.0727   -1.4009   -2.4857 O   0  0  0  0  0  0  0  0  0  0  0  0
   -4.3035   -3.4516   -3.0141 C   0  0  0  0  0  0  0  0  0  0  0  0
   -9.7808   -3.0147    0.1246 C   0  0  1  0  0  0  0  0  0  0  0  0
   -9.2653   -1.5588    0.2976 C   0  0  1  0  0  0  0  0  0  0  0  0
   -8.8377   -0.8741   -1.0326 C   0  0  2  0  0  0  0  0  0  0  0  0
   -7.8313   -1.7660   -1.8286 C   0  0  1  0  0  0  0  0  0  0  0  0
   -6.4836   -1.6496   -1.2908 O   0  0  0  0  0  0  0  0  0  0  0  0
   -9.6040   -3.4943   -1.3482 C   0  0  1  0  0  0  0  0  0  0  0  0
   -8.2458   -3.1877   -1.8042 O   0  0  0  0  0  0  0  0  0  0  0  0
   -9.8674   -5.0133   -1.5123 C   0  0  0  0  0  0  0  0  0  0  0  0
   -0.4340    0.0216   -5.3923 N   0  3  0  0  0  0  0  0  0  0  0  0
   -4.5811    0.2019   -0.4956 O   0  0  0  0  0  0  0  0  0  0  0  0
  -10.3028   -0.7826    0.8956 O   0  0  0  0  0  0  0  0  0  0  0  0
   -9.0460   -3.8625    1.0102 O   0  0  0  0  0  0  0  0  0  0  0  0
   -3.2488   -4.3572   -2.7382 O   0  0  0  0  0  0  0  0  0  0  0  0
   -1.7405    2.0203   -2.7795 O   0  0  0  0  0  0  0  0  0  0  0  0
   -9.2531   -5.8208   -0.4425 N   0  3  0  0  0  0  0  0  0  0  0  0
   -8.3215    0.4968   -0.7949 N   0  3  0  0  0  0  0  0  0  0  0  0
  1  2  1  1  0  0  0
  1  3  1  0  0  0  0
  1 10  1  0  0  0  0
  3  4  1  1  0  0  0
  3  5  1  0  0  0  0
  5  6  1  6  0  0  0
  5  7  1  0  0  0  0
  7  8  1  1  0  0  0
  7  9  1  0  0  0  0
  9 10  1  0  0  0  0
  9 11  1  6  0  0  0
 11 35  1  0  0  0  0
 12 13  1  1  0  0  0
 12 14  1  0  0  0  0
 12 20  1  0  0  0  0
 14 15  1  0  0  0  0
 14 40  1  6  0  0  0
 15 16  1  1  0  0  0
 15 17  1  0  0  0  0
 17  2  1  6  0  0  0
 17 18  1  0  0  0  0
 18 19  1  1  0  0  0
 18 20  1  0  0  0  0
 21 16  1  6  0  0  0
 21 22  1  0  0  0  0
 21 25  1  0  0  0  0
 22 23  1  0  0  0  0
 22 36  1  1  0  0  0
 23 24  1  0  0  0  0
 23 31  1  1  0  0  0
 24 25  1  0  0  0  0
 24 26  1  6  0  0  0
 26 39  1  0  0  0  0
 27 28  1  0  0  0  0
 27 32  1  0  0  0  0
 27 38  1  1  0  0  0
 28 29  1  0  0  0  0
 28 37  1  6  0  0  0
 29 30  1  0  0  0  0
 29 42  1  1  0  0  0
 30 31  1  1  0  0  0
 30 33  1  0  0  0  0
 32 33  1  0  0  0  0
 32 34  1  1  0  0  0
 34 41  1  0  0  0  0
M  CHG  6   4   1  13   1  19   1  35   1  41   1  42   1
M  END
>  <CHROM.1>
-179.49567091,-15.18802921,175.85349610,62.22361073,88.56846983,162.09329848
118.67433061,44.44504010,-149.81117235,-17.77651373,109.47086368,-66.66866855
-162.60835910,115.36045604,-172.24792957,-64.08717252,-79.12706257,169.90865846
-116.19737278,-125.91799062,-43.41564715,167.33582464,-4.97364205,-0.65655501
-3.73916808,-0.09953011,-0.87376523,-2.71759121

>  <Name>


>  <RI>
0

>  <Rbt.Current_Directory>
/home/itssahil/PROJECTS/Mol_Feturizer/New_Systems/rnas/1ei2

>  <Rbt.Executable>
rbdock ($Id: //depot/dev/client3/rdock/2013.1/src/exe/rbdock.cxx#4 $)

>  <Rbt.Library>
libRbt.so (2013.1, Build901 2013/11/27)

>  <Rbt.Parameter_File>
/export/apps/rDock/src/rDock_2013.1_src/data/scripts/dock_solv.prm

>  <Rbt.Receptor>
prm/blind_docking_80.prm

>  <SCORE>
43.2351

>  <SCORE.INTER>
23.8675

>  <SCORE.INTER.CONST>
1

>  <SCORE.INTER.POLAR>
-4.22814

>  <SCORE.INTER.ROT>
9

>  <SCORE.INTER.SOLV>
40.2585

>  <SCORE.INTER.VDW>
6.98599

>  <SCORE.INTER.norm>
0.568275

>  <SCORE.INTRA>
13.6923

>  <SCORE.INTRA.DIHEDRAL>
12.6955

>  <SCORE.INTRA.DIHEDRAL.0>
40.8761

>  <SCORE.INTRA.POLAR>
-0.401699

>  <SCORE.INTRA.POLAR.0>
-0.0268208

>  <SCORE.INTRA.REPUL>
-0.399296

>  <SCORE.INTRA.REPUL.0>
0.641615

>  <SCORE.INTRA.SOLV>
-3.30261

>  <SCORE.INTRA.SOLV.lig_0>
-162.567

>  <SCORE.INTRA.VDW>
12.3581

>  <SCORE.INTRA.VDW.0>
-4.80338

>  <SCORE.INTRA.norm>
0.326007

>  <SCORE.RESTR>
5.67528

>  <SCORE.RESTR.CAVITY>
5.67528

>  <SCORE.RESTR.norm>
0.135126

>  <SCORE.SYSTEM>
0

>  <SCORE.SYSTEM.CONST>
0

>  <SCORE.SYSTEM.DIHEDRAL>
0

>  <SCORE.SYSTEM.SOLV>
0

>  <SCORE.SYSTEM.norm>
0

>  <SCORE.heavy>
42

>  <SCORE.norm>
1.02941

>  <RMSD>
9.434

$$$$

 OpenBabel11021811393D
libRbt.so/2013.1/901 2013/11/27
 42 45  0  0  0  0  0  0  0  0999 V2000
   -3.4242   -2.3265   -5.4879 C   0  0  2  0  0  0  0  0  0  0  0  0
   -4.0445   -1.5444   -6.5543 O   0  0  0  0  0  0  0  0  0  0  0  0
   -1.8681   -2.3652   -5.6328 C   0  0  2  0  0  0  0  0  0  0  0  0
   -1.3812   -1.3345   -6.5782 N   0  3  0  0  0  0  0  0  0  0  0  0
   -1.3916   -3.7816   -6.0751 C   0  0  1  0  0  0  0  0  0  0  0  0
    0.0291   -3.8072   -6.1939 O   0  0  0  0  0  0  0  0  0  0  0  0
   -1.8207   -4.8765   -5.0619 C   0  0  2  0  0  0  0  0  0  0  0  0
   -1.6171   -6.1537   -5.6559 O   0  0  0  0  0  0  0  0  0  0  0  0
   -3.3189   -4.7108   -4.6482 C   0  0  2  0  0  0  0  0  0  0  0  0
   -3.9623   -3.6932   -5.4823 O   0  0  0  0  0  0  0  0  0  0  0  0
   -3.5347   -4.2748   -3.1807 C   0  0  0  0  0  0  0  0  0  0  0  0
   -3.9937    2.7243   -7.1827 C   0  0  1  0  0  0  0  0  0  0  0  0
   -4.2978    4.1707   -7.1051 N   0  3  0  0  0  0  0  0  0  0  0  0
   -3.3459    2.2078   -5.8713 C   0  0  1  0  0  0  0  0  0  0  0  0
   -3.1390    0.6534   -5.8379 C   0  0  1  0  0  0  0  0  0  0  0  0
   -2.8413    0.2646   -4.4700 O   0  0  0  0  0  0  0  0  0  0  0  0
   -4.4092   -0.1540   -6.2950 C   0  0  1  0  0  0  0  0  0  0  0  0
   -5.0345    0.4290   -7.6034 C   0  0  1  0  0  0  0  0  0  0  0  0
   -6.3087   -0.2322   -7.9515 N   0  3  0  0  0  0  0  0  0  0  0  0
   -5.2915    1.9485   -7.4898 C   0  0  0  0  0  0  0  0  0  0  0  0
   -3.2302    1.1411   -3.3731 C   0  0  1  0  0  0  0  0  0  0  0  0
   -4.7473    1.2859   -3.3821 C   0  0  1  0  0  0  0  0  0  0  0  0
   -5.1427   -0.0116   -2.6902 C   0  0  1  0  0  0  0  0  0  0  0  0
   -4.0878   -0.1042   -1.5784 C   0  0  2  0  0  0  0  0  0  0  0  0
   -2.9018    0.5291   -2.1150 O   0  0  0  0  0  0  0  0  0  0  0  0
   -3.7740   -1.5534   -1.1655 C   0  0  0  0  0  0  0  0  0  0  0  0
   -9.6804   -1.4041   -0.5881 C   0  0  1  0  0  0  0  0  0  0  0  0
   -9.6293   -0.1688   -1.5297 C   0  0  1  0  0  0  0  0  0  0  0  0
   -8.8397   -0.4079   -2.8490 C   0  0  2  0  0  0  0  0  0  0  0  0
   -7.4181   -0.9882   -2.5588 C   0  0  1  0  0  0  0  0  0  0  0  0
   -6.4938    0.0598   -2.1504 O   0  0  0  0  0  0  0  0  0  0  0  0
   -8.7884   -2.5581   -1.1384 C   0  0  1  0  0  0  0  0  0  0  0  0
   -7.4727   -2.0286   -1.5060 O   0  0  0  0  0  0  0  0  0  0  0  0
   -8.6083   -3.7079   -0.1139 C   0  0  0  0  0  0  0  0  0  0  0  0
   -2.3469   -3.6834   -2.5398 N   0  3  0  0  0  0  0  0  0  0  0  0
   -5.1282    2.4266   -2.6124 O   0  0  0  0  0  0  0  0  0  0  0  0
  -10.9676    0.1995   -1.8611 O   0  0  0  0  0  0  0  0  0  0  0  0
   -9.2253   -1.0045    0.7066 O   0  0  0  0  0  0  0  0  0  0  0  0
   -2.7941   -1.5864   -0.1421 O   0  0  0  0  0  0  0  0  0  0  0  0
   -2.0765    2.8394   -5.7069 O   0  0  0  0  0  0  0  0  0  0  0  0
   -9.3371   -4.9325   -0.4922 N   0  3  0  0  0  0  0  0  0  0  0  0
   -8.7966    0.8178   -3.6845 N   0  3  0  0  0  0  0  0  0  0  0  0
  1  2  1  6  0  0  0
  1  3  1  0  0  0  0
  1 10  1  0  0  0  0
  3  4  1  6  0  0  0
  3  5  1  0  0  0  0
  5  6  1  1  0  0  0
  5  7  1  0  0  0  0
  7  8  1  6  0  0  0
  7  9  1  0  0  0  0
  9 10  1  0  0  0  0
  9 11  1  1  0  0  0
 11 35  1  0  0  0  0
 12 13  1  1  0  0  0
 12 14  1  0  0  0  0
 12 20  1  0  0  0  0
 14 15  1  0  0  0  0
 14 40  1  6  0  0  0
 15 16  1  1  0  0  0
 15 17  1  0  0  0  0
 17  2  1  6  0  0  0
 17 18  1  0  0  0  0
 18 19  1  1  0  0  0
 18 20  1  0  0  0  0
 21 16  1  6  0  0  0
 21 22  1  0  0  0  0
 21 25  1  0  0  0  0
 22 23  1  0  0  0  0
 22 36  1  1  0  0  0
 23 24  1  0  0  0  0
 23 31  1  1  0  0  0
 24 25  1  0  0  0  0
 24 26  1  6  0  0  0
 26 39  1  0  0  0  0
 27 28  1  0  0  0  0
 27 32  1  0  0  0  0
 27 38  1  1  0  0  0
 28 29  1  0  0  0  0
 28 37  1  6  0  0  0
 29 30  1  0  0  0  0
 29 42  1  1  0  0  0
 30 31  1  1  0  0  0
 30 33  1  0  0  0  0
 32 33  1  0  0  0  0
 32 34  1  1  0  0  0
 34 41  1  0  0  0  0
M  CHG  6   4   1  13   1  19   1  35   1  41   1  42   1
M  END
>  <CHROM.1>
-97.74192226,57.24830070,107.65641315,-46.34489192,-58.73866454,18.29989503
67.86991140,169.69158918,-46.58280832,21.41684847,61.61499098,108.94346948
-47.85307241,125.76899203,179.80846013,-67.06016757,70.53281565,75.01891191
154.83447575,-139.20461762,108.77101659,-16.39429042,-4.91247416,-0.99108598
-3.87810583,-0.29032176,-0.59558038,2.66952571

>  <Name>


>  <RI>
0

>  <Rbt.Current_Directory>
/home/itssahil/PROJECTS/Mol_Feturizer/New_Systems/rnas/1ei2

>  <Rbt.Executable>
rbdock ($Id: //depot/dev/client3/rdock/2013.1/src/exe/rbdock.cxx#4 $)

>  <Rbt.Library>
libRbt.so (2013.1, Build901 2013/11/27)

>  <Rbt.Parameter_File>
/export/apps/rDock/src/rDock_2013.1_src/data/scripts/dock_solv.prm

>  <Rbt.Receptor>
prm/blind_docking_80.prm

>  <SCORE>
27.6681

>  <SCORE.INTER>
12.7

>  <SCORE.INTER.CONST>
1

>  <SCORE.INTER.POLAR>
-7.75834

>  <SCORE.INTER.ROT>
9

>  <SCORE.INTER.SOLV>
55.0777

>  <SCORE.INTER.VDW>
6.36857

>  <SCORE.INTER.norm>
0.30238

>  <SCORE.INTRA>
4.75351

>  <SCORE.INTRA.DIHEDRAL>
6.83017

>  <SCORE.INTRA.DIHEDRAL.0>
40.8761

>  <SCORE.INTRA.POLAR>
-0.0489549

>  <SCORE.INTRA.POLAR.0>
-0.0268208

>  <SCORE.INTRA.REPUL>
-0.641615

>  <SCORE.INTRA.REPUL.0>
0.641615

>  <SCORE.INTRA.SOLV>
-3.99071

>  <SCORE.INTRA.SOLV.lig_0>
-162.567

>  <SCORE.INTRA.VDW>
6.7083

>  <SCORE.INTRA.VDW.0>
-4.80338

>  <SCORE.INTRA.norm>
0.113179

>  <SCORE.RESTR>
10.2146

>  <SCORE.RESTR.CAVITY>
10.2146

>  <SCORE.RESTR.norm>
0.243205

>  <SCORE.SYSTEM>
0

>  <SCORE.SYSTEM.CONST>
0

>  <SCORE.SYSTEM.DIHEDRAL>
0

>  <SCORE.SYSTEM.SOLV>
0

>  <SCORE.SYSTEM.norm>
0

>  <SCORE.heavy>
42

>  <SCORE.norm>
0.658764

>  <RMSD>
9.441

$$$$

 OpenBabel11021811393D
libRbt.so/2013.1/901 2013/11/27
 42 45  0  0  0  0  0  0  0  0999 V2000
   -2.9538   -0.7910   -7.3450 C   0  0  2  0  0  0  0  0  0  0  0  0
   -4.0841    0.1186   -7.1759 O   0  0  0  0  0  0  0  0  0  0  0  0
   -3.0022   -1.5186   -8.7278 C   0  0  2  0  0  0  0  0  0  0  0  0
   -3.9537   -0.8660   -9.6561 N   0  3  0  0  0  0  0  0  0  0  0  0
   -3.3619   -3.0240   -8.5451 C   0  0  1  0  0  0  0  0  0  0  0  0
   -3.3930   -3.6790   -9.8114 O   0  0  0  0  0  0  0  0  0  0  0  0
   -2.3369   -3.7556   -7.6377 C   0  0  2  0  0  0  0  0  0  0  0  0
   -2.8697   -5.0254   -7.2779 O   0  0  0  0  0  0  0  0  0  0  0  0
   -2.0215   -2.9233   -6.3526 C   0  0  2  0  0  0  0  0  0  0  0  0
   -2.9303   -1.7786   -6.2582 O   0  0  0  0  0  0  0  0  0  0  0  0
   -0.5870   -2.3496   -6.2960 C   0  0  0  0  0  0  0  0  0  0  0  0
   -2.7536    3.7698   -5.3003 C   0  0  1  0  0  0  0  0  0  0  0  0
   -2.6170    4.9204   -4.3794 N   0  3  0  0  0  0  0  0  0  0  0  0
   -2.3218    2.4434   -4.6219 C   0  0  1  0  0  0  0  0  0  0  0  0
   -2.5861    1.1698   -5.4982 C   0  0  1  0  0  0  0  0  0  0  0  0
   -2.4520   -0.0013   -4.6488 O   0  0  0  0  0  0  0  0  0  0  0  0
   -4.0265    1.1358   -6.1293 C   0  0  1  0  0  0  0  0  0  0  0  0
   -4.4173    2.5062   -6.7714 C   0  0  1  0  0  0  0  0  0  0  0  0
   -5.8209    2.5230   -7.2312 N   0  3  0  0  0  0  0  0  0  0  0  0
   -4.2149    3.6803   -5.7874 C   0  0  0  0  0  0  0  0  0  0  0  0
   -2.5553    0.1443   -3.2028 C   0  0  1  0  0  0  0  0  0  0  0  0
   -3.8882    0.8070   -2.8757 C   0  0  1  0  0  0  0  0  0  0  0  0
   -4.8155   -0.3965   -2.9761 C   0  0  1  0  0  0  0  0  0  0  0  0
   -3.9765   -1.4916   -2.3023 C   0  0  2  0  0  0  0  0  0  0  0  0
   -2.5975   -1.1502   -2.5803 O   0  0  0  0  0  0  0  0  0  0  0  0
   -4.2904   -2.9023   -2.8322 C   0  0  0  0  0  0  0  0  0  0  0  0
   -9.5613   -0.8114   -0.8123 C   0  0  1  0  0  0  0  0  0  0  0  0
   -9.1655    0.4153   -1.6805 C   0  0  1  0  0  0  0  0  0  0  0  0
   -8.4418    0.0470   -3.0079 C   0  0  2  0  0  0  0  0  0  0  0  0
   -7.2313   -0.9057   -2.7454 C   0  0  1  0  0  0  0  0  0  0  0  0
   -6.0702   -0.1656   -2.2729 O   0  0  0  0  0  0  0  0  0  0  0  0
   -8.9971   -2.1294   -1.4245 C   0  0  1  0  0  0  0  0  0  0  0  0
   -7.5810   -1.9500   -1.7549 O   0  0  0  0  0  0  0  0  0  0  0  0
   -9.1490   -3.3398   -0.4675 C   0  0  0  0  0  0  0  0  0  0  0  0
   -0.5167   -0.9165   -5.9602 N   0  3  0  0  0  0  0  0  0  0  0  0
   -3.8538    1.3320   -1.5484 O   0  0  0  0  0  0  0  0  0  0  0  0
  -10.3511    1.1441   -1.9960 O   0  0  0  0  0  0  0  0  0  0  0  0
   -9.0421   -0.6187    0.5054 O   0  0  0  0  0  0  0  0  0  0  0  0
   -3.3183   -3.8352   -2.3926 O   0  0  0  0  0  0  0  0  0  0  0  0
   -0.9268    2.5117   -4.3275 O   0  0  0  0  0  0  0  0  0  0  0  0
   -9.9519   -4.4321   -1.0474 N   0  3  0  0  0  0  0  0  0  0  0  0
   -8.0583    1.2607   -3.7708 N   0  3  0  0  0  0  0  0  0  0  0  0
  1  2  1  1  0  0  0
  1  3  1  0  0  0  0
  1 10  1  0  0  0  0
  3  4  1  6  0  0  0
  3  5  1  0  0  0  0
  5  6  1  6  0  0  0
  5  7  1  0  0  0  0
  7  8  1  1  0  0  0
  7  9  1  0  0  0  0
  9 10  1  0  0  0  0
  9 11  1  6  0  0  0
 11 35  1  0  0  0  0
 12 13  1  1  0  0  0
 12 14  1  0  0  0  0
 12 20  1  0  0  0  0
 14 15  1  0  0  0  0
 14 40  1  6  0  0  0
 15 16  1  1  0  0  0
 15 17  1  0  0  0  0
 17  2  1  6  0  0  0
 17 18  1  0  0  0  0
 18 19  1  1  0  0  0
 18 20  1  0  0  0  0
 21 16  1  6  0  0  0
 21 22  1  0  0  0  0
 21 25  1  0  0  0  0
 22 23  1  0  0  0  0
 22 36  1  1  0  0  0
 23 24  1  0  0  0  0
 23 31  1  1  0  0  0
 24 25  1  0  0  0  0
 24 26  1  6  0  0  0
 26 39  1  0  0  0  0
 27 28  1  0  0  0  0
 27 32  1  0  0  0  0
 27 38  1  1  0  0  0
 28 29  1  0  0  0  0
 28 37  1  6  0  0  0
 29 30  1  0  0  0  0
 29 42  1  1  0  0  0
 30 31  1  1  0  0  0
 30 33  1  0  0  0  0
 32 33  1  0  0  0  0
 32 34  1  1  0  0  0
 34 41  1  0  0  0  0
M  CHG  6   4   1  13   1  19   1  35   1  41   1  42   1
M  END
>  <CHROM.1>
-163.78310156,8.44324753,-179.19344003,-61.88390941,177.97652692,130.96952901
42.60073252,25.41297003,-63.74192337,19.76623032,55.86172708,-39.45640888
170.45567195,153.55074942,167.99072827,-54.71282581,-43.58795163,65.35279115
-163.09884855,-128.63697197,120.72999255,68.72284320,-4.70411298,-0.49804533
-4.44593090,0.11508421,-0.74386455,-2.91070307

>  <Name>


>  <RI>
0

>  <Rbt.Current_Directory>
/home/itssahil/PROJECTS/Mol_Feturizer/New_Systems/rnas/1ei2

>  <Rbt.Executable>
rbdock ($Id: //depot/dev/client3/rdock/2013.1/src/exe/rbdock.cxx#4 $)

>  <Rbt.Library>
libRbt.so (2013.1, Build901 2013/11/27)

>  <Rbt.Parameter_File>
/export/apps/rDock/src/rDock_2013.1_src/data/scripts/dock_solv.prm

>  <Rbt.Receptor>
prm/blind_docking_60.prm

>  <SCORE>
9.58883

>  <SCORE.INTER>
1.03338

>  <SCORE.INTER.CONST>
1

>  <SCORE.INTER.POLAR>
-1.58716

>  <SCORE.INTER.ROT>
9

>  <SCORE.INTER.SOLV>
40.2795

>  <SCORE.INTER.VDW>
-17.047

>  <SCORE.INTER.norm>
0.0246043

>  <SCORE.INTRA>
-3.07171

>  <SCORE.INTRA.DIHEDRAL>
0.567409

>  <SCORE.INTRA.DIHEDRAL.0>
40.8761

>  <SCORE.INTRA.POLAR>
-0.989859

>  <SCORE.INTRA.POLAR.0>
-0.0268208

>  <SCORE.INTRA.REPUL>
-0.641615

>  <SCORE.INTRA.REPUL.0>
0.641615

>  <SCORE.INTRA.SOLV>
-5.33697

>  <SCORE.INTRA.SOLV.lig_0>
-162.567

>  <SCORE.INTRA.VDW>
5.88666

>  <SCORE.INTRA.VDW.0>
-4.80338

>  <SCORE.INTRA.norm>
-0.073136

>  <SCORE.RESTR>
11.6272

>  <SCORE.RESTR.CAVITY>
11.6272

>  <SCORE.RESTR.norm>
0.276837

>  <SCORE.SYSTEM>
0

>  <SCORE.SYSTEM.CONST>
0

>  <SCORE.SYSTEM.DIHEDRAL>
0

>  <SCORE.SYSTEM.SOLV>
0

>  <SCORE.SYSTEM.norm>
0

>  <SCORE.heavy>
42

>  <SCORE.norm>
0.228305

>  <RMSD>
9.446

$$$$

 OpenBabel11021811393D
libRbt.so/2013.1/901 2013/11/27
 42 45  0  0  0  0  0  0  0  0999 V2000
   -3.4279    0.8536   -3.2991 C   0  0  2  0  0  0  0  0  0  0  0  0
   -2.3061    1.3414   -4.0975 O   0  0  0  0  0  0  0  0  0  0  0  0
   -3.0107    0.6013   -1.8137 C   0  0  2  0  0  0  0  0  0  0  0  0
   -1.7126    1.2386   -1.4946 N   0  3  0  0  0  0  0  0  0  0  0  0
   -2.9597   -0.9261   -1.5084 C   0  0  1  0  0  0  0  0  0  0  0  0
   -2.5883   -1.1433   -0.1488 O   0  0  0  0  0  0  0  0  0  0  0  0
   -4.3303   -1.6101   -1.7595 C   0  0  2  0  0  0  0  0  0  0  0  0
   -4.1459   -3.0213   -1.7465 O   0  0  0  0  0  0  0  0  0  0  0  0
   -4.9459   -1.1629   -3.1249 C   0  0  2  0  0  0  0  0  0  0  0  0
   -3.9693   -0.3795   -3.8852 O   0  0  0  0  0  0  0  0  0  0  0  0
   -6.2115   -0.2837   -3.0007 C   0  0  0  0  0  0  0  0  0  0  0  0
   -4.5786    3.0757   -7.3298 C   0  0  1  0  0  0  0  0  0  0  0  0
   -4.9737    3.6380   -8.6406 N   0  3  0  0  0  0  0  0  0  0  0  0
   -4.2775    1.5573   -7.4292 C   0  0  1  0  0  0  0  0  0  0  0  0
   -3.7093    0.9374   -6.1053 C   0  0  1  0  0  0  0  0  0  0  0  0
   -3.1709   -0.3763   -6.4139 O   0  0  0  0  0  0  0  0  0  0  0  0
   -2.5500    1.7874   -5.4668 C   0  0  1  0  0  0  0  0  0  0  0  0
   -2.8978    3.3104   -5.4196 C   0  0  1  0  0  0  0  0  0  0  0  0
   -1.7555    4.1261   -4.9595 N   0  3  0  0  0  0  0  0  0  0  0  0
   -3.3476    3.8401   -6.7998 C   0  0  0  0  0  0  0  0  0  0  0  0
   -4.0769   -1.5081   -6.5591 C   0  0  1  0  0  0  0  0  0  0  0  0
   -3.9848   -2.0230   -7.9906 C   0  0  1  0  0  0  0  0  0  0  0  0
   -2.7132   -2.8549   -7.8930 C   0  0  1  0  0  0  0  0  0  0  0  0
   -2.8898   -3.5322   -6.5265 C   0  0  2  0  0  0  0  0  0  0  0  0
   -3.6446   -2.5940   -5.7229 O   0  0  0  0  0  0  0  0  0  0  0  0
   -1.5519   -3.8613   -5.8402 C   0  0  0  0  0  0  0  0  0  0  0  0
   -2.8592   -7.5079  -10.0439 C   0  0  1  0  0  0  0  0  0  0  0  0
   -2.1925   -6.3737  -10.8712 C   0  0  1  0  0  0  0  0  0  0  0  0
   -1.1650   -5.5229  -10.0701 C   0  0  2  0  0  0  0  0  0  0  0  0
   -1.7867   -4.9943   -8.7375 C   0  0  1  0  0  0  0  0  0  0  0  0
   -2.6263   -3.8286   -8.9730 O   0  0  0  0  0  0  0  0  0  0  0  0
   -2.4362   -7.4236   -8.5458 C   0  0  1  0  0  0  0  0  0  0  0  0
   -2.5878   -6.0462   -8.0700 O   0  0  0  0  0  0  0  0  0  0  0  0
   -3.2664   -8.3707   -7.6415 C   0  0  0  0  0  0  0  0  0  0  0  0
   -7.3209   -0.9133   -2.2631 N   0  3  0  0  0  0  0  0  0  0  0  0
   -5.1208   -2.8360   -8.2856 O   0  0  0  0  0  0  0  0  0  0  0  0
   -1.5241   -6.9635  -11.9856 O   0  0  0  0  0  0  0  0  0  0  0  0
   -4.2778   -7.3800  -10.1631 O   0  0  0  0  0  0  0  0  0  0  0  0
   -1.7485   -4.7373   -4.7435 O   0  0  0  0  0  0  0  0  0  0  0  0
   -5.4819    0.8723   -7.7722 O   0  0  0  0  0  0  0  0  0  0  0  0
   -4.7035   -8.0412   -7.6324 N   0  3  0  0  0  0  0  0  0  0  0  0
   -0.5937   -4.4366  -10.9041 N   0  3  0  0  0  0  0  0  0  0  0  0
  1  2  1  6  0  0  0
  1  3  1  0  0  0  0
  1 10  1  0  0  0  0
  3  4  1  6  0  0  0
  3  5  1  0  0  0  0
  5  6  1  1  0  0  0
  5  7  1  0  0  0  0
  7  8  1  6  0  0  0
  7  9  1  0  0  0  0
  9 10  1  0  0  0  0
  9 11  1  1  0  0  0
 11 35  1  0  0  0  0
 12 13  1  6  0  0  0
 12 14  1  0  0  0  0
 12 20  1  0  0  0  0
 14 15  1  0  0  0  0
 14 40  1  1  0  0  0
 15 16  1  6  0  0  0
 15 17  1  0  0  0  0
 17  2  1  1  0  0  0
 17 18  1  0  0  0  0
 18 19  1  6  0  0  0
 18 20  1  0  0  0  0
 21 16  1  6  0  0  0
 21 22  1  0  0  0  0
 21 25  1  0  0  0  0
 22 23  1  0  0  0  0
 22 36  1  1  0  0  0
 23 24  1  0  0  0  0
 23 31  1  6  0  0  0
 24 25  1  0  0  0  0
 24 26  1  1  0  0  0
 26 39  1  0  0  0  0
 27 28  1  0  0  0  0
 27 32  1  0  0  0  0
 27 38  1  1  0  0  0
 28 29  1  0  0  0  0
 28 37  1  6  0  0  0
 29 30  1  0  0  0  0
 29 42  1  6  0  0  0
 30 31  1  6  0  0  0
 30 33  1  0  0  0  0
 32 33  1  0  0  0  0
 32 34  1  1  0  0  0
 34 41  1  0  0  0  0
M  CHG  6   4   1  13   1  19   1  35   1  41   1  42   1
M  END
>  <CHROM.1>
-172.51349636,-33.04960791,113.22176228,-163.03189610,35.97974795,-58.35375909
156.17537969,-72.15978655,168.88385012,-79.09653646,116.68362892,-101.42793279
62.80683285,-156.92897567,-167.00989008,-68.62293779,-56.66964547,-74.69813674
-15.31049474,-149.75626251,-62.35142279,177.27805446,-3.33049944,-2.00976192
-6.22280079,2.70785129,1.45346552,-0.50914356

>  <Name>


>  <RI>
0

>  <Rbt.Current_Directory>
/home/itssahil/PROJECTS/Mol_Feturizer/New_Systems/rnas/1ei2

>  <Rbt.Executable>
rbdock ($Id: //depot/dev/client3/rdock/2013.1/src/exe/rbdock.cxx#4 $)

>  <Rbt.Library>
libRbt.so (2013.1, Build901 2013/11/27)

>  <Rbt.Parameter_File>
/export/apps/rDock/src/rDock_2013.1_src/data/scripts/dock_solv.prm

>  <Rbt.Receptor>
prm/blind_docking_60.prm

>  <SCORE>
-19.2928

>  <SCORE.INTER>
-26.6272

>  <SCORE.INTER.CONST>
1

>  <SCORE.INTER.POLAR>
-6.07684

>  <SCORE.INTER.ROT>
9

>  <SCORE.INTER.SOLV>
39.8381

>  <SCORE.INTER.VDW>
-20.3747

>  <SCORE.INTER.norm>
-0.633981

>  <SCORE.INTRA>
-8.16154

>  <SCORE.INTRA.DIHEDRAL>
-5.10231

>  <SCORE.INTRA.DIHEDRAL.0>
40.8761

>  <SCORE.INTRA.POLAR>
-0.875796

>  <SCORE.INTRA.POLAR.0>
-0.0268208

>  <SCORE.INTRA.REPUL>
-0.487106

>  <SCORE.INTRA.REPUL.0>
0.641615

>  <SCORE.INTRA.SOLV>
-9.91746

>  <SCORE.INTRA.SOLV.lig_0>
-162.567

>  <SCORE.INTRA.VDW>
4.76158

>  <SCORE.INTRA.VDW.0>
-4.80338

>  <SCORE.INTRA.norm>
-0.194322

>  <SCORE.RESTR>
15.4959

>  <SCORE.RESTR.CAVITY>
15.4959

>  <SCORE.RESTR.norm>
0.36895

>  <SCORE.SYSTEM>
0

>  <SCORE.SYSTEM.CONST>
0

>  <SCORE.SYSTEM.DIHEDRAL>
0

>  <SCORE.SYSTEM.SOLV>
0

>  <SCORE.SYSTEM.norm>
0

>  <SCORE.heavy>
42

>  <SCORE.norm>
-0.459353

>  <RMSD>
9.450

$$$$

 OpenBabel11021811393D
libRbt.so/2013.1/901 2013/11/27
 42 45  0  0  0  0  0  0  0  0999 V2000
   -2.9568    0.1140   -7.1552 C   0  0  2  0  0  0  0  0  0  0  0  0
   -4.0504    1.0665   -6.9805 O   0  0  0  0  0  0  0  0  0  0  0  0
   -2.9092   -0.4468   -8.6136 C   0  0  2  0  0  0  0  0  0  0  0  0
   -3.7327    0.3650   -9.5388 N   0  3  0  0  0  0  0  0  0  0  0  0
   -3.3611   -1.9381   -8.6447 C   0  0  1  0  0  0  0  0  0  0  0  0
   -3.3038   -2.4412   -9.9778 O   0  0  0  0  0  0  0  0  0  0  0  0
   -2.4666   -2.8303   -7.7430 C   0  0  2  0  0  0  0  0  0  0  0  0
   -3.0955   -4.0974   -7.5863 O   0  0  0  0  0  0  0  0  0  0  0  0
   -2.2340   -2.1711   -6.3449 C   0  0  2  0  0  0  0  0  0  0  0  0
   -3.0883   -0.9906   -6.1962 O   0  0  0  0  0  0  0  0  0  0  0  0
   -0.7842   -1.6973   -6.0922 C   0  0  0  0  0  0  0  0  0  0  0  0
   -2.6104    3.9001   -4.0622 C   0  0  1  0  0  0  0  0  0  0  0  0
   -2.5223    4.8253   -2.9103 N   0  3  0  0  0  0  0  0  0  0  0  0
   -2.7247    2.4240   -3.5992 C   0  0  1  0  0  0  0  0  0  0  0  0
   -2.9720    1.4113   -4.7711 C   0  0  1  0  0  0  0  0  0  0  0  0
   -3.3805    0.1416   -4.1948 O   0  0  0  0  0  0  0  0  0  0  0  0
   -4.1049    1.8693   -5.7615 C   0  0  1  0  0  0  0  0  0  0  0  0
   -3.9546    3.3706   -6.1696 C   0  0  1  0  0  0  0  0  0  0  0  0
   -5.0970    3.8423   -6.9785 N   0  3  0  0  0  0  0  0  0  0  0  0
   -3.8208    4.2908   -4.9355 C   0  0  0  0  0  0  0  0  0  0  0  0
   -3.2182   -0.0836   -2.7646 C   0  0  1  0  0  0  0  0  0  0  0  0
   -4.5614    0.1457   -2.0817 C   0  0  1  0  0  0  0  0  0  0  0  0
   -5.2383   -1.1870   -2.3718 C   0  0  1  0  0  0  0  0  0  0  0  0
   -4.0850   -2.1758   -2.1492 C   0  0  2  0  0  0  0  0  0  0  0  0
   -2.8827   -1.4591   -2.5187 O   0  0  0  0  0  0  0  0  0  0  0  0
   -4.2188   -3.4565   -2.9924 C   0  0  0  0  0  0  0  0  0  0  0  0
   -9.7941   -2.3761   -0.0567 C   0  0  1  0  0  0  0  0  0  0  0  0
   -9.1987   -0.9407   -0.0835 C   0  0  1  0  0  0  0  0  0  0  0  0
   -8.6586   -0.5030   -1.4756 C   0  0  2  0  0  0  0  0  0  0  0  0
   -7.6688   -1.5637   -2.0561 C   0  0  1  0  0  0  0  0  0  0  0  0
   -6.3471   -1.4339   -1.4598 O   0  0  0  0  0  0  0  0  0  0  0  0
   -9.5690   -3.0954   -1.4213 C   0  0  1  0  0  0  0  0  0  0  0  0
   -8.1719   -2.9389   -1.8338 O   0  0  0  0  0  0  0  0  0  0  0  0
   -9.9176   -4.6049   -1.3600 C   0  0  0  0  0  0  0  0  0  0  0  0
   -0.6784   -0.3758   -5.4490 N   0  3  0  0  0  0  0  0  0  0  0  0
   -4.3643    0.3386   -0.6808 O   0  0  0  0  0  0  0  0  0  0  0  0
  -10.2162   -0.0244    0.3182 O   0  0  0  0  0  0  0  0  0  0  0  0
   -9.1620   -3.1078    0.9959 O   0  0  0  0  0  0  0  0  0  0  0  0
   -3.0674   -4.2720   -2.8590 O   0  0  0  0  0  0  0  0  0  0  0  0
   -1.5185    2.0588   -2.9291 O   0  0  0  0  0  0  0  0  0  0  0  0
   -9.1726   -5.3233   -0.3098 N   0  3  0  0  0  0  0  0  0  0  0  0
   -8.0713    0.8589   -1.4252 N   0  3  0  0  0  0  0  0  0  0  0  0
  1  2  1  6  0  0  0
  1  3  1  0  0  0  0
  1 10  1  0  0  0  0
  3  4  1  6  0  0  0
  3  5  1  0  0  0  0
  5  6  1  6  0  0  0
  5  7  1  0  0  0  0
  7  8  1  1  0  0  0
  7  9  1  0  0  0  0
  9 10  1  0  0  0  0
  9 11  1  6  0  0  0
 11 35  1  0  0  0  0
 12 13  1  1  0  0  0
 12 14  1  0  0  0  0
 12 20  1  0  0  0  0
 14 15  1  0  0  0  0
 14 40  1  6  0  0  0
 15 16  1  1  0  0  0
 15 17  1  0  0  0  0
 17  2  1  6  0  0  0
 17 18  1  0  0  0  0
 18 19  1  1  0  0  0
 18 20  1  0  0  0  0
 21 16  1  6  0  0  0
 21 22  1  0  0  0  0
 21 25  1  0  0  0  0
 22 23  1  0  0  0  0
 22 36  1  1  0  0  0
 23 24  1  0  0  0  0
 23 31  1  1  0  0  0
 24 25  1  0  0  0  0
 24 26  1  6  0  0  0
 26 39  1  0  0  0  0
 27 28  1  0  0  0  0
 27 32  1  0  0  0  0
 27 38  1  1  0  0  0
 28 29  1  0  0  0  0
 28 37  1  6  0  0  0
 29 30  1  0  0  0  0
 29 42  1  1  0  0  0
 30 31  1  1  0  0  0
 30 33  1  0  0  0  0
 32 33  1  0  0  0  0
 32 34  1  1  0  0  0
 34 41  1  0  0  0  0
M  CHG  6   4   1  13   1  19   1  35   1  41   1  42   1
M  END
>  <CHROM.1>
-169.13301163,-5.56533339,-177.53232862,-168.79334855,65.15330750,137.18957794
42.46807559,44.52339285,69.50466691,-13.02621262,99.55869637,157.91742255
74.69352732,118.35005129,173.92933571,173.55967170,89.82608304,-52.11871398
-68.13530947,-121.64341618,-56.13790960,29.71961336,-4.83672380,-0.59351906
-3.91885974,-0.02155207,-0.85439080,-2.74771531

>  <Name>


>  <RI>
0

>  <Rbt.Current_Directory>
/home/itssahil/PROJECTS/Mol_Feturizer/New_Systems/rnas/1ei2

>  <Rbt.Executable>
rbdock ($Id: //depot/dev/client3/rdock/2013.1/src/exe/rbdock.cxx#4 $)

>  <Rbt.Library>
libRbt.so (2013.1, Build901 2013/11/27)

>  <Rbt.Parameter_File>
/export/apps/rDock/src/rDock_2013.1_src/data/scripts/dock_solv.prm

>  <Rbt.Receptor>
prm/blind_docking_60.prm

>  <SCORE>
17.643

>  <SCORE.INTER>
6.83384

>  <SCORE.INTER.CONST>
1

>  <SCORE.INTER.POLAR>
-3.06388

>  <SCORE.INTER.ROT>
9

>  <SCORE.INTER.SOLV>
36.1888

>  <SCORE.INTER.VDW>
-6.89411

>  <SCORE.INTER.norm>
0.162711

>  <SCORE.INTRA>
4.28243

>  <SCORE.INTRA.DIHEDRAL>
7.74214

>  <SCORE.INTRA.DIHEDRAL.0>
40.8761

>  <SCORE.INTRA.POLAR>
-1.15364

>  <SCORE.INTRA.POLAR.0>
-0.0268208

>  <SCORE.INTRA.REPUL>
-0.152449

>  <SCORE.INTRA.REPUL.0>
0.641615

>  <SCORE.INTRA.SOLV>
-1.66034

>  <SCORE.INTRA.SOLV.lig_0>
-162.567

>  <SCORE.INTRA.VDW>
5.92614

>  <SCORE.INTRA.VDW.0>
-4.80338

>  <SCORE.INTRA.norm>
0.101963

>  <SCORE.RESTR>
6.52668

>  <SCORE.RESTR.CAVITY>
6.52668

>  <SCORE.RESTR.norm>
0.155397

>  <SCORE.SYSTEM>
0

>  <SCORE.SYSTEM.CONST>
0

>  <SCORE.SYSTEM.DIHEDRAL>
0

>  <SCORE.SYSTEM.SOLV>
0

>  <SCORE.SYSTEM.norm>
0

>  <SCORE.heavy>
42

>  <SCORE.norm>
0.42007

>  <RMSD>
9.454

$$$$

 OpenBabel11021811393D
libRbt.so/2013.1/901 2013/11/27
 42 45  0  0  0  0  0  0  0  0999 V2000
   -3.1992   -0.9975   -6.9875 C   0  0  2  0  0  0  0  0  0  0  0  0
   -4.2928   -0.0465   -6.8049 O   0  0  0  0  0  0  0  0  0  0  0  0
   -2.8843   -1.2291   -8.5012 C   0  0  2  0  0  0  0  0  0  0  0  0
   -3.5066   -0.1908   -9.3543 N   0  3  0  0  0  0  0  0  0  0  0  0
   -3.3427   -2.6503   -8.9474 C   0  0  1  0  0  0  0  0  0  0  0  0
   -3.0412   -2.8535  -10.3262 O   0  0  0  0  0  0  0  0  0  0  0  0
   -2.6473   -3.7658   -8.1219 C   0  0  2  0  0  0  0  0  0  0  0  0
   -3.3119   -4.9997   -8.3702 O   0  0  0  0  0  0  0  0  0  0  0  0
   -2.6744   -3.4409   -6.5932 C   0  0  2  0  0  0  0  0  0  0  0  0
   -3.5249   -2.2754   -6.3409 O   0  0  0  0  0  0  0  0  0  0  0  0
   -1.2922   -3.1149   -5.9821 C   0  0  0  0  0  0  0  0  0  0  0  0
   -2.6701    3.6550   -5.2931 C   0  0  1  0  0  0  0  0  0  0  0  0
   -2.4268    4.8659   -4.4778 N   0  3  0  0  0  0  0  0  0  0  0  0
   -2.2895    2.3638   -4.5223 C   0  0  1  0  0  0  0  0  0  0  0  0
   -2.6656    1.0421   -5.2782 C   0  0  1  0  0  0  0  0  0  0  0  0
   -2.5654   -0.0620   -4.3391 O   0  0  0  0  0  0  0  0  0  0  0  0
   -4.1309    1.0470   -5.8503 C   0  0  1  0  0  0  0  0  0  0  0  0
   -4.4664    2.3822   -6.5902 C   0  0  1  0  0  0  0  0  0  0  0  0
   -5.8848    2.4493   -6.9973 N   0  3  0  0  0  0  0  0  0  0  0  0
   -4.1534    3.6177   -5.7164 C   0  0  0  0  0  0  0  0  0  0  0  0
   -2.6668    0.1995   -2.9094 C   0  0  1  0  0  0  0  0  0  0  0  0
   -4.1147    0.5436   -2.5804 C   0  0  1  0  0  0  0  0  0  0  0  0
   -4.7145   -0.8548   -2.5243 C   0  0  1  0  0  0  0  0  0  0  0  0
   -3.6127   -1.6358   -1.7940 C   0  0  2  0  0  0  0  0  0  0  0  0
   -2.3696   -0.9957   -2.1690 O   0  0  0  0  0  0  0  0  0  0  0  0
   -3.5774   -3.1266   -2.1758 C   0  0  0  0  0  0  0  0  0  0  0  0
   -9.6964   -1.0410   -0.8795 C   0  0  1  0  0  0  0  0  0  0  0  0
   -8.9553    0.2258   -1.3906 C   0  0  1  0  0  0  0  0  0  0  0  0
   -8.1254   -0.0034   -2.6867 C   0  0  2  0  0  0  0  0  0  0  0  0
   -7.1660   -1.2273   -2.5338 C   0  0  1  0  0  0  0  0  0  0  0  0
   -5.9697   -0.8696   -1.7853 O   0  0  0  0  0  0  0  0  0  0  0  0
   -9.3040   -2.2915   -1.7235 C   0  0  1  0  0  0  0  0  0  0  0  0
   -7.8463   -2.3555   -1.8570 O   0  0  0  0  0  0  0  0  0  0  0  0
   -9.8182   -3.6137   -1.0980 C   0  0  0  0  0  0  0  0  0  0  0  0
   -0.7763   -1.7769   -6.3210 N   0  3  0  0  0  0  0  0  0  0  0  0
   -4.1803    1.1926   -1.3104 O   0  0  0  0  0  0  0  0  0  0  0  0
   -9.9245    1.2419   -1.6448 O   0  0  0  0  0  0  0  0  0  0  0  0
   -9.3503   -1.2443    0.4923 O   0  0  0  0  0  0  0  0  0  0  0  0
   -2.2450   -3.5648   -2.3791 O   0  0  0  0  0  0  0  0  0  0  0  0
   -0.8817    2.3684   -4.2867 O   0  0  0  0  0  0  0  0  0  0  0  0
   -9.2169   -3.8976    0.2179 N   0  3  0  0  0  0  0  0  0  0  0  0
   -7.4141    1.2316   -3.1003 N   0  3  0  0  0  0  0  0  0  0  0  0
  1  2  1  6  0  0  0
  1  3  1  0  0  0  0
  1 10  1  0  0  0  0
  3  4  1  6  0  0  0
  3  5  1  0  0  0  0
  5  6  1  6  0  0  0
  5  7  1  0  0  0  0
  7  8  1  1  0  0  0
  7  9  1  0  0  0  0
  9 10  1  0  0  0  0
  9 11  1  6  0  0  0
 11 35  1  0  0  0  0
 12 13  1  1  0  0  0
 12 14  1  0  0  0  0
 12 20  1  0  0  0  0
 14 15  1  0  0  0  0
 14 40  1  6  0  0  0
 15 16  1  1  0  0  0
 15 17  1  0  0  0  0
 17  2  1  6  0  0  0
 17 18  1  0  0  0  0
 18 19  1  1  0  0  0
 18 20  1  0  0  0  0
 21 16  1  6  0  0  0
 21 22  1  0  0  0  0
 21 25  1  0  0  0  0
 22 23  1  0  0  0  0
 22 36  1  1  0  0  0
 23 24  1  0  0  0  0
 23 31  1  1  0  0  0
 24 25  1  0  0  0  0
 24 26  1  6  0  0  0
 26 39  1  0  0  0  0
 27 28  1  0  0  0  0
 27 32  1  0  0  0  0
 27 38  1  1  0  0  0
 28 29  1  0  0  0  0
 28 37  1  6  0  0  0
 29 30  1  0  0  0  0
 29 42  1  1  0  0  0
 30 31  1  1  0  0  0
 30 33  1  0  0  0  0
 32 33  1  0  0  0  0
 32 34  1  1  0  0  0
 34 41  1  0  0  0  0
M  CHG  6   4   1  13   1  19   1  35   1  41   1  42   1
M  END
>  <CHROM.1>
-131.87837304,5.40896506,176.01124331,67.32373823,-179.27970221,75.04163280
-166.00326059,27.15323388,-50.51265451,22.86443252,72.01567982,67.78755853
-53.85910151,116.07756676,136.55475147,162.07748276,54.02142486,-179.82475597
172.95757725,-111.75043391,-63.88495622,175.97008184,-4.68456600,-0.60924953
-4.32202708,0.14868783,-0.80482400,-2.87261006

>  <Name>


>  <RI>
0

>  <Rbt.Current_Directory>
/home/itssahil/PROJECTS/Mol_Feturizer/New_Systems/rnas/1ei2

>  <Rbt.Executable>
rbdock ($Id: //depot/dev/client3/rdock/2013.1/src/exe/rbdock.cxx#4 $)

>  <Rbt.Library>
libRbt.so (2013.1, Build901 2013/11/27)

>  <Rbt.Parameter_File>
/export/apps/rDock/src/rDock_2013.1_src/data/scripts/dock_solv.prm

>  <Rbt.Receptor>
prm/blind_docking_100.prm

>  <SCORE>
-15.5609

>  <SCORE.INTER>
-24.1467

>  <SCORE.INTER.CONST>
1

>  <SCORE.INTER.POLAR>
-3.5275

>  <SCORE.INTER.ROT>
9

>  <SCORE.INTER.SOLV>
38.4708

>  <SCORE.INTER.VDW>
-26.7631

>  <SCORE.INTER.norm>
-0.574922

>  <SCORE.INTRA>
-1.27451

>  <SCORE.INTRA.DIHEDRAL>
3.2818

>  <SCORE.INTRA.DIHEDRAL.0>
40.8761

>  <SCORE.INTRA.POLAR>
-1.71769

>  <SCORE.INTRA.POLAR.0>
-0.0268208

>  <SCORE.INTRA.REPUL>
-0.641615

>  <SCORE.INTRA.REPUL.0>
0.641615

>  <SCORE.INTRA.SOLV>
0.817707

>  <SCORE.INTRA.SOLV.lig_0>
-162.567

>  <SCORE.INTRA.VDW>
5.72396

>  <SCORE.INTRA.VDW.0>
-4.80338

>  <SCORE.INTRA.norm>
-0.0303456

>  <SCORE.RESTR>
9.86034

>  <SCORE.RESTR.CAVITY>
9.86034

>  <SCORE.RESTR.norm>
0.23477

>  <SCORE.SYSTEM>
0

>  <SCORE.SYSTEM.CONST>
0

>  <SCORE.SYSTEM.DIHEDRAL>
0

>  <SCORE.SYSTEM.SOLV>
0

>  <SCORE.SYSTEM.norm>
0

>  <SCORE.heavy>
42

>  <SCORE.norm>
-0.370497

>  <RMSD>
9.464

$$$$

 OpenBabel11021811393D
libRbt.so/2013.1/901 2013/11/27
 42 45  0  0  0  0  0  0  0  0999 V2000
   -4.2828   -1.4691   -8.3997 C   0  0  2  0  0  0  0  0  0  0  0  0
   -4.4250   -2.7807   -7.7727 O   0  0  0  0  0  0  0  0  0  0  0  0
   -4.2882   -1.5730   -9.9595 C   0  0  2  0  0  0  0  0  0  0  0  0
   -4.7826   -2.8915  -10.4180 N   0  3  0  0  0  0  0  0  0  0  0  0
   -2.8673   -1.2917  -10.5347 C   0  0  1  0  0  0  0  0  0  0  0  0
   -2.8871   -1.3792  -11.9579 O   0  0  0  0  0  0  0  0  0  0  0  0
   -2.3524    0.1171  -10.1353 C   0  0  2  0  0  0  0  0  0  0  0  0
   -0.9635    0.1980  -10.4355 O   0  0  0  0  0  0  0  0  0  0  0  0
   -2.5894    0.3981   -8.6160 C   0  0  2  0  0  0  0  0  0  0  0  0
   -3.0465   -0.8202   -7.9438 O   0  0  0  0  0  0  0  0  0  0  0  0
   -3.6494    1.4845   -8.3223 C   0  0  0  0  0  0  0  0  0  0  0  0
   -2.3435   -5.6933   -5.3636 C   0  0  1  0  0  0  0  0  0  0  0  0
   -1.3141   -6.3932   -4.5630 N   0  3  0  0  0  0  0  0  0  0  0  0
   -2.8839   -4.4405   -4.6257 C   0  0  1  0  0  0  0  0  0  0  0  0
   -3.8676   -3.5745   -5.4874 C   0  0  1  0  0  0  0  0  0  0  0  0
   -4.0405   -2.2919   -4.8269 O   0  0  0  0  0  0  0  0  0  0  0  0
   -3.3383   -3.2919   -6.9414 C   0  0  1  0  0  0  0  0  0  0  0  0
   -2.7806   -4.5832   -7.6231 C   0  0  1  0  0  0  0  0  0  0  0  0
   -2.1488   -4.2934   -8.9265 N   0  3  0  0  0  0  0  0  0  0  0  0
   -1.7442   -5.3023   -6.7306 C   0  0  0  0  0  0  0  0  0  0  0  0
   -3.9636   -2.2159   -3.3740 C   0  0  1  0  0  0  0  0  0  0  0  0
   -3.0351   -1.0678   -2.9965 C   0  0  1  0  0  0  0  0  0  0  0  0
   -3.9864    0.1095   -3.1623 C   0  0  1  0  0  0  0  0  0  0  0  0
   -5.2833   -0.4529   -2.5632 C   0  0  2  0  0  0  0  0  0  0  0  0
   -5.2498   -1.8752   -2.8310 O   0  0  0  0  0  0  0  0  0  0  0  0
   -6.5499    0.1719   -3.1754 C   0  0  0  0  0  0  0  0  0  0  0  0
   -1.8426    3.3794   -5.1810 C   0  0  1  0  0  0  0  0  0  0  0  0
   -2.4811    3.9472   -3.8827 C   0  0  1  0  0  0  0  0  0  0  0  0
   -1.9959    3.2501   -2.5789 C   0  0  2  0  0  0  0  0  0  0  0  0
   -2.1445    1.6979   -2.6798 C   0  0  1  0  0  0  0  0  0  0  0  0
   -3.5183    1.2824   -2.4363 O   0  0  0  0  0  0  0  0  0  0  0  0
   -0.9653    2.1297   -4.8668 C   0  0  1  0  0  0  0  0  0  0  0  0
   -1.7143    1.2074   -4.0095 O   0  0  0  0  0  0  0  0  0  0  0  0
   -0.5157    1.3838   -6.1495 C   0  0  0  0  0  0  0  0  0  0  0  0
   -4.6831    1.6244   -9.3630 N   0  3  0  0  0  0  0  0  0  0  0  0
   -2.6139   -1.2133   -1.6400 O   0  0  0  0  0  0  0  0  0  0  0  0
   -2.1686    5.3371   -3.7987 O   0  0  0  0  0  0  0  0  0  0  0  0
   -2.8928    3.0293   -6.0851 O   0  0  0  0  0  0  0  0  0  0  0  0
   -7.7063   -0.2248   -2.4585 O   0  0  0  0  0  0  0  0  0  0  0  0
   -3.5648   -4.8622   -3.4441 O   0  0  0  0  0  0  0  0  0  0  0  0
   -0.6383   -0.0810   -6.0339 N   0  3  0  0  0  0  0  0  0  0  0  0
   -2.6692    3.8116   -1.3815 N   0  3  0  0  0  0  0  0  0  0  0  0
  1  2  1  1  0  0  0
  1  3  1  0  0  0  0
  1 10  1  0  0  0  0
  3  4  1  1  0  0  0
  3  5  1  0  0  0  0
  5  6  1  6  0  0  0
  5  7  1  0  0  0  0
  7  8  1  1  0  0  0
  7  9  1  0  0  0  0
  9 10  1  0  0  0  0
  9 11  1  6  0  0  0
 11 35  1  0  0  0  0
 12 13  1  1  0  0  0
 12 14  1  0  0  0  0
 12 20  1  0  0  0  0
 14 15  1  0  0  0  0
 14 40  1  1  0  0  0
 15 16  1  1  0  0  0
 15 17  1  0  0  0  0
 17  2  1  6  0  0  0
 17 18  1  0  0  0  0
 18 19  1  6  0  0  0
 18 20  1  0  0  0  0
 21 16  1  6  0  0  0
 21 22  1  0  0  0  0
 21 25  1  0  0  0  0
 22 23  1  0  0  0  0
 22 36  1  1  0  0  0
 23 24  1  0  0  0  0
 23 31  1  1  0  0  0
 24 25  1  0  0  0  0
 24 26  1  6  0  0  0
 26 39  1  0  0  0  0
 27 28  1  0  0  0  0
 27 32  1  0  0  0  0
 27 38  1  6  0  0  0
 28 29  1  0  0  0  0
 28 37  1  1  0  0  0
 29 30  1  0  0  0  0
 29 42  1  1  0  0  0
 30 31  1  6  0  0  0
 30 33  1  0  0  0  0
 32 33  1  0  0  0  0
 32 34  1  6  0  0  0
 34 41  1  0  0  0  0
M  CHG  6   4   1  13   1  19   1  35   1  41   1  42   1
M  END
>  <CHROM.1>
116.94558915,121.22377532,-144.40138171,-165.99495957,-69.42307601,27.52757110
168.94474786,-152.24329717,-141.92907891,-31.30448291,131.64374495,168.03510624
-70.79742724,51.59836701,-171.19973186,67.00839158,162.92836139,174.41058760
-63.08476960,147.18136030,-136.42652048,-131.79995853,-3.12161128,-0.69692734
-5.81042808,-1.46857969,1.40447686,0.74442289

>  <Name>


>  <RI>
0

>  <Rbt.Current_Directory>
/home/itssahil/PROJECTS/Mol_Feturizer/New_Systems/rnas/1ei2

>  <Rbt.Executable>
rbdock ($Id: //depot/dev/client3/rdock/2013.1/src/exe/rbdock.cxx#4 $)

>  <Rbt.Library>
libRbt.so (2013.1, Build901 2013/11/27)

>  <Rbt.Parameter_File>
/export/apps/rDock/src/rDock_2013.1_src/data/scripts/dock_solv.prm

>  <Rbt.Receptor>
prm/blind_docking_100.prm

>  <SCORE>
7.24491

>  <SCORE.INTER>
-10.6089

>  <SCORE.INTER.CONST>
1

>  <SCORE.INTER.POLAR>
-4.16713

>  <SCORE.INTER.ROT>
9

>  <SCORE.INTER.SOLV>
39.4726

>  <SCORE.INTER.VDW>
-15.9397

>  <SCORE.INTER.norm>
-0.252593

>  <SCORE.INTRA>
7.97096

>  <SCORE.INTRA.DIHEDRAL>
12.6328

>  <SCORE.INTRA.DIHEDRAL.0>
40.8761

>  <SCORE.INTRA.POLAR>
-1.7997

>  <SCORE.INTRA.POLAR.0>
-0.0268208

>  <SCORE.INTRA.REPUL>
-0.387725

>  <SCORE.INTRA.REPUL.0>
0.641615

>  <SCORE.INTRA.SOLV>
0.784613

>  <SCORE.INTRA.SOLV.lig_0>
-162.567

>  <SCORE.INTRA.VDW>
9.31985

>  <SCORE.INTRA.VDW.0>
-4.80338

>  <SCORE.INTRA.norm>
0.189785

>  <SCORE.RESTR>
9.88285

>  <SCORE.RESTR.CAVITY>
9.88285

>  <SCORE.RESTR.norm>
0.235306

>  <SCORE.SYSTEM>
0

>  <SCORE.SYSTEM.CONST>
0

>  <SCORE.SYSTEM.DIHEDRAL>
0

>  <SCORE.SYSTEM.SOLV>
0

>  <SCORE.SYSTEM.norm>
0

>  <SCORE.heavy>
42

>  <SCORE.norm>
0.172498

>  <RMSD>
9.467

$$$$

 OpenBabel11021811393D
libRbt.so/2013.1/901 2013/11/27
 42 45  0  0  0  0  0  0  0  0999 V2000
   -3.3656   -1.2892   -7.1095 C   0  0  2  0  0  0  0  0  0  0  0  0
   -2.4369   -0.3305   -6.5162 O   0  0  0  0  0  0  0  0  0  0  0  0
   -2.9627   -2.7626   -6.7768 C   0  0  2  0  0  0  0  0  0  0  0  0
   -1.9750   -2.8239   -5.6751 N   0  3  0  0  0  0  0  0  0  0  0  0
   -2.4125   -3.4823   -8.0450 C   0  0  1  0  0  0  0  0  0  0  0  0
   -2.0582   -4.8276   -7.7316 O   0  0  0  0  0  0  0  0  0  0  0  0
   -3.4558   -3.5031   -9.1941 C   0  0  2  0  0  0  0  0  0  0  0  0
   -2.8050   -3.9033  -10.3950 O   0  0  0  0  0  0  0  0  0  0  0  0
   -4.1172   -2.0998   -9.3853 C   0  0  2  0  0  0  0  0  0  0  0  0
   -3.4271   -1.1017   -8.5650 O   0  0  0  0  0  0  0  0  0  0  0  0
   -5.6104   -2.0352   -8.9898 C   0  0  0  0  0  0  0  0  0  0  0  0
   -2.4134    3.7031   -4.9834 C   0  0  1  0  0  0  0  0  0  0  0  0
   -2.8190    4.9858   -4.3665 N   0  3  0  0  0  0  0  0  0  0  0  0
   -2.3521    2.5615   -3.9349 C   0  0  1  0  0  0  0  0  0  0  0  0
   -2.0741    1.1479   -4.5550 C   0  0  1  0  0  0  0  0  0  0  0  0
   -2.3613    0.1446   -3.5441 O   0  0  0  0  0  0  0  0  0  0  0  0
   -2.9708    0.8299   -5.8076 C   0  0  1  0  0  0  0  0  0  0  0  0
   -3.0176    2.0253   -6.8133 C   0  0  1  0  0  0  0  0  0  0  0  0
   -3.9742    1.7873   -7.9134 N   0  3  0  0  0  0  0  0  0  0  0  0
   -3.4010    3.3492   -6.1147 C   0  0  0  0  0  0  0  0  0  0  0  0
   -2.6765    0.5639   -2.1849 C   0  0  1  0  0  0  0  0  0  0  0  0
   -4.1726    0.8409   -2.0970 C   0  0  1  0  0  0  0  0  0  0  0  0
   -4.6980   -0.5802   -1.9457 C   0  0  1  0  0  0  0  0  0  0  0  0
   -3.6692   -1.1904   -0.9832 C   0  0  2  0  0  0  0  0  0  0  0  0
   -2.4221   -0.5123   -1.2672 O   0  0  0  0  0  0  0  0  0  0  0  0
   -3.5002   -2.7093   -1.1665 C   0  0  0  0  0  0  0  0  0  0  0  0
   -9.7399   -1.3882   -0.7225 C   0  0  1  0  0  0  0  0  0  0  0  0
   -9.2138   -0.1600   -1.5162 C   0  0  1  0  0  0  0  0  0  0  0  0
   -8.1947   -0.5167   -2.6366 C   0  0  2  0  0  0  0  0  0  0  0  0
   -7.0332   -1.4028   -2.0821 C   0  0  1  0  0  0  0  0  0  0  0  0
   -6.0419   -0.5970   -1.3840 O   0  0  0  0  0  0  0  0  0  0  0  0
   -8.9947   -2.6878   -1.1539 C   0  0  1  0  0  0  0  0  0  0  0  0
   -7.5500   -2.4443   -1.1644 O   0  0  0  0  0  0  0  0  0  0  0  0
   -9.3040   -3.8860   -0.2197 C   0  0  0  0  0  0  0  0  0  0  0  0
   -6.5232   -2.6834   -9.9479 N   0  3  0  0  0  0  0  0  0  0  0  0
   -4.4509    1.6280   -0.9387 O   0  0  0  0  0  0  0  0  0  0  0  0
  -10.3293    0.5029   -2.1103 O   0  0  0  0  0  0  0  0  0  0  0  0
   -9.5392   -1.1450    0.6716 O   0  0  0  0  0  0  0  0  0  0  0  0
   -3.0226   -3.0115   -2.4662 O   0  0  0  0  0  0  0  0  0  0  0  0
   -1.3195    2.8571   -2.9948 O   0  0  0  0  0  0  0  0  0  0  0  0
   -9.6224   -5.1217   -0.9583 N   0  3  0  0  0  0  0  0  0  0  0  0
   -7.7037    0.7000   -3.3300 N   0  3  0  0  0  0  0  0  0  0  0  0
  1  2  1  6  0  0  0
  1  3  1  0  0  0  0
  1 10  1  0  0  0  0
  3  4  1  1  0  0  0
  3  5  1  0  0  0  0
  5  6  1  1  0  0  0
  5  7  1  0  0  0  0
  7  8  1  6  0  0  0
  7  9  1  0  0  0  0
  9 10  1  0  0  0  0
  9 11  1  1  0  0  0
 11 35  1  0  0  0  0
 12 13  1  1  0  0  0
 12 14  1  0  0  0  0
 12 20  1  0  0  0  0
 14 15  1  0  0  0  0
 14 40  1  1  0  0  0
 15 16  1  1  0  0  0
 15 17  1  0  0  0  0
 17  2  1  6  0  0  0
 17 18  1  0  0  0  0
 18 19  1  6  0  0  0
 18 20  1  0  0  0  0
 21 16  1  6  0  0  0
 21 22  1  0  0  0  0
 21 25  1  0  0  0  0
 22 23  1  0  0  0  0
 22 36  1  1  0  0  0
 23 24  1  0  0  0  0
 23 31  1  1  0  0  0
 24 25  1  0  0  0  0
 24 26  1  6  0  0  0
 26 39  1  0  0  0  0
 27 28  1  0  0  0  0
 27 32  1  0  0  0  0
 27 38  1  1  0  0  0
 28 29  1  0  0  0  0
 28 37  1  6  0  0  0
 29 30  1  0  0  0  0
 29 42  1  1  0  0  0
 30 31  1  1  0  0  0
 30 33  1  0  0  0  0
 32 33  1  0  0  0  0
 32 34  1  1  0  0  0
 34 41  1  0  0  0  0
M  CHG  6   4   1  13   1  19   1  35   1  41   1  42   1
M  END
>  <CHROM.1>
-133.63141154,142.69284673,-32.80009095,67.70473619,63.33425778,-74.24632963
-178.89575444,50.82862984,-56.55164030,-6.85815303,86.63424450,60.54036151
71.08647398,130.42422549,61.98621569,-59.75295329,174.10302713,172.09787988
-56.73152825,-117.11123680,133.44308405,-149.78664231,-4.76852656,-0.74399326
-4.26789851,0.62207211,-0.73918879,-2.27577906

>  <Name>


>  <RI>
0

>  <Rbt.Current_Directory>
/home/itssahil/PROJECTS/Mol_Feturizer/New_Systems/rnas/1ei2

>  <Rbt.Executable>
rbdock ($Id: //depot/dev/client3/rdock/2013.1/src/exe/rbdock.cxx#4 $)

>  <Rbt.Library>
libRbt.so (2013.1, Build901 2013/11/27)

>  <Rbt.Parameter_File>
/export/apps/rDock/src/rDock_2013.1_src/data/scripts/dock_solv.prm

>  <Rbt.Receptor>
prm/blind_docking_80.prm

>  <SCORE>
-11.3444

>  <SCORE.INTER>
-13.7382

>  <SCORE.INTER.CONST>
1

>  <SCORE.INTER.POLAR>
-3.67023

>  <SCORE.INTER.ROT>
9

>  <SCORE.INTER.SOLV>
37.9578

>  <SCORE.INTER.VDW>
-19.1773

>  <SCORE.INTER.norm>
-0.327099

>  <SCORE.INTRA>
-9.39574

>  <SCORE.INTRA.DIHEDRAL>
5.18401

>  <SCORE.INTRA.DIHEDRAL.0>
40.8761

>  <SCORE.INTRA.POLAR>
-1.8127

>  <SCORE.INTRA.POLAR.0>
-0.0268208

>  <SCORE.INTRA.REPUL>
-0.641615

>  <SCORE.INTRA.REPUL.0>
0.641615

>  <SCORE.INTRA.SOLV>
-8.61301

>  <SCORE.INTRA.SOLV.lig_0>
-162.567

>  <SCORE.INTRA.VDW>
1.69001

>  <SCORE.INTRA.VDW.0>
-4.80338

>  <SCORE.INTRA.norm>
-0.223708

>  <SCORE.RESTR>
11.7895

>  <SCORE.RESTR.CAVITY>
11.7895

>  <SCORE.RESTR.norm>
0.280703

>  <SCORE.SYSTEM>
0

>  <SCORE.SYSTEM.CONST>
0

>  <SCORE.SYSTEM.DIHEDRAL>
0

>  <SCORE.SYSTEM.SOLV>
0

>  <SCORE.SYSTEM.norm>
0

>  <SCORE.heavy>
42

>  <SCORE.norm>
-0.270104

>  <RMSD>
9.485

$$$$

 OpenBabel11021811393D
libRbt.so/2013.1/901 2013/11/27
 42 45  0  0  0  0  0  0  0  0999 V2000
   -3.3965   -0.7443   -7.3440 C   0  0  2  0  0  0  0  0  0  0  0  0
   -2.6252    0.4575   -7.0366 O   0  0  0  0  0  0  0  0  0  0  0  0
   -2.8070   -2.0047   -6.6315 C   0  0  2  0  0  0  0  0  0  0  0  0
   -1.8535   -1.6320   -5.5613 N   0  3  0  0  0  0  0  0  0  0  0  0
   -2.1263   -2.9527   -7.6644 C   0  0  1  0  0  0  0  0  0  0  0  0
   -1.6017   -4.1028   -7.0045 O   0  0  0  0  0  0  0  0  0  0  0  0
   -3.1221   -3.4240   -8.7578 C   0  0  2  0  0  0  0  0  0  0  0  0
   -2.3873   -4.0352   -9.8123 O   0  0  0  0  0  0  0  0  0  0  0  0
   -3.9624   -2.2286   -9.3131 C   0  0  2  0  0  0  0  0  0  0  0  0
   -3.4394   -0.9620   -8.7959 O   0  0  0  0  0  0  0  0  0  0  0  0
   -5.4617   -2.2693   -8.9379 C   0  0  0  0  0  0  0  0  0  0  0  0
   -2.6060    3.9942   -4.5645 C   0  0  1  0  0  0  0  0  0  0  0  0
   -3.0241    5.1138   -3.6915 N   0  3  0  0  0  0  0  0  0  0  0  0
   -2.6993    2.6324   -3.8276 C   0  0  1  0  0  0  0  0  0  0  0  0
   -2.4128    1.3948   -4.7475 C   0  0  1  0  0  0  0  0  0  0  0  0
   -2.8431    0.1980   -4.0451 O   0  0  0  0  0  0  0  0  0  0  0  0
   -3.1850    1.4446   -6.1170 C   0  0  1  0  0  0  0  0  0  0  0  0
   -3.0797    2.8475   -6.7982 C   0  0  1  0  0  0  0  0  0  0  0  0
   -3.9243    2.9420   -8.0064 N   0  3  0  0  0  0  0  0  0  0  0  0
   -3.4826    3.9859   -5.8342 C   0  0  0  0  0  0  0  0  0  0  0  0
   -2.8484    0.1828   -2.5882 C   0  0  1  0  0  0  0  0  0  0  0  0
   -4.2666    0.4621   -2.1050 C   0  0  1  0  0  0  0  0  0  0  0  0
   -4.8829   -0.9197   -2.2757 C   0  0  1  0  0  0  0  0  0  0  0  0
   -3.7486   -1.8286   -1.7814 C   0  0  2  0  0  0  0  0  0  0  0  0
   -2.5225   -1.1323   -2.1093 O   0  0  0  0  0  0  0  0  0  0  0  0
   -3.7608   -3.2195   -2.4406 C   0  0  0  0  0  0  0  0  0  0  0  0
   -9.7884   -1.5031   -0.5445 C   0  0  1  0  0  0  0  0  0  0  0  0
   -9.2087   -0.3459   -1.4048 C   0  0  1  0  0  0  0  0  0  0  0  0
   -8.3056   -0.8190   -2.5802 C   0  0  2  0  0  0  0  0  0  0  0  0
   -7.1940   -1.7967   -2.0800 C   0  0  1  0  0  0  0  0  0  0  0  0
   -6.0881   -1.0713   -1.4717 O   0  0  0  0  0  0  0  0  0  0  0  0
   -9.1956   -2.8749   -0.9886 C   0  0  1  0  0  0  0  0  0  0  0  0
   -7.7389   -2.7662   -1.1018 O   0  0  0  0  0  0  0  0  0  0  0  0
   -9.5475   -4.0193   -0.0035 C   0  0  0  0  0  0  0  0  0  0  0  0
   -6.2300   -3.3303   -9.6124 N   0  3  0  0  0  0  0  0  0  0  0  0
   -4.2404    0.8577   -0.7333 O   0  0  0  0  0  0  0  0  0  0  0  0
  -10.2976    0.4044   -1.9413 O   0  0  0  0  0  0  0  0  0  0  0  0
   -9.4712   -1.2500    0.8260 O   0  0  0  0  0  0  0  0  0  0  0  0
   -2.4951   -3.8461   -2.3220 O   0  0  0  0  0  0  0  0  0  0  0  0
   -1.7603    2.6273   -2.7526 O   0  0  0  0  0  0  0  0  0  0  0  0
   -8.4967   -5.0504    0.0768 N   0  3  0  0  0  0  0  0  0  0  0  0
   -7.7550    0.3321   -3.3378 N   0  3  0  0  0  0  0  0  0  0  0  0
  1  2  1  6  0  0  0
  1  3  1  0  0  0  0
  1 10  1  0  0  0  0
  3  4  1  1  0  0  0
  3  5  1  0  0  0  0
  5  6  1  1  0  0  0
  5  7  1  0  0  0  0
  7  8  1  6  0  0  0
  7  9  1  0  0  0  0
  9 10  1  0  0  0  0
  9 11  1  1  0  0  0
 11 35  1  0  0  0  0
 12 13  1  1  0  0  0
 12 14  1  0  0  0  0
 12 20  1  0  0  0  0
 14 15  1  0  0  0  0
 14 40  1  1  0  0  0
 15 16  1  1  0  0  0
 15 17  1  0  0  0  0
 17  2  1  6  0  0  0
 17 18  1  0  0  0  0
 18 19  1  6  0  0  0
 18 20  1  0  0  0  0
 21 16  1  6  0  0  0
 21 22  1  0  0  0  0
 21 25  1  0  0  0  0
 22 23  1  0  0  0  0
 22 36  1  1  0  0  0
 23 24  1  0  0  0  0
 23 31  1  1  0  0  0
 24 25  1  0  0  0  0
 24 26  1  6  0  0  0
 26 39  1  0  0  0  0
 27 28  1  0  0  0  0
 27 32  1  0  0  0  0
 27 38  1  1  0  0  0
 28 29  1  0  0  0  0
 28 37  1  6  0  0  0
 29 30  1  0  0  0  0
 29 42  1  1  0  0  0
 30 31  1  1  0  0  0
 30 33  1  0  0  0  0
 32 33  1  0  0  0  0
 32 34  1  1  0  0  0
 34 41  1  0  0  0  0
M  CHG  6   4   1  13   1  19   1  35   1  41   1  42   1
M  END
>  <CHROM.1>
-105.96201999,107.82540325,68.96147949,-126.45680022,-55.06598665,-70.29478044
168.53201795,-28.98724466,-52.20566032,-27.52082250,98.42672191,-78.07852481
177.27801280,140.53552066,160.20495569,-65.03359457,55.97164537,-172.68993685
161.10544011,-102.74910165,-148.03410943,164.59991944,-4.75504018,-0.73337382
-4.22518936,0.34146598,-0.85050125,-2.50750768

>  <Name>


>  <RI>
0

>  <Rbt.Current_Directory>
/home/itssahil/PROJECTS/Mol_Feturizer/New_Systems/rnas/1ei2

>  <Rbt.Executable>
rbdock ($Id: //depot/dev/client3/rdock/2013.1/src/exe/rbdock.cxx#4 $)

>  <Rbt.Library>
libRbt.so (2013.1, Build901 2013/11/27)

>  <Rbt.Parameter_File>
/export/apps/rDock/src/rDock_2013.1_src/data/scripts/dock_solv.prm

>  <Rbt.Receptor>
prm/blind_docking_40.prm

>  <SCORE>
-6.39561

>  <SCORE.INTER>
-11.4596

>  <SCORE.INTER.CONST>
1

>  <SCORE.INTER.POLAR>
-3.18401

>  <SCORE.INTER.ROT>
9

>  <SCORE.INTER.SOLV>
40.8035

>  <SCORE.INTER.VDW>
-20.2276

>  <SCORE.INTER.norm>
-0.272848

>  <SCORE.INTRA>
-4.30833

>  <SCORE.INTRA.DIHEDRAL>
9.46454

>  <SCORE.INTRA.DIHEDRAL.0>
40.8761

>  <SCORE.INTRA.POLAR>
-1.19196

>  <SCORE.INTRA.POLAR.0>
-0.0268208

>  <SCORE.INTRA.REPUL>
-0.641615

>  <SCORE.INTRA.REPUL.0>
0.641615

>  <SCORE.INTRA.SOLV>
-6.31173

>  <SCORE.INTRA.SOLV.lig_0>
-162.567

>  <SCORE.INTRA.VDW>
1.37601

>  <SCORE.INTRA.VDW.0>
-4.80338

>  <SCORE.INTRA.norm>
-0.102579

>  <SCORE.RESTR>
9.37233

>  <SCORE.RESTR.CAVITY>
9.37233

>  <SCORE.RESTR.norm>
0.223151

>  <SCORE.SYSTEM>
0

>  <SCORE.SYSTEM.CONST>
0

>  <SCORE.SYSTEM.DIHEDRAL>
0

>  <SCORE.SYSTEM.SOLV>
0

>  <SCORE.SYSTEM.norm>
0

>  <SCORE.heavy>
42

>  <SCORE.norm>
-0.152276

>  <RMSD>
9.489

$$$$

 OpenBabel11021811393D
libRbt.so/2013.1/901 2013/11/27
 42 45  0  0  0  0  0  0  0  0999 V2000
   -3.4804   -1.7412   -5.8856 C   0  0  2  0  0  0  0  0  0  0  0  0
   -4.4531   -0.6849   -6.1534 O   0  0  0  0  0  0  0  0  0  0  0  0
   -2.5677   -2.0114   -7.1257 C   0  0  2  0  0  0  0  0  0  0  0  0
   -2.6635   -0.9209   -8.1231 N   0  3  0  0  0  0  0  0  0  0  0  0
   -2.9186   -3.3822   -7.7789 C   0  0  1  0  0  0  0  0  0  0  0  0
   -2.0733   -3.6221   -8.9020 O   0  0  0  0  0  0  0  0  0  0  0  0
   -2.7525   -4.5570   -6.7780 C   0  0  2  0  0  0  0  0  0  0  0  0
   -3.3564   -5.7197   -7.3339 O   0  0  0  0  0  0  0  0  0  0  0  0
   -3.4046   -4.2225   -5.3974 C   0  0  2  0  0  0  0  0  0  0  0  0
   -4.1692   -2.9767   -5.4900 O   0  0  0  0  0  0  0  0  0  0  0  0
   -2.3963   -4.0327   -4.2409 C   0  0  0  0  0  0  0  0  0  0  0  0
   -2.4299    3.1099   -5.7992 C   0  0  1  0  0  0  0  0  0  0  0  0
   -2.0795    4.4982   -5.4245 N   0  3  0  0  0  0  0  0  0  0  0  0
   -2.3186    2.1479   -4.5875 C   0  0  1  0  0  0  0  0  0  0  0  0
   -2.8217    0.6929   -4.8871 C   0  0  1  0  0  0  0  0  0  0  0  0
   -2.9731   -0.0044   -3.6215 O   0  0  0  0  0  0  0  0  0  0  0  0
   -4.2129    0.6534   -5.6200 C   0  0  1  0  0  0  0  0  0  0  0  0
   -4.2759    1.6624   -6.8120 C   0  0  1  0  0  0  0  0  0  0  0  0
   -5.6262    1.7346   -7.4067 N   0  3  0  0  0  0  0  0  0  0  0  0
   -3.8584    3.0867   -6.3819 C   0  0  0  0  0  0  0  0  0  0  0  0
   -3.5191    0.7043   -2.4715 C   0  0  1  0  0  0  0  0  0  0  0  0
   -5.0358    0.7595   -2.6106 C   0  0  1  0  0  0  0  0  0  0  0  0
   -5.3991   -0.6350   -2.1190 C   0  0  1  0  0  0  0  0  0  0  0  0
   -4.4439   -0.8030   -0.9288 C   0  0  2  0  0  0  0  0  0  0  0  0
   -3.2621   -0.0391   -1.2688 O   0  0  0  0  0  0  0  0  0  0  0  0
   -4.0671   -2.2713   -0.6618 C   0  0  0  0  0  0  0  0  0  0  0  0
   -9.8021   -2.6477   -0.3142 C   0  0  1  0  0  0  0  0  0  0  0  0
   -9.8886   -1.3806   -1.2099 C   0  0  1  0  0  0  0  0  0  0  0  0
   -9.0332   -1.4601   -2.5072 C   0  0  2  0  0  0  0  0  0  0  0  0
   -7.5561   -1.8563   -2.1861 C   0  0  1  0  0  0  0  0  0  0  0  0
   -6.7947   -0.7111   -1.7085 O   0  0  0  0  0  0  0  0  0  0  0  0
   -8.7460   -3.6497   -0.8717 C   0  0  1  0  0  0  0  0  0  0  0  0
   -7.5028   -2.9352   -1.1728 O   0  0  0  0  0  0  0  0  0  0  0  0
   -8.4445   -4.8045    0.1181 C   0  0  0  0  0  0  0  0  0  0  0  0
   -1.2947   -5.0112   -4.2260 N   0  3  0  0  0  0  0  0  0  0  0  0
   -5.5631    1.7711   -1.7520 O   0  0  0  0  0  0  0  0  0  0  0  0
  -11.2533   -1.1815   -1.5765 O   0  0  0  0  0  0  0  0  0  0  0  0
   -9.4456   -2.2420    1.0092 O   0  0  0  0  0  0  0  0  0  0  0  0
   -3.1825   -2.7553   -1.6578 O   0  0  0  0  0  0  0  0  0  0  0  0
   -0.9527    2.0818   -4.1783 O   0  0  0  0  0  0  0  0  0  0  0  0
   -9.4123   -4.8756    1.2282 N   0  3  0  0  0  0  0  0  0  0  0  0
   -9.1297   -0.2077   -3.2975 N   0  3  0  0  0  0  0  0  0  0  0  0
  1  2  1  6  0  0  0
  1  3  1  0  0  0  0
  1 10  1  0  0  0  0
  3  4  1  6  0  0  0
  3  5  1  0  0  0  0
  5  6  1  6  0  0  0
  5  7  1  0  0  0  0
  7  8  1  6  0  0  0
  7  9  1  0  0  0  0
  9 10  1  0  0  0  0
  9 11  1  1  0  0  0
 11 35  1  0  0  0  0
 12 13  1  1  0  0  0
 12 14  1  0  0  0  0
 12 20  1  0  0  0  0
 14 15  1  0  0  0  0
 14 40  1  6  0  0  0
 15 16  1  1  0  0  0
 15 17  1  0  0  0  0
 17  2  1  6  0  0  0
 17 18  1  0  0  0  0
 18 19  1  1  0  0  0
 18 20  1  0  0  0  0
 21 16  1  6  0  0  0
 21 22  1  0  0  0  0
 21 25  1  0  0  0  0
 22 23  1  0  0  0  0
 22 36  1  1  0  0  0
 23 24  1  0  0  0  0
 23 31  1  1  0  0  0
 24 25  1  0  0  0  0
 24 26  1  6  0  0  0
 26 39  1  0  0  0  0
 27 28  1  0  0  0  0
 27 32  1  0  0  0  0
 27 38  1  1  0  0  0
 28 29  1  0  0  0  0
 28 37  1  6  0  0  0
 29 30  1  0  0  0  0
 29 42  1  1  0  0  0
 30 31  1  1  0  0  0
 30 33  1  0  0  0  0
 32 33  1  0  0  0  0
 32 34  1  1  0  0  0
 34 41  1  0  0  0  0
M  CHG  6   4   1  13   1  19   1  35   1  41   1  42   1
M  END
>  <CHROM.1>
-102.29508006,3.33096104,-70.40986882,-55.75334461,-159.26098376,-41.89243229
74.59576148,58.07150382,-59.73656572,39.70718463,79.50127421,75.77762096
174.59406789,133.71037521,72.50042762,156.71634626,50.11677566,-67.81381698
164.63546813,-143.76488756,12.38233897,81.99862084,-4.97344946,-1.21046834
-3.76263440,-0.20174524,-0.76848732,-3.07501813

>  <Name>


>  <RI>
0

>  <Rbt.Current_Directory>
/home/itssahil/PROJECTS/Mol_Feturizer/New_Systems/rnas/1ei2

>  <Rbt.Executable>
rbdock ($Id: //depot/dev/client3/rdock/2013.1/src/exe/rbdock.cxx#4 $)

>  <Rbt.Library>
libRbt.so (2013.1, Build901 2013/11/27)

>  <Rbt.Parameter_File>
/export/apps/rDock/src/rDock_2013.1_src/data/scripts/dock_solv.prm

>  <Rbt.Receptor>
prm/blind_docking_40.prm

>  <SCORE>
30.3999

>  <SCORE.INTER>
26.2865

>  <SCORE.INTER.CONST>
1

>  <SCORE.INTER.POLAR>
-6.01361

>  <SCORE.INTER.ROT>
9

>  <SCORE.INTER.SOLV>
58.1865

>  <SCORE.INTER.VDW>
8.57418

>  <SCORE.INTER.norm>
0.625868

>  <SCORE.INTRA>
-2.83706

>  <SCORE.INTRA.DIHEDRAL>
1.93433

>  <SCORE.INTRA.DIHEDRAL.0>
40.8761

>  <SCORE.INTRA.POLAR>
-0.631365

>  <SCORE.INTRA.POLAR.0>
-0.0268208

>  <SCORE.INTRA.REPUL>
-0.24826

>  <SCORE.INTRA.REPUL.0>
0.641615

>  <SCORE.INTRA.SOLV>
-6.43807

>  <SCORE.INTRA.SOLV.lig_0>
-162.567

>  <SCORE.INTRA.VDW>
2.80275

>  <SCORE.INTRA.VDW.0>
-4.80338

>  <SCORE.INTRA.norm>
-0.0675491

>  <SCORE.RESTR>
6.95047

>  <SCORE.RESTR.CAVITY>
6.95047

>  <SCORE.RESTR.norm>
0.165487

>  <SCORE.SYSTEM>
0

>  <SCORE.SYSTEM.CONST>
0

>  <SCORE.SYSTEM.DIHEDRAL>
0

>  <SCORE.SYSTEM.SOLV>
0

>  <SCORE.SYSTEM.norm>
0

>  <SCORE.heavy>
42

>  <SCORE.norm>
0.723807

>  <RMSD>
9.526

$$$$

 OpenBabel11021811393D
libRbt.so/2013.1/901 2013/11/27
 42 45  0  0  0  0  0  0  0  0999 V2000
   -3.3023   -1.1026   -6.2613 C   0  0  2  0  0  0  0  0  0  0  0  0
   -4.1534   -0.0329   -6.7762 O   0  0  0  0  0  0  0  0  0  0  0  0
   -2.3679   -1.6806   -7.3733 C   0  0  2  0  0  0  0  0  0  0  0  0
   -2.3121   -0.7924   -8.5569 N   0  3  0  0  0  0  0  0  0  0  0  0
   -2.8238   -3.1128   -7.7855 C   0  0  1  0  0  0  0  0  0  0  0  0
   -1.9584   -3.6333   -8.7923 O   0  0  0  0  0  0  0  0  0  0  0  0
   -2.8181   -4.0892   -6.5788 C   0  0  2  0  0  0  0  0  0  0  0  0
   -3.5092   -5.2770   -6.9488 O   0  0  0  0  0  0  0  0  0  0  0  0
   -3.4932   -3.4451   -5.3247 C   0  0  2  0  0  0  0  0  0  0  0  0
   -4.1263   -2.1757   -5.6896 O   0  0  0  0  0  0  0  0  0  0  0  0
   -2.5222   -3.1323   -4.1630 C   0  0  0  0  0  0  0  0  0  0  0  0
   -2.6791    3.7447   -5.3010 C   0  0  1  0  0  0  0  0  0  0  0  0
   -2.5902    5.0835   -4.6765 N   0  3  0  0  0  0  0  0  0  0  0  0
   -2.9375    2.6394   -4.2437 C   0  0  1  0  0  0  0  0  0  0  0  0
   -3.1905    1.2202   -4.8615 C   0  0  1  0  0  0  0  0  0  0  0  0
   -3.7324    0.3626   -3.8214 O   0  0  0  0  0  0  0  0  0  0  0  0
   -4.2202    1.2329   -6.0505 C   0  0  1  0  0  0  0  0  0  0  0  0
   -3.9274    2.3836   -7.0669 C   0  0  1  0  0  0  0  0  0  0  0  0
   -4.9768    2.4905   -8.1009 N   0  3  0  0  0  0  0  0  0  0  0  0
   -3.7985    3.7531   -6.3628 C   0  0  0  0  0  0  0  0  0  0  0  0
   -4.0973    0.9379   -2.5336 C   0  0  1  0  0  0  0  0  0  0  0  0
   -5.5728    0.6555   -2.2764 C   0  0  1  0  0  0  0  0  0  0  0  0
   -5.4866   -0.7827   -1.7839 C   0  0  1  0  0  0  0  0  0  0  0  0
   -4.2402   -0.7300   -0.8889 C   0  0  2  0  0  0  0  0  0  0  0  0
   -3.3812    0.2750   -1.4786 O   0  0  0  0  0  0  0  0  0  0  0  0
   -3.5006   -2.0774   -0.8068 C   0  0  0  0  0  0  0  0  0  0  0  0
  -10.1487   -2.4932   -0.0793 C   0  0  1  0  0  0  0  0  0  0  0  0
   -9.8511   -1.0640   -0.6123 C   0  0  1  0  0  0  0  0  0  0  0  0
   -9.0031   -1.0362   -1.9166 C   0  0  2  0  0  0  0  0  0  0  0  0
   -7.7044   -1.8917   -1.7639 C   0  0  1  0  0  0  0  0  0  0  0  0
   -6.6760   -1.1640   -1.0344 O   0  0  0  0  0  0  0  0  0  0  0  0
   -9.3883   -3.5665   -0.9159 C   0  0  1  0  0  0  0  0  0  0  0  0
   -7.9866   -3.1680   -1.0674 O   0  0  0  0  0  0  0  0  0  0  0  0
   -9.4521   -4.9750   -0.2710 C   0  0  0  0  0  0  0  0  0  0  0  0
   -2.2719   -4.2663   -3.2560 N   0  3  0  0  0  0  0  0  0  0  0  0
   -6.0614    1.5291   -1.2582 O   0  0  0  0  0  0  0  0  0  0  0  0
  -11.0943   -0.4101   -0.8641 O   0  0  0  0  0  0  0  0  0  0  0  0
   -9.7437   -2.5582    1.2899 O   0  0  0  0  0  0  0  0  0  0  0  0
   -2.1782   -1.8996   -0.3289 O   0  0  0  0  0  0  0  0  0  0  0  0
   -1.8076    2.5627   -3.3748 O   0  0  0  0  0  0  0  0  0  0  0  0
   -9.7730   -6.0367   -1.2425 N   0  3  0  0  0  0  0  0  0  0  0  0
   -8.7229    0.3547   -2.3514 N   0  3  0  0  0  0  0  0  0  0  0  0
  1  2  1  6  0  0  0
  1  3  1  0  0  0  0
  1 10  1  0  0  0  0
  3  4  1  6  0  0  0
  3  5  1  0  0  0  0
  5  6  1  6  0  0  0
  5  7  1  0  0  0  0
  7  8  1  6  0  0  0
  7  9  1  0  0  0  0
  9 10  1  0  0  0  0
  9 11  1  1  0  0  0
 11 35  1  0  0  0  0
 12 13  1  1  0  0  0
 12 14  1  0  0  0  0
 12 20  1  0  0  0  0
 14 15  1  0  0  0  0
 14 40  1  1  0  0  0
 15 16  1  1  0  0  0
 15 17  1  0  0  0  0
 17  2  1  6  0  0  0
 17 18  1  0  0  0  0
 18 19  1  6  0  0  0
 18 20  1  0  0  0  0
 21 16  1  6  0  0  0
 21 22  1  0  0  0  0
 21 25  1  0  0  0  0
 22 23  1  0  0  0  0
 22 36  1  1  0  0  0
 23 24  1  0  0  0  0
 23 31  1  1  0  0  0
 24 25  1  0  0  0  0
 24 26  1  6  0  0  0
 26 39  1  0  0  0  0
 27 28  1  0  0  0  0
 27 32  1  0  0  0  0
 27 38  1  1  0  0  0
 28 29  1  0  0  0  0
 28 37  1  6  0  0  0
 29 30  1  0  0  0  0
 29 42  1  1  0  0  0
 30 31  1  1  0  0  0
 30 33  1  0  0  0  0
 32 33  1  0  0  0  0
 32 34  1  1  0  0  0
 34 41  1  0  0  0  0
M  CHG  6   4   1  13   1  19   1  35   1  41   1  42   1
M  END
>  <CHROM.1>
-129.99342909,5.53927010,-61.66665072,61.45728655,70.55906923,-85.27625373
91.90991215,156.91823260,75.49623888,7.64119576,121.76900515,-58.15375729
-61.51219038,97.24944816,162.23705043,-40.81635494,177.46031274,161.36664072
-170.72515975,-112.76317951,134.30289316,76.08220022,-5.08444506,-0.90195062
-3.64792044,-0.20250574,-0.79960660,-2.96926848

>  <Name>


>  <RI>
0

>  <Rbt.Current_Directory>
/home/itssahil/PROJECTS/Mol_Feturizer/New_Systems/rnas/1ei2

>  <Rbt.Executable>
rbdock ($Id: //depot/dev/client3/rdock/2013.1/src/exe/rbdock.cxx#4 $)

>  <Rbt.Library>
libRbt.so (2013.1, Build901 2013/11/27)

>  <Rbt.Parameter_File>
/export/apps/rDock/src/rDock_2013.1_src/data/scripts/dock_solv.prm

>  <Rbt.Receptor>
prm/blind_docking_60.prm

>  <SCORE>
31.1278

>  <SCORE.INTER>
24.7262

>  <SCORE.INTER.CONST>
1

>  <SCORE.INTER.POLAR>
-7.46932

>  <SCORE.INTER.ROT>
9

>  <SCORE.INTER.SOLV>
57.5454

>  <SCORE.INTER.VDW>
12.6001

>  <SCORE.INTER.norm>
0.588718

>  <SCORE.INTRA>
0.0680998

>  <SCORE.INTRA.DIHEDRAL>
15.9613

>  <SCORE.INTRA.DIHEDRAL.0>
40.8761

>  <SCORE.INTRA.POLAR>
-1.02546

>  <SCORE.INTRA.POLAR.0>
-0.0268208

>  <SCORE.INTRA.REPUL>
-0.641615

>  <SCORE.INTRA.REPUL.0>
0.641615

>  <SCORE.INTRA.SOLV>
-9.24861

>  <SCORE.INTRA.SOLV.lig_0>
-162.567

>  <SCORE.INTRA.VDW>
3.40639

>  <SCORE.INTRA.VDW.0>
-4.80338

>  <SCORE.INTRA.norm>
0.00162142

>  <SCORE.RESTR>
6.33351

>  <SCORE.RESTR.CAVITY>
6.33351

>  <SCORE.RESTR.norm>
0.150798

>  <SCORE.SYSTEM>
0

>  <SCORE.SYSTEM.CONST>
0

>  <SCORE.SYSTEM.DIHEDRAL>
0

>  <SCORE.SYSTEM.SOLV>
0

>  <SCORE.SYSTEM.norm>
0

>  <SCORE.heavy>
42

>  <SCORE.norm>
0.741138

>  <RMSD>
9.526

$$$$

 OpenBabel11021811393D
libRbt.so/2013.1/901 2013/11/27
 42 45  0  0  0  0  0  0  0  0999 V2000
   -6.5335    2.0952   -0.8643 C   0  0  2  0  0  0  0  0  0  0  0  0
   -7.9925    2.0320   -0.8337 O   0  0  0  0  0  0  0  0  0  0  0  0
   -5.9632    2.8401    0.3863 C   0  0  2  0  0  0  0  0  0  0  0  0
   -6.9835    2.9831    1.4500 N   0  3  0  0  0  0  0  0  0  0  0  0
   -5.3934    4.2338   -0.0159 C   0  0  1  0  0  0  0  0  0  0  0  0
   -4.8672    4.8990    1.1305 O   0  0  0  0  0  0  0  0  0  0  0  0
   -4.2653    4.1116   -1.0750 C   0  0  2  0  0  0  0  0  0  0  0  0
   -3.9953    5.4041   -1.6063 O   0  0  0  0  0  0  0  0  0  0  0  0
   -4.6704    3.1335   -2.2251 C   0  0  2  0  0  0  0  0  0  0  0  0
   -6.0801    2.7582   -2.0940 O   0  0  0  0  0  0  0  0  0  0  0  0
   -3.8668    1.8132   -2.2572 C   0  0  0  0  0  0  0  0  0  0  0  0
   -8.4671    2.1816   -5.1200 C   0  0  1  0  0  0  0  0  0  0  0  0
   -9.0391    2.1286   -6.4840 N   0  3  0  0  0  0  0  0  0  0  0  0
   -9.0194    3.3888   -4.3177 C   0  0  1  0  0  0  0  0  0  0  0  0
   -8.5648    3.4117   -2.8168 C   0  0  1  0  0  0  0  0  0  0  0  0
   -9.3890    4.3754   -2.1076 O   0  0  0  0  0  0  0  0  0  0  0  0
   -8.7295    2.0240   -2.0948 C   0  0  1  0  0  0  0  0  0  0  0  0
   -8.1825    0.8440   -2.9616 C   0  0  1  0  0  0  0  0  0  0  0  0
   -8.4700   -0.4708   -2.3530 N   0  3  0  0  0  0  0  0  0  0  0  0
   -8.7736    0.8577   -4.3893 C   0  0  0  0  0  0  0  0  0  0  0  0
  -10.8245    4.4123   -2.3542 C   0  0  1  0  0  0  0  0  0  0  0  0
  -11.5402    3.8244   -1.1438 C   0  0  1  0  0  0  0  0  0  0  0  0
  -11.5135    5.0261   -0.2092 C   0  0  1  0  0  0  0  0  0  0  0  0
  -11.8250    6.1777   -1.1756 C   0  0  2  0  0  0  0  0  0  0  0  0
  -11.2716    5.7745   -2.4511 O   0  0  0  0  0  0  0  0  0  0  0  0
  -11.2125    7.5184   -0.7321 C   0  0  0  0  0  0  0  0  0  0  0  0
  -15.6523    6.7874    2.0217 C   0  0  1  0  0  0  0  0  0  0  0  0
  -15.0115    5.5685    2.7422 C   0  0  1  0  0  0  0  0  0  0  0  0
  -13.4826    5.7108    2.9934 C   0  0  2  0  0  0  0  0  0  0  0  0
  -12.7265    6.0832    1.6775 C   0  0  1  0  0  0  0  0  0  0  0  0
  -12.5185    4.9115    0.8389 O   0  0  0  0  0  0  0  0  0  0  0  0
  -14.5604    7.8120    1.5879 C   0  0  1  0  0  0  0  0  0  0  0  0
  -13.4695    7.1082    0.9087 O   0  0  0  0  0  0  0  0  0  0  0  0
  -15.1200    8.9128    0.6504 C   0  0  0  0  0  0  0  0  0  0  0  0
   -4.1776    0.9383   -3.4014 N   0  3  0  0  0  0  0  0  0  0  0  0
  -12.8762    3.4672   -1.4991 O   0  0  0  0  0  0  0  0  0  0  0  0
  -15.6647    5.3948    3.9990 O   0  0  0  0  0  0  0  0  0  0  0  0
  -16.3646    6.3125    0.8772 O   0  0  0  0  0  0  0  0  0  0  0  0
  -11.5394    8.5505   -1.6467 O   0  0  0  0  0  0  0  0  0  0  0  0
   -8.5821    4.5946   -4.9440 O   0  0  0  0  0  0  0  0  0  0  0  0
  -14.2506   10.1015    0.5788 N   0  3  0  0  0  0  0  0  0  0  0  0
  -12.9262    4.5013    3.6489 N   0  3  0  0  0  0  0  0  0  0  0  0
  1  2  1  1  0  0  0
  1  3  1  0  0  0  0
  1 10  1  0  0  0  0
  3  4  1  1  0  0  0
  3  5  1  0  0  0  0
  5  6  1  1  0  0  0
  5  7  1  0  0  0  0
  7  8  1  6  0  0  0
  7  9  1  0  0  0  0
  9 10  1  0  0  0  0
  9 11  1  1  0  0  0
 11 35  1  0  0  0  0
 12 13  1  6  0  0  0
 12 14  1  0  0  0  0
 12 20  1  0  0  0  0
 14 15  1  0  0  0  0
 14 40  1  6  0  0  0
 15 16  1  1  0  0  0
 15 17  1  0  0  0  0
 17  2  1  1  0  0  0
 17 18  1  0  0  0  0
 18 19  1  1  0  0  0
 18 20  1  0  0  0  0
 21 16  1  1  0  0  0
 21 22  1  0  0  0  0
 21 25  1  0  0  0  0
 22 23  1  0  0  0  0
 22 36  1  6  0  0  0
 23 24  1  0  0  0  0
 23 31  1  1  0  0  0
 24 25  1  0  0  0  0
 24 26  1  1  0  0  0
 26 39  1  0  0  0  0
 27 28  1  0  0  0  0
 27 32  1  0  0  0  0
 27 38  1  6  0  0  0
 28 29  1  0  0  0  0
 28 37  1  1  0  0  0
 29 30  1  0  0  0  0
 29 42  1  6  0  0  0
 30 31  1  6  0  0  0
 30 33  1  0  0  0  0
 32 33  1  0  0  0  0
 32 34  1  6  0  0  0
 34 41  1  0  0  0  0
M  CHG  6   4   1  13   1  19   1  35   1  41   1  42   1
M  END
>  <CHROM.1>
149.25718917,-67.32318583,163.75313260,-63.44029241,66.55334773,-175.54133996
57.33377144,81.59093148,178.53047987,43.32350372,107.00381011,47.92418537
175.76036319,-171.26412616,-179.36528754,58.05341748,60.66896471,-64.61890800
147.73892514,-162.87039416,161.58563921,-178.38003651,-9.92870071,4.40879836
-0.88957857,-0.55868096,-0.29446467,1.16906050

>  <Name>


>  <RI>
0

>  <Rbt.Current_Directory>
/home/itssahil/PROJECTS/Mol_Feturizer/New_Systems/rnas/1ei2

>  <Rbt.Executable>
rbdock ($Id: //depot/dev/client3/rdock/2013.1/src/exe/rbdock.cxx#4 $)

>  <Rbt.Library>
libRbt.so (2013.1, Build901 2013/11/27)

>  <Rbt.Parameter_File>
/export/apps/rDock/src/rDock_2013.1_src/data/scripts/dock_solv.prm

>  <Rbt.Receptor>
prm/pocket_docking_6.prm

>  <SCORE>
-45.242

>  <SCORE.INTER>
-26.9224

>  <SCORE.INTER.CONST>
1

>  <SCORE.INTER.POLAR>
-4.49888

>  <SCORE.INTER.ROT>
9

>  <SCORE.INTER.SOLV>
26.6305

>  <SCORE.INTER.VDW>
-21.4288

>  <SCORE.INTER.norm>
-0.641008

>  <SCORE.INTRA>
-18.3212

>  <SCORE.INTRA.DIHEDRAL>
-21.1738

>  <SCORE.INTRA.DIHEDRAL.0>
40.8761

>  <SCORE.INTRA.POLAR>
0.0268208

>  <SCORE.INTRA.POLAR.0>
-0.0268208

>  <SCORE.INTRA.REPUL>
-0.641615

>  <SCORE.INTRA.REPUL.0>
0.641615

>  <SCORE.INTRA.SOLV>
-12.6793

>  <SCORE.INTRA.SOLV.lig_0>
-162.567

>  <SCORE.INTRA.VDW>
1.72228

>  <SCORE.INTRA.VDW.0>
-4.80338

>  <SCORE.INTRA.norm>
-0.436218

>  <SCORE.RESTR>
0.00152393

>  <SCORE.RESTR.CAVITY>
0.00152393

>  <SCORE.RESTR.norm>
3.62841e-05

>  <SCORE.SYSTEM>
0

>  <SCORE.SYSTEM.CONST>
0

>  <SCORE.SYSTEM.DIHEDRAL>
0

>  <SCORE.SYSTEM.SOLV>
0

>  <SCORE.SYSTEM.norm>
0

>  <SCORE.heavy>
42

>  <SCORE.norm>
-1.07719

>  <RMSD>
9.545

$$$$

 OpenBabel11021811393D
libRbt.so/2013.1/901 2013/11/27
 42 45  0  0  0  0  0  0  0  0999 V2000
   -3.3171   -1.8267   -6.3567 C   0  0  2  0  0  0  0  0  0  0  0  0
   -4.4140   -0.8766   -6.1900 O   0  0  0  0  0  0  0  0  0  0  0  0
   -2.6899   -1.7371   -7.7859 C   0  0  2  0  0  0  0  0  0  0  0  0
   -3.1050   -0.5014   -8.4887 N   0  3  0  0  0  0  0  0  0  0  0  0
   -3.0584   -2.9953   -8.6284 C   0  0  1  0  0  0  0  0  0  0  0  0
   -2.4726   -2.9070   -9.9255 O   0  0  0  0  0  0  0  0  0  0  0  0
   -2.5668   -4.3044   -7.9545 C   0  0  2  0  0  0  0  0  0  0  0  0
   -3.1768   -5.4118   -8.6081 O   0  0  0  0  0  0  0  0  0  0  0  0
   -2.9150   -4.3234   -6.4308 C   0  0  2  0  0  0  0  0  0  0  0  0
   -3.7869   -3.1942   -6.0992 O   0  0  0  0  0  0  0  0  0  0  0  0
   -1.6910   -4.2222   -5.4918 C   0  0  0  0  0  0  0  0  0  0  0  0
   -2.6420    3.0431   -5.8500 C   0  0  1  0  0  0  0  0  0  0  0  0
   -2.3096    4.4123   -5.3970 N   0  3  0  0  0  0  0  0  0  0  0  0
   -2.1659    1.9750   -4.8308 C   0  0  1  0  0  0  0  0  0  0  0  0
   -2.6225    0.5166   -5.1836 C   0  0  1  0  0  0  0  0  0  0  0  0
   -2.4057   -0.3215   -4.0168 O   0  0  0  0  0  0  0  0  0  0  0  0
   -4.1453    0.4155   -5.5643 C   0  0  1  0  0  0  0  0  0  0  0  0
   -4.5732    1.5328   -6.5700 C   0  0  1  0  0  0  0  0  0  0  0  0
   -6.0302    1.5318   -6.8130 N   0  3  0  0  0  0  0  0  0  0  0  0
   -4.1648    2.9385   -6.0750 C   0  0  0  0  0  0  0  0  0  0  0  0
   -2.6373    0.2254   -2.6864 C   0  0  1  0  0  0  0  0  0  0  0  0
   -4.1191    0.5535   -2.5476 C   0  0  1  0  0  0  0  0  0  0  0  0
   -4.6712   -0.8324   -2.2427 C   0  0  1  0  0  0  0  0  0  0  0  0
   -3.6080   -1.3856   -1.2830 C   0  0  2  0  0  0  0  0  0  0  0  0
   -2.3613   -0.7726   -1.6899 O   0  0  0  0  0  0  0  0  0  0  0  0
   -3.4872   -2.9191   -1.3375 C   0  0  0  0  0  0  0  0  0  0  0  0
   -9.6788   -1.3291   -0.7444 C   0  0  1  0  0  0  0  0  0  0  0  0
   -9.1276   -0.1425   -1.5832 C   0  0  1  0  0  0  0  0  0  0  0  0
   -8.1926   -0.5704   -2.7510 C   0  0  2  0  0  0  0  0  0  0  0  0
   -7.0549   -1.5153   -2.2461 C   0  0  1  0  0  0  0  0  0  0  0  0
   -5.9832   -0.7596   -1.6140 O   0  0  0  0  0  0  0  0  0  0  0  0
   -9.0330   -2.6743   -1.1955 C   0  0  1  0  0  0  0  0  0  0  0  0
   -7.5795   -2.5144   -1.2868 O   0  0  0  0  0  0  0  0  0  0  0  0
   -9.3588   -3.8417   -0.2285 C   0  0  0  0  0  0  0  0  0  0  0  0
   -1.9051   -4.7885   -4.1483 N   0  3  0  0  0  0  0  0  0  0  0  0
   -4.3153    1.4477   -1.4519 O   0  0  0  0  0  0  0  0  0  0  0  0
  -10.2342    0.5762   -2.1265 O   0  0  0  0  0  0  0  0  0  0  0  0
   -9.3895   -1.0815    0.6333 O   0  0  0  0  0  0  0  0  0  0  0  0
   -2.3421   -3.3099   -2.0755 O   0  0  0  0  0  0  0  0  0  0  0  0
   -0.7401    2.0031   -4.7693 O   0  0  0  0  0  0  0  0  0  0  0  0
   -9.5808   -5.1207   -0.9277 N   0  3  0  0  0  0  0  0  0  0  0  0
   -7.6716    0.6078   -3.4876 N   0  3  0  0  0  0  0  0  0  0  0  0
  1  2  1  6  0  0  0
  1  3  1  0  0  0  0
  1 10  1  0  0  0  0
  3  4  1  6  0  0  0
  3  5  1  0  0  0  0
  5  6  1  6  0  0  0
  5  7  1  0  0  0  0
  7  8  1  6  0  0  0
  7  9  1  0  0  0  0
  9 10  1  0  0  0  0
  9 11  1  1  0  0  0
 11 35  1  0  0  0  0
 12 13  1  1  0  0  0
 12 14  1  0  0  0  0
 12 20  1  0  0  0  0
 14 15  1  0  0  0  0
 14 40  1  6  0  0  0
 15 16  1  1  0  0  0
 15 17  1  0  0  0  0
 17  2  1  6  0  0  0
 17 18  1  0  0  0  0
 18 19  1  1  0  0  0
 18 20  1  0  0  0  0
 21 16  1  6  0  0  0
 21 22  1  0  0  0  0
 21 25  1  0  0  0  0
 22 23  1  0  0  0  0
 22 36  1  1  0  0  0
 23 24  1  0  0  0  0
 23 31  1  1  0  0  0
 24 25  1  0  0  0  0
 24 26  1  6  0  0  0
 26 39  1  0  0  0  0
 27 28  1  0  0  0  0
 27 32  1  0  0  0  0
 27 38  1  1  0  0  0
 28 29  1  0  0  0  0
 28 37  1  6  0  0  0
 29 30  1  0  0  0  0
 29 42  1  1  0  0  0
 30 31  1  1  0  0  0
 30 33  1  0  0  0  0
 32 33  1  0  0  0  0
 32 34  1  1  0  0  0
 34 41  1  0  0  0  0
M  CHG  6   4   1  13   1  19   1  35   1  41   1  42   1
M  END
>  <CHROM.1>
-96.22248880,0.30168464,-46.15132503,56.20476046,49.01411275,-155.56086167
-81.00046203,163.06910935,178.98781463,36.74739877,64.64622449,49.89042885
-178.69787781,125.90767293,103.03335666,156.59685431,55.25285264,177.54566894
-91.92985917,-117.43386586,142.42879393,-32.76550163,-4.70460316,-1.06291264
-4.14416733,0.07321482,-0.78655543,-2.97041376

>  <Name>


>  <RI>
0

>  <Rbt.Current_Directory>
/home/itssahil/PROJECTS/Mol_Feturizer/New_Systems/rnas/1ei2

>  <Rbt.Executable>
rbdock ($Id: //depot/dev/client3/rdock/2013.1/src/exe/rbdock.cxx#4 $)

>  <Rbt.Library>
libRbt.so (2013.1, Build901 2013/11/27)

>  <Rbt.Parameter_File>
/export/apps/rDock/src/rDock_2013.1_src/data/scripts/dock_solv.prm

>  <Rbt.Receptor>
prm/blind_docking_20.prm

>  <SCORE>
-16.8036

>  <SCORE.INTER>
-24.119

>  <SCORE.INTER.CONST>
1

>  <SCORE.INTER.POLAR>
-6.36206

>  <SCORE.INTER.ROT>
9

>  <SCORE.INTER.SOLV>
46.9546

>  <SCORE.INTER.VDW>
-20.124

>  <SCORE.INTER.norm>
-0.574262

>  <SCORE.INTRA>
-1.63123

>  <SCORE.INTRA.DIHEDRAL>
6.89371

>  <SCORE.INTRA.DIHEDRAL.0>
40.8761

>  <SCORE.INTRA.POLAR>
-0.904714

>  <SCORE.INTRA.POLAR.0>
-0.0268208

>  <SCORE.INTRA.REPUL>
-0.435009

>  <SCORE.INTRA.REPUL.0>
0.641615

>  <SCORE.INTRA.SOLV>
-2.19239

>  <SCORE.INTRA.SOLV.lig_0>
-162.567

>  <SCORE.INTRA.VDW>
1.26918

>  <SCORE.INTRA.VDW.0>
-4.80338

>  <SCORE.INTRA.norm>
-0.0388389

>  <SCORE.RESTR>
8.94669

>  <SCORE.RESTR.CAVITY>
8.94669

>  <SCORE.RESTR.norm>
0.213016

>  <SCORE.SYSTEM>
0

>  <SCORE.SYSTEM.CONST>
0

>  <SCORE.SYSTEM.DIHEDRAL>
0

>  <SCORE.SYSTEM.SOLV>
0

>  <SCORE.SYSTEM.norm>
0

>  <SCORE.heavy>
42

>  <SCORE.norm>
-0.400085

>  <RMSD>
9.561

$$$$

 OpenBabel11021811393D
libRbt.so/2013.1/901 2013/11/27
 42 45  0  0  0  0  0  0  0  0999 V2000
   -3.4952    1.2869   -4.4531 C   0  0  2  0  0  0  0  0  0  0  0  0
   -4.6461    0.7842   -5.1989 O   0  0  0  0  0  0  0  0  0  0  0  0
   -3.2838    2.8186   -4.6839 C   0  0  2  0  0  0  0  0  0  0  0  0
   -4.4754    3.4486   -5.2974 N   0  3  0  0  0  0  0  0  0  0  0  0
   -2.0192    3.0738   -5.5583 C   0  0  1  0  0  0  0  0  0  0  0  0
   -1.8311    4.4738   -5.7534 O   0  0  0  0  0  0  0  0  0  0  0  0
   -0.7382    2.4918   -4.9028 C   0  0  2  0  0  0  0  0  0  0  0  0
    0.3104    2.4973   -5.8651 O   0  0  0  0  0  0  0  0  0  0  0  0
   -0.9785    1.0382   -4.3806 C   0  0  2  0  0  0  0  0  0  0  0  0
   -2.2831    0.5496   -4.8330 O   0  0  0  0  0  0  0  0  0  0  0  0
   -0.9690    0.9000   -2.8408 C   0  0  0  0  0  0  0  0  0  0  0  0
   -6.7188   -0.9533   -1.8367 C   0  0  1  0  0  0  0  0  0  0  0  0
   -7.6621   -1.7319   -1.0033 N   0  3  0  0  0  0  0  0  0  0  0  0
   -5.7365   -1.8793   -2.6008 C   0  0  1  0  0  0  0  0  0  0  0  0
   -4.8117   -1.1204   -3.6150 C   0  0  1  0  0  0  0  0  0  0  0  0
   -4.1870   -2.1039   -4.4830 O   0  0  0  0  0  0  0  0  0  0  0  0
   -5.5914   -0.1065   -4.5306 C   0  0  1  0  0  0  0  0  0  0  0  0
   -6.5854    0.7783   -3.7109 C   0  0  1  0  0  0  0  0  0  0  0  0
   -7.4239    1.6248   -4.5840 N   0  3  0  0  0  0  0  0  0  0  0  0
   -7.5178   -0.0766   -2.8234 C   0  0  0  0  0  0  0  0  0  0  0  0
   -3.1361   -2.9638   -3.9549 C   0  0  1  0  0  0  0  0  0  0  0  0
   -3.4986   -4.4134   -4.2551 C   0  0  1  0  0  0  0  0  0  0  0  0
   -3.0550   -4.5031   -5.7089 C   0  0  1  0  0  0  0  0  0  0  0  0
   -1.7353   -3.7191   -5.6795 C   0  0  2  0  0  0  0  0  0  0  0  0
   -1.9028   -2.7158   -4.6495 O   0  0  0  0  0  0  0  0  0  0  0  0
   -1.4038   -3.0477   -7.0244 C   0  0  0  0  0  0  0  0  0  0  0  0
   -2.6242   -6.5991   -9.8883 C   0  0  1  0  0  0  0  0  0  0  0  0
   -2.2153   -7.5881   -8.7614 C   0  0  1  0  0  0  0  0  0  0  0  0
   -3.3030   -7.7893   -7.6671 C   0  0  2  0  0  0  0  0  0  0  0  0
   -3.7936   -6.4184   -7.1000 C   0  0  1  0  0  0  0  0  0  0  0  0
   -2.8550   -5.8852   -6.1232 O   0  0  0  0  0  0  0  0  0  0  0  0
   -3.9924   -5.9254   -9.5652 C   0  0  1  0  0  0  0  0  0  0  0  0
   -3.9818   -5.4296   -8.1866 O   0  0  0  0  0  0  0  0  0  0  0  0
   -4.3177   -4.7536  -10.5270 C   0  0  0  0  0  0  0  0  0  0  0  0
   -1.4333    2.0975   -2.1186 N   0  3  0  0  0  0  0  0  0  0  0  0
   -2.7355   -5.2849   -3.4203 O   0  0  0  0  0  0  0  0  0  0  0  0
   -1.9287   -8.8534   -9.3559 O   0  0  0  0  0  0  0  0  0  0  0  0
   -1.6032   -5.6063  -10.0106 O   0  0  0  0  0  0  0  0  0  0  0  0
   -2.0396   -3.7224   -8.0964 O   0  0  0  0  0  0  0  0  0  0  0  0
   -4.9124   -2.5562   -1.6521 O   0  0  0  0  0  0  0  0  0  0  0  0
   -5.5457   -4.0284  -10.1527 N   0  3  0  0  0  0  0  0  0  0  0  0
   -2.8374   -8.7136   -6.6036 N   0  3  0  0  0  0  0  0  0  0  0  0
  1  2  1  6  0  0  0
  1  3  1  0  0  0  0
  1 10  1  0  0  0  0
  3  4  1  6  0  0  0
  3  5  1  0  0  0  0
  5  6  1  1  0  0  0
  5  7  1  0  0  0  0
  7  8  1  6  0  0  0
  7  9  1  0  0  0  0
  9 10  1  0  0  0  0
  9 11  1  1  0  0  0
 11 35  1  0  0  0  0
 12 13  1  6  0  0  0
 12 14  1  0  0  0  0
 12 20  1  0  0  0  0
 14 15  1  0  0  0  0
 14 40  1  1  0  0  0
 15 16  1  6  0  0  0
 15 17  1  0  0  0  0
 17  2  1  1  0  0  0
 17 18  1  0  0  0  0
 18 19  1  6  0  0  0
 18 20  1  0  0  0  0
 21 16  1  6  0  0  0
 21 22  1  0  0  0  0
 21 25  1  0  0  0  0
 22 23  1  0  0  0  0
 22 36  1  1  0  0  0
 23 24  1  0  0  0  0
 23 31  1  1  0  0  0
 24 25  1  0  0  0  0
 24 26  1  6  0  0  0
 26 39  1  0  0  0  0
 27 28  1  0  0  0  0
 27 32  1  0  0  0  0
 27 38  1  1  0  0  0
 28 29  1  0  0  0  0
 28 37  1  6  0  0  0
 29 30  1  0  0  0  0
 29 42  1  1  0  0  0
 30 31  1  1  0  0  0
 30 33  1  0  0  0  0
 32 33  1  0  0  0  0
 32 34  1  6  0  0  0
 34 41  1  0  0  0  0
M  CHG  6   4   1  13   1  19   1  35   1  41   1  42   1
M  END
>  <CHROM.1>
-134.89915691,-39.92651977,-54.47770740,50.28153708,-61.83813398,30.31125520
-176.57588986,41.70736692,-56.33937217,-72.48624238,127.51461319,74.34105729
-172.89126660,111.84635768,-24.45901038,-170.45780697,61.89009307,-58.71975168
48.47913677,168.51763729,-174.55061335,-144.13607000,-3.45913135,-2.15192740
-5.57135304,-1.68117099,-0.77464486,-2.73316932

>  <Name>


>  <RI>
0

>  <Rbt.Current_Directory>
/home/itssahil/PROJECTS/Mol_Feturizer/New_Systems/rnas/1ei2

>  <Rbt.Executable>
rbdock ($Id: //depot/dev/client3/rdock/2013.1/src/exe/rbdock.cxx#4 $)

>  <Rbt.Library>
libRbt.so (2013.1, Build901 2013/11/27)

>  <Rbt.Parameter_File>
/export/apps/rDock/src/rDock_2013.1_src/data/scripts/dock_solv.prm

>  <Rbt.Receptor>
prm/blind_docking_20.prm

>  <SCORE>
36.2332

>  <SCORE.INTER>
26.1581

>  <SCORE.INTER.CONST>
1

>  <SCORE.INTER.POLAR>
-3.35711

>  <SCORE.INTER.ROT>
9

>  <SCORE.INTER.SOLV>
41.7107

>  <SCORE.INTER.VDW>
5.12549

>  <SCORE.INTER.norm>
0.622811

>  <SCORE.INTRA>
-7.29238

>  <SCORE.INTRA.DIHEDRAL>
-5.87394

>  <SCORE.INTRA.DIHEDRAL.0>
40.8761

>  <SCORE.INTRA.POLAR>
0.0195394

>  <SCORE.INTRA.POLAR.0>
-0.0268208

>  <SCORE.INTRA.REPUL>
-0.231246

>  <SCORE.INTRA.REPUL.0>
0.641615

>  <SCORE.INTRA.SOLV>
-4.8735

>  <SCORE.INTRA.SOLV.lig_0>
-162.567

>  <SCORE.INTRA.VDW>
-0.828863

>  <SCORE.INTRA.VDW.0>
-4.80338

>  <SCORE.INTRA.norm>
-0.173628

>  <SCORE.RESTR>
17.3675

>  <SCORE.RESTR.CAVITY>
17.3675

>  <SCORE.RESTR.norm>
0.413511

>  <SCORE.SYSTEM>
0

>  <SCORE.SYSTEM.CONST>
0

>  <SCORE.SYSTEM.DIHEDRAL>
0

>  <SCORE.SYSTEM.SOLV>
0

>  <SCORE.SYSTEM.norm>
0

>  <SCORE.heavy>
42

>  <SCORE.norm>
0.862694

>  <RMSD>
9.566

$$$$

 OpenBabel11021811393D
libRbt.so/2013.1/901 2013/11/27
 42 45  0  0  0  0  0  0  0  0999 V2000
   -3.3086   -1.4575   -6.7062 C   0  0  2  0  0  0  0  0  0  0  0  0
   -4.4667   -0.5949   -6.4859 O   0  0  0  0  0  0  0  0  0  0  0  0
   -2.6464   -1.1884   -8.0965 C   0  0  2  0  0  0  0  0  0  0  0  0
   -3.1164    0.0849   -8.6888 N   0  3  0  0  0  0  0  0  0  0  0  0
   -2.9114   -2.3754   -9.0711 C   0  0  1  0  0  0  0  0  0  0  0  0
   -2.2944   -2.1233  -10.3317 O   0  0  0  0  0  0  0  0  0  0  0  0
   -2.3598   -3.7143   -8.5121 C   0  0  2  0  0  0  0  0  0  0  0  0
   -2.8807   -4.7845   -9.2926 O   0  0  0  0  0  0  0  0  0  0  0  0
   -2.7508   -3.9063   -7.0109 C   0  0  2  0  0  0  0  0  0  0  0  0
   -3.7003   -2.8691   -6.6010 O   0  0  0  0  0  0  0  0  0  0  0  0
   -1.5635   -3.8281   -6.0237 C   0  0  0  0  0  0  0  0  0  0  0  0
   -2.9503    3.3520   -5.6243 C   0  0  1  0  0  0  0  0  0  0  0  0
   -2.7198    4.6763   -5.0050 N   0  3  0  0  0  0  0  0  0  0  0  0
   -2.4516    2.2019   -4.7107 C   0  0  1  0  0  0  0  0  0  0  0  0
   -2.8046    0.7707   -5.2464 C   0  0  1  0  0  0  0  0  0  0  0  0
   -2.5845   -0.1828   -4.1725 O   0  0  0  0  0  0  0  0  0  0  0  0
   -4.3020    0.6296   -5.7068 C   0  0  1  0  0  0  0  0  0  0  0  0
   -4.7561    1.8297   -6.5993 C   0  0  1  0  0  0  0  0  0  0  0  0
   -6.1994    1.7757   -6.9088 N   0  3  0  0  0  0  0  0  0  0  0  0
   -4.4537    3.1896   -5.9306 C   0  0  0  0  0  0  0  0  0  0  0  0
   -2.7472    0.2434   -2.7888 C   0  0  1  0  0  0  0  0  0  0  0  0
   -4.2231    0.5306   -2.5397 C   0  0  1  0  0  0  0  0  0  0  0  0
   -4.7376   -0.8865   -2.3260 C   0  0  1  0  0  0  0  0  0  0  0  0
   -3.6139   -1.5001   -1.4787 C   0  0  2  0  0  0  0  0  0  0  0  0
   -2.4010   -0.8312   -1.8997 O   0  0  0  0  0  0  0  0  0  0  0  0
   -3.4752   -3.0207   -1.6728 C   0  0  0  0  0  0  0  0  0  0  0  0
   -9.7107   -1.3964   -0.7227 C   0  0  1  0  0  0  0  0  0  0  0  0
   -9.1438   -0.2142   -1.5571 C   0  0  1  0  0  0  0  0  0  0  0  0
   -8.2278   -0.6509   -2.7366 C   0  0  2  0  0  0  0  0  0  0  0  0
   -7.1045   -1.6219   -2.2496 C   0  0  1  0  0  0  0  0  0  0  0  0
   -6.0125   -0.8925   -1.6213 O   0  0  0  0  0  0  0  0  0  0  0  0
   -9.0956   -2.7504   -1.1903 C   0  0  1  0  0  0  0  0  0  0  0  0
   -7.6401   -2.6183   -1.2935 O   0  0  0  0  0  0  0  0  0  0  0  0
   -9.4357   -3.9189   -0.2296 C   0  0  0  0  0  0  0  0  0  0  0  0
   -1.8331   -4.4140   -4.6988 N   0  3  0  0  0  0  0  0  0  0  0  0
   -4.3688    1.3235   -1.3613 O   0  0  0  0  0  0  0  0  0  0  0  0
  -10.2408    0.5305   -2.0847 O   0  0  0  0  0  0  0  0  0  0  0  0
   -9.4043   -1.1656    0.6542 O   0  0  0  0  0  0  0  0  0  0  0  0
   -3.6255   -3.3718   -3.0377 O   0  0  0  0  0  0  0  0  0  0  0  0
   -1.0338    2.3019   -4.5798 O   0  0  0  0  0  0  0  0  0  0  0  0
   -9.6210   -5.2025   -0.9309 N   0  3  0  0  0  0  0  0  0  0  0  0
   -7.6902    0.5227   -3.4686 N   0  3  0  0  0  0  0  0  0  0  0  0
  1  2  1  6  0  0  0
  1  3  1  0  0  0  0
  1 10  1  0  0  0  0
  3  4  1  6  0  0  0
  3  5  1  0  0  0  0
  5  6  1  6  0  0  0
  5  7  1  0  0  0  0
  7  8  1  6  0  0  0
  7  9  1  0  0  0  0
  9 10  1  0  0  0  0
  9 11  1  1  0  0  0
 11 35  1  0  0  0  0
 12 13  1  1  0  0  0
 12 14  1  0  0  0  0
 12 20  1  0  0  0  0
 14 15  1  0  0  0  0
 14 40  1  6  0  0  0
 15 16  1  1  0  0  0
 15 17  1  0  0  0  0
 17  2  1  6  0  0  0
 17 18  1  0  0  0  0
 18 19  1  1  0  0  0
 18 20  1  0  0  0  0
 21 16  1  6  0  0  0
 21 22  1  0  0  0  0
 21 25  1  0  0  0  0
 22 23  1  0  0  0  0
 22 36  1  1  0  0  0
 23 24  1  0  0  0  0
 23 31  1  1  0  0  0
 24 25  1  0  0  0  0
 24 26  1  6  0  0  0
 26 39  1  0  0  0  0
 27 28  1  0  0  0  0
 27 32  1  0  0  0  0
 27 38  1  1  0  0  0
 28 29  1  0  0  0  0
 28 37  1  6  0  0  0
 29 30  1  0  0  0  0
 29 42  1  1  0  0  0
 30 31  1  1  0  0  0
 30 33  1  0  0  0  0
 32 33  1  0  0  0  0
 32 34  1  1  0  0  0
 34 41  1  0  0  0  0
M  CHG  6   4   1  13   1  19   1  35   1  41   1  42   1
M  END
>  <CHROM.1>
-97.30537174,0.34524512,-38.45606838,-72.09733165,-166.47016927,-161.70206153
157.65433288,-119.05037240,65.61569073,29.37441370,68.17518392,-41.02562761
-131.51292884,126.48461440,40.93116222,-165.59294452,79.61672443,-179.29771081
166.07794005,-112.06731548,145.37361088,88.29900608,-4.79004800,-0.89757495
-4.29940684,0.05942190,-0.82702719,-2.94129217

>  <Name>


>  <RI>
0

>  <Rbt.Current_Directory>
/home/itssahil/PROJECTS/Mol_Feturizer/New_Systems/rnas/1ei2

>  <Rbt.Executable>
rbdock ($Id: //depot/dev/client3/rdock/2013.1/src/exe/rbdock.cxx#4 $)

>  <Rbt.Library>
libRbt.so (2013.1, Build901 2013/11/27)

>  <Rbt.Parameter_File>
/export/apps/rDock/src/rDock_2013.1_src/data/scripts/dock_solv.prm

>  <Rbt.Receptor>
prm/blind_docking_60.prm

>  <SCORE>
-14.3427

>  <SCORE.INTER>
-25.0272

>  <SCORE.INTER.CONST>
1

>  <SCORE.INTER.POLAR>
-5.49438

>  <SCORE.INTER.ROT>
9

>  <SCORE.INTER.SOLV>
43.213

>  <SCORE.INTER.VDW>
-22.3746

>  <SCORE.INTER.norm>
-0.595887

>  <SCORE.INTRA>
2.14621

>  <SCORE.INTRA.DIHEDRAL>
14.4358

>  <SCORE.INTRA.DIHEDRAL.0>
40.8761

>  <SCORE.INTRA.POLAR>
-1.52115

>  <SCORE.INTRA.POLAR.0>
-0.0268208

>  <SCORE.INTRA.REPUL>
-0.462609

>  <SCORE.INTRA.REPUL.0>
0.641615

>  <SCORE.INTRA.SOLV>
-1.56999

>  <SCORE.INTRA.SOLV.lig_0>
-162.567

>  <SCORE.INTRA.VDW>
3.19826

>  <SCORE.INTRA.VDW.0>
-4.80338

>  <SCORE.INTRA.norm>
0.0511001

>  <SCORE.RESTR>
8.53837

>  <SCORE.RESTR.CAVITY>
8.53837

>  <SCORE.RESTR.norm>
0.203294

>  <SCORE.SYSTEM>
0

>  <SCORE.SYSTEM.CONST>
0

>  <SCORE.SYSTEM.DIHEDRAL>
0

>  <SCORE.SYSTEM.SOLV>
0

>  <SCORE.SYSTEM.norm>
0

>  <SCORE.heavy>
42

>  <SCORE.norm>
-0.341492

>  <RMSD>
9.570

$$$$

 OpenBabel11021811393D
libRbt.so/2013.1/901 2013/11/27
 42 45  0  0  0  0  0  0  0  0999 V2000
   -3.1721   -0.7475   -7.1473 C   0  0  2  0  0  0  0  0  0  0  0  0
   -4.2178    0.2702   -7.2154 O   0  0  0  0  0  0  0  0  0  0  0  0
   -2.7943   -1.2807   -8.5675 C   0  0  2  0  0  0  0  0  0  0  0  0
   -3.3123   -0.3987   -9.6384 N   0  3  0  0  0  0  0  0  0  0  0  0
   -3.3094   -2.7385   -8.7629 C   0  0  1  0  0  0  0  0  0  0  0  0
   -2.9501   -3.2173  -10.0572 O   0  0  0  0  0  0  0  0  0  0  0  0
   -2.7214   -3.7049   -7.7000 C   0  0  2  0  0  0  0  0  0  0  0  0
   -3.4416   -4.9315   -7.7495 O   0  0  0  0  0  0  0  0  0  0  0  0
   -2.8078   -3.0906   -6.2652 C   0  0  2  0  0  0  0  0  0  0  0  0
   -3.6024   -1.8605   -6.2910 O   0  0  0  0  0  0  0  0  0  0  0  0
   -1.4422   -2.7169   -5.6441 C   0  0  0  0  0  0  0  0  0  0  0  0
   -2.6972    3.8070   -5.2665 C   0  0  1  0  0  0  0  0  0  0  0  0
   -2.5640    5.0008   -4.4018 N   0  3  0  0  0  0  0  0  0  0  0  0
   -2.6889    2.4979   -4.4345 C   0  0  1  0  0  0  0  0  0  0  0  0
   -2.9773    1.2092   -5.2807 C   0  0  1  0  0  0  0  0  0  0  0  0
   -3.2636    0.1190   -4.3639 O   0  0  0  0  0  0  0  0  0  0  0  0
   -4.2139    1.3586   -6.2413 C   0  0  1  0  0  0  0  0  0  0  0  0
   -4.1832    2.7074   -7.0304 C   0  0  1  0  0  0  0  0  0  0  0  0
   -5.4146    2.9167   -7.8188 N   0  3  0  0  0  0  0  0  0  0  0  0
   -3.9972    3.9192   -6.0898 C   0  0  0  0  0  0  0  0  0  0  0  0
   -3.3002    0.3766   -2.9304 C   0  0  1  0  0  0  0  0  0  0  0  0
   -4.7543    0.5388   -2.5034 C   0  0  1  0  0  0  0  0  0  0  0  0
   -5.1683   -0.9233   -2.4079 C   0  0  1  0  0  0  0  0  0  0  0  0
   -3.9302   -1.5542   -1.7549 C   0  0  2  0  0  0  0  0  0  0  0  0
   -2.8057   -0.7660   -2.2129 O   0  0  0  0  0  0  0  0  0  0  0  0
   -3.7336   -3.0316   -2.1395 C   0  0  0  0  0  0  0  0  0  0  0  0
   -9.9248   -1.8878   -0.4079 C   0  0  1  0  0  0  0  0  0  0  0  0
   -9.3538   -0.4603   -0.6349 C   0  0  1  0  0  0  0  0  0  0  0  0
   -8.6693   -0.2625   -2.0182 C   0  0  2  0  0  0  0  0  0  0  0  0
   -7.6035   -1.3738   -2.2848 C   0  0  1  0  0  0  0  0  0  0  0  0
   -6.3589   -1.0899   -1.5852 O   0  0  0  0  0  0  0  0  0  0  0  0
   -9.5372   -2.8337   -1.5849 C   0  0  1  0  0  0  0  0  0  0  0  0
   -8.1056   -2.7035   -1.8679 O   0  0  0  0  0  0  0  0  0  0  0  0
   -9.8655   -4.3189   -1.2842 C   0  0  0  0  0  0  0  0  0  0  0  0
   -0.7333   -1.6289   -6.3404 N   0  3  0  0  0  0  0  0  0  0  0  0
   -4.8150    1.1842   -1.2313 O   0  0  0  0  0  0  0  0  0  0  0  0
  -10.4247    0.4758   -0.5195 O   0  0  0  0  0  0  0  0  0  0  0  0
   -9.4019   -2.3931    0.8227 O   0  0  0  0  0  0  0  0  0  0  0  0
   -4.4326   -3.3405   -3.3331 O   0  0  0  0  0  0  0  0  0  0  0  0
   -1.4117    2.3576   -3.8128 O   0  0  0  0  0  0  0  0  0  0  0  0
   -8.9725   -4.9098   -0.2706 N   0  3  0  0  0  0  0  0  0  0  0  0
   -8.1137    1.1065   -2.1571 N   0  3  0  0  0  0  0  0  0  0  0  0
  1  2  1  6  0  0  0
  1  3  1  0  0  0  0
  1 10  1  0  0  0  0
  3  4  1  6  0  0  0
  3  5  1  0  0  0  0
  5  6  1  6  0  0  0
  5  7  1  0  0  0  0
  7  8  1  1  0  0  0
  7  9  1  0  0  0  0
  9 10  1  0  0  0  0
  9 11  1  6  0  0  0
 11 35  1  0  0  0  0
 12 13  1  1  0  0  0
 12 14  1  0  0  0  0
 12 20  1  0  0  0  0
 14 15  1  0  0  0  0
 14 40  1  6  0  0  0
 15 16  1  1  0  0  0
 15 17  1  0  0  0  0
 17  2  1  6  0  0  0
 17 18  1  0  0  0  0
 18 19  1  1  0  0  0
 18 20  1  0  0  0  0
 21 16  1  6  0  0  0
 21 22  1  0  0  0  0
 21 25  1  0  0  0  0
 22 23  1  0  0  0  0
 22 36  1  1  0  0  0
 23 24  1  0  0  0  0
 23 31  1  1  0  0  0
 24 25  1  0  0  0  0
 24 26  1  6  0  0  0
 26 39  1  0  0  0  0
 27 28  1  0  0  0  0
 27 32  1  0  0  0  0
 27 38  1  1  0  0  0
 28 29  1  0  0  0  0
 28 37  1  6  0  0  0
 29 30  1  0  0  0  0
 29 42  1  1  0  0  0
 30 31  1  1  0  0  0
 30 33  1  0  0  0  0
 32 33  1  0  0  0  0
 32 34  1  1  0  0  0
 34 41  1  0  0  0  0
M  CHG  6   4   1  13   1  19   1  35   1  41   1  42   1
M  END
>  <CHROM.1>
-146.85837523,1.41919149,-69.97928564,-162.79644536,93.44579805,65.64196180
80.42907691,160.56479394,89.78154759,2.70587993,98.91968123,-172.54901094
-168.99512660,105.67010609,20.41382952,94.49235079,164.42423361,52.85817376
-81.32250142,-119.46206869,-71.22736783,0.65216088,-4.93930320,-0.68140723
-4.24405062,0.03630827,-0.84052356,-2.83824682

>  <Name>


>  <RI>
0

>  <Rbt.Current_Directory>
/home/itssahil/PROJECTS/Mol_Feturizer/New_Systems/rnas/1ei2

>  <Rbt.Executable>
rbdock ($Id: //depot/dev/client3/rdock/2013.1/src/exe/rbdock.cxx#4 $)

>  <Rbt.Library>
libRbt.so (2013.1, Build901 2013/11/27)

>  <Rbt.Parameter_File>
/export/apps/rDock/src/rDock_2013.1_src/data/scripts/dock_solv.prm

>  <Rbt.Receptor>
prm/blind_docking_40.prm

>  <SCORE>
14.0204

>  <SCORE.INTER>
-8.73006

>  <SCORE.INTER.CONST>
1

>  <SCORE.INTER.POLAR>
-4.33444

>  <SCORE.INTER.ROT>
9

>  <SCORE.INTER.SOLV>
37.8823

>  <SCORE.INTER.VDW>
-13.5993

>  <SCORE.INTER.norm>
-0.207859

>  <SCORE.INTRA>
12.5046

>  <SCORE.INTRA.DIHEDRAL>
23.2683

>  <SCORE.INTRA.DIHEDRAL.0>
40.8761

>  <SCORE.INTRA.POLAR>
-0.0489477

>  <SCORE.INTRA.POLAR.0>
-0.0268208

>  <SCORE.INTRA.REPUL>
-0.461964

>  <SCORE.INTRA.REPUL.0>
0.641615

>  <SCORE.INTRA.SOLV>
-0.893031

>  <SCORE.INTRA.SOLV.lig_0>
-162.567

>  <SCORE.INTRA.VDW>
3.79326

>  <SCORE.INTRA.VDW.0>
-4.80338

>  <SCORE.INTRA.norm>
0.29773

>  <SCORE.RESTR>
10.2458

>  <SCORE.RESTR.CAVITY>
10.2458

>  <SCORE.RESTR.norm>
0.243949

>  <SCORE.SYSTEM>
0

>  <SCORE.SYSTEM.CONST>
0

>  <SCORE.SYSTEM.DIHEDRAL>
0

>  <SCORE.SYSTEM.SOLV>
0

>  <SCORE.SYSTEM.norm>
0

>  <SCORE.heavy>
42

>  <SCORE.norm>
0.33382

>  <RMSD>
9.578

$$$$

 OpenBabel11021811393D
libRbt.so/2013.1/901 2013/11/27
 42 45  0  0  0  0  0  0  0  0999 V2000
   -3.2448   -2.1072   -7.2920 C   0  0  2  0  0  0  0  0  0  0  0  0
   -2.8847   -0.7485   -6.8947 O   0  0  0  0  0  0  0  0  0  0  0  0
   -3.0217   -3.1259   -6.1274 C   0  0  2  0  0  0  0  0  0  0  0  0
   -2.8464   -2.4397   -4.8268 N   0  3  0  0  0  0  0  0  0  0  0  0
   -1.8011   -4.0471   -6.4284 C   0  0  1  0  0  0  0  0  0  0  0  0
   -1.6139   -4.9780   -5.3646 O   0  0  0  0  0  0  0  0  0  0  0  0
   -1.9897   -4.8404   -7.7492 C   0  0  2  0  0  0  0  0  0  0  0  0
   -0.7444   -5.4264   -8.1120 O   0  0  0  0  0  0  0  0  0  0  0  0
   -2.5011   -3.9138   -8.8995 C   0  0  2  0  0  0  0  0  0  0  0  0
   -2.4684   -2.5137   -8.4707 O   0  0  0  0  0  0  0  0  0  0  0  0
   -3.9505   -4.1984   -9.3560 C   0  0  0  0  0  0  0  0  0  0  0  0
   -3.9337    3.2810   -8.0272 C   0  0  1  0  0  0  0  0  0  0  0  0
   -4.6885    4.4826   -8.4477 N   0  3  0  0  0  0  0  0  0  0  0  0
   -4.3185    2.8411   -6.5903 C   0  0  1  0  0  0  0  0  0  0  0  0
   -3.6624    1.4873   -6.1465 C   0  0  1  0  0  0  0  0  0  0  0  0
   -4.3396    1.0268   -4.9464 O   0  0  0  0  0  0  0  0  0  0  0  0
   -3.7868    0.3512   -7.2272 C   0  0  1  0  0  0  0  0  0  0  0  0
   -3.4148    0.8598   -8.6575 C   0  0  1  0  0  0  0  0  0  0  0  0
   -3.6731   -0.1609   -9.6936 N   0  3  0  0  0  0  0  0  0  0  0  0
   -4.1944    2.1402   -9.0327 C   0  0  0  0  0  0  0  0  0  0  0  0
   -4.3797    1.8852   -3.7699 C   0  0  1  0  0  0  0  0  0  0  0  0
   -4.7844    1.0414   -2.5670 C   0  0  1  0  0  0  0  0  0  0  0  0
   -3.4482    0.3901   -2.2371 C   0  0  1  0  0  0  0  0  0  0  0  0
   -2.4747    1.5600   -2.4387 C   0  0  2  0  0  0  0  0  0  0  0  0
   -3.0625    2.3796   -3.4771 O   0  0  0  0  0  0  0  0  0  0  0  0
   -1.0650    1.1050   -2.8570 C   0  0  0  0  0  0  0  0  0  0  0  0
   -6.4983   -1.5321   -2.6672 C   0  0  1  0  0  0  0  0  0  0  0  0
   -5.0409   -2.0416   -2.8451 C   0  0  1  0  0  0  0  0  0  0  0  0
   -4.3075   -2.3483   -1.5075 C   0  0  2  0  0  0  0  0  0  0  0  0
   -4.3931   -1.1355   -0.5258 C   0  0  1  0  0  0  0  0  0  0  0  0
   -3.4193   -0.1092   -0.8689 O   0  0  0  0  0  0  0  0  0  0  0  0
   -6.8278   -1.3095   -1.1598 C   0  0  1  0  0  0  0  0  0  0  0  0
   -5.7501   -0.5421   -0.5302 O   0  0  0  0  0  0  0  0  0  0  0  0
   -8.1730   -0.5674   -0.9506 C   0  0  0  0  0  0  0  0  0  0  0  0
   -4.4535   -3.2817  -10.3943 N   0  3  0  0  0  0  0  0  0  0  0  0
   -5.2282    1.8906   -1.5085 O   0  0  0  0  0  0  0  0  0  0  0  0
   -5.0740   -3.2335   -3.6293 O   0  0  0  0  0  0  0  0  0  0  0  0
   -6.6396   -0.3062   -3.3884 O   0  0  0  0  0  0  0  0  0  0  0  0
   -0.2389    0.9110   -1.7218 O   0  0  0  0  0  0  0  0  0  0  0  0
   -3.9191    3.8616   -5.6757 O   0  0  0  0  0  0  0  0  0  0  0  0
   -8.0519    0.8939   -1.1050 N   0  3  0  0  0  0  0  0  0  0  0  0
   -2.9119   -2.7937   -1.7445 N   0  3  0  0  0  0  0  0  0  0  0  0
  1  2  1  1  0  0  0
  1  3  1  0  0  0  0
  1 10  1  0  0  0  0
  3  4  1  1  0  0  0
  3  5  1  0  0  0  0
  5  6  1  1  0  0  0
  5  7  1  0  0  0  0
  7  8  1  6  0  0  0
  7  9  1  0  0  0  0
  9 10  1  0  0  0  0
  9 11  1  1  0  0  0
 11 35  1  0  0  0  0
 12 13  1  6  0  0  0
 12 14  1  0  0  0  0
 12 20  1  0  0  0  0
 14 15  1  0  0  0  0
 14 40  1  1  0  0  0
 15 16  1  1  0  0  0
 15 17  1  0  0  0  0
 17  2  1  1  0  0  0
 17 18  1  0  0  0  0
 18 19  1  6  0  0  0
 18 20  1  0  0  0  0
 21 16  1  6  0  0  0
 21 22  1  0  0  0  0
 21 25  1  0  0  0  0
 22 23  1  0  0  0  0
 22 36  1  1  0  0  0
 23 24  1  0  0  0  0
 23 31  1  1  0  0  0
 24 25  1  0  0  0  0
 24 26  1  6  0  0  0
 26 39  1  0  0  0  0
 27 28  1  0  0  0  0
 27 32  1  0  0  0  0
 27 38  1  6  0  0  0
 28 29  1  0  0  0  0
 28 37  1  6  0  0  0
 29 30  1  0  0  0  0
 29 42  1  6  0  0  0
 30 31  1  6  0  0  0
 30 33  1  0  0  0  0
 32 33  1  0  0  0  0
 32 34  1  6  0  0  0
 34 41  1  0  0  0  0
M  CHG  6   4   1  13   1  19   1  35   1  41   1  42   1
M  END
>  <CHROM.1>
-134.48220025,150.21565974,-76.66110479,58.74022888,-52.79226811,177.15926240
-70.33057060,31.47343402,-50.90730130,-57.37558588,-164.36573659,-57.25520364
-155.60297445,61.24338697,-91.37269587,63.25216055,176.12099940,83.71183280
58.29404159,54.28152377,-81.50741240,-28.58901035,-3.88074111,-0.60140444
-4.89921520,-0.36760082,-1.25829936,2.36461800

>  <Name>


>  <RI>
0

>  <Rbt.Current_Directory>
/home/itssahil/PROJECTS/Mol_Feturizer/New_Systems/rnas/1ei2

>  <Rbt.Executable>
rbdock ($Id: //depot/dev/client3/rdock/2013.1/src/exe/rbdock.cxx#4 $)

>  <Rbt.Library>
libRbt.so (2013.1, Build901 2013/11/27)

>  <Rbt.Parameter_File>
/export/apps/rDock/src/rDock_2013.1_src/data/scripts/dock_solv.prm

>  <Rbt.Receptor>
prm/blind_docking_40.prm

>  <SCORE>
-7.56047

>  <SCORE.INTER>
-20.7966

>  <SCORE.INTER.CONST>
1

>  <SCORE.INTER.POLAR>
-4.09108

>  <SCORE.INTER.ROT>
9

>  <SCORE.INTER.SOLV>
30.51

>  <SCORE.INTER.VDW>
-19.9975

>  <SCORE.INTER.norm>
-0.495157

>  <SCORE.INTRA>
-5.73149

>  <SCORE.INTRA.DIHEDRAL>
-14.6233

>  <SCORE.INTRA.DIHEDRAL.0>
40.8761

>  <SCORE.INTRA.POLAR>
-2.2419

>  <SCORE.INTRA.POLAR.0>
-0.0268208

>  <SCORE.INTRA.REPUL>
-0.100228

>  <SCORE.INTRA.REPUL.0>
0.641615

>  <SCORE.INTRA.SOLV>
13.8123

>  <SCORE.INTRA.SOLV.lig_0>
-162.567

>  <SCORE.INTRA.VDW>
2.79763

>  <SCORE.INTRA.VDW.0>
-4.80338

>  <SCORE.INTRA.norm>
-0.136464

>  <SCORE.RESTR>
18.9676

>  <SCORE.RESTR.CAVITY>
18.9676

>  <SCORE.RESTR.norm>
0.45161

>  <SCORE.SYSTEM>
0

>  <SCORE.SYSTEM.CONST>
0

>  <SCORE.SYSTEM.DIHEDRAL>
0

>  <SCORE.SYSTEM.SOLV>
0

>  <SCORE.SYSTEM.norm>
0

>  <SCORE.heavy>
42

>  <SCORE.norm>
-0.180011

>  <RMSD>
9.580

$$$$

 OpenBabel11021811393D
libRbt.so/2013.1/901 2013/11/27
 42 45  0  0  0  0  0  0  0  0999 V2000
   -3.2420   -0.9845   -6.9598 C   0  0  2  0  0  0  0  0  0  0  0  0
   -4.3507   -0.0342   -6.9234 O   0  0  0  0  0  0  0  0  0  0  0  0
   -2.6181   -1.0867   -8.3896 C   0  0  2  0  0  0  0  0  0  0  0  0
   -3.0500    0.0338   -9.2561 N   0  3  0  0  0  0  0  0  0  0  0  0
   -2.9717   -2.4545   -9.0477 C   0  0  1  0  0  0  0  0  0  0  0  0
   -2.3891   -2.5402  -10.3463 O   0  0  0  0  0  0  0  0  0  0  0  0
   -2.4624   -3.6508   -8.1998 C   0  0  2  0  0  0  0  0  0  0  0  0
   -3.0592   -4.8459   -8.6911 O   0  0  0  0  0  0  0  0  0  0  0  0
   -2.8081   -3.4620   -6.6871 C   0  0  2  0  0  0  0  0  0  0  0  0
   -3.6939   -2.3086   -6.5130 O   0  0  0  0  0  0  0  0  0  0  0  0
   -1.5841   -3.2159   -5.7753 C   0  0  0  0  0  0  0  0  0  0  0  0
   -2.8139    3.6905   -5.3792 C   0  0  1  0  0  0  0  0  0  0  0  0
   -2.6401    4.9350   -4.5972 N   0  3  0  0  0  0  0  0  0  0  0  0
   -2.5935    2.4310   -4.5009 C   0  0  1  0  0  0  0  0  0  0  0  0
   -2.9111    1.0832   -5.2374 C   0  0  1  0  0  0  0  0  0  0  0  0
   -2.9846    0.0281   -4.2412 O   0  0  0  0  0  0  0  0  0  0  0  0
   -4.2814    1.1031   -6.0095 C   0  0  1  0  0  0  0  0  0  0  0  0
   -4.4597    2.4068   -6.8530 C   0  0  1  0  0  0  0  0  0  0  0  0
   -5.8041    2.4960   -7.4583 N   0  3  0  0  0  0  0  0  0  0  0  0
   -4.2242    3.6767   -6.0046 C   0  0  0  0  0  0  0  0  0  0  0  0
   -3.1176    0.3776   -2.8330 C   0  0  1  0  0  0  0  0  0  0  0  0
   -4.5966    0.5685   -2.5180 C   0  0  1  0  0  0  0  0  0  0  0  0
   -5.0241   -0.8840   -2.3574 C   0  0  1  0  0  0  0  0  0  0  0  0
   -3.8370   -1.4729   -1.5820 C   0  0  2  0  0  0  0  0  0  0  0  0
   -2.6795   -0.7170   -2.0115 O   0  0  0  0  0  0  0  0  0  0  0  0
   -3.6226   -2.9722   -1.8567 C   0  0  0  0  0  0  0  0  0  0  0  0
   -9.9313   -1.6102   -0.6352 C   0  0  1  0  0  0  0  0  0  0  0  0
   -9.3365   -0.2418   -1.0701 C   0  0  1  0  0  0  0  0  0  0  0  0
   -8.5264   -0.2943   -2.3976 C   0  0  2  0  0  0  0  0  0  0  0  0
   -7.4448   -1.4213   -2.3547 C   0  0  1  0  0  0  0  0  0  0  0  0
   -6.2690   -0.9960   -1.6093 O   0  0  0  0  0  0  0  0  0  0  0  0
   -9.4403   -2.7523   -1.5758 C   0  0  1  0  0  0  0  0  0  0  0  0
   -7.9882   -2.6575   -1.7460 O   0  0  0  0  0  0  0  0  0  0  0  0
   -9.8005   -4.1604   -1.0360 C   0  0  0  0  0  0  0  0  0  0  0  0
   -0.6089   -2.2502   -6.3118 N   0  3  0  0  0  0  0  0  0  0  0  0
   -4.7405    1.2945   -1.2971 O   0  0  0  0  0  0  0  0  0  0  0  0
  -10.4099    0.6850   -1.2287 O   0  0  0  0  0  0  0  0  0  0  0  0
   -9.5262   -1.8718    0.7103 O   0  0  0  0  0  0  0  0  0  0  0  0
   -2.2483   -3.2590   -2.0507 O   0  0  0  0  0  0  0  0  0  0  0  0
   -1.2330    2.4046   -4.0700 O   0  0  0  0  0  0  0  0  0  0  0  0
   -8.7477   -4.7316   -0.1762 N   0  3  0  0  0  0  0  0  0  0  0  0
   -7.9553    1.0327   -2.7367 N   0  3  0  0  0  0  0  0  0  0  0  0
  1  2  1  6  0  0  0
  1  3  1  0  0  0  0
  1 10  1  0  0  0  0
  3  4  1  6  0  0  0
  3  5  1  0  0  0  0
  5  6  1  6  0  0  0
  5  7  1  0  0  0  0
  7  8  1  6  0  0  0
  7  9  1  0  0  0  0
  9 10  1  0  0  0  0
  9 11  1  1  0  0  0
 11 35  1  0  0  0  0
 12 13  1  1  0  0  0
 12 14  1  0  0  0  0
 12 20  1  0  0  0  0
 14 15  1  0  0  0  0
 14 40  1  6  0  0  0
 15 16  1  1  0  0  0
 15 17  1  0  0  0  0
 17  2  1  6  0  0  0
 17 18  1  0  0  0  0
 18 19  1  1  0  0  0
 18 20  1  0  0  0  0
 21 16  1  6  0  0  0
 21 22  1  0  0  0  0
 21 25  1  0  0  0  0
 22 23  1  0  0  0  0
 22 36  1  1  0  0  0
 23 24  1  0  0  0  0
 23 31  1  1  0  0  0
 24 25  1  0  0  0  0
 24 26  1  6  0  0  0
 26 39  1  0  0  0  0
 27 28  1  0  0  0  0
 27 32  1  0  0  0  0
 27 38  1  1  0  0  0
 28 29  1  0  0  0  0
 28 37  1  6  0  0  0
 29 30  1  0  0  0  0
 29 42  1  1  0  0  0
 30 31  1  1  0  0  0
 30 33  1  0  0  0  0
 32 33  1  0  0  0  0
 32 34  1  1  0  0  0
 34 41  1  0  0  0  0
M  CHG  6   4   1  13   1  19   1  35   1  41   1  42   1
M  END
>  <CHROM.1>
-121.55738819,1.84052347,-168.08978301,-60.81103168,179.01402338,44.47868769
117.32608382,-89.67168540,-48.95369139,15.73249397,86.02196414,-174.47494448
62.44091639,110.15538069,136.02420841,87.77364425,-172.65063204,71.02980755
67.35556428,-115.54796638,-90.55409328,8.23837371,-4.80294357,-0.68096994
-4.27591940,0.02010189,-0.82953686,-2.95293911

>  <Name>


>  <RI>
0

>  <Rbt.Current_Directory>
/home/itssahil/PROJECTS/Mol_Feturizer/New_Systems/rnas/1ei2

>  <Rbt.Executable>
rbdock ($Id: //depot/dev/client3/rdock/2013.1/src/exe/rbdock.cxx#4 $)

>  <Rbt.Library>
libRbt.so (2013.1, Build901 2013/11/27)

>  <Rbt.Parameter_File>
/export/apps/rDock/src/rDock_2013.1_src/data/scripts/dock_solv.prm

>  <Rbt.Receptor>
prm/blind_docking_60.prm

>  <SCORE>
-6.35306

>  <SCORE.INTER>
-24.9509

>  <SCORE.INTER.CONST>
1

>  <SCORE.INTER.POLAR>
-5.88464

>  <SCORE.INTER.ROT>
9

>  <SCORE.INTER.SOLV>
43.0241

>  <SCORE.INTER.VDW>
-20.9598

>  <SCORE.INTER.norm>
-0.594068

>  <SCORE.INTRA>
9.73979

>  <SCORE.INTRA.DIHEDRAL>
18.5309

>  <SCORE.INTRA.DIHEDRAL.0>
40.8761

>  <SCORE.INTRA.POLAR>
-0.152621

>  <SCORE.INTRA.POLAR.0>
-0.0268208

>  <SCORE.INTRA.REPUL>
-0.639377

>  <SCORE.INTRA.REPUL.0>
0.641615

>  <SCORE.INTRA.SOLV>
-3.22073

>  <SCORE.INTRA.SOLV.lig_0>
-162.567

>  <SCORE.INTRA.VDW>
5.80049

>  <SCORE.INTRA.VDW.0>
-4.80338

>  <SCORE.INTRA.norm>
0.2319

>  <SCORE.RESTR>
8.85801

>  <SCORE.RESTR.CAVITY>
8.85801

>  <SCORE.RESTR.norm>
0.210905

>  <SCORE.SYSTEM>
0

>  <SCORE.SYSTEM.CONST>
0

>  <SCORE.SYSTEM.DIHEDRAL>
0

>  <SCORE.SYSTEM.SOLV>
0

>  <SCORE.SYSTEM.norm>
0

>  <SCORE.heavy>
42

>  <SCORE.norm>
-0.151263

>  <RMSD>
9.587

$$$$

 OpenBabel11021811393D
libRbt.so/2013.1/901 2013/11/27
 42 45  0  0  0  0  0  0  0  0999 V2000
   -3.9003   -1.5264   -7.7768 C   0  0  2  0  0  0  0  0  0  0  0  0
   -3.5543   -1.6636   -6.3643 O   0  0  0  0  0  0  0  0  0  0  0  0
   -3.1582   -0.3191   -8.4368 C   0  0  2  0  0  0  0  0  0  0  0  0
   -2.0408    0.1632   -7.5931 N   0  3  0  0  0  0  0  0  0  0  0  0
   -4.1546    0.8403   -8.7396 C   0  0  1  0  0  0  0  0  0  0  0  0
   -3.4684    1.9310   -9.3503 O   0  0  0  0  0  0  0  0  0  0  0  0
   -5.2974    0.3856   -9.6866 C   0  0  2  0  0  0  0  0  0  0  0  0
   -6.3128    1.3830   -9.6892 O   0  0  0  0  0  0  0  0  0  0  0  0
   -5.8954   -0.9865   -9.2360 C   0  0  2  0  0  0  0  0  0  0  0  0
   -5.3525   -1.3682   -7.9303 O   0  0  0  0  0  0  0  0  0  0  0  0
   -5.5974   -2.1621  -10.1948 C   0  0  0  0  0  0  0  0  0  0  0  0
   -2.5683   -5.7103   -5.2366 C   0  0  1  0  0  0  0  0  0  0  0  0
   -1.8256   -6.9401   -4.8811 N   0  3  0  0  0  0  0  0  0  0  0  0
   -2.4463   -4.6314   -4.1287 C   0  0  1  0  0  0  0  0  0  0  0  0
   -3.0871   -3.2531   -4.5153 C   0  0  1  0  0  0  0  0  0  0  0  0
   -2.6311   -2.2571   -3.5608 O   0  0  0  0  0  0  0  0  0  0  0  0
   -2.6782   -2.7568   -5.9508 C   0  0  1  0  0  0  0  0  0  0  0  0
   -2.7934   -3.8926   -7.0183 C   0  0  1  0  0  0  0  0  0  0  0  0
   -2.2698   -3.4722   -8.3340 N   0  3  0  0  0  0  0  0  0  0  0  0
   -2.0406   -5.1696   -6.5819 C   0  0  0  0  0  0  0  0  0  0  0  0
   -3.1205   -0.8885   -3.6614 C   0  0  1  0  0  0  0  0  0  0  0  0
   -4.6428   -0.9111   -3.5913 C   0  0  1  0  0  0  0  0  0  0  0  0
   -4.8382   -1.0344   -2.0863 C   0  0  1  0  0  0  0  0  0  0  0  0
   -3.7613   -0.0781   -1.5543 C   0  0  2  0  0  0  0  0  0  0  0  0
   -2.6865   -0.1265   -2.5229 O   0  0  0  0  0  0  0  0  0  0  0  0
   -3.2383   -0.4750   -0.1621 C   0  0  0  0  0  0  0  0  0  0  0  0
   -9.6930   -1.4431   -0.3832 C   0  0  1  0  0  0  0  0  0  0  0  0
   -9.3121   -0.1760   -1.1985 C   0  0  1  0  0  0  0  0  0  0  0  0
   -8.5241   -0.4754   -2.5064 C   0  0  2  0  0  0  0  0  0  0  0  0
   -7.2884   -1.3894   -2.2244 C   0  0  1  0  0  0  0  0  0  0  0  0
   -6.1760   -0.6210   -1.6846 O   0  0  0  0  0  0  0  0  0  0  0  0
   -9.0547   -2.7192   -1.0112 C   0  0  1  0  0  0  0  0  0  0  0  0
   -7.6351   -2.4763   -1.2798 O   0  0  0  0  0  0  0  0  0  0  0  0
   -9.1961   -3.9636   -0.0972 C   0  0  0  0  0  0  0  0  0  0  0  0
   -6.6003   -3.2413  -10.1660 N   0  3  0  0  0  0  0  0  0  0  0  0
   -5.1675    0.3204   -4.0881 O   0  0  0  0  0  0  0  0  0  0  0  0
  -10.5122    0.5170   -1.5391 O   0  0  0  0  0  0  0  0  0  0  0  0
   -9.2328   -1.2719    0.9591 O   0  0  0  0  0  0  0  0  0  0  0  0
   -4.2186   -0.2359    0.8331 O   0  0  0  0  0  0  0  0  0  0  0  0
   -3.0839   -5.1141   -2.9464 O   0  0  0  0  0  0  0  0  0  0  0  0
   -9.5803   -5.1789   -0.8383 N   0  3  0  0  0  0  0  0  0  0  0  0
   -8.1590    0.7750   -3.2174 N   0  3  0  0  0  0  0  0  0  0  0  0
  1  2  1  1  0  0  0
  1  3  1  0  0  0  0
  1 10  1  0  0  0  0
  3  4  1  1  0  0  0
  3  5  1  0  0  0  0
  5  6  1  6  0  0  0
  5  7  1  0  0  0  0
  7  8  1  1  0  0  0
  7  9  1  0  0  0  0
  9 10  1  0  0  0  0
  9 11  1  6  0  0  0
 11 35  1  0  0  0  0
 12 13  1  1  0  0  0
 12 14  1  0  0  0  0
 12 20  1  0  0  0  0
 14 15  1  0  0  0  0
 14 40  1  1  0  0  0
 15 16  1  1  0  0  0
 15 17  1  0  0  0  0
 17  2  1  6  0  0  0
 17 18  1  0  0  0  0
 18 19  1  6  0  0  0
 18 20  1  0  0  0  0
 21 16  1  1  0  0  0
 21 22  1  0  0  0  0
 21 25  1  0  0  0  0
 22 23  1  0  0  0  0
 22 36  1  1  0  0  0
 23 24  1  0  0  0  0
 23 31  1  6  0  0  0
 24 25  1  0  0  0  0
 24 26  1  1  0  0  0
 26 39  1  0  0  0  0
 27 28  1  0  0  0  0
 27 32  1  0  0  0  0
 27 38  1  1  0  0  0
 28 29  1  0  0  0  0
 28 37  1  6  0  0  0
 29 30  1  0  0  0  0
 29 42  1  1  0  0  0
 30 31  1  1  0  0  0
 30 33  1  0  0  0  0
 32 33  1  0  0  0  0
 32 34  1  1  0  0  0
 34 41  1  0  0  0  0
M  CHG  6   4   1  13   1  19   1  35   1  41   1  42   1
M  END
>  <CHROM.1>
-106.71840787,-146.53389199,85.89326989,-168.23664683,75.12019824,-152.88011593
-54.02137977,-168.00444793,170.20457291,-177.72232485,56.88961688,-104.40705213
169.71960753,61.92189822,-71.25779930,31.61486696,58.72676179,70.08943335
-32.65305335,-144.70335059,136.93146976,-145.57908046,-5.18371848,-1.69042021
-4.52134080,0.91170300,0.64713631,-1.14507742

>  <Name>


>  <RI>
0

>  <Rbt.Current_Directory>
/home/itssahil/PROJECTS/Mol_Feturizer/New_Systems/rnas/1ei2

>  <Rbt.Executable>
rbdock ($Id: //depot/dev/client3/rdock/2013.1/src/exe/rbdock.cxx#4 $)

>  <Rbt.Library>
libRbt.so (2013.1, Build901 2013/11/27)

>  <Rbt.Parameter_File>
/export/apps/rDock/src/rDock_2013.1_src/data/scripts/dock_solv.prm

>  <Rbt.Receptor>
prm/blind_docking_80.prm

>  <SCORE>
-18.8275

>  <SCORE.INTER>
-27.5713

>  <SCORE.INTER.CONST>
1

>  <SCORE.INTER.POLAR>
-8.10615

>  <SCORE.INTER.ROT>
9

>  <SCORE.INTER.SOLV>
50.247

>  <SCORE.INTER.VDW>
-17.7093

>  <SCORE.INTER.norm>
-0.656458

>  <SCORE.INTRA>
-4.78573

>  <SCORE.INTRA.DIHEDRAL>
-2.3782

>  <SCORE.INTRA.DIHEDRAL.0>
40.8761

>  <SCORE.INTRA.POLAR>
-0.518891

>  <SCORE.INTRA.POLAR.0>
-0.0268208

>  <SCORE.INTRA.REPUL>
-0.641615

>  <SCORE.INTRA.REPUL.0>
0.641615

>  <SCORE.INTRA.SOLV>
-7.71339

>  <SCORE.INTRA.SOLV.lig_0>
-162.567

>  <SCORE.INTRA.VDW>
5.23237

>  <SCORE.INTRA.VDW.0>
-4.80338

>  <SCORE.INTRA.norm>
-0.113946

>  <SCORE.RESTR>
13.5295

>  <SCORE.RESTR.CAVITY>
13.5295

>  <SCORE.RESTR.norm>
0.32213

>  <SCORE.SYSTEM>
0

>  <SCORE.SYSTEM.CONST>
0

>  <SCORE.SYSTEM.DIHEDRAL>
0

>  <SCORE.SYSTEM.SOLV>
0

>  <SCORE.SYSTEM.norm>
0

>  <SCORE.heavy>
42

>  <SCORE.norm>
-0.448274

>  <RMSD>
9.605

$$$$

 OpenBabel11021811393D
libRbt.so/2013.1/901 2013/11/27
 42 45  0  0  0  0  0  0  0  0999 V2000
   -3.1803   -1.1882   -7.0858 C   0  0  2  0  0  0  0  0  0  0  0  0
   -4.2983   -0.2637   -6.9151 O   0  0  0  0  0  0  0  0  0  0  0  0
   -2.9099   -1.4922   -8.5952 C   0  0  2  0  0  0  0  0  0  0  0  0
   -3.5956   -0.5224   -9.4797 N   0  3  0  0  0  0  0  0  0  0  0  0
   -3.3355   -2.9495   -8.9478 C   0  0  1  0  0  0  0  0  0  0  0  0
   -3.0748   -3.2182  -10.3237 O   0  0  0  0  0  0  0  0  0  0  0  0
   -2.5752   -3.9956   -8.0893 C   0  0  2  0  0  0  0  0  0  0  0  0
   -3.2062   -5.2616   -8.2469 O   0  0  0  0  0  0  0  0  0  0  0  0
   -2.5607   -3.5885   -6.5802 C   0  0  2  0  0  0  0  0  0  0  0  0
   -3.4407   -2.4384   -6.3603 O   0  0  0  0  0  0  0  0  0  0  0  0
   -1.1700   -3.1860   -6.0377 C   0  0  0  0  0  0  0  0  0  0  0  0
   -2.6368    3.4758   -5.5455 C   0  0  1  0  0  0  0  0  0  0  0  0
   -2.3933    4.7245   -4.7894 N   0  3  0  0  0  0  0  0  0  0  0  0
   -2.3229    2.2213   -4.6888 C   0  0  1  0  0  0  0  0  0  0  0  0
   -2.7045    0.8686   -5.3850 C   0  0  1  0  0  0  0  0  0  0  0  0
   -2.6723   -0.1825   -4.3825 O   0  0  0  0  0  0  0  0  0  0  0  0
   -4.1449    0.8779   -6.0169 C   0  0  1  0  0  0  0  0  0  0  0  0
   -4.4138    2.1770   -6.8433 C   0  0  1  0  0  0  0  0  0  0  0  0
   -5.8123    2.2564   -7.3122 N   0  3  0  0  0  0  0  0  0  0  0  0
   -4.1023    3.4518   -6.0274 C   0  0  0  0  0  0  0  0  0  0  0  0
   -2.7577    0.1680   -2.9709 C   0  0  1  0  0  0  0  0  0  0  0  0
   -4.2137    0.4645   -2.6317 C   0  0  1  0  0  0  0  0  0  0  0  0
   -4.7436   -0.9539   -2.4706 C   0  0  1  0  0  0  0  0  0  0  0  0
   -3.5907   -1.6319   -1.7166 C   0  0  2  0  0  0  0  0  0  0  0  0
   -2.3880   -0.9601   -2.1612 O   0  0  0  0  0  0  0  0  0  0  0  0
   -3.4906   -3.1414   -2.0011 C   0  0  0  0  0  0  0  0  0  0  0  0
   -9.6755   -1.3485   -0.7251 C   0  0  1  0  0  0  0  0  0  0  0  0
   -9.0838   -0.1868   -1.5711 C   0  0  1  0  0  0  0  0  0  0  0  0
   -8.2101   -0.6554   -2.7704 C   0  0  2  0  0  0  0  0  0  0  0  0
   -7.1128   -1.6673   -2.3081 C   0  0  1  0  0  0  0  0  0  0  0  0
   -5.9816   -0.9789   -1.7033 O   0  0  0  0  0  0  0  0  0  0  0  0
   -9.1204   -2.7235   -1.2063 C   0  0  1  0  0  0  0  0  0  0  0  0
   -7.6636   -2.6445   -1.3409 O   0  0  0  0  0  0  0  0  0  0  0  0
   -9.4821   -3.8798   -0.2388 C   0  0  0  0  0  0  0  0  0  0  0  0
   -0.7836   -1.7933   -6.3247 N   0  3  0  0  0  0  0  0  0  0  0  0
   -4.2854    1.1924   -1.4055 O   0  0  0  0  0  0  0  0  0  0  0  0
  -10.1641    0.5981   -2.0746 O   0  0  0  0  0  0  0  0  0  0  0  0
   -9.3311   -1.1305    0.6449 O   0  0  0  0  0  0  0  0  0  0  0  0
   -3.4320   -3.3901   -3.3951 O   0  0  0  0  0  0  0  0  0  0  0  0
   -0.9261    2.2039   -4.3955 O   0  0  0  0  0  0  0  0  0  0  0  0
   -9.6370   -5.1752   -0.9259 N   0  3  0  0  0  0  0  0  0  0  0  0
   -7.6461    0.4987   -3.5134 N   0  3  0  0  0  0  0  0  0  0  0  0
  1  2  1  6  0  0  0
  1  3  1  0  0  0  0
  1 10  1  0  0  0  0
  3  4  1  6  0  0  0
  3  5  1  0  0  0  0
  5  6  1  6  0  0  0
  5  7  1  0  0  0  0
  7  8  1  1  0  0  0
  7  9  1  0  0  0  0
  9 10  1  0  0  0  0
  9 11  1  6  0  0  0
 11 35  1  0  0  0  0
 12 13  1  1  0  0  0
 12 14  1  0  0  0  0
 12 20  1  0  0  0  0
 14 15  1  0  0  0  0
 14 40  1  6  0  0  0
 15 16  1  1  0  0  0
 15 17  1  0  0  0  0
 17  2  1  6  0  0  0
 17 18  1  0  0  0  0
 18 19  1  1  0  0  0
 18 20  1  0  0  0  0
 21 16  1  6  0  0  0
 21 22  1  0  0  0  0
 21 25  1  0  0  0  0
 22 23  1  0  0  0  0
 22 36  1  1  0  0  0
 23 24  1  0  0  0  0
 23 31  1  1  0  0  0
 24 25  1  0  0  0  0
 24 26  1  6  0  0  0
 26 39  1  0  0  0  0
 27 28  1  0  0  0  0
 27 32  1  0  0  0  0
 27 38  1  1  0  0  0
 28 29  1  0  0  0  0
 28 37  1  6  0  0  0
 29 30  1  0  0  0  0
 29 42  1  1  0  0  0
 30 31  1  1  0  0  0
 30 33  1  0  0  0  0
 32 33  1  0  0  0  0
 32 34  1  1  0  0  0
 34 41  1  0  0  0  0
M  CHG  6   4   1  13   1  19   1  35   1  41   1  42   1
M  END
>  <CHROM.1>
-132.46683886,0.20537653,-165.72447417,-178.66496559,71.23661225,82.29708304
-174.93612932,-94.53892322,72.27606181,19.85891082,78.43638777,68.86689116
66.81988431,127.14757134,53.28968630,59.96660872,47.41931602,167.45104045
174.28800233,-108.69792323,149.38682016,-37.59570795,-4.72833275,-0.83834848
-4.41127237,0.14259207,-0.81021790,-2.79581468

>  <Name>


>  <RI>
0

>  <Rbt.Current_Directory>
/home/itssahil/PROJECTS/Mol_Feturizer/New_Systems/rnas/1ei2

>  <Rbt.Executable>
rbdock ($Id: //depot/dev/client3/rdock/2013.1/src/exe/rbdock.cxx#4 $)

>  <Rbt.Library>
libRbt.so (2013.1, Build901 2013/11/27)

>  <Rbt.Parameter_File>
/export/apps/rDock/src/rDock_2013.1_src/data/scripts/dock_solv.prm

>  <Rbt.Receptor>
prm/blind_docking_100.prm

>  <SCORE>
-14.8774

>  <SCORE.INTER>
-23.4647

>  <SCORE.INTER.CONST>
1

>  <SCORE.INTER.POLAR>
-5.27512

>  <SCORE.INTER.ROT>
9

>  <SCORE.INTER.SOLV>
42.4484

>  <SCORE.INTER.VDW>
-21.8088

>  <SCORE.INTER.norm>
-0.558683

>  <SCORE.INTRA>
0.482311

>  <SCORE.INTRA.DIHEDRAL>
5.55099

>  <SCORE.INTRA.DIHEDRAL.0>
40.8761

>  <SCORE.INTRA.POLAR>
-1.2413

>  <SCORE.INTRA.POLAR.0>
-0.0268208

>  <SCORE.INTRA.REPUL>
-0.596749

>  <SCORE.INTRA.REPUL.0>
0.641615

>  <SCORE.INTRA.SOLV>
-2.53889

>  <SCORE.INTRA.SOLV.lig_0>
-162.567

>  <SCORE.INTRA.VDW>
6.18041

>  <SCORE.INTRA.VDW.0>
-4.80338

>  <SCORE.INTRA.norm>
0.0114836

>  <SCORE.RESTR>
8.10499

>  <SCORE.RESTR.CAVITY>
8.10499

>  <SCORE.RESTR.norm>
0.192976

>  <SCORE.SYSTEM>
0

>  <SCORE.SYSTEM.CONST>
0

>  <SCORE.SYSTEM.DIHEDRAL>
0

>  <SCORE.SYSTEM.SOLV>
0

>  <SCORE.SYSTEM.norm>
0

>  <SCORE.heavy>
42

>  <SCORE.norm>
-0.354224

>  <RMSD>
9.613

$$$$

 OpenBabel11021811393D
libRbt.so/2013.1/901 2013/11/27
 42 45  0  0  0  0  0  0  0  0999 V2000
   -3.2836   -1.5016   -5.4219 C   0  0  2  0  0  0  0  0  0  0  0  0
   -2.8045   -0.4874   -4.4862 O   0  0  0  0  0  0  0  0  0  0  0  0
   -3.1446   -2.9421   -4.8307 C   0  0  2  0  0  0  0  0  0  0  0  0
   -2.9039   -2.9127   -3.3698 N   0  3  0  0  0  0  0  0  0  0  0  0
   -2.0106   -3.7274   -5.5560 C   0  0  1  0  0  0  0  0  0  0  0  0
   -1.9001   -5.0423   -5.0154 O   0  0  0  0  0  0  0  0  0  0  0  0
   -2.2739   -3.8429   -7.0814 C   0  0  2  0  0  0  0  0  0  0  0  0
   -1.0863   -4.3029   -7.7166 O   0  0  0  0  0  0  0  0  0  0  0  0
   -2.7081   -2.4691   -7.6877 C   0  0  2  0  0  0  0  0  0  0  0  0
   -2.5513   -1.4068   -6.6915 O   0  0  0  0  0  0  0  0  0  0  0  0
   -4.1790   -2.4127   -8.1604 C   0  0  0  0  0  0  0  0  0  0  0  0
   -2.2465    3.7792   -4.1636 C   0  0  1  0  0  0  0  0  0  0  0  0
   -2.3531    5.2408   -4.3705 N   0  3  0  0  0  0  0  0  0  0  0  0
   -3.5385    3.1981   -3.5316 C   0  0  1  0  0  0  0  0  0  0  0  0
   -3.5426    1.6332   -3.4271 C   0  0  1  0  0  0  0  0  0  0  0  0
   -4.8988    1.2015   -3.1350 O   0  0  0  0  0  0  0  0  0  0  0  0
   -3.0928    0.9191   -4.7545 C   0  0  1  0  0  0  0  0  0  0  0  0
   -1.8045    1.5650   -5.3596 C   0  0  1  0  0  0  0  0  0  0  0  0
   -1.4662    0.9951   -6.6797 N   0  3  0  0  0  0  0  0  0  0  0  0
   -1.9476    3.0958   -5.5142 C   0  0  0  0  0  0  0  0  0  0  0  0
   -5.3837   -0.0605   -3.6781 C   0  0  1  0  0  0  0  0  0  0  0  0
   -5.3582   -1.1072   -2.5705 C   0  0  1  0  0  0  0  0  0  0  0  0
   -6.6443   -0.7505   -1.8376 C   0  0  1  0  0  0  0  0  0  0  0  0
   -7.5966   -0.4588   -3.0061 C   0  0  2  0  0  0  0  0  0  0  0  0
   -6.7617    0.0681   -4.0649 O   0  0  0  0  0  0  0  0  0  0  0  0
   -8.6984    0.5541   -2.6463 C   0  0  0  0  0  0  0  0  0  0  0  0
   -9.5127   -4.1301    0.9412 C   0  0  1  0  0  0  0  0  0  0  0  0
   -9.3513   -2.5995    1.1574 C   0  0  1  0  0  0  0  0  0  0  0  0
   -9.4510   -1.7596   -0.1486 C   0  0  2  0  0  0  0  0  0  0  0  0
   -8.4828   -2.3060   -1.2467 C   0  0  1  0  0  0  0  0  0  0  0  0
   -7.1172   -1.8571   -1.0167 O   0  0  0  0  0  0  0  0  0  0  0  0
   -9.5914   -4.4703   -0.5781 C   0  0  1  0  0  0  0  0  0  0  0  0
   -8.5093   -3.7863   -1.2907 O   0  0  0  0  0  0  0  0  0  0  0  0
   -9.4988   -5.9940   -0.8497 C   0  0  0  0  0  0  0  0  0  0  0  0
   -4.4314   -3.0833   -9.4480 N   0  3  0  0  0  0  0  0  0  0  0  0
   -5.4258   -2.4148   -3.1400 O   0  0  0  0  0  0  0  0  0  0  0  0
  -10.3687   -2.1629    2.0578 O   0  0  0  0  0  0  0  0  0  0  0  0
   -8.3938   -4.7910    1.5366 O   0  0  0  0  0  0  0  0  0  0  0  0
   -9.2165    1.1724   -3.8116 O   0  0  0  0  0  0  0  0  0  0  0  0
   -3.6928    3.7421   -2.2210 O   0  0  0  0  0  0  0  0  0  0  0  0
   -9.7574   -6.3421   -2.2589 N   0  3  0  0  0  0  0  0  0  0  0  0
   -9.2516   -0.3138    0.1204 N   0  3  0  0  0  0  0  0  0  0  0  0
  1  2  1  1  0  0  0
  1  3  1  0  0  0  0
  1 10  1  0  0  0  0
  3  4  1  1  0  0  0
  3  5  1  0  0  0  0
  5  6  1  1  0  0  0
  5  7  1  0  0  0  0
  7  8  1  6  0  0  0
  7  9  1  0  0  0  0
  9 10  1  0  0  0  0
  9 11  1  1  0  0  0
 11 35  1  0  0  0  0
 12 13  1  6  0  0  0
 12 14  1  0  0  0  0
 12 20  1  0  0  0  0
 14 15  1  0  0  0  0
 14 40  1  1  0  0  0
 15 16  1  6  0  0  0
 15 17  1  0  0  0  0
 17  2  1  1  0  0  0
 17 18  1  0  0  0  0
 18 19  1  6  0  0  0
 18 20  1  0  0  0  0
 21 16  1  1  0  0  0
 21 22  1  0  0  0  0
 21 25  1  0  0  0  0
 22 23  1  0  0  0  0
 22 36  1  6  0  0  0
 23 24  1  0  0  0  0
 23 31  1  6  0  0  0
 24 25  1  0  0  0  0
 24 26  1  1  0  0  0
 26 39  1  0  0  0  0
 27 28  1  0  0  0  0
 27 32  1  0  0  0  0
 27 38  1  6  0  0  0
 28 29  1  0  0  0  0
 28 37  1  1  0  0  0
 29 30  1  0  0  0  0
 29 42  1  1  0  0  0
 30 31  1  1  0  0  0
 30 33  1  0  0  0  0
 32 33  1  0  0  0  0
 32 34  1  1  0  0  0
 34 41  1  0  0  0  0
M  CHG  6   4   1  13   1  19   1  35   1  41   1  42   1
M  END
>  <CHROM.1>
-168.20516766,136.59107935,-115.00081387,71.95110007,60.92154452,-77.09084591
75.05546250,-38.60970912,56.93746999,146.14378126,102.42915780,104.26972201
172.41855557,-125.19624880,157.76396001,-148.39053723,-86.82285824,53.56709799
-135.67548459,-101.67698792,172.08448305,174.29162832,-5.39345949,-1.26384405
-3.45448511,-0.16303325,-0.75474365,-2.87978479

>  <Name>


>  <RI>
0

>  <Rbt.Current_Directory>
/home/itssahil/PROJECTS/Mol_Feturizer/New_Systems/rnas/1ei2

>  <Rbt.Executable>
rbdock ($Id: //depot/dev/client3/rdock/2013.1/src/exe/rbdock.cxx#4 $)

>  <Rbt.Library>
libRbt.so (2013.1, Build901 2013/11/27)

>  <Rbt.Parameter_File>
/export/apps/rDock/src/rDock_2013.1_src/data/scripts/dock_solv.prm

>  <Rbt.Receptor>
prm/blind_docking_80.prm

>  <SCORE>
44.295

>  <SCORE.INTER>
30.7637

>  <SCORE.INTER.CONST>
1

>  <SCORE.INTER.POLAR>
-5.45939

>  <SCORE.INTER.ROT>
9

>  <SCORE.INTER.SOLV>
64.4841

>  <SCORE.INTER.VDW>
7.61239

>  <SCORE.INTER.norm>
0.732469

>  <SCORE.INTRA>
2.37415

>  <SCORE.INTRA.DIHEDRAL>
11.1937

>  <SCORE.INTRA.DIHEDRAL.0>
40.8761

>  <SCORE.INTRA.POLAR>
-1.43049

>  <SCORE.INTRA.POLAR.0>
-0.0268208

>  <SCORE.INTRA.REPUL>
-0.641615

>  <SCORE.INTRA.REPUL.0>
0.641615

>  <SCORE.INTRA.SOLV>
-4.26543

>  <SCORE.INTRA.SOLV.lig_0>
-162.567

>  <SCORE.INTRA.VDW>
6.98173

>  <SCORE.INTRA.VDW.0>
-4.80338

>  <SCORE.INTRA.norm>
0.0565274

>  <SCORE.RESTR>
11.1571

>  <SCORE.RESTR.CAVITY>
11.1571

>  <SCORE.RESTR.norm>
0.265646

>  <SCORE.SYSTEM>
0

>  <SCORE.SYSTEM.CONST>
0

>  <SCORE.SYSTEM.DIHEDRAL>
0

>  <SCORE.SYSTEM.SOLV>
0

>  <SCORE.SYSTEM.norm>
0

>  <SCORE.heavy>
42

>  <SCORE.norm>
1.05464

>  <RMSD>
9.619

$$$$

 OpenBabel11021811393D
libRbt.so/2013.1/901 2013/11/27
 42 45  0  0  0  0  0  0  0  0999 V2000
   -3.4566   -1.1019   -7.1183 C   0  0  2  0  0  0  0  0  0  0  0  0
   -4.5645   -0.2520   -6.6893 O   0  0  0  0  0  0  0  0  0  0  0  0
   -2.9258   -0.6875   -8.5290 C   0  0  2  0  0  0  0  0  0  0  0  0
   -3.4171    0.6519   -8.9264 N   0  3  0  0  0  0  0  0  0  0  0  0
   -3.3156   -1.7523   -9.5982 C   0  0  1  0  0  0  0  0  0  0  0  0
   -2.8176   -1.3686  -10.8782 O   0  0  0  0  0  0  0  0  0  0  0  0
   -2.7480   -3.1542   -9.2492 C   0  0  2  0  0  0  0  0  0  0  0  0
   -3.3705   -4.1210  -10.0880 O   0  0  0  0  0  0  0  0  0  0  0  0
   -2.9962   -3.5089   -7.7472 C   0  0  2  0  0  0  0  0  0  0  0  0
   -3.8735   -2.5102   -7.1322 O   0  0  0  0  0  0  0  0  0  0  0  0
   -1.7169   -3.5612   -6.8806 C   0  0  0  0  0  0  0  0  0  0  0  0
   -2.6803    3.4598   -5.5526 C   0  0  1  0  0  0  0  0  0  0  0  0
   -2.3274    4.7090   -4.8418 N   0  3  0  0  0  0  0  0  0  0  0  0
   -2.3012    2.2058   -4.7219 C   0  0  1  0  0  0  0  0  0  0  0  0
   -2.7869    0.8563   -5.3568 C   0  0  1  0  0  0  0  0  0  0  0  0
   -2.6673   -0.1867   -4.3524 O   0  0  0  0  0  0  0  0  0  0  0  0
   -4.2878    0.8933   -5.8261 C   0  0  1  0  0  0  0  0  0  0  0  0
   -4.6178    2.1912   -6.6322 C   0  0  1  0  0  0  0  0  0  0  0  0
   -6.0574    2.2987   -6.9449 N   0  3  0  0  0  0  0  0  0  0  0  0
   -4.1902    3.4654   -5.8697 C   0  0  0  0  0  0  0  0  0  0  0  0
   -2.7613    0.1612   -2.9407 C   0  0  1  0  0  0  0  0  0  0  0  0
   -4.2207    0.4469   -2.6073 C   0  0  1  0  0  0  0  0  0  0  0  0
   -4.7413   -0.9754   -2.4505 C   0  0  1  0  0  0  0  0  0  0  0  0
   -3.5869   -1.6464   -1.6926 C   0  0  2  0  0  0  0  0  0  0  0  0
   -2.3870   -0.9655   -2.1310 O   0  0  0  0  0  0  0  0  0  0  0  0
   -3.4749   -3.1547   -1.9788 C   0  0  0  0  0  0  0  0  0  0  0  0
   -9.6865   -1.3725   -0.7470 C   0  0  1  0  0  0  0  0  0  0  0  0
   -9.0853   -0.2156   -1.5930 C   0  0  1  0  0  0  0  0  0  0  0  0
   -8.1994   -0.6910   -2.7806 C   0  0  2  0  0  0  0  0  0  0  0  0
   -7.1076   -1.7011   -2.3015 C   0  0  1  0  0  0  0  0  0  0  0  0
   -5.9823   -1.0103   -1.6886 O   0  0  0  0  0  0  0  0  0  0  0  0
   -9.1273   -2.7503   -1.2152 C   0  0  1  0  0  0  0  0  0  0  0  0
   -7.6691   -2.6729   -1.3351 O   0  0  0  0  0  0  0  0  0  0  0  0
   -9.4998   -3.9014   -0.2455 C   0  0  0  0  0  0  0  0  0  0  0  0
   -1.0303   -4.8650   -6.8859 N   0  3  0  0  0  0  0  0  0  0  0  0
   -4.3028    1.1725   -1.3804 O   0  0  0  0  0  0  0  0  0  0  0  0
  -10.1597    0.5672   -2.1119 O   0  0  0  0  0  0  0  0  0  0  0  0
   -9.3563   -1.1475    0.6253 O   0  0  0  0  0  0  0  0  0  0  0  0
   -3.0900   -3.3868   -3.3230 O   0  0  0  0  0  0  0  0  0  0  0  0
   -0.8813    2.1588   -4.5842 O   0  0  0  0  0  0  0  0  0  0  0  0
   -9.6403   -5.2018   -0.9261 N   0  3  0  0  0  0  0  0  0  0  0  0
   -7.6269    0.4588   -3.5238 N   0  3  0  0  0  0  0  0  0  0  0  0
  1  2  1  6  0  0  0
  1  3  1  0  0  0  0
  1 10  1  0  0  0  0
  3  4  1  6  0  0  0
  3  5  1  0  0  0  0
  5  6  1  6  0  0  0
  5  7  1  0  0  0  0
  7  8  1  6  0  0  0
  7  9  1  0  0  0  0
  9 10  1  0  0  0  0
  9 11  1  1  0  0  0
 11 35  1  0  0  0  0
 12 13  1  1  0  0  0
 12 14  1  0  0  0  0
 12 20  1  0  0  0  0
 14 15  1  0  0  0  0
 14 40  1  6  0  0  0
 15 16  1  1  0  0  0
 15 17  1  0  0  0  0
 17  2  1  6  0  0  0
 17 18  1  0  0  0  0
 18 19  1  1  0  0  0
 18 20  1  0  0  0  0
 21 16  1  6  0  0  0
 21 22  1  0  0  0  0
 21 25  1  0  0  0  0
 22 23  1  0  0  0  0
 22 36  1  1  0  0  0
 23 24  1  0  0  0  0
 23 31  1  1  0  0  0
 24 25  1  0  0  0  0
 24 26  1  6  0  0  0
 26 39  1  0  0  0  0
 27 28  1  0  0  0  0
 27 32  1  0  0  0  0
 27 38  1  1  0  0  0
 28 29  1  0  0  0  0
 28 37  1  6  0  0  0
 29 30  1  0  0  0  0
 29 42  1  1  0  0  0
 30 31  1  1  0  0  0
 30 33  1  0  0  0  0
 32 33  1  0  0  0  0
 32 34  1  1  0  0  0
 34 41  1  0  0  0  0
M  CHG  6   4   1  13   1  19   1  35   1  41   1  42   1
M  END
>  <CHROM.1>
-95.79508190,-7.95802144,79.22417395,-147.16781903,-53.81562245,-86.66106631
110.18015944,30.49250311,75.20863884,27.70735531,74.58448635,-169.95544796
-52.78704898,126.91391941,67.29540003,-51.34454889,169.58406747,170.64761634
38.94087240,-107.94398615,149.73504169,-39.35251813,-4.78774939,-0.77250802
-4.54937908,0.16967581,-0.86813571,-2.77440210

>  <Name>


>  <RI>
0

>  <Rbt.Current_Directory>
/home/itssahil/PROJECTS/Mol_Feturizer/New_Systems/rnas/1ei2

>  <Rbt.Executable>
rbdock ($Id: //depot/dev/client3/rdock/2013.1/src/exe/rbdock.cxx#4 $)

>  <Rbt.Library>
libRbt.so (2013.1, Build901 2013/11/27)

>  <Rbt.Parameter_File>
/export/apps/rDock/src/rDock_2013.1_src/data/scripts/dock_solv.prm

>  <Rbt.Receptor>
prm/blind_docking_100.prm

>  <SCORE>
-13.8425

>  <SCORE.INTER>
-22.282

>  <SCORE.INTER.CONST>
1

>  <SCORE.INTER.POLAR>
-6.03166

>  <SCORE.INTER.ROT>
9

>  <SCORE.INTER.SOLV>
46.5614

>  <SCORE.INTER.VDW>
-19.8696

>  <SCORE.INTER.norm>
-0.530523

>  <SCORE.INTRA>
0.0752797

>  <SCORE.INTRA.DIHEDRAL>
9.80156

>  <SCORE.INTRA.DIHEDRAL.0>
40.8761

>  <SCORE.INTRA.POLAR>
-0.030871

>  <SCORE.INTRA.POLAR.0>
-0.0268208

>  <SCORE.INTRA.REPUL>
-0.641615

>  <SCORE.INTRA.REPUL.0>
0.641615

>  <SCORE.INTRA.SOLV>
-6.98577

>  <SCORE.INTRA.SOLV.lig_0>
-162.567

>  <SCORE.INTRA.VDW>
1.98042

>  <SCORE.INTRA.VDW.0>
-4.80338

>  <SCORE.INTRA.norm>
0.00179237

>  <SCORE.RESTR>
8.36422

>  <SCORE.RESTR.CAVITY>
8.36422

>  <SCORE.RESTR.norm>
0.199148

>  <SCORE.SYSTEM>
0

>  <SCORE.SYSTEM.CONST>
0

>  <SCORE.SYSTEM.DIHEDRAL>
0

>  <SCORE.SYSTEM.SOLV>
0

>  <SCORE.SYSTEM.norm>
0

>  <SCORE.heavy>
42

>  <SCORE.norm>
-0.329582

>  <RMSD>
9.621

$$$$

 OpenBabel11021811393D
libRbt.so/2013.1/901 2013/11/27
 42 45  0  0  0  0  0  0  0  0999 V2000
   -3.6769   -2.3280   -5.6945 C   0  0  2  0  0  0  0  0  0  0  0  0
   -4.5603   -1.3914   -6.3846 O   0  0  0  0  0  0  0  0  0  0  0  0
   -2.3012   -2.4660   -6.4240 C   0  0  2  0  0  0  0  0  0  0  0  0
   -2.0919   -1.3782   -7.4068 N   0  3  0  0  0  0  0  0  0  0  0  0
   -2.1820   -3.8577   -7.1151 C   0  0  1  0  0  0  0  0  0  0  0  0
   -0.9198   -3.9756   -7.7681 O   0  0  0  0  0  0  0  0  0  0  0  0
   -2.3198   -5.0208   -6.0965 C   0  0  2  0  0  0  0  0  0  0  0  0
   -2.4933   -6.2380   -6.8134 O   0  0  0  0  0  0  0  0  0  0  0  0
   -3.5281   -4.7902   -5.1321 C   0  0  2  0  0  0  0  0  0  0  0  0
   -4.3204   -3.6435   -5.5825 O   0  0  0  0  0  0  0  0  0  0  0  0
   -3.1325   -4.5004   -3.6659 C   0  0  0  0  0  0  0  0  0  0  0  0
   -3.1011    2.6532   -6.7470 C   0  0  1  0  0  0  0  0  0  0  0  0
   -2.9314    4.1159   -6.5983 N   0  3  0  0  0  0  0  0  0  0  0  0
   -2.7499    1.9032   -5.4353 C   0  0  1  0  0  0  0  0  0  0  0  0
   -3.0541    0.3654   -5.4855 C   0  0  1  0  0  0  0  0  0  0  0  0
   -2.9968   -0.1529   -4.1294 O   0  0  0  0  0  0  0  0  0  0  0  0
   -4.4789    0.0307   -6.0617 C   0  0  1  0  0  0  0  0  0  0  0  0
   -4.7878    0.8362   -7.3651 C   0  0  1  0  0  0  0  0  0  0  0  0
   -6.1776    0.6366   -7.8239 N   0  3  0  0  0  0  0  0  0  0  0  0
   -4.5528    2.3514   -7.1734 C   0  0  0  0  0  0  0  0  0  0  0  0
   -3.4445    0.6813   -3.0219 C   0  0  1  0  0  0  0  0  0  0  0  0
   -4.9386    0.4589   -2.8198 C   0  0  1  0  0  0  0  0  0  0  0  0
   -4.9097   -0.8428   -2.0304 C   0  0  1  0  0  0  0  0  0  0  0  0
   -3.7300   -0.6017   -1.0778 C   0  0  2  0  0  0  0  0  0  0  0  0
   -2.8159    0.2565   -1.8014 O   0  0  0  0  0  0  0  0  0  0  0  0
   -3.0185   -1.9010   -0.6596 C   0  0  0  0  0  0  0  0  0  0  0  0
   -9.8733   -1.6659   -0.5677 C   0  0  1  0  0  0  0  0  0  0  0  0
   -9.2955   -0.4184   -1.2925 C   0  0  1  0  0  0  0  0  0  0  0  0
   -8.3375   -0.7557   -2.4714 C   0  0  2  0  0  0  0  0  0  0  0  0
   -7.2178   -1.7489   -2.0225 C   0  0  1  0  0  0  0  0  0  0  0  0
   -6.1554   -1.0577   -1.3065 O   0  0  0  0  0  0  0  0  0  0  0  0
   -9.2266   -2.9744   -1.1153 C   0  0  1  0  0  0  0  0  0  0  0  0
   -7.7704   -2.8199   -1.1614 O   0  0  0  0  0  0  0  0  0  0  0  0
   -9.5817   -4.2153   -0.2563 C   0  0  0  0  0  0  0  0  0  0  0  0
   -1.8089   -3.8734   -3.5045 N   0  3  0  0  0  0  0  0  0  0  0  0
   -5.4858    1.5276   -2.0471 O   0  0  0  0  0  0  0  0  0  0  0  0
  -10.3848    0.3525   -1.7980 O   0  0  0  0  0  0  0  0  0  0  0  0
   -9.6131   -1.5362    0.8317 O   0  0  0  0  0  0  0  0  0  0  0  0
   -3.3604   -2.9667   -1.5291 O   0  0  0  0  0  0  0  0  0  0  0  0
   -1.3607    2.0836   -5.1616 O   0  0  0  0  0  0  0  0  0  0  0  0
   -9.5921   -5.4676   -1.0345 N   0  3  0  0  0  0  0  0  0  0  0  0
   -7.7923    0.4752   -3.0957 N   0  3  0  0  0  0  0  0  0  0  0  0
  1  2  1  6  0  0  0
  1  3  1  0  0  0  0
  1 10  1  0  0  0  0
  3  4  1  6  0  0  0
  3  5  1  0  0  0  0
  5  6  1  1  0  0  0
  5  7  1  0  0  0  0
  7  8  1  6  0  0  0
  7  9  1  0  0  0  0
  9 10  1  0  0  0  0
  9 11  1  1  0  0  0
 11 35  1  0  0  0  0
 12 13  1  1  0  0  0
 12 14  1  0  0  0  0
 12 20  1  0  0  0  0
 14 15  1  0  0  0  0
 14 40  1  6  0  0  0
 15 16  1  1  0  0  0
 15 17  1  0  0  0  0
 17  2  1  6  0  0  0
 17 18  1  0  0  0  0
 18 19  1  1  0  0  0
 18 20  1  0  0  0  0
 21 16  1  6  0  0  0
 21 22  1  0  0  0  0
 21 25  1  0  0  0  0
 22 23  1  0  0  0  0
 22 36  1  1  0  0  0
 23 24  1  0  0  0  0
 23 31  1  1  0  0  0
 24 25  1  0  0  0  0
 24 26  1  6  0  0  0
 26 39  1  0  0  0  0
 27 28  1  0  0  0  0
 27 32  1  0  0  0  0
 27 38  1  1  0  0  0
 28 29  1  0  0  0  0
 28 37  1  6  0  0  0
 29 30  1  0  0  0  0
 29 42  1  1  0  0  0
 30 31  1  1  0  0  0
 30 33  1  0  0  0  0
 32 33  1  0  0  0  0
 32 34  1  1  0  0  0
 34 41  1  0  0  0  0
M  CHG  6   4   1  13   1  19   1  35   1  41   1  42   1
M  END
>  <CHROM.1>
-87.25236212,24.36209129,-138.02640124,59.71143455,94.74604464,27.38149035
142.76136601,-75.22774502,-59.58682411,34.62059468,88.61913780,-68.53213129
-36.25951506,88.05328247,16.69966613,-171.81505490,-179.03193084,168.62533663
-178.11218101,-104.84442935,151.30108563,-38.37139027,-4.89903054,-1.28834773
-3.90116131,-0.22837175,-0.70960762,2.96713649

>  <Name>


>  <RI>
0

>  <Rbt.Current_Directory>
/home/itssahil/PROJECTS/Mol_Feturizer/New_Systems/rnas/1ei2

>  <Rbt.Executable>
rbdock ($Id: //depot/dev/client3/rdock/2013.1/src/exe/rbdock.cxx#4 $)

>  <Rbt.Library>
libRbt.so (2013.1, Build901 2013/11/27)

>  <Rbt.Parameter_File>
/export/apps/rDock/src/rDock_2013.1_src/data/scripts/dock_solv.prm

>  <Rbt.Receptor>
prm/blind_docking_20.prm

>  <SCORE>
14.319

>  <SCORE.INTER>
3.44502

>  <SCORE.INTER.CONST>
1

>  <SCORE.INTER.POLAR>
-6.49248

>  <SCORE.INTER.ROT>
9

>  <SCORE.INTER.SOLV>
53.1617

>  <SCORE.INTER.VDW>
-3.3823

>  <SCORE.INTER.norm>
0.0820242

>  <SCORE.INTRA>
4.52492

>  <SCORE.INTRA.DIHEDRAL>
7.3641

>  <SCORE.INTRA.DIHEDRAL.0>
40.8761

>  <SCORE.INTRA.POLAR>
-1.2403

>  <SCORE.INTRA.POLAR.0>
-0.0268208

>  <SCORE.INTRA.REPUL>
-0.640654

>  <SCORE.INTRA.REPUL.0>
0.641615

>  <SCORE.INTRA.SOLV>
2.4448

>  <SCORE.INTRA.SOLV.lig_0>
-162.567

>  <SCORE.INTRA.VDW>
7.04076

>  <SCORE.INTRA.VDW.0>
-4.80338

>  <SCORE.INTRA.norm>
0.107736

>  <SCORE.RESTR>
6.34911

>  <SCORE.RESTR.CAVITY>
6.34911

>  <SCORE.RESTR.norm>
0.151169

>  <SCORE.SYSTEM>
0

>  <SCORE.SYSTEM.CONST>
0

>  <SCORE.SYSTEM.DIHEDRAL>
0

>  <SCORE.SYSTEM.SOLV>
0

>  <SCORE.SYSTEM.norm>
0

>  <SCORE.heavy>
42

>  <SCORE.norm>
0.34093

>  <RMSD>
9.623

$$$$

 OpenBabel11021811393D
libRbt.so/2013.1/901 2013/11/27
 42 45  0  0  0  0  0  0  0  0999 V2000
   -3.3551   -2.1788   -6.1538 C   0  0  2  0  0  0  0  0  0  0  0  0
   -4.4245   -1.2020   -6.3438 O   0  0  0  0  0  0  0  0  0  0  0  0
   -2.4187   -2.2576   -7.4032 C   0  0  2  0  0  0  0  0  0  0  0  0
   -2.6175   -1.1031   -8.3092 N   0  3  0  0  0  0  0  0  0  0  0  0
   -2.6351   -3.5974   -8.1694 C   0  0  1  0  0  0  0  0  0  0  0  0
   -1.7690   -3.6622   -9.3003 O   0  0  0  0  0  0  0  0  0  0  0  0
   -2.3583   -4.8291   -7.2662 C   0  0  2  0  0  0  0  0  0  0  0  0
   -2.8467   -5.9947   -7.9207 O   0  0  0  0  0  0  0  0  0  0  0  0
   -3.0417   -4.6731   -5.8690 C   0  0  2  0  0  0  0  0  0  0  0  0
   -3.9224   -3.5028   -5.8669 O   0  0  0  0  0  0  0  0  0  0  0  0
   -2.0581   -4.4831   -4.6914 C   0  0  0  0  0  0  0  0  0  0  0  0
   -2.7560    2.7756   -6.2256 C   0  0  1  0  0  0  0  0  0  0  0  0
   -2.4958    4.1925   -5.8860 N   0  3  0  0  0  0  0  0  0  0  0  0
   -2.3842    1.8316   -5.0522 C   0  0  1  0  0  0  0  0  0  0  0  0
   -2.7779    0.3333   -5.2972 C   0  0  1  0  0  0  0  0  0  0  0  0
   -2.6838   -0.3734   -4.0312 O   0  0  0  0  0  0  0  0  0  0  0  0
   -4.2462    0.1545   -5.8325 C   0  0  1  0  0  0  0  0  0  0  0  0
   -4.5722    1.1502   -6.9924 C   0  0  1  0  0  0  0  0  0  0  0  0
   -5.9920    1.0867   -7.3949 N   0  3  0  0  0  0  0  0  0  0  0  0
   -4.2418    2.6096   -6.6067 C   0  0  0  0  0  0  0  0  0  0  0  0
   -2.9364    0.3430   -2.7880 C   0  0  1  0  0  0  0  0  0  0  0  0
   -4.4273    0.6456   -2.6965 C   0  0  1  0  0  0  0  0  0  0  0  0
   -4.9426   -0.7006   -2.2060 C   0  0  1  0  0  0  0  0  0  0  0  0
   -3.8691   -1.0881   -1.1790 C   0  0  2  0  0  0  0  0  0  0  0  0
   -2.6378   -0.5019   -1.6646 O   0  0  0  0  0  0  0  0  0  0  0  0
   -3.7060   -2.6108   -1.0239 C   0  0  0  0  0  0  0  0  0  0  0  0
   -9.9507   -1.2391   -0.7731 C   0  0  1  0  0  0  0  0  0  0  0  0
   -9.3602    0.1305   -1.2099 C   0  0  1  0  0  0  0  0  0  0  0  0
   -8.4900    0.0652   -2.4982 C   0  0  2  0  0  0  0  0  0  0  0  0
   -7.3924   -1.0410   -2.3826 C   0  0  1  0  0  0  0  0  0  0  0  0
   -6.2590   -0.5793   -1.5942 O   0  0  0  0  0  0  0  0  0  0  0  0
   -9.3981   -2.3914   -1.6659 C   0  0  1  0  0  0  0  0  0  0  0  0
   -7.9416   -2.2739   -1.7726 O   0  0  0  0  0  0  0  0  0  0  0  0
   -9.7584   -3.7944   -1.1128 C   0  0  0  0  0  0  0  0  0  0  0  0
   -2.6736   -4.6025   -3.3580 N   0  3  0  0  0  0  0  0  0  0  0  0
   -4.6530    1.6750   -1.7331 O   0  0  0  0  0  0  0  0  0  0  0  0
  -10.4410    1.0343   -1.4365 O   0  0  0  0  0  0  0  0  0  0  0  0
   -9.6027   -1.4656    0.5946 O   0  0  0  0  0  0  0  0  0  0  0  0
   -2.5121   -2.9228   -0.3269 O   0  0  0  0  0  0  0  0  0  0  0  0
   -0.9752    1.9022   -4.8354 O   0  0  0  0  0  0  0  0  0  0  0  0
   -9.1495   -4.0661    0.2023 N   0  3  0  0  0  0  0  0  0  0  0  0
   -7.9268    1.3950   -2.8396 N   0  3  0  0  0  0  0  0  0  0  0  0
  1  2  1  6  0  0  0
  1  3  1  0  0  0  0
  1 10  1  0  0  0  0
  3  4  1  6  0  0  0
  3  5  1  0  0  0  0
  5  6  1  6  0  0  0
  5  7  1  0  0  0  0
  7  8  1  6  0  0  0
  7  9  1  0  0  0  0
  9 10  1  0  0  0  0
  9 11  1  1  0  0  0
 11 35  1  0  0  0  0
 12 13  1  1  0  0  0
 12 14  1  0  0  0  0
 12 20  1  0  0  0  0
 14 15  1  0  0  0  0
 14 40  1  6  0  0  0
 15 16  1  1  0  0  0
 15 17  1  0  0  0  0
 17  2  1  6  0  0  0
 17 18  1  0  0  0  0
 18 19  1  1  0  0  0
 18 20  1  0  0  0  0
 21 16  1  6  0  0  0
 21 22  1  0  0  0  0
 21 25  1  0  0  0  0
 22 23  1  0  0  0  0
 22 36  1  1  0  0  0
 23 24  1  0  0  0  0
 23 31  1  1  0  0  0
 24 25  1  0  0  0  0
 24 26  1  6  0  0  0
 26 39  1  0  0  0  0
 27 28  1  0  0  0  0
 27 32  1  0  0  0  0
 27 38  1  1  0  0  0
 28 29  1  0  0  0  0
 28 37  1  6  0  0  0
 29 30  1  0  0  0  0
 29 42  1  1  0  0  0
 30 31  1  1  0  0  0
 30 33  1  0  0  0  0
 32 33  1  0  0  0  0
 32 34  1  1  0  0  0
 34 41  1  0  0  0  0
M  CHG  6   4   1  13   1  19   1  35   1  41   1  42   1
M  END
>  <CHROM.1>
-95.25647369,6.94193886,177.99103151,179.92241494,-59.25881358,-168.51226367
158.57236918,-78.06207092,-66.73959546,30.30626686,71.27836896,-56.68171069
61.32815007,104.22683338,165.93230723,-107.50185192,68.35502542,60.84778911
169.58763857,-126.88555041,-63.72204795,168.57151384,-4.82753992,-1.09108888
-4.00549788,0.03719170,-0.77619709,3.11843435

>  <Name>


>  <RI>
0

>  <Rbt.Current_Directory>
/home/itssahil/PROJECTS/Mol_Feturizer/New_Systems/rnas/1ei2

>  <Rbt.Executable>
rbdock ($Id: //depot/dev/client3/rdock/2013.1/src/exe/rbdock.cxx#4 $)

>  <Rbt.Library>
libRbt.so (2013.1, Build901 2013/11/27)

>  <Rbt.Parameter_File>
/export/apps/rDock/src/rDock_2013.1_src/data/scripts/dock_solv.prm

>  <Rbt.Receptor>
prm/blind_docking_60.prm

>  <SCORE>
-4.83672

>  <SCORE.INTER>
-6.89036

>  <SCORE.INTER.CONST>
1

>  <SCORE.INTER.POLAR>
-3.9155

>  <SCORE.INTER.ROT>
9

>  <SCORE.INTER.SOLV>
47.0938

>  <SCORE.INTER.VDW>
-16.8398

>  <SCORE.INTER.norm>
-0.164056

>  <SCORE.INTRA>
-6.52887

>  <SCORE.INTRA.DIHEDRAL>
-1.30008

>  <SCORE.INTRA.DIHEDRAL.0>
40.8761

>  <SCORE.INTRA.POLAR>
-0.770785

>  <SCORE.INTRA.POLAR.0>
-0.0268208

>  <SCORE.INTRA.REPUL>
-0.641615

>  <SCORE.INTRA.REPUL.0>
0.641615

>  <SCORE.INTRA.SOLV>
-2.21913

>  <SCORE.INTRA.SOLV.lig_0>
-162.567

>  <SCORE.INTRA.VDW>
1.05947

>  <SCORE.INTRA.VDW.0>
-4.80338

>  <SCORE.INTRA.norm>
-0.155449

>  <SCORE.RESTR>
8.58252

>  <SCORE.RESTR.CAVITY>
8.58252

>  <SCORE.RESTR.norm>
0.204346

>  <SCORE.SYSTEM>
0

>  <SCORE.SYSTEM.CONST>
0

>  <SCORE.SYSTEM.DIHEDRAL>
0

>  <SCORE.SYSTEM.SOLV>
0

>  <SCORE.SYSTEM.norm>
0

>  <SCORE.heavy>
42

>  <SCORE.norm>
-0.11516

>  <RMSD>
9.626

$$$$

 OpenBabel11021811393D
libRbt.so/2013.1/901 2013/11/27
 42 45  0  0  0  0  0  0  0  0999 V2000
   -3.5006   -2.2264   -6.1541 C   0  0  2  0  0  0  0  0  0  0  0  0
   -4.5940   -1.5155   -6.8120 O   0  0  0  0  0  0  0  0  0  0  0  0
   -2.4198   -2.6972   -7.1807 C   0  0  2  0  0  0  0  0  0  0  0  0
   -2.5752   -2.0191   -8.4880 N   0  3  0  0  0  0  0  0  0  0  0  0
   -2.4669   -4.2448   -7.3584 C   0  0  1  0  0  0  0  0  0  0  0  0
   -1.4704   -4.6631   -8.2888 O   0  0  0  0  0  0  0  0  0  0  0  0
   -2.2292   -4.9867   -6.0158 C   0  0  2  0  0  0  0  0  0  0  0  0
   -2.5692   -6.3583   -6.1853 O   0  0  0  0  0  0  0  0  0  0  0  0
   -3.0812   -4.3619   -4.8639 C   0  0  2  0  0  0  0  0  0  0  0  0
   -4.0214   -3.3797   -5.4085 O   0  0  0  0  0  0  0  0  0  0  0  0
   -2.2567   -3.6263   -3.7826 C   0  0  0  0  0  0  0  0  0  0  0  0
   -3.6296    2.6768   -7.1503 C   0  0  1  0  0  0  0  0  0  0  0  0
   -3.6820    4.1533   -7.0630 N   0  3  0  0  0  0  0  0  0  0  0  0
   -3.4371    2.0306   -5.7534 C   0  0  1  0  0  0  0  0  0  0  0  0
   -3.5244    0.4646   -5.7637 C   0  0  1  0  0  0  0  0  0  0  0  0
   -3.6563    0.0084   -4.3906 O   0  0  0  0  0  0  0  0  0  0  0  0
   -4.7599   -0.0851   -6.5672 C   0  0  1  0  0  0  0  0  0  0  0  0
   -4.9200    0.6222   -7.9518 C   0  0  1  0  0  0  0  0  0  0  0  0
   -6.1610    0.2154   -8.6420 N   0  3  0  0  0  0  0  0  0  0  0  0
   -4.9238    2.1613   -7.8136 C   0  0  0  0  0  0  0  0  0  0  0  0
   -4.5731    0.6952   -3.4903 C   0  0  1  0  0  0  0  0  0  0  0  0
   -5.9468    0.0456   -3.6082 C   0  0  1  0  0  0  0  0  0  0  0  0
   -5.7420   -1.1734   -2.7192 C   0  0  1  0  0  0  0  0  0  0  0  0
   -4.9427   -0.5757   -1.5525 C   0  0  2  0  0  0  0  0  0  0  0  0
   -4.1621    0.4994   -2.1273 O   0  0  0  0  0  0  0  0  0  0  0  0
   -4.0155   -1.5983   -0.8714 C   0  0  0  0  0  0  0  0  0  0  0  0
   -9.6774    0.8465   -1.2829 C   0  0  1  0  0  0  0  0  0  0  0  0
   -9.9503   -0.6523   -1.5900 C   0  0  1  0  0  0  0  0  0  0  0  0
   -9.0287   -1.6376   -0.8148 C   0  0  2  0  0  0  0  0  0  0  0  0
   -7.5225   -1.2627   -0.9957 C   0  0  1  0  0  0  0  0  0  0  0  0
   -7.0121   -1.7320   -2.2758 O   0  0  0  0  0  0  0  0  0  0  0  0
   -8.4265    1.0059   -0.3663 C   0  0  1  0  0  0  0  0  0  0  0  0
   -7.3232    0.2017   -0.8978 O   0  0  0  0  0  0  0  0  0  0  0  0
   -7.9684    2.4818   -0.2404 C   0  0  0  0  0  0  0  0  0  0  0  0
   -2.5402   -4.0568   -2.4022 N   0  3  0  0  0  0  0  0  0  0  0  0
   -6.9420    0.9203   -3.0761 O   0  0  0  0  0  0  0  0  0  0  0  0
  -11.3074   -0.9399   -1.2552 O   0  0  0  0  0  0  0  0  0  0  0  0
   -9.4715    1.5311   -2.5206 O   0  0  0  0  0  0  0  0  0  0  0  0
   -2.8793   -0.9588   -0.3158 O   0  0  0  0  0  0  0  0  0  0  0  0
   -2.1594    2.4117   -5.2438 O   0  0  0  0  0  0  0  0  0  0  0  0
   -6.8762    2.6622    0.7336 N   0  3  0  0  0  0  0  0  0  0  0  0
   -9.3141   -3.0474   -1.1798 N   0  3  0  0  0  0  0  0  0  0  0  0
  1  2  1  6  0  0  0
  1  3  1  0  0  0  0
  1 10  1  0  0  0  0
  3  4  1  6  0  0  0
  3  5  1  0  0  0  0
  5  6  1  6  0  0  0
  5  7  1  0  0  0  0
  7  8  1  6  0  0  0
  7  9  1  0  0  0  0
  9 10  1  0  0  0  0
  9 11  1  1  0  0  0
 11 35  1  0  0  0  0
 12 13  1  1  0  0  0
 12 14  1  0  0  0  0
 12 20  1  0  0  0  0
 14 15  1  0  0  0  0
 14 40  1  6  0  0  0
 15 16  1  1  0  0  0
 15 17  1  0  0  0  0
 17  2  1  6  0  0  0
 17 18  1  0  0  0  0
 18 19  1  1  0  0  0
 18 20  1  0  0  0  0
 21 16  1  6  0  0  0
 21 22  1  0  0  0  0
 21 25  1  0  0  0  0
 22 23  1  0  0  0  0
 22 36  1  1  0  0  0
 23 24  1  0  0  0  0
 23 31  1  1  0  0  0
 24 25  1  0  0  0  0
 24 26  1  6  0  0  0
 26 39  1  0  0  0  0
 27 28  1  0  0  0  0
 27 32  1  0  0  0  0
 27 38  1  6  0  0  0
 28 29  1  0  0  0  0
 28 37  1  1  0  0  0
 29 30  1  0  0  0  0
 29 42  1  6  0  0  0
 30 31  1  6  0  0  0
 30 33  1  0  0  0  0
 32 33  1  0  0  0  0
 32 34  1  6  0  0  0
 34 41  1  0  0  0  0
M  CHG  6   4   1  13   1  19   1  35   1  41   1  42   1
M  END
>  <CHROM.1>
-112.00900009,8.81754105,47.99370594,64.94203637,-82.32672184,-127.72572467
-56.23948644,-157.05922902,-167.59797876,44.07930232,88.99318699,-53.61744920
67.61639963,-92.95869935,150.92174564,65.04087539,-55.90511493,146.35694003
-64.15963676,165.16368210,173.96937926,-31.16846266,-5.18257872,-0.76943019
-4.03277615,-0.01388497,-0.86352801,2.69650065

>  <Name>


>  <RI>
0

>  <Rbt.Current_Directory>
/home/itssahil/PROJECTS/Mol_Feturizer/New_Systems/rnas/1ei2

>  <Rbt.Executable>
rbdock ($Id: //depot/dev/client3/rdock/2013.1/src/exe/rbdock.cxx#4 $)

>  <Rbt.Library>
libRbt.so (2013.1, Build901 2013/11/27)

>  <Rbt.Parameter_File>
/export/apps/rDock/src/rDock_2013.1_src/data/scripts/dock_solv.prm

>  <Rbt.Receptor>
prm/blind_docking_60.prm

>  <SCORE>
-7.7891

>  <SCORE.INTER>
-21.602

>  <SCORE.INTER.CONST>
1

>  <SCORE.INTER.POLAR>
-5.60328

>  <SCORE.INTER.ROT>
9

>  <SCORE.INTER.SOLV>
49.6439

>  <SCORE.INTER.VDW>
-21.8717

>  <SCORE.INTER.norm>
-0.514333

>  <SCORE.INTRA>
-4.15256

>  <SCORE.INTRA.DIHEDRAL>
2.2203

>  <SCORE.INTRA.DIHEDRAL.0>
40.8761

>  <SCORE.INTRA.POLAR>
-0.855342

>  <SCORE.INTRA.POLAR.0>
-0.0268208

>  <SCORE.INTRA.REPUL>
-0.573733

>  <SCORE.INTRA.REPUL.0>
0.641615

>  <SCORE.INTRA.SOLV>
-8.90408

>  <SCORE.INTRA.SOLV.lig_0>
-162.567

>  <SCORE.INTRA.VDW>
4.96616

>  <SCORE.INTRA.VDW.0>
-4.80338

>  <SCORE.INTRA.norm>
-0.0988705

>  <SCORE.RESTR>
17.9655

>  <SCORE.RESTR.CAVITY>
17.9655

>  <SCORE.RESTR.norm>
0.427749

>  <SCORE.SYSTEM>
0

>  <SCORE.SYSTEM.CONST>
0

>  <SCORE.SYSTEM.DIHEDRAL>
0

>  <SCORE.SYSTEM.SOLV>
0

>  <SCORE.SYSTEM.norm>
0

>  <SCORE.heavy>
42

>  <SCORE.norm>
-0.185455

>  <RMSD>
9.641

$$$$

 OpenBabel11021811393D
libRbt.so/2013.1/901 2013/11/27
 42 45  0  0  0  0  0  0  0  0999 V2000
   -3.3095   -0.3718   -7.0620 C   0  0  2  0  0  0  0  0  0  0  0  0
   -4.4014    0.5878   -7.2062 O   0  0  0  0  0  0  0  0  0  0  0  0
   -2.7175   -0.7831   -8.4492 C   0  0  2  0  0  0  0  0  0  0  0  0
   -3.1489    0.1405   -9.5234 N   0  3  0  0  0  0  0  0  0  0  0  0
   -3.1074   -2.2506   -8.8006 C   0  0  1  0  0  0  0  0  0  0  0  0
   -2.5537   -2.6174  -10.0624 O   0  0  0  0  0  0  0  0  0  0  0  0
   -2.6004   -3.2538   -7.7301 C   0  0  2  0  0  0  0  0  0  0  0  0
   -3.2271   -4.5125   -7.9503 O   0  0  0  0  0  0  0  0  0  0  0  0
   -2.9111   -2.7462   -6.2847 C   0  0  2  0  0  0  0  0  0  0  0  0
   -3.7738   -1.5639   -6.3405 O   0  0  0  0  0  0  0  0  0  0  0  0
   -1.6643   -2.3404   -5.4655 C   0  0  0  0  0  0  0  0  0  0  0  0
   -2.4644    3.9273   -5.2787 C   0  0  1  0  0  0  0  0  0  0  0  0
   -2.2093    5.2214   -4.6074 N   0  3  0  0  0  0  0  0  0  0  0  0
   -3.2480    2.9541   -4.3595 C   0  0  1  0  0  0  0  0  0  0  0  0
   -3.6782    1.6229   -5.0687 C   0  0  1  0  0  0  0  0  0  0  0  0
   -4.6613    0.9590   -4.2298 O   0  0  0  0  0  0  0  0  0  0  0  0
   -4.3355    1.8528   -6.4791 C   0  0  1  0  0  0  0  0  0  0  0  0
   -3.5189    2.8629   -7.3484 C   0  0  1  0  0  0  0  0  0  0  0  0
   -4.2108    3.1938   -8.6109 N   0  3  0  0  0  0  0  0  0  0  0  0
   -3.2391    4.1793   -6.5890 C   0  0  0  0  0  0  0  0  0  0  0  0
   -4.5557    1.0618   -2.7803 C   0  0  1  0  0  0  0  0  0  0  0  0
   -5.9044    0.7019   -2.1687 C   0  0  1  0  0  0  0  0  0  0  0  0
   -5.8238   -0.8177   -2.2218 C   0  0  1  0  0  0  0  0  0  0  0  0
   -4.3662   -1.0656   -1.8081 C   0  0  2  0  0  0  0  0  0  0  0  0
   -3.6266    0.0839   -2.2848 O   0  0  0  0  0  0  0  0  0  0  0  0
   -3.7818   -2.3575   -2.4071 C   0  0  0  0  0  0  0  0  0  0  0  0
  -10.1783   -2.6525   -0.0337 C   0  0  1  0  0  0  0  0  0  0  0  0
   -9.9207   -1.3071   -0.7679 C   0  0  1  0  0  0  0  0  0  0  0  0
   -9.1225   -1.4508   -2.0957 C   0  0  2  0  0  0  0  0  0  0  0  0
   -7.8071   -2.2659   -1.8784 C   0  0  1  0  0  0  0  0  0  0  0  0
   -6.7625   -1.4362   -1.2954 O   0  0  0  0  0  0  0  0  0  0  0  0
   -9.4347   -3.8236   -0.7450 C   0  0  1  0  0  0  0  0  0  0  0  0
   -8.0453   -3.4373   -1.0038 O   0  0  0  0  0  0  0  0  0  0  0  0
   -9.4547   -5.1310    0.0881 C   0  0  0  0  0  0  0  0  0  0  0  0
   -0.5119   -1.9159   -6.2797 N   0  3  0  0  0  0  0  0  0  0  0  0
   -5.9666    1.1760   -0.8233 O   0  0  0  0  0  0  0  0  0  0  0  0
  -11.1815   -0.7048   -1.0580 O   0  0  0  0  0  0  0  0  0  0  0  0
   -9.7216   -2.5260    1.3148 O   0  0  0  0  0  0  0  0  0  0  0  0
   -4.8146   -3.2263   -2.8398 O   0  0  0  0  0  0  0  0  0  0  0  0
   -2.4315    2.6274   -3.2352 O   0  0  0  0  0  0  0  0  0  0  0  0
   -8.6180   -5.0521    1.2995 N   0  3  0  0  0  0  0  0  0  0  0  0
   -8.8782   -0.1300   -2.7267 N   0  3  0  0  0  0  0  0  0  0  0  0
  1  2  1  6  0  0  0
  1  3  1  0  0  0  0
  1 10  1  0  0  0  0
  3  4  1  6  0  0  0
  3  5  1  0  0  0  0
  5  6  1  6  0  0  0
  5  7  1  0  0  0  0
  7  8  1  6  0  0  0
  7  9  1  0  0  0  0
  9 10  1  0  0  0  0
  9 11  1  6  0  0  0
 11 35  1  0  0  0  0
 12 13  1  1  0  0  0
 12 14  1  0  0  0  0
 12 20  1  0  0  0  0
 14 15  1  0  0  0  0
 14 40  1  1  0  0  0
 15 16  1  1  0  0  0
 15 17  1  0  0  0  0
 17  2  1  6  0  0  0
 17 18  1  0  0  0  0
 18 19  1  6  0  0  0
 18 20  1  0  0  0  0
 21 16  1  6  0  0  0
 21 22  1  0  0  0  0
 21 25  1  0  0  0  0
 22 23  1  0  0  0  0
 22 36  1  1  0  0  0
 23 24  1  0  0  0  0
 23 31  1  1  0  0  0
 24 25  1  0  0  0  0
 24 26  1  6  0  0  0
 26 39  1  0  0  0  0
 27 28  1  0  0  0  0
 27 32  1  0  0  0  0
 27 38  1  1  0  0  0
 28 29  1  0  0  0  0
 28 37  1  6  0  0  0
 29 30  1  0  0  0  0
 29 42  1  1  0  0  0
 30 31  1  1  0  0  0
 30 33  1  0  0  0  0
 32 33  1  0  0  0  0
 32 34  1  1  0  0  0
 34 41  1  0  0  0  0
M  CHG  6   4   1  13   1  19   1  35   1  41   1  42   1
M  END
>  <CHROM.1>
-125.64901611,-36.43615196,72.94007320,56.48798916,76.17250291,26.02211409
30.68143761,41.01890670,81.28763282,-34.19245194,161.35598190,45.86662481
-52.84809146,117.18194819,-18.67045654,-57.63964856,54.30233436,-60.20007065
-167.06218302,-94.78976039,-69.86079794,48.34199306,-5.13974563,-0.63834708
-4.11935559,-0.13116712,-0.88824163,-2.88554604

>  <Name>


>  <RI>
0

>  <Rbt.Current_Directory>
/home/itssahil/PROJECTS/Mol_Feturizer/New_Systems/rnas/1ei2

>  <Rbt.Executable>
rbdock ($Id: //depot/dev/client3/rdock/2013.1/src/exe/rbdock.cxx#4 $)

>  <Rbt.Library>
libRbt.so (2013.1, Build901 2013/11/27)

>  <Rbt.Parameter_File>
/export/apps/rDock/src/rDock_2013.1_src/data/scripts/dock_solv.prm

>  <Rbt.Receptor>
prm/blind_docking_20.prm

>  <SCORE>
38.2487

>  <SCORE.INTER>
29.0654

>  <SCORE.INTER.CONST>
1

>  <SCORE.INTER.POLAR>
-5.26496

>  <SCORE.INTER.ROT>
9

>  <SCORE.INTER.SOLV>
52.1751

>  <SCORE.INTER.VDW>
9.93508

>  <SCORE.INTER.norm>
0.692033

>  <SCORE.INTRA>
-2.79906

>  <SCORE.INTRA.DIHEDRAL>
0.340074

>  <SCORE.INTRA.DIHEDRAL.0>
40.8761

>  <SCORE.INTRA.POLAR>
-0.781697

>  <SCORE.INTRA.POLAR.0>
-0.0268208

>  <SCORE.INTRA.REPUL>
-0.641615

>  <SCORE.INTRA.REPUL.0>
0.641615

>  <SCORE.INTRA.SOLV>
0.136152

>  <SCORE.INTRA.SOLV.lig_0>
-162.567

>  <SCORE.INTRA.VDW>
2.82866

>  <SCORE.INTRA.VDW.0>
-4.80338

>  <SCORE.INTRA.norm>
-0.0666444

>  <SCORE.RESTR>
11.9823

>  <SCORE.RESTR.CAVITY>
11.9823

>  <SCORE.RESTR.norm>
0.285294

>  <SCORE.SYSTEM>
0

>  <SCORE.SYSTEM.CONST>
0

>  <SCORE.SYSTEM.DIHEDRAL>
0

>  <SCORE.SYSTEM.SOLV>
0

>  <SCORE.SYSTEM.norm>
0

>  <SCORE.heavy>
42

>  <SCORE.norm>
0.910683

>  <RMSD>
9.645

$$$$

 OpenBabel11021811393D
libRbt.so/2013.1/901 2013/11/27
 42 45  0  0  0  0  0  0  0  0999 V2000
   -3.3473   -2.3078   -6.2377 C   0  0  2  0  0  0  0  0  0  0  0  0
   -4.5102   -1.4397   -6.4045 O   0  0  0  0  0  0  0  0  0  0  0  0
   -2.4635   -2.3403   -7.5267 C   0  0  2  0  0  0  0  0  0  0  0  0
   -2.8083   -1.2384   -8.4541 N   0  3  0  0  0  0  0  0  0  0  0  0
   -2.5877   -3.7181   -8.2444 C   0  0  1  0  0  0  0  0  0  0  0  0
   -1.7698   -3.7394   -9.4123 O   0  0  0  0  0  0  0  0  0  0  0  0
   -2.1581   -4.8897   -7.3212 C   0  0  2  0  0  0  0  0  0  0  0  0
   -2.5643   -6.1156   -7.9196 O   0  0  0  0  0  0  0  0  0  0  0  0
   -2.7911   -4.7524   -5.8986 C   0  0  2  0  0  0  0  0  0  0  0  0
   -3.7759   -3.6683   -5.8879 O   0  0  0  0  0  0  0  0  0  0  0  0
   -1.7786   -4.4356   -4.7739 C   0  0  0  0  0  0  0  0  0  0  0  0
   -3.2415    2.6555   -6.8939 C   0  0  1  0  0  0  0  0  0  0  0  0
   -3.0784    4.1169   -6.7266 N   0  3  0  0  0  0  0  0  0  0  0  0
   -2.6219    1.8739   -5.7059 C   0  0  1  0  0  0  0  0  0  0  0  0
   -2.8957    0.3302   -5.7532 C   0  0  1  0  0  0  0  0  0  0  0  0
   -2.5606   -0.2300   -4.4552 O   0  0  0  0  0  0  0  0  0  0  0  0
   -4.3984   -0.0270   -6.0506 C   0  0  1  0  0  0  0  0  0  0  0  0
   -4.9762    0.8110   -7.2367 C   0  0  1  0  0  0  0  0  0  0  0  0
   -6.4244    0.5860   -7.4210 N   0  3  0  0  0  0  0  0  0  0  0  0
   -4.7417    2.3254   -7.0381 C   0  0  0  0  0  0  0  0  0  0  0  0
   -2.7555    0.5720   -3.2545 C   0  0  1  0  0  0  0  0  0  0  0  0
   -4.2506    0.7876   -3.0523 C   0  0  1  0  0  0  0  0  0  0  0  0
   -4.6271   -0.5418   -2.4124 C   0  0  1  0  0  0  0  0  0  0  0  0
   -3.4456   -0.7732   -1.4597 C   0  0  2  0  0  0  0  0  0  0  0  0
   -2.3040   -0.1545   -2.0997 O   0  0  0  0  0  0  0  0  0  0  0  0
   -3.1642   -2.2641   -1.2004 C   0  0  0  0  0  0  0  0  0  0  0  0
   -9.5936   -0.7691   -0.7287 C   0  0  1  0  0  0  0  0  0  0  0  0
   -9.0119    0.2787   -1.7181 C   0  0  1  0  0  0  0  0  0  0  0  0
   -8.1077   -0.3297   -2.8287 C   0  0  2  0  0  0  0  0  0  0  0  0
   -6.9975   -1.2426   -2.2156 C   0  0  1  0  0  0  0  0  0  0  0  0
   -5.8917   -0.4516   -1.6952 O   0  0  0  0  0  0  0  0  0  0  0  0
   -9.0013   -2.1839   -1.0079 C   0  0  1  0  0  0  0  0  0  0  0  0
   -7.5444   -2.0903   -1.1311 O   0  0  0  0  0  0  0  0  0  0  0  0
   -9.3554   -3.2045    0.1043 C   0  0  0  0  0  0  0  0  0  0  0  0
   -2.3796   -4.2896   -3.4364 N   0  3  0  0  0  0  0  0  0  0  0  0
   -4.4645    1.8787   -2.1565 O   0  0  0  0  0  0  0  0  0  0  0  0
  -10.0994    0.9616   -2.3405 O   0  0  0  0  0  0  0  0  0  0  0  0
   -9.2779   -0.3571    0.6030 O   0  0  0  0  0  0  0  0  0  0  0  0
   -4.1922   -2.8434   -0.4153 O   0  0  0  0  0  0  0  0  0  0  0  0
   -1.2104    2.0858   -5.7037 O   0  0  0  0  0  0  0  0  0  0  0  0
   -8.5079   -4.4104    0.0671 N   0  3  0  0  0  0  0  0  0  0  0  0
   -7.5551    0.7242   -3.7154 N   0  3  0  0  0  0  0  0  0  0  0  0
  1  2  1  6  0  0  0
  1  3  1  0  0  0  0
  1 10  1  0  0  0  0
  3  4  1  6  0  0  0
  3  5  1  0  0  0  0
  5  6  1  6  0  0  0
  5  7  1  0  0  0  0
  7  8  1  6  0  0  0
  7  9  1  0  0  0  0
  9 10  1  0  0  0  0
  9 11  1  1  0  0  0
 11 35  1  0  0  0  0
 12 13  1  1  0  0  0
 12 14  1  0  0  0  0
 12 20  1  0  0  0  0
 14 15  1  0  0  0  0
 14 40  1  6  0  0  0
 15 16  1  1  0  0  0
 15 17  1  0  0  0  0
 17  2  1  6  0  0  0
 17 18  1  0  0  0  0
 18 19  1  1  0  0  0
 18 20  1  0  0  0  0
 21 16  1  6  0  0  0
 21 22  1  0  0  0  0
 21 25  1  0  0  0  0
 22 23  1  0  0  0  0
 22 36  1  1  0  0  0
 23 24  1  0  0  0  0
 23 31  1  1  0  0  0
 24 25  1  0  0  0  0
 24 26  1  6  0  0  0
 26 39  1  0  0  0  0
 27 28  1  0  0  0  0
 27 32  1  0  0  0  0
 27 38  1  1  0  0  0
 28 29  1  0  0  0  0
 28 37  1  6  0  0  0
 29 30  1  0  0  0  0
 29 42  1  1  0  0  0
 30 31  1  1  0  0  0
 30 33  1  0  0  0  0
 32 33  1  0  0  0  0
 32 34  1  1  0  0  0
 34 41  1  0  0  0  0
M  CHG  6   4   1  13   1  19   1  35   1  41   1  42   1
M  END
>  <CHROM.1>
-89.83340741,9.14992262,-67.05955094,-61.73181889,163.61675837,179.25677124
-94.48523926,167.84636796,-47.09602513,32.47421676,67.21914733,-44.71958563
-153.19016797,114.67174366,-70.12370215,48.46430124,163.33029657,77.43217750
179.86259347,-110.88888344,-163.55881773,37.78850691,-4.75619910,-1.06957354
-4.20863248,-0.09418104,-0.84012597,2.91056797

>  <Name>


>  <RI>
0

>  <Rbt.Current_Directory>
/home/itssahil/PROJECTS/Mol_Feturizer/New_Systems/rnas/1ei2

>  <Rbt.Executable>
rbdock ($Id: //depot/dev/client3/rdock/2013.1/src/exe/rbdock.cxx#4 $)

>  <Rbt.Library>
libRbt.so (2013.1, Build901 2013/11/27)

>  <Rbt.Parameter_File>
/export/apps/rDock/src/rDock_2013.1_src/data/scripts/dock_solv.prm

>  <Rbt.Receptor>
prm/blind_docking_60.prm

>  <SCORE>
-13.7329

>  <SCORE.INTER>
-20.1623

>  <SCORE.INTER.CONST>
1

>  <SCORE.INTER.POLAR>
-4.03651

>  <SCORE.INTER.ROT>
9

>  <SCORE.INTER.SOLV>
48.72

>  <SCORE.INTER.VDW>
-25.8265

>  <SCORE.INTER.norm>
-0.480054

>  <SCORE.INTRA>
-2.88633

>  <SCORE.INTRA.DIHEDRAL>
0.682573

>  <SCORE.INTRA.DIHEDRAL.0>
40.8761

>  <SCORE.INTRA.POLAR>
-0.328302

>  <SCORE.INTRA.POLAR.0>
-0.0268208

>  <SCORE.INTRA.REPUL>
-0.641615

>  <SCORE.INTRA.REPUL.0>
0.641615

>  <SCORE.INTRA.SOLV>
-1.12941

>  <SCORE.INTRA.SOLV.lig_0>
-162.567

>  <SCORE.INTRA.VDW>
1.66139

>  <SCORE.INTRA.VDW.0>
-4.80338

>  <SCORE.INTRA.norm>
-0.0687222

>  <SCORE.RESTR>
9.31568

>  <SCORE.RESTR.CAVITY>
9.31568

>  <SCORE.RESTR.norm>
0.221802

>  <SCORE.SYSTEM>
0

>  <SCORE.SYSTEM.CONST>
0

>  <SCORE.SYSTEM.DIHEDRAL>
0

>  <SCORE.SYSTEM.SOLV>
0

>  <SCORE.SYSTEM.norm>
0

>  <SCORE.heavy>
42

>  <SCORE.norm>
-0.326974

>  <RMSD>
9.645

$$$$

 OpenBabel11021811393D
libRbt.so/2013.1/901 2013/11/27
 42 45  0  0  0  0  0  0  0  0999 V2000
   -3.2083   -1.8342   -6.4939 C   0  0  2  0  0  0  0  0  0  0  0  0
   -4.1456   -0.7595   -6.8104 O   0  0  0  0  0  0  0  0  0  0  0  0
   -2.4744   -2.3533   -7.7728 C   0  0  2  0  0  0  0  0  0  0  0  0
   -2.6322   -1.4191   -8.9110 N   0  3  0  0  0  0  0  0  0  0  0  0
   -2.9810   -3.7758   -8.1588 C   0  0  1  0  0  0  0  0  0  0  0  0
   -2.2975   -4.2425   -9.3199 O   0  0  0  0  0  0  0  0  0  0  0  0
   -2.7578   -4.7979   -7.0121 C   0  0  2  0  0  0  0  0  0  0  0  0
   -3.4912   -5.9817   -7.3060 O   0  0  0  0  0  0  0  0  0  0  0  0
   -3.2125   -4.2140   -5.6352 C   0  0  2  0  0  0  0  0  0  0  0  0
   -3.9111   -2.9420   -5.8334 O   0  0  0  0  0  0  0  0  0  0  0  0
   -2.0586   -3.9306   -4.6461 C   0  0  0  0  0  0  0  0  0  0  0  0
   -2.6896    3.1942   -5.8784 C   0  0  1  0  0  0  0  0  0  0  0  0
   -2.5247    4.5377   -5.2801 N   0  3  0  0  0  0  0  0  0  0  0  0
   -2.3538    2.0727   -4.8607 C   0  0  1  0  0  0  0  0  0  0  0  0
   -2.6543    0.6274   -5.3905 C   0  0  1  0  0  0  0  0  0  0  0  0
   -2.6133   -0.2871   -4.2622 O   0  0  0  0  0  0  0  0  0  0  0  0
   -4.0711    0.4916   -6.0602 C   0  0  1  0  0  0  0  0  0  0  0  0
   -4.3649    1.6631   -7.0523 C   0  0  1  0  0  0  0  0  0  0  0  0
   -5.7484    1.6191   -7.5680 N   0  3  0  0  0  0  0  0  0  0  0  0
   -4.1353    3.0430   -6.3959 C   0  0  0  0  0  0  0  0  0  0  0  0
   -2.7790    0.2314   -2.9107 C   0  0  1  0  0  0  0  0  0  0  0  0
   -4.2603    0.4988   -2.6717 C   0  0  1  0  0  0  0  0  0  0  0  0
   -4.7377   -0.9120   -2.3552 C   0  0  1  0  0  0  0  0  0  0  0  0
   -3.5942   -1.4363   -1.4751 C   0  0  2  0  0  0  0  0  0  0  0  0
   -2.4009   -0.7690   -1.9509 O   0  0  0  0  0  0  0  0  0  0  0  0
   -3.4183   -2.9630   -1.5628 C   0  0  0  0  0  0  0  0  0  0  0  0
   -9.7007   -1.3755   -0.7060 C   0  0  1  0  0  0  0  0  0  0  0  0
   -9.1327   -0.1955   -1.5429 C   0  0  1  0  0  0  0  0  0  0  0  0
   -8.2330   -0.6364   -2.7335 C   0  0  2  0  0  0  0  0  0  0  0  0
   -7.1128   -1.6182   -2.2612 C   0  0  1  0  0  0  0  0  0  0  0  0
   -6.0081   -0.8999   -1.6425 O   0  0  0  0  0  0  0  0  0  0  0  0
   -9.1020   -2.7331   -1.1840 C   0  0  1  0  0  0  0  0  0  0  0  0
   -7.6466   -2.6129   -1.3023 O   0  0  0  0  0  0  0  0  0  0  0  0
   -9.4416   -3.9016   -0.2231 C   0  0  0  0  0  0  0  0  0  0  0  0
   -1.4033   -5.1376   -4.1123 N   0  3  0  0  0  0  0  0  0  0  0  0
   -4.4194    1.3689   -1.5510 O   0  0  0  0  0  0  0  0  0  0  0  0
  -10.2290    0.5599   -2.0567 O   0  0  0  0  0  0  0  0  0  0  0  0
   -9.3777   -1.1513    0.6682 O   0  0  0  0  0  0  0  0  0  0  0  0
   -4.0679   -3.4814   -2.7108 O   0  0  0  0  0  0  0  0  0  0  0  0
   -0.9685    2.1561   -4.5269 O   0  0  0  0  0  0  0  0  0  0  0  0
   -9.6453   -5.1815   -0.9261 N   0  3  0  0  0  0  0  0  0  0  0  0
   -7.6935    0.5349   -3.4677 N   0  3  0  0  0  0  0  0  0  0  0  0
  1  2  1  6  0  0  0
  1  3  1  0  0  0  0
  1 10  1  0  0  0  0
  3  4  1  6  0  0  0
  3  5  1  0  0  0  0
  5  6  1  6  0  0  0
  5  7  1  0  0  0  0
  7  8  1  6  0  0  0
  7  9  1  0  0  0  0
  9 10  1  0  0  0  0
  9 11  1  1  0  0  0
 11 35  1  0  0  0  0
 12 13  1  1  0  0  0
 12 14  1  0  0  0  0
 12 20  1  0  0  0  0
 14 15  1  0  0  0  0
 14 40  1  6  0  0  0
 15 16  1  1  0  0  0
 15 17  1  0  0  0  0
 17  2  1  6  0  0  0
 17 18  1  0  0  0  0
 18 19  1  1  0  0  0
 18 20  1  0  0  0  0
 21 16  1  6  0  0  0
 21 22  1  0  0  0  0
 21 25  1  0  0  0  0
 22 23  1  0  0  0  0
 22 36  1  1  0  0  0
 23 24  1  0  0  0  0
 23 31  1  1  0  0  0
 24 25  1  0  0  0  0
 24 26  1  6  0  0  0
 26 39  1  0  0  0  0
 27 28  1  0  0  0  0
 27 32  1  0  0  0  0
 27 38  1  1  0  0  0
 28 29  1  0  0  0  0
 28 37  1  6  0  0  0
 29 30  1  0  0  0  0
 29 42  1  1  0  0  0
 30 31  1  1  0  0  0
 30 33  1  0  0  0  0
 32 33  1  0  0  0  0
 32 34  1  1  0  0  0
 34 41  1  0  0  0  0
M  CHG  6   4   1  13   1  19   1  35   1  41   1  42   1
M  END
>  <CHROM.1>
-128.12788378,20.28563128,-56.77811389,-67.81941745,-171.89299437,-69.66992685
-171.87045964,11.78744148,76.81402075,20.62810320,77.88126035,71.78071993
60.25891975,122.10734436,17.44206809,43.22254218,52.53369006,-179.05160147
-66.12700909,-112.57171485,145.37112070,-154.48536638,-4.76267200,-1.17378572
-4.14341234,-0.01194395,-0.76999534,-3.05567424

>  <Name>


>  <RI>
0

>  <Rbt.Current_Directory>
/home/itssahil/PROJECTS/Mol_Feturizer/New_Systems/rnas/1ei2

>  <Rbt.Executable>
rbdock ($Id: //depot/dev/client3/rdock/2013.1/src/exe/rbdock.cxx#4 $)

>  <Rbt.Library>
libRbt.so (2013.1, Build901 2013/11/27)

>  <Rbt.Parameter_File>
/export/apps/rDock/src/rDock_2013.1_src/data/scripts/dock_solv.prm

>  <Rbt.Receptor>
prm/blind_docking_80.prm

>  <SCORE>
-12.6864

>  <SCORE.INTER>
-20.1636

>  <SCORE.INTER.CONST>
1

>  <SCORE.INTER.POLAR>
-6.19629

>  <SCORE.INTER.ROT>
9

>  <SCORE.INTER.SOLV>
51.4569

>  <SCORE.INTER.VDW>
-19.5404

>  <SCORE.INTER.norm>
-0.480087

>  <SCORE.INTRA>
0.781861

>  <SCORE.INTRA.DIHEDRAL>
9.41613

>  <SCORE.INTRA.DIHEDRAL.0>
40.8761

>  <SCORE.INTRA.POLAR>
-0.106221

>  <SCORE.INTRA.POLAR.0>
-0.0268208

>  <SCORE.INTRA.REPUL>
-0.641615

>  <SCORE.INTRA.REPUL.0>
0.641615

>  <SCORE.INTRA.SOLV>
-8.66509

>  <SCORE.INTRA.SOLV.lig_0>
-162.567

>  <SCORE.INTRA.VDW>
3.97556

>  <SCORE.INTRA.VDW.0>
-4.80338

>  <SCORE.INTRA.norm>
0.0186157

>  <SCORE.RESTR>
6.69542

>  <SCORE.RESTR.CAVITY>
6.69542

>  <SCORE.RESTR.norm>
0.159415

>  <SCORE.SYSTEM>
0

>  <SCORE.SYSTEM.CONST>
0

>  <SCORE.SYSTEM.DIHEDRAL>
0

>  <SCORE.SYSTEM.SOLV>
0

>  <SCORE.SYSTEM.norm>
0

>  <SCORE.heavy>
42

>  <SCORE.norm>
-0.302056

>  <RMSD>
9.645

$$$$

 OpenBabel11021811393D
libRbt.so/2013.1/901 2013/11/27
 42 45  0  0  0  0  0  0  0  0999 V2000
   -3.3678   -2.4085   -5.9294 C   0  0  2  0  0  0  0  0  0  0  0  0
   -4.4649   -1.4975   -6.2456 O   0  0  0  0  0  0  0  0  0  0  0  0
   -2.3687   -2.5432   -7.1242 C   0  0  2  0  0  0  0  0  0  0  0  0
   -2.5688   -1.4726   -8.1277 N   0  3  0  0  0  0  0  0  0  0  0  0
   -2.4932   -3.9468   -7.7900 C   0  0  1  0  0  0  0  0  0  0  0  0
   -1.5705   -4.0614   -8.8713 O   0  0  0  0  0  0  0  0  0  0  0  0
   -2.2118   -5.0911   -6.7796 C   0  0  2  0  0  0  0  0  0  0  0  0
   -2.6203   -6.3245   -7.3606 O   0  0  0  0  0  0  0  0  0  0  0  0
   -2.9689   -4.8569   -5.4322 C   0  0  2  0  0  0  0  0  0  0  0  0
   -3.8949   -3.7298   -5.5640 O   0  0  0  0  0  0  0  0  0  0  0  0
   -2.0528   -4.5329   -4.2297 C   0  0  0  0  0  0  0  0  0  0  0  0
   -3.1029    2.5952   -6.3689 C   0  0  1  0  0  0  0  0  0  0  0  0
   -2.9452    4.0435   -6.1082 N   0  3  0  0  0  0  0  0  0  0  0  0
   -2.6380    1.7449   -5.1577 C   0  0  1  0  0  0  0  0  0  0  0  0
   -2.9208    0.2104   -5.3167 C   0  0  1  0  0  0  0  0  0  0  0  0
   -2.7491   -0.4196   -4.0188 O   0  0  0  0  0  0  0  0  0  0  0  0
   -4.3810   -0.1063   -5.8085 C   0  0  1  0  0  0  0  0  0  0  0  0
   -4.8039    0.7995   -7.0100 C   0  0  1  0  0  0  0  0  0  0  0  0
   -6.2221    0.6084   -7.3762 N   0  3  0  0  0  0  0  0  0  0  0  0
   -4.5786    2.2980   -6.7070 C   0  0  0  0  0  0  0  0  0  0  0  0
   -3.0160    0.3455   -2.8079 C   0  0  1  0  0  0  0  0  0  0  0  0
   -4.5175    0.5871   -2.7076 C   0  0  1  0  0  0  0  0  0  0  0  0
   -4.9659   -0.7546   -2.1441 C   0  0  1  0  0  0  0  0  0  0  0  0
   -3.8623   -1.0440   -1.1167 C   0  0  2  0  0  0  0  0  0  0  0  0
   -2.6649   -0.4293   -1.6497 O   0  0  0  0  0  0  0  0  0  0  0  0
   -3.6299   -2.5487   -0.8905 C   0  0  0  0  0  0  0  0  0  0  0  0
   -9.8964   -1.4421   -0.5015 C   0  0  1  0  0  0  0  0  0  0  0  0
   -9.4308   -0.1585   -1.2439 C   0  0  1  0  0  0  0  0  0  0  0  0
   -8.5564   -0.4337   -2.5011 C   0  0  2  0  0  0  0  0  0  0  0  0
   -7.3639   -1.3851   -2.1622 C   0  0  1  0  0  0  0  0  0  0  0  0
   -6.2778   -0.6607   -1.5181 O   0  0  0  0  0  0  0  0  0  0  0  0
   -9.2412   -2.7118   -1.1251 C   0  0  1  0  0  0  0  0  0  0  0  0
   -7.8010   -2.4936   -1.2825 O   0  0  0  0  0  0  0  0  0  0  0  0
   -9.4746   -3.9815   -0.2663 C   0  0  0  0  0  0  0  0  0  0  0  0
   -2.6339   -3.5903   -3.2575 N   0  3  0  0  0  0  0  0  0  0  0  0
   -4.7752    1.6517   -1.7918 O   0  0  0  0  0  0  0  0  0  0  0  0
  -10.5882    0.5730   -1.6461 O   0  0  0  0  0  0  0  0  0  0  0  0
   -9.5314   -1.3252    0.8754 O   0  0  0  0  0  0  0  0  0  0  0  0
   -2.4246   -2.7726   -0.1792 O   0  0  0  0  0  0  0  0  0  0  0  0
   -1.2347    1.9326   -4.9770 O   0  0  0  0  0  0  0  0  0  0  0  0
   -8.2273   -4.7082    0.0337 N   0  3  0  0  0  0  0  0  0  0  0  0
   -8.1145    0.8301   -3.1411 N   0  3  0  0  0  0  0  0  0  0  0  0
  1  2  1  6  0  0  0
  1  3  1  0  0  0  0
  1 10  1  0  0  0  0
  3  4  1  6  0  0  0
  3  5  1  0  0  0  0
  5  6  1  6  0  0  0
  5  7  1  0  0  0  0
  7  8  1  6  0  0  0
  7  9  1  0  0  0  0
  9 10  1  0  0  0  0
  9 11  1  1  0  0  0
 11 35  1  0  0  0  0
 12 13  1  1  0  0  0
 12 14  1  0  0  0  0
 12 20  1  0  0  0  0
 14 15  1  0  0  0  0
 14 40  1  6  0  0  0
 15 16  1  1  0  0  0
 15 17  1  0  0  0  0
 17  2  1  6  0  0  0
 17 18  1  0  0  0  0
 18 19  1  1  0  0  0
 18 20  1  0  0  0  0
 21 16  1  6  0  0  0
 21 22  1  0  0  0  0
 21 25  1  0  0  0  0
 22 23  1  0  0  0  0
 22 36  1  1  0  0  0
 23 24  1  0  0  0  0
 23 31  1  1  0  0  0
 24 25  1  0  0  0  0
 24 26  1  6  0  0  0
 26 39  1  0  0  0  0
 27 28  1  0  0  0  0
 27 32  1  0  0  0  0
 27 38  1  1  0  0  0
 28 29  1  0  0  0  0
 28 37  1  6  0  0  0
 29 30  1  0  0  0  0
 29 42  1  1  0  0  0
 30 31  1  1  0  0  0
 30 33  1  0  0  0  0
 32 33  1  0  0  0  0
 32 34  1  1  0  0  0
 34 41  1  0  0  0  0
M  CHG  6   4   1  13   1  19   1  35   1  41   1  42   1
M  END
>  <CHROM.1>
-96.71799416,12.11546407,48.18850974,-179.38389431,-55.54067158,145.64904148
44.97788477,-101.94270328,74.43787733,29.54286616,69.90432179,77.03817827
-56.16876238,113.34022352,166.88464594,-39.53015004,-178.64055753,75.87255540
78.77695577,-124.40014878,-128.24601055,134.66460762,-4.83690644,-1.26425119
-3.87599877,-0.07114206,-0.78148089,2.98043909

>  <Name>


>  <RI>
0

>  <Rbt.Current_Directory>
/home/itssahil/PROJECTS/Mol_Feturizer/New_Systems/rnas/1ei2

>  <Rbt.Executable>
rbdock ($Id: //depot/dev/client3/rdock/2013.1/src/exe/rbdock.cxx#4 $)

>  <Rbt.Library>
libRbt.so (2013.1, Build901 2013/11/27)

>  <Rbt.Parameter_File>
/export/apps/rDock/src/rDock_2013.1_src/data/scripts/dock_solv.prm

>  <Rbt.Receptor>
prm/blind_docking_20.prm

>  <SCORE>
18.1626

>  <SCORE.INTER>
8.00729

>  <SCORE.INTER.CONST>
1

>  <SCORE.INTER.POLAR>
-4.23868

>  <SCORE.INTER.ROT>
9

>  <SCORE.INTER.SOLV>
48.57

>  <SCORE.INTER.VDW>
-6.32287

>  <SCORE.INTER.norm>
0.19065

>  <SCORE.INTRA>
2.61977

>  <SCORE.INTRA.DIHEDRAL>
10.3121

>  <SCORE.INTRA.DIHEDRAL.0>
40.8761

>  <SCORE.INTRA.POLAR>
-1.40529

>  <SCORE.INTRA.POLAR.0>
-0.0268208

>  <SCORE.INTRA.REPUL>
-0.641615

>  <SCORE.INTRA.REPUL.0>
0.641615

>  <SCORE.INTRA.SOLV>
1.10185

>  <SCORE.INTRA.SOLV.lig_0>
-162.567

>  <SCORE.INTRA.VDW>
4.89885

>  <SCORE.INTRA.VDW.0>
-4.80338

>  <SCORE.INTRA.norm>
0.0623755

>  <SCORE.RESTR>
7.53557

>  <SCORE.RESTR.CAVITY>
7.53557

>  <SCORE.RESTR.norm>
0.179418

>  <SCORE.SYSTEM>
0

>  <SCORE.SYSTEM.CONST>
0

>  <SCORE.SYSTEM.DIHEDRAL>
0

>  <SCORE.SYSTEM.SOLV>
0

>  <SCORE.SYSTEM.norm>
0

>  <SCORE.heavy>
42

>  <SCORE.norm>
0.432443

>  <RMSD>
9.647

$$$$

 OpenBabel11021811393D
libRbt.so/2013.1/901 2013/11/27
 42 45  0  0  0  0  0  0  0  0999 V2000
   -4.1993   -1.5133   -8.8939 C   0  0  2  0  0  0  0  0  0  0  0  0
   -4.4872   -2.5365   -7.8920 O   0  0  0  0  0  0  0  0  0  0  0  0
   -4.3232   -2.0785  -10.3461 C   0  0  2  0  0  0  0  0  0  0  0  0
   -5.0319   -3.3787  -10.3683 N   0  3  0  0  0  0  0  0  0  0  0  0
   -2.9180   -2.2104  -11.0070 C   0  0  1  0  0  0  0  0  0  0  0  0
   -3.0446   -2.7169  -12.3339 O   0  0  0  0  0  0  0  0  0  0  0  0
   -2.1800   -0.8462  -11.0692 C   0  0  2  0  0  0  0  0  0  0  0  0
   -0.8170   -1.0790  -11.4063 O   0  0  0  0  0  0  0  0  0  0  0  0
   -2.2726   -0.0884   -9.7052 C   0  0  2  0  0  0  0  0  0  0  0  0
   -2.8550   -0.9607   -8.6828 O   0  0  0  0  0  0  0  0  0  0  0  0
   -3.1431    1.1888   -9.7388 C   0  0  0  0  0  0  0  0  0  0  0  0
   -2.3341   -5.3615   -5.4418 C   0  0  1  0  0  0  0  0  0  0  0  0
   -1.3015   -6.0093   -4.6024 N   0  3  0  0  0  0  0  0  0  0  0  0
   -3.0018   -4.1709   -4.7051 C   0  0  1  0  0  0  0  0  0  0  0  0
   -3.9974   -3.3525   -5.5990 C   0  0  1  0  0  0  0  0  0  0  0  0
   -4.2971   -2.1042   -4.9185 O   0  0  0  0  0  0  0  0  0  0  0  0
   -3.4127   -2.9930   -7.0142 C   0  0  1  0  0  0  0  0  0  0  0  0
   -2.7281   -4.2224   -7.6948 C   0  0  1  0  0  0  0  0  0  0  0  0
   -2.0498   -3.8527   -8.9538 N   0  3  0  0  0  0  0  0  0  0  0  0
   -1.6921   -4.8914   -6.7637 C   0  0  0  0  0  0  0  0  0  0  0  0
   -3.3059   -1.0364   -4.9069 C   0  0  1  0  0  0  0  0  0  0  0  0
   -4.0144    0.2863   -5.1740 C   0  0  1  0  0  0  0  0  0  0  0  0
   -4.5693    0.5760   -3.7859 C   0  0  1  0  0  0  0  0  0  0  0  0
   -3.3952    0.1584   -2.8891 C   0  0  2  0  0  0  0  0  0  0  0  0
   -2.7295   -0.9152   -3.5962 O   0  0  0  0  0  0  0  0  0  0  0  0
   -3.8422   -0.3214   -1.4965 C   0  0  0  0  0  0  0  0  0  0  0  0
   -1.2718    3.2166   -3.8788 C   0  0  1  0  0  0  0  0  0  0  0  0
   -2.5158    3.9744   -4.4205 C   0  0  1  0  0  0  0  0  0  0  0  0
   -3.6633    4.1358   -3.3820 C   0  0  2  0  0  0  0  0  0  0  0  0
   -4.0419    2.7619   -2.7409 C   0  0  1  0  0  0  0  0  0  0  0  0
   -4.8993    1.9856   -3.6249 O   0  0  0  0  0  0  0  0  0  0  0  0
   -1.5392    2.6650   -2.4455 C   0  0  1  0  0  0  0  0  0  0  0  0
   -2.8304    1.9730   -2.4191 O   0  0  0  0  0  0  0  0  0  0  0  0
   -0.4291    1.6936   -1.9678 C   0  0  0  0  0  0  0  0  0  0  0  0
   -4.1925    1.1840  -10.7732 N   0  3  0  0  0  0  0  0  0  0  0  0
   -3.0621    1.2724   -5.5732 O   0  0  0  0  0  0  0  0  0  0  0  0
   -2.1017    5.2720   -4.8461 O   0  0  0  0  0  0  0  0  0  0  0  0
   -0.9730    2.1417   -4.7724 O   0  0  0  0  0  0  0  0  0  0  0  0
   -4.9065    0.4752   -1.0052 O   0  0  0  0  0  0  0  0  0  0  0  0
   -3.7129   -4.6722   -3.5736 O   0  0  0  0  0  0  0  0  0  0  0  0
   -0.5822    1.2977   -0.5558 N   0  3  0  0  0  0  0  0  0  0  0  0
   -4.8334    4.8328   -3.9713 N   0  3  0  0  0  0  0  0  0  0  0  0
  1  2  1  1  0  0  0
  1  3  1  0  0  0  0
  1 10  1  0  0  0  0
  3  4  1  1  0  0  0
  3  5  1  0  0  0  0
  5  6  1  6  0  0  0
  5  7  1  0  0  0  0
  7  8  1  1  0  0  0
  7  9  1  0  0  0  0
  9 10  1  0  0  0  0
  9 11  1  6  0  0  0
 11 35  1  0  0  0  0
 12 13  1  1  0  0  0
 12 14  1  0  0  0  0
 12 20  1  0  0  0  0
 14 15  1  0  0  0  0
 14 40  1  1  0  0  0
 15 16  1  1  0  0  0
 15 17  1  0  0  0  0
 17  2  1  6  0  0  0
 17 18  1  0  0  0  0
 18 19  1  6  0  0  0
 18 20  1  0  0  0  0
 21 16  1  1  0  0  0
 21 22  1  0  0  0  0
 21 25  1  0  0  0  0
 22 23  1  0  0  0  0
 22 36  1  1  0  0  0
 23 24  1  0  0  0  0
 23 31  1  6  0  0  0
 24 25  1  0  0  0  0
 24 26  1  1  0  0  0
 26 39  1  0  0  0  0
 27 28  1  0  0  0  0
 27 32  1  0  0  0  0
 27 38  1  6  0  0  0
 28 29  1  0  0  0  0
 28 37  1  1  0  0  0
 29 30  1  0  0  0  0
 29 42  1  6  0  0  0
 30 31  1  6  0  0  0
 30 33  1  0  0  0  0
 32 33  1  0  0  0  0
 32 34  1  6  0  0  0
 34 41  1  0  0  0  0
M  CHG  6   4   1  13   1  19   1  35   1  41   1  42   1
M  END
>  <CHROM.1>
113.54186294,146.52667237,102.73009776,61.35349124,65.25248706,26.16324716
178.63390861,-172.96747599,65.32811637,75.42707638,136.92714136,-98.24529858
-52.37160739,-109.33936013,-39.43254077,68.62563975,173.54739014,79.05645848
-157.33073022,134.89522589,172.84570627,107.24738280,-3.03040757,-0.47686829
-5.93890706,2.17906862,1.53974193,-2.81814320

>  <Name>


>  <RI>
0

>  <Rbt.Current_Directory>
/home/itssahil/PROJECTS/Mol_Feturizer/New_Systems/rnas/1ei2

>  <Rbt.Executable>
rbdock ($Id: //depot/dev/client3/rdock/2013.1/src/exe/rbdock.cxx#4 $)

>  <Rbt.Library>
libRbt.so (2013.1, Build901 2013/11/27)

>  <Rbt.Parameter_File>
/export/apps/rDock/src/rDock_2013.1_src/data/scripts/dock_solv.prm

>  <Rbt.Receptor>
prm/blind_docking_100.prm

>  <SCORE>
10.6049

>  <SCORE.INTER>
-22.5629

>  <SCORE.INTER.CONST>
1

>  <SCORE.INTER.POLAR>
-6.46612

>  <SCORE.INTER.ROT>
9

>  <SCORE.INTER.SOLV>
38.5077

>  <SCORE.INTER.VDW>
-15.9241

>  <SCORE.INTER.norm>
-0.537213

>  <SCORE.INTRA>
17.7871

>  <SCORE.INTRA.DIHEDRAL>
8.06443

>  <SCORE.INTRA.DIHEDRAL.0>
40.8761

>  <SCORE.INTRA.POLAR>
-1.5186

>  <SCORE.INTRA.POLAR.0>
-0.0268208

>  <SCORE.INTRA.REPUL>
-0.641615

>  <SCORE.INTRA.REPUL.0>
0.641615

>  <SCORE.INTRA.SOLV>
3.79899

>  <SCORE.INTRA.SOLV.lig_0>
-162.567

>  <SCORE.INTRA.VDW>
20.2267

>  <SCORE.INTRA.VDW.0>
-4.80338

>  <SCORE.INTRA.norm>
0.423503

>  <SCORE.RESTR>
15.3807

>  <SCORE.RESTR.CAVITY>
15.3807

>  <SCORE.RESTR.norm>
0.366208

>  <SCORE.SYSTEM>
0

>  <SCORE.SYSTEM.CONST>
0

>  <SCORE.SYSTEM.DIHEDRAL>
0

>  <SCORE.SYSTEM.SOLV>
0

>  <SCORE.SYSTEM.norm>
0

>  <SCORE.heavy>
42

>  <SCORE.norm>
0.252498

>  <RMSD>
9.648

$$$$

 OpenBabel11021811393D
libRbt.so/2013.1/901 2013/11/27
 42 45  0  0  0  0  0  0  0  0999 V2000
   -3.2510   -0.7952   -7.1695 C   0  0  2  0  0  0  0  0  0  0  0  0
   -4.3254    0.1937   -7.2098 O   0  0  0  0  0  0  0  0  0  0  0  0
   -2.7855   -1.1985   -8.6063 C   0  0  2  0  0  0  0  0  0  0  0  0
   -3.2788   -0.2469   -9.6282 N   0  3  0  0  0  0  0  0  0  0  0  0
   -3.2413   -2.6498   -8.9453 C   0  0  1  0  0  0  0  0  0  0  0  0
   -2.8024   -3.0097  -10.2535 O   0  0  0  0  0  0  0  0  0  0  0  0
   -2.6750   -3.6827   -7.9346 C   0  0  2  0  0  0  0  0  0  0  0  0
   -3.3505   -4.9216   -8.1204 O   0  0  0  0  0  0  0  0  0  0  0  0
   -2.8530   -3.1912   -6.4614 C   0  0  2  0  0  0  0  0  0  0  0  0
   -3.6860   -1.9869   -6.4294 O   0  0  0  0  0  0  0  0  0  0  0  0
   -1.5332   -2.8302   -5.7417 C   0  0  0  0  0  0  0  0  0  0  0  0
   -2.8410    3.7640   -5.2944 C   0  0  1  0  0  0  0  0  0  0  0  0
   -2.7156    4.9613   -4.4334 N   0  3  0  0  0  0  0  0  0  0  0  0
   -2.7879    2.4562   -4.4620 C   0  0  1  0  0  0  0  0  0  0  0  0
   -3.0660    1.1608   -5.3014 C   0  0  1  0  0  0  0  0  0  0  0  0
   -3.3104    0.0657   -4.3783 O   0  0  0  0  0  0  0  0  0  0  0  0
   -4.3248    1.2829   -6.2367 C   0  0  1  0  0  0  0  0  0  0  0  0
   -4.3388    2.6312   -7.0271 C   0  0  1  0  0  0  0  0  0  0  0  0
   -5.5902    2.8135   -7.7904 N   0  3  0  0  0  0  0  0  0  0  0  0
   -4.1596    3.8477   -6.0912 C   0  0  0  0  0  0  0  0  0  0  0  0
   -3.3430    0.3276   -2.9454 C   0  0  1  0  0  0  0  0  0  0  0  0
   -4.7982    0.3892   -2.4963 C   0  0  1  0  0  0  0  0  0  0  0  0
   -5.1064   -1.0980   -2.3882 C   0  0  1  0  0  0  0  0  0  0  0  0
   -3.8170   -1.6367   -1.7522 C   0  0  2  0  0  0  0  0  0  0  0  0
   -2.7581   -0.7736   -2.2311 O   0  0  0  0  0  0  0  0  0  0  0  0
   -3.5226   -3.0985   -2.1338 C   0  0  0  0  0  0  0  0  0  0  0  0
   -9.8392   -2.0453   -0.3200 C   0  0  1  0  0  0  0  0  0  0  0  0
   -9.2041   -0.6349   -0.4717 C   0  0  1  0  0  0  0  0  0  0  0  0
   -8.5463   -0.3803   -1.8586 C   0  0  2  0  0  0  0  0  0  0  0  0
   -7.5443   -1.5216   -2.2263 C   0  0  1  0  0  0  0  0  0  0  0  0
   -6.2695   -1.3438   -1.5462 O   0  0  0  0  0  0  0  0  0  0  0  0
   -9.5294   -2.9298   -1.5658 C   0  0  1  0  0  0  0  0  0  0  0  0
   -8.1008   -2.8501   -1.8811 O   0  0  0  0  0  0  0  0  0  0  0  0
   -9.9231   -4.4140   -1.3513 C   0  0  0  0  0  0  0  0  0  0  0  0
   -0.9967   -1.5010   -6.0832 N   0  3  0  0  0  0  0  0  0  0  0  0
   -4.8847    1.0353   -1.2260 O   0  0  0  0  0  0  0  0  0  0  0  0
  -10.2239    0.3418   -0.2658 O   0  0  0  0  0  0  0  0  0  0  0  0
   -9.3106   -2.6543    0.8601 O   0  0  0  0  0  0  0  0  0  0  0  0
   -2.1419   -3.3881   -1.9977 O   0  0  0  0  0  0  0  0  0  0  0  0
   -1.4956    2.3437   -3.8664 O   0  0  0  0  0  0  0  0  0  0  0  0
   -9.1536   -5.0615   -0.2731 N   0  3  0  0  0  0  0  0  0  0  0  0
   -7.9272    0.9667   -1.9257 N   0  3  0  0  0  0  0  0  0  0  0  0
  1  2  1  6  0  0  0
  1  3  1  0  0  0  0
  1 10  1  0  0  0  0
  3  4  1  6  0  0  0
  3  5  1  0  0  0  0
  5  6  1  6  0  0  0
  5  7  1  0  0  0  0
  7  8  1  1  0  0  0
  7  9  1  0  0  0  0
  9 10  1  0  0  0  0
  9 11  1  6  0  0  0
 11 35  1  0  0  0  0
 12 13  1  1  0  0  0
 12 14  1  0  0  0  0
 12 20  1  0  0  0  0
 14 15  1  0  0  0  0
 14 40  1  6  0  0  0
 15 16  1  1  0  0  0
 15 17  1  0  0  0  0
 17  2  1  6  0  0  0
 17 18  1  0  0  0  0
 18 19  1  1  0  0  0
 18 20  1  0  0  0  0
 21 16  1  6  0  0  0
 21 22  1  0  0  0  0
 21 25  1  0  0  0  0
 22 23  1  0  0  0  0
 22 36  1  1  0  0  0
 23 24  1  0  0  0  0
 23 31  1  1  0  0  0
 24 25  1  0  0  0  0
 24 26  1  6  0  0  0
 26 39  1  0  0  0  0
 27 28  1  0  0  0  0
 27 32  1  0  0  0  0
 27 38  1  1  0  0  0
 28 29  1  0  0  0  0
 28 37  1  6  0  0  0
 29 30  1  0  0  0  0
 29 42  1  1  0  0  0
 30 31  1  1  0  0  0
 30 33  1  0  0  0  0
 32 33  1  0  0  0  0
 32 34  1  1  0  0  0
 34 41  1  0  0  0  0
M  CHG  6   4   1  13   1  19   1  35   1  41   1  42   1
M  END
>  <CHROM.1>
-140.35274710,0.91135598,40.84705141,-51.28873978,179.43438388,79.71947573
-172.36708234,160.46766137,-54.16148338,3.61073085,101.21184791,-47.27343115
51.12216666,96.78589488,156.77465698,172.42388343,95.34236087,-59.13239727
70.84408506,-115.75849409,-63.47966627,22.20129707,-4.88629515,-0.74679927
-4.21705200,-0.00337190,-0.86863249,-2.88619525

>  <Name>


>  <RI>
0

>  <Rbt.Current_Directory>
/home/itssahil/PROJECTS/Mol_Feturizer/New_Systems/rnas/1ei2

>  <Rbt.Executable>
rbdock ($Id: //depot/dev/client3/rdock/2013.1/src/exe/rbdock.cxx#4 $)

>  <Rbt.Library>
libRbt.so (2013.1, Build901 2013/11/27)

>  <Rbt.Parameter_File>
/export/apps/rDock/src/rDock_2013.1_src/data/scripts/dock_solv.prm

>  <Rbt.Receptor>
prm/blind_docking_60.prm

>  <SCORE>
0.926023

>  <SCORE.INTER>
-9.34566

>  <SCORE.INTER.CONST>
1

>  <SCORE.INTER.POLAR>
-5.01084

>  <SCORE.INTER.ROT>
9

>  <SCORE.INTER.SOLV>
36.2557

>  <SCORE.INTER.VDW>
-11.2129

>  <SCORE.INTER.norm>
-0.222516

>  <SCORE.INTRA>
2.08037

>  <SCORE.INTRA.DIHEDRAL>
10.5258

>  <SCORE.INTRA.DIHEDRAL.0>
40.8761

>  <SCORE.INTRA.POLAR>
-1.9922

>  <SCORE.INTRA.POLAR.0>
-0.0268208

>  <SCORE.INTRA.REPUL>
-0.641615

>  <SCORE.INTRA.REPUL.0>
0.641615

>  <SCORE.INTRA.SOLV>
-0.343286

>  <SCORE.INTRA.SOLV.lig_0>
-162.567

>  <SCORE.INTRA.VDW>
6.97065

>  <SCORE.INTRA.VDW.0>
-4.80338

>  <SCORE.INTRA.norm>
0.0495327

>  <SCORE.RESTR>
8.19131

>  <SCORE.RESTR.CAVITY>
8.19131

>  <SCORE.RESTR.norm>
0.195031

>  <SCORE.SYSTEM>
0

>  <SCORE.SYSTEM.CONST>
0

>  <SCORE.SYSTEM.DIHEDRAL>
0

>  <SCORE.SYSTEM.SOLV>
0

>  <SCORE.SYSTEM.norm>
0

>  <SCORE.heavy>
42

>  <SCORE.norm>
0.0220482

>  <RMSD>
9.653

$$$$

 OpenBabel11021811393D
libRbt.so/2013.1/901 2013/11/27
 42 45  0  0  0  0  0  0  0  0999 V2000
   -2.8005   -0.4032   -7.4424 C   0  0  2  0  0  0  0  0  0  0  0  0
   -4.0180    0.4004   -7.5165 O   0  0  0  0  0  0  0  0  0  0  0  0
   -2.9141   -1.7014   -8.3058 C   0  0  2  0  0  0  0  0  0  0  0  0
   -4.0532   -1.6325   -9.2497 N   0  3  0  0  0  0  0  0  0  0  0  0
   -3.0348   -2.9597   -7.3942 C   0  0  1  0  0  0  0  0  0  0  0  0
   -3.1274   -4.1377   -8.1923 O   0  0  0  0  0  0  0  0  0  0  0  0
   -1.8149   -3.1029   -6.4450 C   0  0  2  0  0  0  0  0  0  0  0  0
   -2.1171   -4.0819   -5.4570 O   0  0  0  0  0  0  0  0  0  0  0  0
   -1.4655   -1.7416   -5.7610 C   0  0  2  0  0  0  0  0  0  0  0  0
   -2.5073   -0.7524   -6.0462 O   0  0  0  0  0  0  0  0  0  0  0  0
   -0.1292   -1.1160   -6.2228 C   0  0  0  0  0  0  0  0  0  0  0  0
   -2.5999    3.9180   -5.4585 C   0  0  1  0  0  0  0  0  0  0  0  0
   -2.5409    5.1842   -4.6944 N   0  3  0  0  0  0  0  0  0  0  0  0
   -3.0768    2.7390   -4.5705 C   0  0  1  0  0  0  0  0  0  0  0  0
   -3.3028    1.4033   -5.3609 C   0  0  1  0  0  0  0  0  0  0  0  0
   -4.0440    0.4907   -4.5072 O   0  0  0  0  0  0  0  0  0  0  0  0
   -4.1322    1.5950   -6.6837 C   0  0  1  0  0  0  0  0  0  0  0  0
   -3.6254    2.8131   -7.5216 C   0  0  1  0  0  0  0  0  0  0  0  0
   -4.4935    3.0853   -8.6853 N   0  3  0  0  0  0  0  0  0  0  0  0
   -3.5378    4.0996   -6.6701 C   0  0  0  0  0  0  0  0  0  0  0  0
   -3.7769    0.4697   -3.0751 C   0  0  1  0  0  0  0  0  0  0  0  0
   -5.1083    0.4558   -2.3333 C   0  0  1  0  0  0  0  0  0  0  0  0
   -5.4603   -1.0213   -2.4461 C   0  0  1  0  0  0  0  0  0  0  0  0
   -4.0974   -1.6846   -2.2015 C   0  0  2  0  0  0  0  0  0  0  0  0
   -3.1150   -0.7543   -2.7165 O   0  0  0  0  0  0  0  0  0  0  0  0
   -3.9562   -3.0471   -2.9036 C   0  0  0  0  0  0  0  0  0  0  0  0
   -9.9197   -2.0885    0.0357 C   0  0  1  0  0  0  0  0  0  0  0  0
   -9.5296   -0.8419   -0.8064 C   0  0  1  0  0  0  0  0  0  0  0  0
   -8.8206   -1.1793   -2.1498 C   0  0  2  0  0  0  0  0  0  0  0  0
   -7.6100   -2.1411   -1.9233 C   0  0  1  0  0  0  0  0  0  0  0  0
   -6.4421   -1.4156   -1.4448 O   0  0  0  0  0  0  0  0  0  0  0  0
   -9.3654   -3.3925   -0.6145 C   0  0  1  0  0  0  0  0  0  0  0  0
   -7.9523   -3.2084   -0.9551 O   0  0  0  0  0  0  0  0  0  0  0  0
   -9.5106   -4.6256    0.3141 C   0  0  0  0  0  0  0  0  0  0  0  0
   -0.1160    0.3575   -6.2286 N   0  3  0  0  0  0  0  0  0  0  0  0
   -4.9079    0.8438   -0.9740 O   0  0  0  0  0  0  0  0  0  0  0  0
  -10.7165   -0.1027   -1.0916 O   0  0  0  0  0  0  0  0  0  0  0  0
   -9.3865   -1.9294    1.3522 O   0  0  0  0  0  0  0  0  0  0  0  0
   -2.7210   -3.6594   -2.5749 O   0  0  0  0  0  0  0  0  0  0  0  0
   -2.1020    2.5068   -3.5540 O   0  0  0  0  0  0  0  0  0  0  0  0
   -9.4831   -4.2722    1.7453 N   0  3  0  0  0  0  0  0  0  0  0  0
   -8.4418    0.0519   -2.8867 N   0  3  0  0  0  0  0  0  0  0  0  0
  1  2  1  1  0  0  0
  1  3  1  0  0  0  0
  1 10  1  0  0  0  0
  3  4  1  6  0  0  0
  3  5  1  0  0  0  0
  5  6  1  6  0  0  0
  5  7  1  0  0  0  0
  7  8  1  1  0  0  0
  7  9  1  0  0  0  0
  9 10  1  0  0  0  0
  9 11  1  6  0  0  0
 11 35  1  0  0  0  0
 12 13  1  1  0  0  0
 12 14  1  0  0  0  0
 12 20  1  0  0  0  0
 14 15  1  0  0  0  0
 14 40  1  1  0  0  0
 15 16  1  1  0  0  0
 15 17  1  0  0  0  0
 17  2  1  6  0  0  0
 17 18  1  0  0  0  0
 18 19  1  6  0  0  0
 18 20  1  0  0  0  0
 21 16  1  6  0  0  0
 21 22  1  0  0  0  0
 21 25  1  0  0  0  0
 22 23  1  0  0  0  0
 22 36  1  1  0  0  0
 23 24  1  0  0  0  0
 23 31  1  1  0  0  0
 24 25  1  0  0  0  0
 24 26  1  6  0  0  0
 26 39  1  0  0  0  0
 27 28  1  0  0  0  0
 27 32  1  0  0  0  0
 27 38  1  1  0  0  0
 28 29  1  0  0  0  0
 28 37  1  6  0  0  0
 29 30  1  0  0  0  0
 29 42  1  1  0  0  0
 30 31  1  1  0  0  0
 30 33  1  0  0  0  0
 32 33  1  0  0  0  0
 32 34  1  1  0  0  0
 34 41  1  0  0  0  0
M  CHG  6   4   1  13   1  19   1  35   1  41   1  42   1
M  END
>  <CHROM.1>
174.98375368,-29.76682476,68.42091874,68.44566752,-179.32034098,147.61992759
71.45469553,-76.04270859,133.95723095,-36.59255418,134.72035259,60.66108637
77.91816494,129.46670332,-176.02533858,-153.59857766,75.12909329,67.10631738
-174.58005850,-96.41200679,-28.62404064,128.25574169,-4.81123381,-0.63297583
-4.01806084,-0.34848888,-0.78757181,3.08535231

>  <Name>


>  <RI>
0

>  <Rbt.Current_Directory>
/home/itssahil/PROJECTS/Mol_Feturizer/New_Systems/rnas/1ei2

>  <Rbt.Executable>
rbdock ($Id: //depot/dev/client3/rdock/2013.1/src/exe/rbdock.cxx#4 $)

>  <Rbt.Library>
libRbt.so (2013.1, Build901 2013/11/27)

>  <Rbt.Parameter_File>
/export/apps/rDock/src/rDock_2013.1_src/data/scripts/dock_solv.prm

>  <Rbt.Receptor>
prm/blind_docking_40.prm

>  <SCORE>
31.0969

>  <SCORE.INTER>
20.8436

>  <SCORE.INTER.CONST>
1

>  <SCORE.INTER.POLAR>
-2.84849

>  <SCORE.INTER.ROT>
9

>  <SCORE.INTER.SOLV>
49.4619

>  <SCORE.INTER.VDW>
-2.69659

>  <SCORE.INTER.norm>
0.496277

>  <SCORE.INTRA>
3.97914

>  <SCORE.INTRA.DIHEDRAL>
6.02227

>  <SCORE.INTRA.DIHEDRAL.0>
40.8761

>  <SCORE.INTRA.POLAR>
-0.993257

>  <SCORE.INTRA.POLAR.0>
-0.0268208

>  <SCORE.INTRA.REPUL>
-0.641615

>  <SCORE.INTRA.REPUL.0>
0.641615

>  <SCORE.INTRA.SOLV>
-3.18418

>  <SCORE.INTRA.SOLV.lig_0>
-162.567

>  <SCORE.INTRA.VDW>
9.14524

>  <SCORE.INTRA.VDW.0>
-4.80338

>  <SCORE.INTRA.norm>
0.0947414

>  <SCORE.RESTR>
6.27414

>  <SCORE.RESTR.CAVITY>
6.27414

>  <SCORE.RESTR.norm>
0.149384

>  <SCORE.SYSTEM>
0

>  <SCORE.SYSTEM.CONST>
0

>  <SCORE.SYSTEM.DIHEDRAL>
0

>  <SCORE.SYSTEM.SOLV>
0

>  <SCORE.SYSTEM.norm>
0

>  <SCORE.heavy>
42

>  <SCORE.norm>
0.740403

>  <RMSD>
9.657

$$$$

 OpenBabel11021811393D
libRbt.so/2013.1/901 2013/11/27
 42 45  0  0  0  0  0  0  0  0999 V2000
   -3.5527   -0.8086   -6.3089 C   0  0  2  0  0  0  0  0  0  0  0  0
   -3.9095   -2.2250   -6.3032 O   0  0  0  0  0  0  0  0  0  0  0  0
   -2.9681   -0.3676   -7.6901 C   0  0  2  0  0  0  0  0  0  0  0  0
   -3.2412   -1.3707   -8.7448 N   0  3  0  0  0  0  0  0  0  0  0  0
   -1.4378   -0.0949   -7.5780 C   0  0  1  0  0  0  0  0  0  0  0  0
   -0.9182    0.3161   -8.8408 O   0  0  0  0  0  0  0  0  0  0  0  0
   -1.1241    1.0098   -6.5336 C   0  0  2  0  0  0  0  0  0  0  0  0
    0.2746    1.0058   -6.2703 O   0  0  0  0  0  0  0  0  0  0  0  0
   -1.9195    0.7793   -5.2079 C   0  0  2  0  0  0  0  0  0  0  0  0
   -2.5858   -0.5247   -5.2404 O   0  0  0  0  0  0  0  0  0  0  0  0
   -3.0215    1.8275   -4.9304 C   0  0  0  0  0  0  0  0  0  0  0  0
   -2.4732   -6.1205   -5.1276 C   0  0  1  0  0  0  0  0  0  0  0  0
   -1.5968   -7.2526   -4.7523 N   0  3  0  0  0  0  0  0  0  0  0  0
   -2.4921   -5.0266   -4.0281 C   0  0  1  0  0  0  0  0  0  0  0  0
   -3.2841   -3.7353   -4.4346 C   0  0  1  0  0  0  0  0  0  0  0  0
   -2.9597   -2.6858   -3.4836 O   0  0  0  0  0  0  0  0  0  0  0  0
   -2.9174   -3.2054   -5.8695 C   0  0  1  0  0  0  0  0  0  0  0  0
   -2.8856   -4.3549   -6.9280 C   0  0  1  0  0  0  0  0  0  0  0  0
   -2.3976   -3.8862   -8.2411 N   0  3  0  0  0  0  0  0  0  0  0  0
   -1.9947   -5.5321   -6.4713 C   0  0  0  0  0  0  0  0  0  0  0  0
   -3.4699   -1.3382   -3.6990 C   0  0  1  0  0  0  0  0  0  0  0  0
   -4.9806   -1.3533   -3.4981 C   0  0  1  0  0  0  0  0  0  0  0  0
   -5.0474   -1.3021   -1.9778 C   0  0  1  0  0  0  0  0  0  0  0  0
   -3.9394   -0.2903   -1.6524 C   0  0  2  0  0  0  0  0  0  0  0  0
   -2.9495   -0.4497   -2.6967 O   0  0  0  0  0  0  0  0  0  0  0  0
   -3.2970   -0.5236   -0.2732 C   0  0  0  0  0  0  0  0  0  0  0  0
  -10.0136   -1.5181   -0.5811 C   0  0  1  0  0  0  0  0  0  0  0  0
   -9.4376   -0.1425   -1.0184 C   0  0  1  0  0  0  0  0  0  0  0  0
   -8.6103   -0.1898   -2.3353 C   0  0  2  0  0  0  0  0  0  0  0  0
   -7.5096   -1.2971   -2.2711 C   0  0  1  0  0  0  0  0  0  0  0  0
   -6.3508   -0.8459   -1.5143 O   0  0  0  0  0  0  0  0  0  0  0  0
   -9.4908   -2.6578   -1.5074 C   0  0  1  0  0  0  0  0  0  0  0  0
   -8.0386   -2.5384   -1.6604 O   0  0  0  0  0  0  0  0  0  0  0  0
   -9.8328   -4.0684   -0.9621 C   0  0  0  0  0  0  0  0  0  0  0  0
   -2.5343    3.2154   -4.8430 N   0  3  0  0  0  0  0  0  0  0  0  0
   -5.5579   -0.1877   -4.0868 O   0  0  0  0  0  0  0  0  0  0  0  0
  -10.5252    0.7641   -1.1968 O   0  0  0  0  0  0  0  0  0  0  0  0
   -9.6207   -1.7633    0.7711 O   0  0  0  0  0  0  0  0  0  0  0  0
   -2.7285   -1.8194   -0.1932 O   0  0  0  0  0  0  0  0  0  0  0  0
   -3.0843   -5.5714   -2.8491 O   0  0  0  0  0  0  0  0  0  0  0  0
   -9.1476   -4.3742    0.3071 N   0  3  0  0  0  0  0  0  0  0  0  0
   -8.0585    1.1448   -2.6769 N   0  3  0  0  0  0  0  0  0  0  0  0
  1  2  1  6  0  0  0
  1  3  1  0  0  0  0
  1 10  1  0  0  0  0
  3  4  1  6  0  0  0
  3  5  1  0  0  0  0
  5  6  1  6  0  0  0
  5  7  1  0  0  0  0
  7  8  1  1  0  0  0
  7  9  1  0  0  0  0
  9 10  1  0  0  0  0
  9 11  1  6  0  0  0
 11 35  1  0  0  0  0
 12 13  1  1  0  0  0
 12 14  1  0  0  0  0
 12 20  1  0  0  0  0
 14 15  1  0  0  0  0
 14 40  1  1  0  0  0
 15 16  1  1  0  0  0
 15 17  1  0  0  0  0
 17  2  1  6  0  0  0
 17 18  1  0  0  0  0
 18 19  1  6  0  0  0
 18 20  1  0  0  0  0
 21 16  1  1  0  0  0
 21 22  1  0  0  0  0
 21 25  1  0  0  0  0
 22 23  1  0  0  0  0
 22 36  1  6  0  0  0
 23 24  1  0  0  0  0
 23 31  1  6  0  0  0
 24 25  1  0  0  0  0
 24 26  1  1  0  0  0
 26 39  1  0  0  0  0
 27 28  1  0  0  0  0
 27 32  1  0  0  0  0
 27 38  1  1  0  0  0
 28 29  1  0  0  0  0
 28 37  1  6  0  0  0
 29 30  1  0  0  0  0
 29 42  1  1  0  0  0
 30 31  1  1  0  0  0
 30 33  1  0  0  0  0
 32 33  1  0  0  0  0
 32 34  1  1  0  0  0
 34 41  1  0  0  0  0
M  CHG  6   4   1  13   1  19   1  35   1  41   1  42   1
M  END
>  <CHROM.1>
91.31465612,105.70206354,-113.68730234,-159.09368272,61.71419974,-58.86031969
176.27168013,-176.30194951,76.91001240,174.51229407,68.72497305,-90.79152253
72.05965756,37.40079610,59.17753635,-32.35227522,59.71205184,72.01321982
158.43705449,-144.31813557,-65.52885212,-176.41810384,-4.55386232,-1.63979944
-3.88262142,0.07165374,0.69504085,-0.11964037

>  <Name>


>  <RI>
0

>  <Rbt.Current_Directory>
/home/itssahil/PROJECTS/Mol_Feturizer/New_Systems/rnas/1ei2

>  <Rbt.Executable>
rbdock ($Id: //depot/dev/client3/rdock/2013.1/src/exe/rbdock.cxx#4 $)

>  <Rbt.Library>
libRbt.so (2013.1, Build901 2013/11/27)

>  <Rbt.Parameter_File>
/export/apps/rDock/src/rDock_2013.1_src/data/scripts/dock_solv.prm

>  <Rbt.Receptor>
prm/blind_docking_100.prm

>  <SCORE>
4.84392

>  <SCORE.INTER>
-9.92754

>  <SCORE.INTER.CONST>
1

>  <SCORE.INTER.POLAR>
-5.86686

>  <SCORE.INTER.ROT>
9

>  <SCORE.INTER.SOLV>
52.6032

>  <SCORE.INTER.VDW>
-14.1965

>  <SCORE.INTER.norm>
-0.23637

>  <SCORE.INTRA>
10.3775

>  <SCORE.INTRA.DIHEDRAL>
-8.5848

>  <SCORE.INTRA.DIHEDRAL.0>
40.8761

>  <SCORE.INTRA.POLAR>
-1.547

>  <SCORE.INTRA.POLAR.0>
-0.0268208

>  <SCORE.INTRA.REPUL>
-0.641615

>  <SCORE.INTRA.REPUL.0>
0.641615

>  <SCORE.INTRA.SOLV>
2.66351

>  <SCORE.INTRA.SOLV.lig_0>
-162.567

>  <SCORE.INTRA.VDW>
21.806

>  <SCORE.INTRA.VDW.0>
-4.80338

>  <SCORE.INTRA.norm>
0.247083

>  <SCORE.RESTR>
4.39395

>  <SCORE.RESTR.CAVITY>
4.39395

>  <SCORE.RESTR.norm>
0.104618

>  <SCORE.SYSTEM>
0

>  <SCORE.SYSTEM.CONST>
0

>  <SCORE.SYSTEM.DIHEDRAL>
0

>  <SCORE.SYSTEM.SOLV>
0

>  <SCORE.SYSTEM.norm>
0

>  <SCORE.heavy>
42

>  <SCORE.norm>
0.115331

>  <RMSD>
9.661

$$$$

 OpenBabel11021811393D
libRbt.so/2013.1/901 2013/11/27
 42 45  0  0  0  0  0  0  0  0999 V2000
   -3.2119   -0.6386   -7.0826 C   0  0  2  0  0  0  0  0  0  0  0  0
   -4.2796    0.3534   -7.1811 O   0  0  0  0  0  0  0  0  0  0  0  0
   -2.6269   -0.9961   -8.4876 C   0  0  2  0  0  0  0  0  0  0  0  0
   -3.0330   -0.0108   -9.5158 N   0  3  0  0  0  0  0  0  0  0  0  0
   -3.0518   -2.4346   -8.9107 C   0  0  1  0  0  0  0  0  0  0  0  0
   -2.5041   -2.7530  -10.1883 O   0  0  0  0  0  0  0  0  0  0  0  0
   -2.5720   -3.5011   -7.8900 C   0  0  2  0  0  0  0  0  0  0  0  0
   -3.2287   -4.7318   -8.1722 O   0  0  0  0  0  0  0  0  0  0  0  0
   -2.8736   -3.0572   -6.4218 C   0  0  2  0  0  0  0  0  0  0  0  0
   -3.7070   -1.8528   -6.4208 O   0  0  0  0  0  0  0  0  0  0  0  0
   -1.6192   -2.7227   -5.5823 C   0  0  0  0  0  0  0  0  0  0  0  0
   -2.7456    3.8619   -5.1919 C   0  0  1  0  0  0  0  0  0  0  0  0
   -2.6240    5.0721   -4.3487 N   0  3  0  0  0  0  0  0  0  0  0  0
   -2.8823    2.5792   -4.3304 C   0  0  1  0  0  0  0  0  0  0  0  0
   -3.1651    1.2830   -5.1668 C   0  0  1  0  0  0  0  0  0  0  0  0
   -3.5903    0.2368   -4.2527 O   0  0  0  0  0  0  0  0  0  0  0  0
   -4.3021    1.4684   -6.2378 C   0  0  1  0  0  0  0  0  0  0  0  0
   -4.1281    2.7898   -7.0542 C   0  0  1  0  0  0  0  0  0  0  0  0
   -5.2720    3.0399   -7.9547 N   0  3  0  0  0  0  0  0  0  0  0  0
   -3.9599    4.0175   -6.1310 C   0  0  0  0  0  0  0  0  0  0  0  0
   -3.5773    0.4878   -2.8175 C   0  0  1  0  0  0  0  0  0  0  0  0
   -5.0108    0.4350   -2.3025 C   0  0  1  0  0  0  0  0  0  0  0  0
   -5.1991   -1.0721   -2.1937 C   0  0  1  0  0  0  0  0  0  0  0  0
   -3.8445   -1.5135   -1.6215 C   0  0  2  0  0  0  0  0  0  0  0  0
   -2.8777   -0.5690   -2.1402 O   0  0  0  0  0  0  0  0  0  0  0  0
   -3.4569   -2.9463   -2.0289 C   0  0  0  0  0  0  0  0  0  0  0  0
   -9.8245   -2.2230   -0.0146 C   0  0  1  0  0  0  0  0  0  0  0  0
   -9.3883   -0.8687   -0.6399 C   0  0  1  0  0  0  0  0  0  0  0  0
   -8.6562   -1.0064   -2.0060 C   0  0  2  0  0  0  0  0  0  0  0  0
   -7.4722   -2.0219   -1.9123 C   0  0  1  0  0  0  0  0  0  0  0  0
   -6.3002   -1.4109   -1.3022 O   0  0  0  0  0  0  0  0  0  0  0  0
   -9.2838   -3.4207   -0.8532 C   0  0  1  0  0  0  0  0  0  0  0  0
   -7.8596   -3.2204   -1.1330 O   0  0  0  0  0  0  0  0  0  0  0  0
   -9.4769   -4.7815   -0.1356 C   0  0  0  0  0  0  0  0  0  0  0  0
   -0.5278   -2.0895   -6.3432 N   0  3  0  0  0  0  0  0  0  0  0  0
   -5.0882    1.0657   -1.0240 O   0  0  0  0  0  0  0  0  0  0  0  0
  -10.5520   -0.0641   -0.8266 O   0  0  0  0  0  0  0  0  0  0  0  0
   -9.3182   -2.2881    1.3205 O   0  0  0  0  0  0  0  0  0  0  0  0
   -3.4572   -3.0884   -3.4391 O   0  0  0  0  0  0  0  0  0  0  0  0
   -1.6745    2.3908   -3.5934 O   0  0  0  0  0  0  0  0  0  0  0  0
   -9.6929   -5.8987   -1.0732 N   0  3  0  0  0  0  0  0  0  0  0  0
   -8.2340    0.3162   -2.5303 N   0  3  0  0  0  0  0  0  0  0  0  0
  1  2  1  6  0  0  0
  1  3  1  0  0  0  0
  1 10  1  0  0  0  0
  3  4  1  6  0  0  0
  3  5  1  0  0  0  0
  5  6  1  6  0  0  0
  5  7  1  0  0  0  0
  7  8  1  6  0  0  0
  7  9  1  0  0  0  0
  9 10  1  0  0  0  0
  9 11  1  6  0  0  0
 11 35  1  0  0  0  0
 12 13  1  1  0  0  0
 12 14  1  0  0  0  0
 12 20  1  0  0  0  0
 14 15  1  0  0  0  0
 14 40  1  6  0  0  0
 15 16  1  1  0  0  0
 15 17  1  0  0  0  0
 17  2  1  6  0  0  0
 17 18  1  0  0  0  0
 18 19  1  1  0  0  0
 18 20  1  0  0  0  0
 21 16  1  6  0  0  0
 21 22  1  0  0  0  0
 21 25  1  0  0  0  0
 22 23  1  0  0  0  0
 22 36  1  1  0  0  0
 23 24  1  0  0  0  0
 23 31  1  1  0  0  0
 24 25  1  0  0  0  0
 24 26  1  6  0  0  0
 26 39  1  0  0  0  0
 27 28  1  0  0  0  0
 27 32  1  0  0  0  0
 27 38  1  1  0  0  0
 28 29  1  0  0  0  0
 28 37  1  6  0  0  0
 29 30  1  0  0  0  0
 29 42  1  1  0  0  0
 30 31  1  1  0  0  0
 30 33  1  0  0  0  0
 32 33  1  0  0  0  0
 32 34  1  1  0  0  0
 34 41  1  0  0  0  0
M  CHG  6   4   1  13   1  19   1  35   1  41   1  42   1
M  END
>  <CHROM.1>
-135.71763171,-5.18789850,-54.10897729,-171.62068252,174.66541141,35.12646090
136.52348924,-77.21851245,-51.29106581,-5.00372830,115.56089746,83.48728597
-63.98755855,112.64061475,55.92900692,-58.28392191,169.87383879,-49.90326629
65.50997990,-105.45206918,148.36132199,71.01219244,-4.91281956,-0.76752019
-4.17968972,-0.05231902,-0.87178118,-2.85917012

>  <Name>


>  <RI>
0

>  <Rbt.Current_Directory>
/home/itssahil/PROJECTS/Mol_Feturizer/New_Systems/rnas/1ei2

>  <Rbt.Executable>
rbdock ($Id: //depot/dev/client3/rdock/2013.1/src/exe/rbdock.cxx#4 $)

>  <Rbt.Library>
libRbt.so (2013.1, Build901 2013/11/27)

>  <Rbt.Parameter_File>
/export/apps/rDock/src/rDock_2013.1_src/data/scripts/dock_solv.prm

>  <Rbt.Receptor>
prm/blind_docking_40.prm

>  <SCORE>
8.5861

>  <SCORE.INTER>
-4.86988

>  <SCORE.INTER.CONST>
1

>  <SCORE.INTER.POLAR>
-7.35341

>  <SCORE.INTER.ROT>
9

>  <SCORE.INTER.SOLV>
47.5245

>  <SCORE.INTER.VDW>
-4.17674

>  <SCORE.INTER.norm>
-0.11595

>  <SCORE.INTRA>
4.18732

>  <SCORE.INTRA.DIHEDRAL>
12.0333

>  <SCORE.INTRA.DIHEDRAL.0>
40.8761

>  <SCORE.INTRA.POLAR>
0.0192065

>  <SCORE.INTRA.POLAR.0>
-0.0268208

>  <SCORE.INTRA.REPUL>
-0.641615

>  <SCORE.INTRA.REPUL.0>
0.641615

>  <SCORE.INTRA.SOLV>
-6.89024

>  <SCORE.INTRA.SOLV.lig_0>
-162.567

>  <SCORE.INTRA.VDW>
4.75855

>  <SCORE.INTRA.VDW.0>
-4.80338

>  <SCORE.INTRA.norm>
0.099698

>  <SCORE.RESTR>
9.26867

>  <SCORE.RESTR.CAVITY>
9.26867

>  <SCORE.RESTR.norm>
0.220683

>  <SCORE.SYSTEM>
0

>  <SCORE.SYSTEM.CONST>
0

>  <SCORE.SYSTEM.DIHEDRAL>
0

>  <SCORE.SYSTEM.SOLV>
0

>  <SCORE.SYSTEM.norm>
0

>  <SCORE.heavy>
42

>  <SCORE.norm>
0.204431

>  <RMSD>
9.669

$$$$

 OpenBabel11021811393D
libRbt.so/2013.1/901 2013/11/27
 42 45  0  0  0  0  0  0  0  0999 V2000
   -4.5444    0.2271   -2.6506 C   0  0  2  0  0  0  0  0  0  0  0  0
   -3.3872   -0.6613   -2.7226 O   0  0  0  0  0  0  0  0  0  0  0  0
   -5.2821    0.1015   -1.2780 C   0  0  2  0  0  0  0  0  0  0  0  0
   -4.4509   -0.5993   -0.2726 N   0  3  0  0  0  0  0  0  0  0  0  0
   -6.6522   -0.6202   -1.4537 C   0  0  1  0  0  0  0  0  0  0  0  0
   -7.3199   -0.7197   -0.1977 O   0  0  0  0  0  0  0  0  0  0  0  0
   -7.5782    0.1343   -2.4450 C   0  0  2  0  0  0  0  0  0  0  0  0
   -8.6729   -0.7108   -2.7812 O   0  0  0  0  0  0  0  0  0  0  0  0
   -6.8055    0.5503   -3.7386 C   0  0  2  0  0  0  0  0  0  0  0  0
   -5.4751   -0.0621   -3.7494 O   0  0  0  0  0  0  0  0  0  0  0  0
   -6.5882    2.0730   -3.8942 C   0  0  0  0  0  0  0  0  0  0  0  0
   -2.6642    0.0028   -6.9245 C   0  0  1  0  0  0  0  0  0  0  0  0
   -2.0580    0.0003   -8.2747 N   0  3  0  0  0  0  0  0  0  0  0  0
   -3.1584   -1.4108   -6.5199 C   0  0  1  0  0  0  0  0  0  0  0  0
   -3.6735   -1.5013   -5.0412 C   0  0  1  0  0  0  0  0  0  0  0  0
   -3.7945   -2.9054   -4.6879 O   0  0  0  0  0  0  0  0  0  0  0  0
   -2.7016   -0.8322   -4.0010 C   0  0  1  0  0  0  0  0  0  0  0  0
   -2.2148    0.5753   -4.4752 C   0  0  1  0  0  0  0  0  0  0  0  0
   -1.1891    1.1397   -3.5744 N   0  3  0  0  0  0  0  0  0  0  0  0
   -1.6323    0.5298   -5.9057 C   0  0  0  0  0  0  0  0  0  0  0  0
   -2.5916   -3.6940   -4.4556 C   0  0  1  0  0  0  0  0  0  0  0  0
   -2.9450   -5.1702   -4.5932 C   0  0  1  0  0  0  0  0  0  0  0  0
   -2.9289   -5.3075   -6.1096 C   0  0  1  0  0  0  0  0  0  0  0  0
   -1.7000   -4.4668   -6.4842 C   0  0  2  0  0  0  0  0  0  0  0  0
   -1.6221   -3.4253   -5.4817 O   0  0  0  0  0  0  0  0  0  0  0  0
   -1.8016   -3.8443   -7.8883 C   0  0  0  0  0  0  0  0  0  0  0  0
   -2.8841   -7.7954  -10.1968 C   0  0  1  0  0  0  0  0  0  0  0  0
   -2.4688   -8.6991   -9.0026 C   0  0  1  0  0  0  0  0  0  0  0  0
   -3.4844   -8.7005   -7.8238 C   0  0  2  0  0  0  0  0  0  0  0  0
   -3.8261   -7.2444   -7.3713 C   0  0  1  0  0  0  0  0  0  0  0  0
   -2.7799   -6.6973   -6.5196 O   0  0  0  0  0  0  0  0  0  0  0  0
   -4.1696   -6.9821   -9.8559 C   0  0  1  0  0  0  0  0  0  0  0  0
   -4.0190   -6.3554   -8.5401 O   0  0  0  0  0  0  0  0  0  0  0  0
   -4.4756   -5.8878  -10.9109 C   0  0  0  0  0  0  0  0  0  0  0  0
   -5.7499    2.4544   -5.0445 N   0  3  0  0  0  0  0  0  0  0  0  0
   -1.9298   -5.9686   -3.9846 O   0  0  0  0  0  0  0  0  0  0  0  0
   -2.3239  -10.0362   -9.4797 O   0  0  0  0  0  0  0  0  0  0  0  0
   -1.8027   -6.9077  -10.4892 O   0  0  0  0  0  0  0  0  0  0  0  0
   -1.3572   -4.7557   -8.8785 O   0  0  0  0  0  0  0  0  0  0  0  0
   -4.2186   -1.7941   -7.3953 O   0  0  0  0  0  0  0  0  0  0  0  0
   -3.9645   -6.2254  -12.2521 N   0  3  0  0  0  0  0  0  0  0  0  0
   -3.0124   -9.5509   -6.7029 N   0  3  0  0  0  0  0  0  0  0  0  0
  1  2  1  1  0  0  0
  1  3  1  0  0  0  0
  1 10  1  0  0  0  0
  3  4  1  1  0  0  0
  3  5  1  0  0  0  0
  5  6  1  1  0  0  0
  5  7  1  0  0  0  0
  7  8  1  6  0  0  0
  7  9  1  0  0  0  0
  9 10  1  0  0  0  0
  9 11  1  1  0  0  0
 11 35  1  0  0  0  0
 12 13  1  6  0  0  0
 12 14  1  0  0  0  0
 12 20  1  0  0  0  0
 14 15  1  0  0  0  0
 14 40  1  6  0  0  0
 15 16  1  1  0  0  0
 15 17  1  0  0  0  0
 17  2  1  1  0  0  0
 17 18  1  0  0  0  0
 18 19  1  1  0  0  0
 18 20  1  0  0  0  0
 21 16  1  6  0  0  0
 21 22  1  0  0  0  0
 21 25  1  0  0  0  0
 22 23  1  0  0  0  0
 22 36  1  1  0  0  0
 23 24  1  0  0  0  0
 23 31  1  1  0  0  0
 24 25  1  0  0  0  0
 24 26  1  6  0  0  0
 26 39  1  0  0  0  0
 27 28  1  0  0  0  0
 27 32  1  0  0  0  0
 27 38  1  1  0  0  0
 28 29  1  0  0  0  0
 28 37  1  6  0  0  0
 29 30  1  0  0  0  0
 29 42  1  1  0  0  0
 30 31  1  1  0  0  0
 30 33  1  0  0  0  0
 32 33  1  0  0  0  0
 32 34  1  6  0  0  0
 34 41  1  0  0  0  0
M  CHG  6   4   1  13   1  19   1  35   1  41   1  42   1
M  END
>  <CHROM.1>
170.57126673,-63.81528762,0.44096619,-168.85772724,-63.17857775,174.43138368
-45.79924322,178.02943863,65.33115561,72.85390325,-160.28713080,90.66782541
-57.02060324,122.27936120,-85.31749100,-68.53252895,-61.58874038,-61.71503760
163.37282753,175.56647516,27.82858055,60.10954110,-3.69764331,-3.15521806
-5.83154414,2.11390143,1.09627670,0.18535483

>  <Name>


>  <RI>
0

>  <Rbt.Current_Directory>
/home/itssahil/PROJECTS/Mol_Feturizer/New_Systems/rnas/1ei2

>  <Rbt.Executable>
rbdock ($Id: //depot/dev/client3/rdock/2013.1/src/exe/rbdock.cxx#4 $)

>  <Rbt.Library>
libRbt.so (2013.1, Build901 2013/11/27)

>  <Rbt.Parameter_File>
/export/apps/rDock/src/rDock_2013.1_src/data/scripts/dock_solv.prm

>  <Rbt.Receptor>
prm/blind_docking_60.prm

>  <SCORE>
-30.0336

>  <SCORE.INTER>
-29.8234

>  <SCORE.INTER.CONST>
1

>  <SCORE.INTER.POLAR>
-5.3832

>  <SCORE.INTER.ROT>
9

>  <SCORE.INTER.SOLV>
34.8361

>  <SCORE.INTER.VDW>
-23.1503

>  <SCORE.INTER.norm>
-0.71008

>  <SCORE.INTRA>
-20.5418

>  <SCORE.INTRA.DIHEDRAL>
-17.0967

>  <SCORE.INTRA.DIHEDRAL.0>
40.8761

>  <SCORE.INTRA.POLAR>
-1.80265

>  <SCORE.INTRA.POLAR.0>
-0.0268208

>  <SCORE.INTRA.REPUL>
-0.641615

>  <SCORE.INTRA.REPUL.0>
0.641615

>  <SCORE.INTRA.SOLV>
-7.68794

>  <SCORE.INTRA.SOLV.lig_0>
-162.567

>  <SCORE.INTRA.VDW>
1.18756

>  <SCORE.INTRA.VDW.0>
-4.80338

>  <SCORE.INTRA.norm>
-0.489091

>  <SCORE.RESTR>
20.3316

>  <SCORE.RESTR.CAVITY>
20.3316

>  <SCORE.RESTR.norm>
0.484086

>  <SCORE.SYSTEM>
0

>  <SCORE.SYSTEM.CONST>
0

>  <SCORE.SYSTEM.DIHEDRAL>
0

>  <SCORE.SYSTEM.SOLV>
0

>  <SCORE.SYSTEM.norm>
0

>  <SCORE.heavy>
42

>  <SCORE.norm>
-0.715085

>  <RMSD>
9.688

$$$$

 OpenBabel11021811393D
libRbt.so/2013.1/901 2013/11/27
 42 45  0  0  0  0  0  0  0  0999 V2000
   -3.4322   -2.1049   -6.2764 C   0  0  2  0  0  0  0  0  0  0  0  0
   -4.4407   -1.0935   -6.5826 O   0  0  0  0  0  0  0  0  0  0  0  0
   -2.4718   -2.3452   -7.4862 C   0  0  2  0  0  0  0  0  0  0  0  0
   -2.5840   -1.2676   -8.4958 N   0  3  0  0  0  0  0  0  0  0  0  0
   -2.7439   -3.7348   -8.1372 C   0  0  1  0  0  0  0  0  0  0  0  0
   -1.8557   -3.9468   -9.2324 O   0  0  0  0  0  0  0  0  0  0  0  0
   -2.5580   -4.8936   -7.1213 C   0  0  2  0  0  0  0  0  0  0  0  0
   -3.0946   -6.0855   -7.6843 O   0  0  0  0  0  0  0  0  0  0  0  0
   -3.2652   -4.5768   -5.7637 C   0  0  2  0  0  0  0  0  0  0  0  0
   -4.0792   -3.3657   -5.8904 O   0  0  0  0  0  0  0  0  0  0  0  0
   -2.3012   -4.3348   -4.5794 C   0  0  0  0  0  0  0  0  0  0  0  0
   -3.3016    3.0243   -5.9779 C   0  0  1  0  0  0  0  0  0  0  0  0
   -3.1988    4.4015   -5.4457 N   0  3  0  0  0  0  0  0  0  0  0  0
   -2.7050    1.9868   -4.9911 C   0  0  1  0  0  0  0  0  0  0  0  0
   -2.9204    0.4974   -5.4331 C   0  0  1  0  0  0  0  0  0  0  0  0
   -2.6205   -0.3602   -4.2993 O   0  0  0  0  0  0  0  0  0  0  0  0
   -4.3953    0.1887   -5.8845 C   0  0  1  0  0  0  0  0  0  0  0  0
   -4.9522    1.2814   -6.8534 C   0  0  1  0  0  0  0  0  0  0  0  0
   -6.3823    1.0739   -7.1598 N   0  3  0  0  0  0  0  0  0  0  0  0
   -4.7815    2.7038   -6.2742 C   0  0  0  0  0  0  0  0  0  0  0  0
   -2.7739    0.1578   -2.9462 C   0  0  1  0  0  0  0  0  0  0  0  0
   -4.2524    0.4296   -2.6953 C   0  0  1  0  0  0  0  0  0  0  0  0
   -4.7317   -0.9799   -2.3760 C   0  0  1  0  0  0  0  0  0  0  0  0
   -3.5829   -1.5085   -1.5053 C   0  0  2  0  0  0  0  0  0  0  0  0
   -2.3913   -0.8445   -1.9900 O   0  0  0  0  0  0  0  0  0  0  0  0
   -3.4125   -3.0356   -1.5955 C   0  0  0  0  0  0  0  0  0  0  0  0
   -9.6977   -1.3741   -0.7201 C   0  0  1  0  0  0  0  0  0  0  0  0
   -9.1084   -0.2060   -1.5589 C   0  0  1  0  0  0  0  0  0  0  0  0
   -8.2151   -0.6648   -2.7474 C   0  0  2  0  0  0  0  0  0  0  0  0
   -7.1126   -1.6648   -2.2717 C   0  0  1  0  0  0  0  0  0  0  0  0
   -5.9963   -0.9644   -1.6532 O   0  0  0  0  0  0  0  0  0  0  0  0
   -9.1219   -2.7429   -1.1945 C   0  0  1  0  0  0  0  0  0  0  0  0
   -7.6645   -2.6481   -1.3114 O   0  0  0  0  0  0  0  0  0  0  0  0
   -9.4828   -3.9033   -0.2316 C   0  0  0  0  0  0  0  0  0  0  0  0
   -1.3919   -5.4587   -4.2944 N   0  3  0  0  0  0  0  0  0  0  0  0
   -4.3998    1.2994   -1.5727 O   0  0  0  0  0  0  0  0  0  0  0  0
  -10.1909    0.5672   -2.0755 O   0  0  0  0  0  0  0  0  0  0  0  0
   -9.3724   -1.1527    0.6540 O   0  0  0  0  0  0  0  0  0  0  0  0
   -2.1192   -3.3728   -2.0672 O   0  0  0  0  0  0  0  0  0  0  0  0
   -1.3034    2.2261   -4.8659 O   0  0  0  0  0  0  0  0  0  0  0  0
   -9.6171   -5.1998   -0.9208 N   0  3  0  0  0  0  0  0  0  0  0  0
   -7.6546    0.4954   -3.4835 N   0  3  0  0  0  0  0  0  0  0  0  0
  1  2  1  6  0  0  0
  1  3  1  0  0  0  0
  1 10  1  0  0  0  0
  3  4  1  6  0  0  0
  3  5  1  0  0  0  0
  5  6  1  6  0  0  0
  5  7  1  0  0  0  0
  7  8  1  6  0  0  0
  7  9  1  0  0  0  0
  9 10  1  0  0  0  0
  9 11  1  1  0  0  0
 11 35  1  0  0  0  0
 12 13  1  1  0  0  0
 12 14  1  0  0  0  0
 12 20  1  0  0  0  0
 14 15  1  0  0  0  0
 14 40  1  6  0  0  0
 15 16  1  1  0  0  0
 15 17  1  0  0  0  0
 17  2  1  6  0  0  0
 17 18  1  0  0  0  0
 18 19  1  1  0  0  0
 18 20  1  0  0  0  0
 21 16  1  6  0  0  0
 21 22  1  0  0  0  0
 21 25  1  0  0  0  0
 22 23  1  0  0  0  0
 22 36  1  1  0  0  0
 23 24  1  0  0  0  0
 23 31  1  1  0  0  0
 24 25  1  0  0  0  0
 24 26  1  6  0  0  0
 26 39  1  0  0  0  0
 27 28  1  0  0  0  0
 27 32  1  0  0  0  0
 27 38  1  1  0  0  0
 28 29  1  0  0  0  0
 28 37  1  6  0  0  0
 29 30  1  0  0  0  0
 29 42  1  1  0  0  0
 30 31  1  1  0  0  0
 30 33  1  0  0  0  0
 32 33  1  0  0  0  0
 32 34  1  1  0  0  0
 34 41  1  0  0  0  0
M  CHG  6   4   1  13   1  19   1  35   1  41   1  42   1
M  END
>  <CHROM.1>
-112.17502478,26.44502390,-81.02036111,-161.83761680,-56.92787128,-58.13160422
52.25632868,-142.32463638,74.45673344,26.62212767,66.09810868,-47.58403870
-158.85247350,121.37139414,120.50411586,168.59882021,164.83738374,169.84298871
-70.65436153,-111.51904812,149.30617799,-38.39288622,-4.80357575,-1.28614103
-4.11982733,-0.00168417,-0.75650697,3.09246506

>  <Name>


>  <RI>
0

>  <Rbt.Current_Directory>
/home/itssahil/PROJECTS/Mol_Feturizer/New_Systems/rnas/1ei2

>  <Rbt.Executable>
rbdock ($Id: //depot/dev/client3/rdock/2013.1/src/exe/rbdock.cxx#4 $)

>  <Rbt.Library>
libRbt.so (2013.1, Build901 2013/11/27)

>  <Rbt.Parameter_File>
/export/apps/rDock/src/rDock_2013.1_src/data/scripts/dock_solv.prm

>  <Rbt.Receptor>
prm/blind_docking_80.prm

>  <SCORE>
-11.9179

>  <SCORE.INTER>
-18.531

>  <SCORE.INTER.CONST>
1

>  <SCORE.INTER.POLAR>
-6.68862

>  <SCORE.INTER.ROT>
9

>  <SCORE.INTER.SOLV>
50.6156

>  <SCORE.INTER.VDW>
-16.5305

>  <SCORE.INTER.norm>
-0.441214

>  <SCORE.INTRA>
-0.312817

>  <SCORE.INTRA.DIHEDRAL>
9.13674

>  <SCORE.INTRA.DIHEDRAL.0>
40.8761

>  <SCORE.INTRA.POLAR>
-0.106184

>  <SCORE.INTRA.POLAR.0>
-0.0268208

>  <SCORE.INTRA.REPUL>
-0.638996

>  <SCORE.INTRA.REPUL.0>
0.641615

>  <SCORE.INTRA.SOLV>
-5.90292

>  <SCORE.INTRA.SOLV.lig_0>
-162.567

>  <SCORE.INTRA.VDW>
1.62627

>  <SCORE.INTRA.VDW.0>
-4.80338

>  <SCORE.INTRA.norm>
-0.00744803

>  <SCORE.RESTR>
6.92591

>  <SCORE.RESTR.CAVITY>
6.92591

>  <SCORE.RESTR.norm>
0.164903

>  <SCORE.SYSTEM>
0

>  <SCORE.SYSTEM.CONST>
0

>  <SCORE.SYSTEM.DIHEDRAL>
0

>  <SCORE.SYSTEM.SOLV>
0

>  <SCORE.SYSTEM.norm>
0

>  <SCORE.heavy>
42

>  <SCORE.norm>
-0.28376

>  <RMSD>
9.691

$$$$

 OpenBabel11021811393D
libRbt.so/2013.1/901 2013/11/27
 42 45  0  0  0  0  0  0  0  0999 V2000
   -3.2997   -0.4508   -2.0104 C   0  0  2  0  0  0  0  0  0  0  0  0
   -2.2638   -0.8253   -2.9697 O   0  0  0  0  0  0  0  0  0  0  0  0
   -4.1488   -1.6866   -1.5681 C   0  0  2  0  0  0  0  0  0  0  0  0
   -3.4924   -2.9616   -1.9378 N   0  3  0  0  0  0  0  0  0  0  0  0
   -5.5829   -1.6141   -2.1738 C   0  0  1  0  0  0  0  0  0  0  0  0
   -6.3506   -2.7406   -1.7553 O   0  0  0  0  0  0  0  0  0  0  0  0
   -6.3271   -0.3228   -1.7402 C   0  0  2  0  0  0  0  0  0  0  0  0
   -7.4927   -0.1755   -2.5436 O   0  0  0  0  0  0  0  0  0  0  0  0
   -5.4122    0.9360   -1.8877 C   0  0  2  0  0  0  0  0  0  0  0  0
   -4.1742    0.5800   -2.5848 O   0  0  0  0  0  0  0  0  0  0  0  0
   -4.9903    1.5828   -0.5484 C   0  0  0  0  0  0  0  0  0  0  0  0
   -3.8847    1.5025   -6.2213 C   0  0  1  0  0  0  0  0  0  0  0  0
   -4.0874    2.1461   -7.5386 N   0  3  0  0  0  0  0  0  0  0  0  0
   -4.0804   -0.0341   -6.3024 C   0  0  1  0  0  0  0  0  0  0  0  0
   -3.7318   -0.7870   -4.9714 C   0  0  1  0  0  0  0  0  0  0  0  0
   -3.6385   -2.2070   -5.2644 O   0  0  0  0  0  0  0  0  0  0  0  0
   -2.3601   -0.3407   -4.3442 C   0  0  1  0  0  0  0  0  0  0  0  0
   -2.2075    1.2146   -4.3153 C   0  0  1  0  0  0  0  0  0  0  0  0
   -0.8636    1.6317   -3.8660 N   0  3  0  0  0  0  0  0  0  0  0  0
   -2.4727    1.8437   -5.7016 C   0  0  0  0  0  0  0  0  0  0  0  0
   -2.3546   -2.8839   -5.1372 C   0  0  1  0  0  0  0  0  0  0  0  0
   -2.6085   -4.3751   -4.9507 C   0  0  1  0  0  0  0  0  0  0  0  0
   -2.8567   -4.7856   -6.3959 C   0  0  1  0  0  0  0  0  0  0  0  0
   -1.7869   -3.9716   -7.1376 C   0  0  2  0  0  0  0  0  0  0  0  0
   -1.6116   -2.7624   -6.3612 O   0  0  0  0  0  0  0  0  0  0  0  0
   -2.1905   -3.6208   -8.5810 C   0  0  0  0  0  0  0  0  0  0  0  0
   -3.0341   -7.9112  -10.0111 C   0  0  1  0  0  0  0  0  0  0  0  0
   -2.4734   -8.5898   -8.7303 C   0  0  1  0  0  0  0  0  0  0  0  0
   -3.3840   -8.4337   -7.4782 C   0  0  2  0  0  0  0  0  0  0  0  0
   -3.7599   -6.9364   -7.2367 C   0  0  1  0  0  0  0  0  0  0  0  0
   -2.6745   -6.2185   -6.5842 O   0  0  0  0  0  0  0  0  0  0  0  0
   -4.3258   -7.1002   -9.6888 C   0  0  1  0  0  0  0  0  0  0  0  0
   -4.0963   -6.2600   -8.5107 O   0  0  0  0  0  0  0  0  0  0  0  0
   -4.7756   -6.2069  -10.8736 C   0  0  0  0  0  0  0  0  0  0  0  0
   -4.3864    0.6472    0.4167 N   0  3  0  0  0  0  0  0  0  0  0  0
   -1.4396   -5.0017   -4.4220 O   0  0  0  0  0  0  0  0  0  0  0  0
   -2.3015   -9.9811   -8.9971 O   0  0  0  0  0  0  0  0  0  0  0  0
   -2.0280   -7.0451  -10.5409 O   0  0  0  0  0  0  0  0  0  0  0  0
   -1.5968   -4.5176   -9.5040 O   0  0  0  0  0  0  0  0  0  0  0  0
   -5.4412   -0.3063   -6.6362 O   0  0  0  0  0  0  0  0  0  0  0  0
   -3.7421   -5.2404  -11.2877 N   0  3  0  0  0  0  0  0  0  0  0  0
   -2.7759   -9.0698   -6.2832 N   0  3  0  0  0  0  0  0  0  0  0  0
  1  2  1  6  0  0  0
  1  3  1  0  0  0  0
  1 10  1  0  0  0  0
  3  4  1  6  0  0  0
  3  5  1  0  0  0  0
  5  6  1  1  0  0  0
  5  7  1  0  0  0  0
  7  8  1  6  0  0  0
  7  9  1  0  0  0  0
  9 10  1  0  0  0  0
  9 11  1  1  0  0  0
 11 35  1  0  0  0  0
 12 13  1  6  0  0  0
 12 14  1  0  0  0  0
 12 20  1  0  0  0  0
 14 15  1  0  0  0  0
 14 40  1  1  0  0  0
 15 16  1  6  0  0  0
 15 17  1  0  0  0  0
 17  2  1  1  0  0  0
 17 18  1  0  0  0  0
 18 19  1  6  0  0  0
 18 20  1  0  0  0  0
 21 16  1  6  0  0  0
 21 22  1  0  0  0  0
 21 25  1  0  0  0  0
 22 23  1  0  0  0  0
 22 36  1  6  0  0  0
 23 24  1  0  0  0  0
 23 31  1  1  0  0  0
 24 25  1  0  0  0  0
 24 26  1  6  0  0  0
 26 39  1  0  0  0  0
 27 28  1  0  0  0  0
 27 32  1  0  0  0  0
 27 38  1  1  0  0  0
 28 29  1  0  0  0  0
 28 37  1  6  0  0  0
 29 30  1  0  0  0  0
 29 42  1  1  0  0  0
 30 31  1  6  0  0  0
 30 33  1  0  0  0  0
 32 33  1  0  0  0  0
 32 34  1  6  0  0  0
 34 41  1  0  0  0  0
M  CHG  6   4   1  13   1  19   1  35   1  41   1  42   1
M  END
>  <CHROM.1>
112.71392028,-56.95145313,109.10300336,71.31998586,-57.03596614,52.45370424
-35.45366081,43.64619805,177.43271011,114.21217568,157.85501312,-160.89304938
175.89947182,128.27727510,-98.80246233,-159.15944352,-54.29647343,-52.51299556
170.86599406,175.34437515,-58.36747880,47.65046269,-3.47763173,-2.95778756
-5.61200563,2.21989871,1.34455788,0.05870208

>  <Name>


>  <RI>
0

>  <Rbt.Current_Directory>
/home/itssahil/PROJECTS/Mol_Feturizer/New_Systems/rnas/1ei2

>  <Rbt.Executable>
rbdock ($Id: //depot/dev/client3/rdock/2013.1/src/exe/rbdock.cxx#4 $)

>  <Rbt.Library>
libRbt.so (2013.1, Build901 2013/11/27)

>  <Rbt.Parameter_File>
/export/apps/rDock/src/rDock_2013.1_src/data/scripts/dock_solv.prm

>  <Rbt.Receptor>
prm/blind_docking_60.prm

>  <SCORE>
-19.2634

>  <SCORE.INTER>
-27.1386

>  <SCORE.INTER.CONST>
1

>  <SCORE.INTER.POLAR>
-5.29322

>  <SCORE.INTER.ROT>
9

>  <SCORE.INTER.SOLV>
37.6955

>  <SCORE.INTER.VDW>
-22.6135

>  <SCORE.INTER.norm>
-0.646158

>  <SCORE.INTRA>
-8.33406

>  <SCORE.INTRA.DIHEDRAL>
-3.40796

>  <SCORE.INTRA.DIHEDRAL.0>
40.8761

>  <SCORE.INTRA.POLAR>
-1.67328

>  <SCORE.INTRA.POLAR.0>
-0.0268208

>  <SCORE.INTRA.REPUL>
-0.641615

>  <SCORE.INTRA.REPUL.0>
0.641615

>  <SCORE.INTRA.SOLV>
1.09384

>  <SCORE.INTRA.SOLV.lig_0>
-162.567

>  <SCORE.INTRA.VDW>
1.72022

>  <SCORE.INTRA.VDW.0>
-4.80338

>  <SCORE.INTRA.norm>
-0.19843

>  <SCORE.RESTR>
16.2093

>  <SCORE.RESTR.CAVITY>
16.2093

>  <SCORE.RESTR.norm>
0.385935

>  <SCORE.SYSTEM>
0

>  <SCORE.SYSTEM.CONST>
0

>  <SCORE.SYSTEM.DIHEDRAL>
0

>  <SCORE.SYSTEM.SOLV>
0

>  <SCORE.SYSTEM.norm>
0

>  <SCORE.heavy>
42

>  <SCORE.norm>
-0.458653

>  <RMSD>
9.701

$$$$

 OpenBabel11021811393D
libRbt.so/2013.1/901 2013/11/27
 42 45  0  0  0  0  0  0  0  0999 V2000
   -2.7723   -2.3321   -5.8870 C   0  0  2  0  0  0  0  0  0  0  0  0
   -2.2690   -1.3749   -4.9051 O   0  0  0  0  0  0  0  0  0  0  0  0
   -2.9772   -3.7484   -5.2578 C   0  0  2  0  0  0  0  0  0  0  0  0
   -2.9567   -3.6975   -3.7779 N   0  3  0  0  0  0  0  0  0  0  0  0
   -1.9021   -4.7457   -5.7855 C   0  0  1  0  0  0  0  0  0  0  0  0
   -2.1053   -6.0358   -5.2128 O   0  0  0  0  0  0  0  0  0  0  0  0
   -1.9500   -4.8803   -7.3311 C   0  0  2  0  0  0  0  0  0  0  0  0
   -0.7794   -5.5626   -7.7669 O   0  0  0  0  0  0  0  0  0  0  0  0
   -2.0416   -3.4801   -8.0199 C   0  0  2  0  0  0  0  0  0  0  0  0
   -1.8528   -2.4180   -7.0291 O   0  0  0  0  0  0  0  0  0  0  0  0
   -3.3924   -3.1948   -8.7159 C   0  0  0  0  0  0  0  0  0  0  0  0
   -1.5698    2.8711   -5.2255 C   0  0  1  0  0  0  0  0  0  0  0  0
   -1.7586    4.3270   -5.4123 N   0  3  0  0  0  0  0  0  0  0  0  0
   -2.2368    2.3740   -3.9162 C   0  0  1  0  0  0  0  0  0  0  0  0
   -2.1994    0.8160   -3.7395 C   0  0  1  0  0  0  0  0  0  0  0  0
   -3.1188    0.4581   -2.6730 O   0  0  0  0  0  0  0  0  0  0  0  0
   -2.6410    0.0321   -5.0297 C   0  0  1  0  0  0  0  0  0  0  0  0
   -1.9601    0.5950   -6.3191 C   0  0  1  0  0  0  0  0  0  0  0  0
   -2.4847   -0.0397   -7.5454 N   0  3  0  0  0  0  0  0  0  0  0  0
   -2.1459    2.1237   -6.4462 C   0  0  0  0  0  0  0  0  0  0  0  0
   -4.3629    1.2002   -2.5177 C   0  0  1  0  0  0  0  0  0  0  0  0
   -5.5240    0.2134   -2.5513 C   0  0  1  0  0  0  0  0  0  0  0  0
   -5.4742   -0.3050   -1.1205 C   0  0  1  0  0  0  0  0  0  0  0  0
   -5.1930    0.9829   -0.3335 C   0  0  2  0  0  0  0  0  0  0  0  0
   -4.4090    1.8163   -1.2203 O   0  0  0  0  0  0  0  0  0  0  0  0
   -4.4240    0.7325    0.9762 C   0  0  0  0  0  0  0  0  0  0  0  0
   -9.5502   -3.4826   -0.2441 C   0  0  1  0  0  0  0  0  0  0  0  0
   -9.6851   -2.1392   -1.0136 C   0  0  1  0  0  0  0  0  0  0  0  0
   -8.5791   -1.9058   -2.0830 C   0  0  2  0  0  0  0  0  0  0  0  0
   -7.1537   -2.0952   -1.4715 C   0  0  1  0  0  0  0  0  0  0  0  0
   -6.7374   -0.9150   -0.7279 O   0  0  0  0  0  0  0  0  0  0  0  0
   -8.2320   -4.2166   -0.6367 C   0  0  1  0  0  0  0  0  0  0  0  0
   -7.1105   -3.2757   -0.5780 O   0  0  0  0  0  0  0  0  0  0  0  0
   -7.9315   -5.4277    0.2836 C   0  0  0  0  0  0  0  0  0  0  0  0
   -3.6873   -4.0769   -9.8587 N   0  3  0  0  0  0  0  0  0  0  0  0
   -6.7425    0.9100   -2.8134 O   0  0  0  0  0  0  0  0  0  0  0  0
  -10.9562   -2.1181   -1.6619 O   0  0  0  0  0  0  0  0  0  0  0  0
   -9.5596   -3.2033    1.1577 O   0  0  0  0  0  0  0  0  0  0  0  0
   -5.1726   -0.0931    1.8518 O   0  0  0  0  0  0  0  0  0  0  0  0
   -1.5705    2.9740   -2.8056 O   0  0  0  0  0  0  0  0  0  0  0  0
   -8.9027   -6.5254    0.1224 N   0  3  0  0  0  0  0  0  0  0  0  0
   -8.7427   -0.5923   -2.7540 N   0  3  0  0  0  0  0  0  0  0  0  0
  1  2  1  1  0  0  0
  1  3  1  0  0  0  0
  1 10  1  0  0  0  0
  3  4  1  1  0  0  0
  3  5  1  0  0  0  0
  5  6  1  1  0  0  0
  5  7  1  0  0  0  0
  7  8  1  6  0  0  0
  7  9  1  0  0  0  0
  9 10  1  0  0  0  0
  9 11  1  1  0  0  0
 11 35  1  0  0  0  0
 12 13  1  6  0  0  0
 12 14  1  0  0  0  0
 12 20  1  0  0  0  0
 14 15  1  0  0  0  0
 14 40  1  1  0  0  0
 15 16  1  1  0  0  0
 15 17  1  0  0  0  0
 17  2  1  1  0  0  0
 17 18  1  0  0  0  0
 18 19  1  6  0  0  0
 18 20  1  0  0  0  0
 21 16  1  1  0  0  0
 21 22  1  0  0  0  0
 21 25  1  0  0  0  0
 22 23  1  0  0  0  0
 22 36  1  1  0  0  0
 23 24  1  0  0  0  0
 23 31  1  1  0  0  0
 24 25  1  0  0  0  0
 24 26  1  1  0  0  0
 26 39  1  0  0  0  0
 27 28  1  0  0  0  0
 27 32  1  0  0  0  0
 27 38  1  1  0  0  0
 28 29  1  0  0  0  0
 28 37  1  6  0  0  0
 29 30  1  0  0  0  0
 29 42  1  1  0  0  0
 30 31  1  1  0  0  0
 30 33  1  0  0  0  0
 32 33  1  0  0  0  0
 32 34  1  1  0  0  0
 34 41  1  0  0  0  0
M  CHG  6   4   1  13   1  19   1  35   1  41   1  42   1
M  END
>  <CHROM.1>
-148.75611329,170.13078617,-11.32194338,176.46109468,-78.61353697,-64.67593315
-152.78719693,-131.84604503,177.22876844,36.03515908,124.60409407,-87.81630216
55.55712426,62.88771620,-61.66041824,-56.51277555,35.70711181,-176.20212633
29.76597446,-124.53084889,67.37448665,70.14266702,-4.66224215,-1.43296191
-3.47001862,0.21721778,-0.77815910,-2.68060022

>  <Name>


>  <RI>
0

>  <Rbt.Current_Directory>
/home/itssahil/PROJECTS/Mol_Feturizer/New_Systems/rnas/1ei2

>  <Rbt.Executable>
rbdock ($Id: //depot/dev/client3/rdock/2013.1/src/exe/rbdock.cxx#4 $)

>  <Rbt.Library>
libRbt.so (2013.1, Build901 2013/11/27)

>  <Rbt.Parameter_File>
/export/apps/rDock/src/rDock_2013.1_src/data/scripts/dock_solv.prm

>  <Rbt.Receptor>
prm/blind_docking_60.prm

>  <SCORE>
35.135

>  <SCORE.INTER>
30.1108

>  <SCORE.INTER.CONST>
1

>  <SCORE.INTER.POLAR>
-5.28874

>  <SCORE.INTER.ROT>
9

>  <SCORE.INTER.SOLV>
55.3105

>  <SCORE.INTER.VDW>
9.66618

>  <SCORE.INTER.norm>
0.716925

>  <SCORE.INTRA>
-9.41471

>  <SCORE.INTRA.DIHEDRAL>
-2.74179

>  <SCORE.INTRA.DIHEDRAL.0>
40.8761

>  <SCORE.INTRA.POLAR>
-2.0095

>  <SCORE.INTRA.POLAR.0>
-0.0268208

>  <SCORE.INTRA.REPUL>
-0.641615

>  <SCORE.INTRA.REPUL.0>
0.641615

>  <SCORE.INTRA.SOLV>
-5.32625

>  <SCORE.INTRA.SOLV.lig_0>
-162.567

>  <SCORE.INTRA.VDW>
4.6597

>  <SCORE.INTRA.VDW.0>
-4.80338

>  <SCORE.INTRA.norm>
-0.22416

>  <SCORE.RESTR>
14.4389

>  <SCORE.RESTR.CAVITY>
14.4389

>  <SCORE.RESTR.norm>
0.343784

>  <SCORE.SYSTEM>
0

>  <SCORE.SYSTEM.CONST>
0

>  <SCORE.SYSTEM.DIHEDRAL>
0

>  <SCORE.SYSTEM.SOLV>
0

>  <SCORE.SYSTEM.norm>
0

>  <SCORE.heavy>
42

>  <SCORE.norm>
0.836549

>  <RMSD>
9.704

$$$$

 OpenBabel11021811393D
libRbt.so/2013.1/901 2013/11/27
 42 45  0  0  0  0  0  0  0  0999 V2000
   -3.6134   -0.8472   -6.2571 C   0  0  2  0  0  0  0  0  0  0  0  0
   -3.9720   -2.2617   -6.1927 O   0  0  0  0  0  0  0  0  0  0  0  0
   -3.2466   -0.4119   -7.7130 C   0  0  2  0  0  0  0  0  0  0  0  0
   -3.6840   -1.4154   -8.7104 N   0  3  0  0  0  0  0  0  0  0  0  0
   -1.7160   -0.1470   -7.8390 C   0  0  1  0  0  0  0  0  0  0  0  0
   -1.3953    0.2589   -9.1679 O   0  0  0  0  0  0  0  0  0  0  0  0
   -1.2396    0.9580   -6.8584 C   0  0  2  0  0  0  0  0  0  0  0  0
    0.1829    0.9471   -6.8139 O   0  0  0  0  0  0  0  0  0  0  0  0
   -1.8222    0.7341   -5.4253 C   0  0  2  0  0  0  0  0  0  0  0  0
   -2.4919   -0.5664   -5.3512 O   0  0  0  0  0  0  0  0  0  0  0  0
   -2.8631    1.7886   -4.9840 C   0  0  0  0  0  0  0  0  0  0  0  0
   -2.4731   -6.1587   -5.1033 C   0  0  1  0  0  0  0  0  0  0  0  0
   -1.5854   -7.2732   -4.7029 N   0  3  0  0  0  0  0  0  0  0  0  0
   -2.6650   -5.1408   -3.9486 C   0  0  1  0  0  0  0  0  0  0  0  0
   -3.4737   -3.8618   -4.3610 C   0  0  1  0  0  0  0  0  0  0  0  0
   -3.3064   -2.8635   -3.3188 O   0  0  0  0  0  0  0  0  0  0  0  0
   -2.9833   -3.2237   -5.7125 C   0  0  1  0  0  0  0  0  0  0  0  0
   -2.7802   -4.2990   -6.8285 C   0  0  1  0  0  0  0  0  0  0  0  0
   -2.1794   -3.7245   -8.0494 N   0  3  0  0  0  0  0  0  0  0  0  0
   -1.8846   -5.4632   -6.3484 C   0  0  0  0  0  0  0  0  0  0  0  0
   -3.6017   -1.4664   -3.6081 C   0  0  1  0  0  0  0  0  0  0  0  0
   -5.1148   -1.2852   -3.6328 C   0  0  1  0  0  0  0  0  0  0  0  0
   -5.3966   -1.1961   -2.1391 C   0  0  1  0  0  0  0  0  0  0  0  0
   -4.2273   -0.3274   -1.6540 C   0  0  2  0  0  0  0  0  0  0  0  0
   -3.1238   -0.6319   -2.5403 O   0  0  0  0  0  0  0  0  0  0  0  0
   -3.8295   -0.6135   -0.1948 C   0  0  0  0  0  0  0  0  0  0  0  0
   -9.9433   -1.5220   -0.0827 C   0  0  1  0  0  0  0  0  0  0  0  0
   -9.6995   -0.1957   -0.8552 C   0  0  1  0  0  0  0  0  0  0  0  0
   -9.1344   -0.3918   -2.2917 C   0  0  2  0  0  0  0  0  0  0  0  0
   -7.8696   -1.3094   -2.2803 C   0  0  1  0  0  0  0  0  0  0  0  0
   -6.6841   -0.5687   -1.8737 O   0  0  0  0  0  0  0  0  0  0  0  0
   -9.4157   -2.7426   -0.8964 C   0  0  1  0  0  0  0  0  0  0  0  0
   -8.0585   -2.4648   -1.3731 O   0  0  0  0  0  0  0  0  0  0  0  0
   -9.4071   -4.0506   -0.0639 C   0  0  0  0  0  0  0  0  0  0  0  0
   -2.4138    3.1848   -5.1257 N   0  3  0  0  0  0  0  0  0  0  0  0
   -5.4445   -0.0673   -4.3011 O   0  0  0  0  0  0  0  0  0  0  0  0
  -10.9388    0.5060   -0.9459 O   0  0  0  0  0  0  0  0  0  0  0  0
   -9.2711   -1.4417    1.1762 O   0  0  0  0  0  0  0  0  0  0  0  0
   -4.9645   -0.5843    0.6534 O   0  0  0  0  0  0  0  0  0  0  0  0
   -3.3512   -5.7871   -2.8767 O   0  0  0  0  0  0  0  0  0  0  0  0
   -9.6530   -5.2526   -0.8816 N   0  3  0  0  0  0  0  0  0  0  0  0
   -8.8894    0.9102   -2.9601 N   0  3  0  0  0  0  0  0  0  0  0  0
  1  2  1  6  0  0  0
  1  3  1  0  0  0  0
  1 10  1  0  0  0  0
  3  4  1  6  0  0  0
  3  5  1  0  0  0  0
  5  6  1  6  0  0  0
  5  7  1  0  0  0  0
  7  8  1  1  0  0  0
  7  9  1  0  0  0  0
  9 10  1  0  0  0  0
  9 11  1  6  0  0  0
 11 35  1  0  0  0  0
 12 13  1  1  0  0  0
 12 14  1  0  0  0  0
 12 20  1  0  0  0  0
 14 15  1  0  0  0  0
 14 40  1  1  0  0  0
 15 16  1  1  0  0  0
 15 17  1  0  0  0  0
 17  2  1  6  0  0  0
 17 18  1  0  0  0  0
 18 19  1  6  0  0  0
 18 20  1  0  0  0  0
 21 16  1  1  0  0  0
 21 22  1  0  0  0  0
 21 25  1  0  0  0  0
 22 23  1  0  0  0  0
 22 36  1  6  0  0  0
 23 24  1  0  0  0  0
 23 31  1  6  0  0  0
 24 25  1  0  0  0  0
 24 26  1  1  0  0  0
 26 39  1  0  0  0  0
 27 28  1  0  0  0  0
 27 32  1  0  0  0  0
 27 38  1  1  0  0  0
 28 29  1  0  0  0  0
 28 37  1  6  0  0  0
 29 30  1  0  0  0  0
 29 42  1  1  0  0  0
 30 31  1  1  0  0  0
 30 33  1  0  0  0  0
 32 33  1  0  0  0  0
 32 34  1  1  0  0  0
 34 41  1  0  0  0  0
M  CHG  6   4   1  13   1  19   1  35   1  41   1  42   1
M  END
>  <CHROM.1>
100.76072895,114.62951530,116.73729737,-94.26100116,171.90779180,-52.08393185
-40.87754272,-65.54900135,84.25458491,161.70058157,75.87621471,-106.20361744
-165.80260579,67.46975763,-50.34898615,53.32476345,61.29376998,50.73882031
91.33513524,-164.99578867,148.09234338,-138.88849576,-4.75878522,-1.66008536
-3.86589434,0.09249769,0.71743115,-0.14033700

>  <Name>


>  <RI>
0

>  <Rbt.Current_Directory>
/home/itssahil/PROJECTS/Mol_Feturizer/New_Systems/rnas/1ei2

>  <Rbt.Executable>
rbdock ($Id: //depot/dev/client3/rdock/2013.1/src/exe/rbdock.cxx#4 $)

>  <Rbt.Library>
libRbt.so (2013.1, Build901 2013/11/27)

>  <Rbt.Parameter_File>
/export/apps/rDock/src/rDock_2013.1_src/data/scripts/dock_solv.prm

>  <Rbt.Receptor>
prm/blind_docking_100.prm

>  <SCORE>
16.8602

>  <SCORE.INTER>
5.21852

>  <SCORE.INTER.CONST>
1

>  <SCORE.INTER.POLAR>
-7.12392

>  <SCORE.INTER.ROT>
9

>  <SCORE.INTER.SOLV>
59.2714

>  <SCORE.INTER.VDW>
-2.13171

>  <SCORE.INTER.norm>
0.12425

>  <SCORE.INTRA>
7.1997

>  <SCORE.INTRA.DIHEDRAL>
1.11

>  <SCORE.INTRA.DIHEDRAL.0>
40.8761

>  <SCORE.INTRA.POLAR>
-0.390559

>  <SCORE.INTRA.POLAR.0>
-0.0268208

>  <SCORE.INTRA.REPUL>
-0.641615

>  <SCORE.INTRA.REPUL.0>
0.641615

>  <SCORE.INTRA.SOLV>
-2.61572

>  <SCORE.INTRA.SOLV.lig_0>
-162.567

>  <SCORE.INTRA.VDW>
12.4885

>  <SCORE.INTRA.VDW.0>
-4.80338

>  <SCORE.INTRA.norm>
0.171421

>  <SCORE.RESTR>
4.44201

>  <SCORE.RESTR.CAVITY>
4.44201

>  <SCORE.RESTR.norm>
0.105762

>  <SCORE.SYSTEM>
0

>  <SCORE.SYSTEM.CONST>
0

>  <SCORE.SYSTEM.DIHEDRAL>
0

>  <SCORE.SYSTEM.SOLV>
0

>  <SCORE.SYSTEM.norm>
0

>  <SCORE.heavy>
42

>  <SCORE.norm>
0.401434

>  <RMSD>
9.708

$$$$

 OpenBabel11021811393D
libRbt.so/2013.1/901 2013/11/27
 42 45  0  0  0  0  0  0  0  0999 V2000
   -3.4223   -2.1542   -6.3821 C   0  0  2  0  0  0  0  0  0  0  0  0
   -4.4835   -1.2702   -6.8576 O   0  0  0  0  0  0  0  0  0  0  0  0
   -2.4787   -2.5989   -7.5465 C   0  0  2  0  0  0  0  0  0  0  0  0
   -2.6635   -1.7583   -8.7516 N   0  3  0  0  0  0  0  0  0  0  0  0
   -2.6997   -4.1030   -7.8898 C   0  0  1  0  0  0  0  0  0  0  0  0
   -1.8269   -4.4994   -8.9456 O   0  0  0  0  0  0  0  0  0  0  0  0
   -2.4372   -5.0186   -6.6642 C   0  0  2  0  0  0  0  0  0  0  0  0
   -2.9297   -6.3222   -6.9538 O   0  0  0  0  0  0  0  0  0  0  0  0
   -3.1282   -4.4581   -5.3790 C   0  0  2  0  0  0  0  0  0  0  0  0
   -4.0007   -3.3339   -5.7258 O   0  0  0  0  0  0  0  0  0  0  0  0
   -2.1508   -3.9375   -4.3003 C   0  0  0  0  0  0  0  0  0  0  0  0
   -2.8103    2.7014   -6.6425 C   0  0  1  0  0  0  0  0  0  0  0  0
   -2.6332    4.1527   -6.4131 N   0  3  0  0  0  0  0  0  0  0  0  0
   -2.9272    1.9238   -5.3054 C   0  0  1  0  0  0  0  0  0  0  0  0
   -3.2662    0.4032   -5.4859 C   0  0  1  0  0  0  0  0  0  0  0  0
   -3.6655   -0.1291   -4.1943 O   0  0  0  0  0  0  0  0  0  0  0  0
   -4.4473    0.1434   -6.4918 C   0  0  1  0  0  0  0  0  0  0  0  0
   -4.2906    0.9742   -7.8064 C   0  0  1  0  0  0  0  0  0  0  0  0
   -5.4698    0.8468   -8.6868 N   0  3  0  0  0  0  0  0  0  0  0  0
   -4.0630    2.4745   -7.5142 C   0  0  0  0  0  0  0  0  0  0  0  0
   -4.6886    0.5595   -3.4185 C   0  0  1  0  0  0  0  0  0  0  0  0
   -5.9794   -0.2473   -3.4931 C   0  0  1  0  0  0  0  0  0  0  0  0
   -5.6865   -1.3153   -2.4481 C   0  0  1  0  0  0  0  0  0  0  0  0
   -5.0071   -0.4916   -1.3448 C   0  0  2  0  0  0  0  0  0  0  0  0
   -4.3199    0.5826   -2.0298 O   0  0  0  0  0  0  0  0  0  0  0  0
   -4.0081   -1.3123   -0.5094 C   0  0  0  0  0  0  0  0  0  0  0  0
   -9.7401    0.6023   -1.5233 C   0  0  1  0  0  0  0  0  0  0  0  0
   -9.9320   -0.9331   -1.6685 C   0  0  1  0  0  0  0  0  0  0  0  0
   -9.0471   -1.7776   -0.7069 C   0  0  2  0  0  0  0  0  0  0  0  0
   -7.5451   -1.3583   -0.8073 C   0  0  1  0  0  0  0  0  0  0  0  0
   -6.9088   -1.9508   -1.9749 O   0  0  0  0  0  0  0  0  0  0  0  0
   -8.5802    0.9249   -0.5329 C   0  0  1  0  0  0  0  0  0  0  0  0
   -7.4070    0.1150   -0.8709 O   0  0  0  0  0  0  0  0  0  0  0  0
   -8.1874    2.4247   -0.5489 C   0  0  0  0  0  0  0  0  0  0  0  0
   -2.6647   -4.0193   -2.9217 N   0  3  0  0  0  0  0  0  0  0  0  0
   -7.0840    0.5718   -3.1089 O   0  0  0  0  0  0  0  0  0  0  0  0
  -11.3020   -1.2410   -1.4142 O   0  0  0  0  0  0  0  0  0  0  0  0
   -9.4516    1.1456   -2.8135 O   0  0  0  0  0  0  0  0  0  0  0  0
   -4.2823   -2.6989   -0.6124 O   0  0  0  0  0  0  0  0  0  0  0  0
   -1.6905    2.0338   -4.6012 O   0  0  0  0  0  0  0  0  0  0  0  0
   -9.1111    3.2679    0.2321 N   0  3  0  0  0  0  0  0  0  0  0  0
   -9.2495   -3.2321   -0.9211 N   0  3  0  0  0  0  0  0  0  0  0  0
  1  2  1  6  0  0  0
  1  3  1  0  0  0  0
  1 10  1  0  0  0  0
  3  4  1  6  0  0  0
  3  5  1  0  0  0  0
  5  6  1  6  0  0  0
  5  7  1  0  0  0  0
  7  8  1  6  0  0  0
  7  9  1  0  0  0  0
  9 10  1  0  0  0  0
  9 11  1  1  0  0  0
 11 35  1  0  0  0  0
 12 13  1  1  0  0  0
 12 14  1  0  0  0  0
 12 20  1  0  0  0  0
 14 15  1  0  0  0  0
 14 40  1  6  0  0  0
 15 16  1  1  0  0  0
 15 17  1  0  0  0  0
 17  2  1  6  0  0  0
 17 18  1  0  0  0  0
 18 19  1  6  0  0  0
 18 20  1  0  0  0  0
 21 16  1  6  0  0  0
 21 22  1  0  0  0  0
 21 25  1  0  0  0  0
 22 23  1  0  0  0  0
 22 36  1  1  0  0  0
 23 24  1  0  0  0  0
 23 31  1  1  0  0  0
 24 25  1  0  0  0  0
 24 26  1  6  0  0  0
 26 39  1  0  0  0  0
 27 28  1  0  0  0  0
 27 32  1  0  0  0  0
 27 38  1  6  0  0  0
 28 29  1  0  0  0  0
 28 37  1  1  0  0  0
 29 30  1  0  0  0  0
 29 42  1  6  0  0  0
 30 31  1  6  0  0  0
 30 33  1  0  0  0  0
 32 33  1  0  0  0  0
 32 34  1  6  0  0  0
 34 41  1  0  0  0  0
M  CHG  6   4   1  13   1  19   1  35   1  41   1  42   1
M  END
>  <CHROM.1>
-109.24497636,-5.60674291,155.80440737,-172.72412369,91.35611715,-152.06673825
-140.98113496,170.81116930,72.75207273,50.85316856,105.91693361,65.88677473
61.11276704,-91.08017098,-21.09208718,65.71994053,176.82830827,135.43846586
39.81647227,159.85459811,79.17555461,165.13183928,-5.19911781,-0.82259989
-4.09581379,0.14262740,-0.83542143,2.96841606

>  <Name>


>  <RI>
0

>  <Rbt.Current_Directory>
/home/itssahil/PROJECTS/Mol_Feturizer/New_Systems/rnas/1ei2

>  <Rbt.Executable>
rbdock ($Id: //depot/dev/client3/rdock/2013.1/src/exe/rbdock.cxx#4 $)

>  <Rbt.Library>
libRbt.so (2013.1, Build901 2013/11/27)

>  <Rbt.Parameter_File>
/export/apps/rDock/src/rDock_2013.1_src/data/scripts/dock_solv.prm

>  <Rbt.Receptor>
prm/blind_docking_40.prm

>  <SCORE>
5.34487

>  <SCORE.INTER>
-18.4922

>  <SCORE.INTER.CONST>
1

>  <SCORE.INTER.POLAR>
-4.79824

>  <SCORE.INTER.ROT>
9

>  <SCORE.INTER.SOLV>
49.2542

>  <SCORE.INTER.VDW>
-22.3521

>  <SCORE.INTER.norm>
-0.440291

>  <SCORE.INTRA>
6.72847

>  <SCORE.INTRA.DIHEDRAL>
9.47879

>  <SCORE.INTRA.DIHEDRAL.0>
40.8761

>  <SCORE.INTRA.POLAR>
0.0268208

>  <SCORE.INTRA.POLAR.0>
-0.0268208

>  <SCORE.INTRA.REPUL>
-0.641615

>  <SCORE.INTRA.REPUL.0>
0.641615

>  <SCORE.INTRA.SOLV>
-4.68967

>  <SCORE.INTRA.SOLV.lig_0>
-162.567

>  <SCORE.INTRA.VDW>
7.45079

>  <SCORE.INTRA.VDW.0>
-4.80338

>  <SCORE.INTRA.norm>
0.160202

>  <SCORE.RESTR>
17.1086

>  <SCORE.RESTR.CAVITY>
17.1086

>  <SCORE.RESTR.norm>
0.407348

>  <SCORE.SYSTEM>
0

>  <SCORE.SYSTEM.CONST>
0

>  <SCORE.SYSTEM.DIHEDRAL>
0

>  <SCORE.SYSTEM.SOLV>
0

>  <SCORE.SYSTEM.norm>
0

>  <SCORE.heavy>
42

>  <SCORE.norm>
0.127259

>  <RMSD>
9.715

$$$$

 OpenBabel11021811393D
libRbt.so/2013.1/901 2013/11/27
 42 45  0  0  0  0  0  0  0  0999 V2000
   -2.6140   -2.8609   -6.1983 C   0  0  2  0  0  0  0  0  0  0  0  0
   -2.1676   -1.4918   -5.9531 O   0  0  0  0  0  0  0  0  0  0  0  0
   -3.3968   -3.4390   -4.9748 C   0  0  2  0  0  0  0  0  0  0  0  0
   -3.7996   -2.3724   -4.0297 N   0  3  0  0  0  0  0  0  0  0  0  0
   -2.5516   -4.5260   -4.2446 C   0  0  1  0  0  0  0  0  0  0  0  0
   -3.2796   -5.0528   -3.1374 O   0  0  0  0  0  0  0  0  0  0  0  0
   -2.1788   -5.6983   -5.1911 C   0  0  2  0  0  0  0  0  0  0  0  0
   -1.1824   -6.4955   -4.5607 O   0  0  0  0  0  0  0  0  0  0  0  0
   -1.6531   -5.1722   -6.5660 C   0  0  2  0  0  0  0  0  0  0  0  0
   -1.4651   -3.7207   -6.5114 O   0  0  0  0  0  0  0  0  0  0  0  0
   -2.5951   -5.4473   -7.7607 C   0  0  0  0  0  0  0  0  0  0  0  0
   -3.4250    2.4998   -7.0045 C   0  0  1  0  0  0  0  0  0  0  0  0
   -4.2493    3.6932   -7.2993 N   0  3  0  0  0  0  0  0  0  0  0  0
   -3.4785    2.1288   -5.4993 C   0  0  1  0  0  0  0  0  0  0  0  0
   -2.7460    0.7860   -5.1527 C   0  0  1  0  0  0  0  0  0  0  0  0
   -3.1378    0.3885   -3.8112 O   0  0  0  0  0  0  0  0  0  0  0  0
   -3.1159   -0.3943   -6.1244 C   0  0  1  0  0  0  0  0  0  0  0  0
   -3.0732    0.0459   -7.6236 C   0  0  1  0  0  0  0  0  0  0  0  0
   -3.5630   -1.0150   -8.5271 N   0  3  0  0  0  0  0  0  0  0  0  0
   -3.9109    1.3203   -7.8723 C   0  0  0  0  0  0  0  0  0  0  0  0
   -3.9307    1.2984   -2.9950 C   0  0  1  0  0  0  0  0  0  0  0  0
   -5.3264    0.7094   -2.8280 C   0  0  1  0  0  0  0  0  0  0  0  0
   -5.0588   -0.2990   -1.7189 C   0  0  1  0  0  0  0  0  0  0  0  0
   -4.1198    0.4940   -0.7986 C   0  0  2  0  0  0  0  0  0  0  0  0
   -3.3778    1.3794   -1.6711 O   0  0  0  0  0  0  0  0  0  0  0  0
   -3.1519   -0.4043   -0.0077 C   0  0  0  0  0  0  0  0  0  0  0  0
   -9.7935   -2.1142   -0.4052 C   0  0  1  0  0  0  0  0  0  0  0  0
   -9.4590   -0.9663   -1.3981 C   0  0  1  0  0  0  0  0  0  0  0  0
   -8.2966   -1.2938   -2.3794 C   0  0  2  0  0  0  0  0  0  0  0  0
   -7.0327   -1.7958   -1.6098 C   0  0  1  0  0  0  0  0  0  0  0  0
   -6.2873   -0.6839   -1.0375 O   0  0  0  0  0  0  0  0  0  0  0  0
   -8.7680   -3.2805   -0.5401 C   0  0  1  0  0  0  0  0  0  0  0  0
   -7.4062   -2.7398   -0.5315 O   0  0  0  0  0  0  0  0  0  0  0  0
   -8.9090   -4.3277    0.5946 C   0  0  0  0  0  0  0  0  0  0  0  0
   -3.2523   -6.7657   -7.7276 N   0  3  0  0  0  0  0  0  0  0  0  0
   -6.2325    1.7274   -2.4022 O   0  0  0  0  0  0  0  0  0  0  0  0
  -10.6298   -0.6760   -2.1607 O   0  0  0  0  0  0  0  0  0  0  0  0
   -9.7662   -1.5854    0.9224 O   0  0  0  0  0  0  0  0  0  0  0  0
   -2.1617    0.3716    0.6452 O   0  0  0  0  0  0  0  0  0  0  0  0
   -2.8786    3.1821   -4.7456 O   0  0  0  0  0  0  0  0  0  0  0  0
   -8.0604   -5.5155    0.3875 N   0  3  0  0  0  0  0  0  0  0  0  0
   -8.0027   -0.1464   -3.2734 N   0  3  0  0  0  0  0  0  0  0  0  0
  1  2  1  1  0  0  0
  1  3  1  0  0  0  0
  1 10  1  0  0  0  0
  3  4  1  1  0  0  0
  3  5  1  0  0  0  0
  5  6  1  1  0  0  0
  5  7  1  0  0  0  0
  7  8  1  1  0  0  0
  7  9  1  0  0  0  0
  9 10  1  0  0  0  0
  9 11  1  6  0  0  0
 11 35  1  0  0  0  0
 12 13  1  1  0  0  0
 12 14  1  0  0  0  0
 12 20  1  0  0  0  0
 14 15  1  0  0  0  0
 14 40  1  1  0  0  0
 15 16  1  1  0  0  0
 15 17  1  0  0  0  0
 17  2  1  6  0  0  0
 17 18  1  0  0  0  0
 18 19  1  6  0  0  0
 18 20  1  0  0  0  0
 21 16  1  6  0  0  0
 21 22  1  0  0  0  0
 21 25  1  0  0  0  0
 22 23  1  0  0  0  0
 22 36  1  1  0  0  0
 23 24  1  0  0  0  0
 23 31  1  1  0  0  0
 24 25  1  0  0  0  0
 24 26  1  6  0  0  0
 26 39  1  0  0  0  0
 27 28  1  0  0  0  0
 27 32  1  0  0  0  0
 27 38  1  1  0  0  0
 28 29  1  0  0  0  0
 28 37  1  6  0  0  0
 29 30  1  0  0  0  0
 29 42  1  1  0  0  0
 30 31  1  1  0  0  0
 30 33  1  0  0  0  0
 32 33  1  0  0  0  0
 32 34  1  1  0  0  0
 34 41  1  0  0  0  0
M  CHG  6   4   1  13   1  19   1  35   1  41   1  42   1
M  END
>  <CHROM.1>
-80.47518408,150.29590456,-155.42119479,-154.25109288,-176.71845539,-39.14435774
60.13276822,161.18167211,79.63743076,-7.66046628,111.09944056,53.24883960
-38.86599329,87.52673938,169.94821992,93.27093348,48.19649460,-33.17618298
46.81239054,-104.18394469,172.93223508,92.07896413,-4.76317659,-1.44404927
-3.63800411,-0.00143981,-0.82013997,3.06504785

>  <Name>


>  <RI>
0

>  <Rbt.Current_Directory>
/home/itssahil/PROJECTS/Mol_Feturizer/New_Systems/rnas/1ei2

>  <Rbt.Executable>
rbdock ($Id: //depot/dev/client3/rdock/2013.1/src/exe/rbdock.cxx#4 $)

>  <Rbt.Library>
libRbt.so (2013.1, Build901 2013/11/27)

>  <Rbt.Parameter_File>
/export/apps/rDock/src/rDock_2013.1_src/data/scripts/dock_solv.prm

>  <Rbt.Receptor>
prm/blind_docking_80.prm

>  <SCORE>
-8.40584

>  <SCORE.INTER>
-16.0822

>  <SCORE.INTER.CONST>
1

>  <SCORE.INTER.POLAR>
-7.49175

>  <SCORE.INTER.ROT>
9

>  <SCORE.INTER.SOLV>
46.2401

>  <SCORE.INTER.VDW>
-10.7624

>  <SCORE.INTER.norm>
-0.38291

>  <SCORE.INTRA>
-1.407

>  <SCORE.INTRA.DIHEDRAL>
8.8148

>  <SCORE.INTRA.DIHEDRAL.0>
40.8761

>  <SCORE.INTRA.POLAR>
-1.40816

>  <SCORE.INTRA.POLAR.0>
-0.0268208

>  <SCORE.INTRA.REPUL>
-0.641615

>  <SCORE.INTRA.REPUL.0>
0.641615

>  <SCORE.INTRA.SOLV>
-1.99362

>  <SCORE.INTRA.SOLV.lig_0>
-162.567

>  <SCORE.INTRA.VDW>
3.17824

>  <SCORE.INTRA.VDW.0>
-4.80338

>  <SCORE.INTRA.norm>
-0.0334999

>  <SCORE.RESTR>
9.08338

>  <SCORE.RESTR.CAVITY>
9.08338

>  <SCORE.RESTR.norm>
0.216271

>  <SCORE.SYSTEM>
0

>  <SCORE.SYSTEM.CONST>
0

>  <SCORE.SYSTEM.DIHEDRAL>
0

>  <SCORE.SYSTEM.SOLV>
0

>  <SCORE.SYSTEM.norm>
0

>  <SCORE.heavy>
42

>  <SCORE.norm>
-0.200139

>  <RMSD>
9.718

$$$$

 OpenBabel11021811393D
libRbt.so/2013.1/901 2013/11/27
 42 45  0  0  0  0  0  0  0  0999 V2000
   -3.2742   -1.6214   -6.6010 C   0  0  2  0  0  0  0  0  0  0  0  0
   -4.1328   -0.5560   -7.1123 O   0  0  0  0  0  0  0  0  0  0  0  0
   -2.4415   -2.2882   -7.7437 C   0  0  2  0  0  0  0  0  0  0  0  0
   -2.4511   -1.4685   -8.9771 N   0  3  0  0  0  0  0  0  0  0  0  0
   -2.9649   -3.7262   -8.0388 C   0  0  1  0  0  0  0  0  0  0  0  0
   -2.1916   -4.3276   -9.0751 O   0  0  0  0  0  0  0  0  0  0  0  0
   -2.8946   -4.6344   -6.7820 C   0  0  2  0  0  0  0  0  0  0  0  0
   -3.6429   -5.8190   -7.0318 O   0  0  0  0  0  0  0  0  0  0  0  0
   -3.4564   -3.9018   -5.5206 C   0  0  2  0  0  0  0  0  0  0  0  0
   -4.0812   -2.6356   -5.9100 O   0  0  0  0  0  0  0  0  0  0  0  0
   -2.3931   -3.5556   -4.4531 C   0  0  0  0  0  0  0  0  0  0  0  0
   -2.9499    3.2279   -5.4088 C   0  0  1  0  0  0  0  0  0  0  0  0
   -2.9650    4.5342   -4.7132 N   0  3  0  0  0  0  0  0  0  0  0  0
   -3.1514    2.0525   -4.4168 C   0  0  1  0  0  0  0  0  0  0  0  0
   -3.2945    0.6546   -5.1136 C   0  0  1  0  0  0  0  0  0  0  0  0
   -3.7955   -0.2924   -4.1322 O   0  0  0  0  0  0  0  0  0  0  0  0
   -4.3002    0.6615   -6.3230 C   0  0  1  0  0  0  0  0  0  0  0  0
   -4.0682    1.8824   -7.2709 C   0  0  1  0  0  0  0  0  0  0  0  0
   -5.1029    1.9734   -8.3212 N   0  3  0  0  0  0  0  0  0  0  0  0
   -4.0471    3.2176   -6.4934 C   0  0  0  0  0  0  0  0  0  0  0  0
   -4.9451    0.0643   -3.3113 C   0  0  1  0  0  0  0  0  0  0  0  0
   -5.8527   -1.1542   -3.1915 C   0  0  1  0  0  0  0  0  0  0  0  0
   -5.1195   -1.9262   -2.1029 C   0  0  1  0  0  0  0  0  0  0  0  0
   -4.7166   -0.7992   -1.1413 C   0  0  2  0  0  0  0  0  0  0  0  0
   -4.5181    0.3686   -1.9734 O   0  0  0  0  0  0  0  0  0  0  0  0
   -3.4327   -1.1118   -0.3517 C   0  0  0  0  0  0  0  0  0  0  0  0
   -9.6378   -1.7656   -1.0886 C   0  0  1  0  0  0  0  0  0  0  0  0
   -9.1397   -3.2333   -0.9746 C   0  0  1  0  0  0  0  0  0  0  0  0
   -7.9411   -3.4235   -0.0008 C   0  0  2  0  0  0  0  0  0  0  0  0
   -6.7810   -2.4306   -0.3327 C   0  0  1  0  0  0  0  0  0  0  0  0
   -5.9896   -2.9017   -1.4600 O   0  0  0  0  0  0  0  0  0  0  0  0
   -8.7048   -0.8003   -0.2963 C   0  0  1  0  0  0  0  0  0  0  0  0
   -7.3073   -1.0798   -0.6362 O   0  0  0  0  0  0  0  0  0  0  0  0
   -9.0124    0.6916   -0.5857 C   0  0  0  0  0  0  0  0  0  0  0  0
   -1.6139   -4.7102   -3.9722 N   0  3  0  0  0  0  0  0  0  0  0  0
   -7.1520   -0.7483   -2.7606 O   0  0  0  0  0  0  0  0  0  0  0  0
  -10.2251   -4.0426   -0.5234 O   0  0  0  0  0  0  0  0  0  0  0  0
   -9.6622   -1.4028   -2.4709 O   0  0  0  0  0  0  0  0  0  0  0  0
   -2.6171    0.0415   -0.2361 O   0  0  0  0  0  0  0  0  0  0  0  0
   -2.0354    2.0058   -3.5281 O   0  0  0  0  0  0  0  0  0  0  0  0
   -9.1052    0.9888   -2.0269 N   0  3  0  0  0  0  0  0  0  0  0  0
   -7.4904   -4.8370    0.0342 N   0  3  0  0  0  0  0  0  0  0  0  0
  1  2  1  6  0  0  0
  1  3  1  0  0  0  0
  1 10  1  0  0  0  0
  3  4  1  6  0  0  0
  3  5  1  0  0  0  0
  5  6  1  6  0  0  0
  5  7  1  0  0  0  0
  7  8  1  6  0  0  0
  7  9  1  0  0  0  0
  9 10  1  0  0  0  0
  9 11  1  1  0  0  0
 11 35  1  0  0  0  0
 12 13  1  1  0  0  0
 12 14  1  0  0  0  0
 12 20  1  0  0  0  0
 14 15  1  0  0  0  0
 14 40  1  1  0  0  0
 15 16  1  1  0  0  0
 15 17  1  0  0  0  0
 17  2  1  6  0  0  0
 17 18  1  0  0  0  0
 18 19  1  6  0  0  0
 18 20  1  0  0  0  0
 21 16  1  6  0  0  0
 21 22  1  0  0  0  0
 21 25  1  0  0  0  0
 22 23  1  0  0  0  0
 22 36  1  1  0  0  0
 23 24  1  0  0  0  0
 23 31  1  1  0  0  0
 24 25  1  0  0  0  0
 24 26  1  6  0  0  0
 26 39  1  0  0  0  0
 27 28  1  0  0  0  0
 27 32  1  0  0  0  0
 27 38  1  6  0  0  0
 28 29  1  0  0  0  0
 28 37  1  1  0  0  0
 29 30  1  0  0  0  0
 29 42  1  6  0  0  0
 30 31  1  6  0  0  0
 30 33  1  0  0  0  0
 32 33  1  0  0  0  0
 32 34  1  6  0  0  0
 34 41  1  0  0  0  0
M  CHG  6   4   1  13   1  19   1  35   1  41   1  42   1
M  END
>  <CHROM.1>
-141.12804586,8.71109059,-133.52520458,-138.54299293,-173.12562170,-55.81194643
-38.09924511,-57.70805405,-46.94275189,48.23230029,139.01504394,-42.04457414
174.25661619,-87.41275381,140.13332912,-131.40809209,77.36694452,-103.72201623
-157.06039285,163.87271751,-49.02365278,-54.68644968,-5.01787963,-1.17781747
-3.87532488,-0.05077798,-0.88721411,-3.05003837

>  <Name>


>  <RI>
0

>  <Rbt.Current_Directory>
/home/itssahil/PROJECTS/Mol_Feturizer/New_Systems/rnas/1ei2

>  <Rbt.Executable>
rbdock ($Id: //depot/dev/client3/rdock/2013.1/src/exe/rbdock.cxx#4 $)

>  <Rbt.Library>
libRbt.so (2013.1, Build901 2013/11/27)

>  <Rbt.Parameter_File>
/export/apps/rDock/src/rDock_2013.1_src/data/scripts/dock_solv.prm

>  <Rbt.Receptor>
prm/blind_docking_20.prm

>  <SCORE>
155.083

>  <SCORE.INTER>
143.16

>  <SCORE.INTER.CONST>
1

>  <SCORE.INTER.POLAR>
-5.87496

>  <SCORE.INTER.ROT>
9

>  <SCORE.INTER.SOLV>
52.3593

>  <SCORE.INTER.VDW>
87.97

>  <SCORE.INTER.norm>
3.40857

>  <SCORE.INTRA>
3.87485

>  <SCORE.INTRA.DIHEDRAL>
13.9357

>  <SCORE.INTRA.DIHEDRAL.0>
40.8761

>  <SCORE.INTRA.POLAR>
-2.01908

>  <SCORE.INTRA.POLAR.0>
-0.0268208

>  <SCORE.INTRA.REPUL>
-0.641615

>  <SCORE.INTRA.REPUL.0>
0.641615

>  <SCORE.INTRA.SOLV>
-4.49102

>  <SCORE.INTRA.SOLV.lig_0>
-162.567

>  <SCORE.INTRA.VDW>
9.22544

>  <SCORE.INTRA.VDW.0>
-4.80338

>  <SCORE.INTRA.norm>
0.0922584

>  <SCORE.RESTR>
8.04858

>  <SCORE.RESTR.CAVITY>
8.04858

>  <SCORE.RESTR.norm>
0.191633

>  <SCORE.SYSTEM>
0

>  <SCORE.SYSTEM.CONST>
0

>  <SCORE.SYSTEM.DIHEDRAL>
0

>  <SCORE.SYSTEM.SOLV>
0

>  <SCORE.SYSTEM.norm>
0

>  <SCORE.heavy>
42

>  <SCORE.norm>
3.69246

>  <RMSD>
9.731

$$$$

 OpenBabel11021811393D
libRbt.so/2013.1/901 2013/11/27
 42 45  0  0  0  0  0  0  0  0999 V2000
   -3.3678   -2.0971   -6.4273 C   0  0  2  0  0  0  0  0  0  0  0  0
   -4.4091   -1.1577   -6.8358 O   0  0  0  0  0  0  0  0  0  0  0  0
   -2.4082   -2.4438   -7.6116 C   0  0  2  0  0  0  0  0  0  0  0  0
   -2.5601   -1.4912   -8.7353 N   0  3  0  0  0  0  0  0  0  0  0  0
   -2.6412   -3.9057   -8.0988 C   0  0  1  0  0  0  0  0  0  0  0  0
   -1.7538   -4.2135   -9.1718 O   0  0  0  0  0  0  0  0  0  0  0  0
   -2.4130   -4.9359   -6.9604 C   0  0  2  0  0  0  0  0  0  0  0  0
   -2.9160   -6.1995   -7.3800 O   0  0  0  0  0  0  0  0  0  0  0  0
   -3.1210   -4.4890   -5.6404 C   0  0  2  0  0  0  0  0  0  0  0  0
   -3.9729   -3.3251   -5.8950 O   0  0  0  0  0  0  0  0  0  0  0  0
   -2.1575   -4.0856   -4.5006 C   0  0  0  0  0  0  0  0  0  0  0  0
   -2.5569    2.6820   -6.1678 C   0  0  1  0  0  0  0  0  0  0  0  0
   -2.3282    4.1029   -5.8227 N   0  3  0  0  0  0  0  0  0  0  0  0
   -2.8699    1.8334   -4.9076 C   0  0  1  0  0  0  0  0  0  0  0  0
   -3.2686    0.3505   -5.2270 C   0  0  1  0  0  0  0  0  0  0  0  0
   -3.8431   -0.2334   -4.0270 O   0  0  0  0  0  0  0  0  0  0  0  0
   -4.3379    0.2262   -6.3739 C   0  0  1  0  0  0  0  0  0  0  0  0
   -3.9851    1.1240   -7.6037 C   0  0  1  0  0  0  0  0  0  0  0  0
   -5.0598    1.1237   -8.6170 N   0  3  0  0  0  0  0  0  0  0  0  0
   -3.7109    2.5866   -7.1874 C   0  0  0  0  0  0  0  0  0  0  0  0
   -5.0104    0.3867   -3.4141 C   0  0  1  0  0  0  0  0  0  0  0  0
   -6.1420   -0.6338   -3.3831 C   0  0  1  0  0  0  0  0  0  0  0  0
   -5.7369   -1.4432   -2.1587 C   0  0  1  0  0  0  0  0  0  0  0  0
   -5.2703   -0.3402   -1.1980 C   0  0  2  0  0  0  0  0  0  0  0  0
   -4.7328    0.7068   -2.0410 O   0  0  0  0  0  0  0  0  0  0  0  0
   -4.1991   -0.8218   -0.2031 C   0  0  0  0  0  0  0  0  0  0  0  0
  -10.1599   -0.2391   -1.8205 C   0  0  1  0  0  0  0  0  0  0  0  0
  -10.0391   -1.7771   -1.6323 C   0  0  1  0  0  0  0  0  0  0  0  0
   -9.0808   -2.2031   -0.4828 C   0  0  2  0  0  0  0  0  0  0  0  0
   -7.6854   -1.5146   -0.6268 C   0  0  1  0  0  0  0  0  0  0  0  0
   -6.8618   -2.1935   -1.6168 O   0  0  0  0  0  0  0  0  0  0  0  0
   -9.1611    0.5135   -0.8899 C   0  0  1  0  0  0  0  0  0  0  0  0
   -7.8313   -0.0905   -1.0067 O   0  0  0  0  0  0  0  0  0  0  0  0
   -9.0665    2.0252   -1.2215 C   0  0  0  0  0  0  0  0  0  0  0  0
   -2.6739   -4.3462   -3.1454 N   0  3  0  0  0  0  0  0  0  0  0  0
   -7.3882    0.0329   -3.1808 O   0  0  0  0  0  0  0  0  0  0  0  0
  -11.3384   -2.2999   -1.3584 O   0  0  0  0  0  0  0  0  0  0  0  0
   -9.8876    0.0713   -3.1889 O   0  0  0  0  0  0  0  0  0  0  0  0
   -4.0848    0.0740    0.8893 O   0  0  0  0  0  0  0  0  0  0  0  0
   -1.7187    1.8234   -4.0638 O   0  0  0  0  0  0  0  0  0  0  0  0
   -9.0153    2.8744   -0.0172 N   0  3  0  0  0  0  0  0  0  0  0  0
   -8.9809   -3.6801   -0.3799 N   0  3  0  0  0  0  0  0  0  0  0  0
  1  2  1  6  0  0  0
  1  3  1  0  0  0  0
  1 10  1  0  0  0  0
  3  4  1  6  0  0  0
  3  5  1  0  0  0  0
  5  6  1  6  0  0  0
  5  7  1  0  0  0  0
  7  8  1  6  0  0  0
  7  9  1  0  0  0  0
  9 10  1  0  0  0  0
  9 11  1  1  0  0  0
 11 35  1  0  0  0  0
 12 13  1  1  0  0  0
 12 14  1  0  0  0  0
 12 20  1  0  0  0  0
 14 15  1  0  0  0  0
 14 40  1  1  0  0  0
 15 16  1  1  0  0  0
 15 17  1  0  0  0  0
 17  2  1  6  0  0  0
 17 18  1  0  0  0  0
 18 19  1  6  0  0  0
 18 20  1  0  0  0  0
 21 16  1  1  0  0  0
 21 22  1  0  0  0  0
 21 25  1  0  0  0  0
 22 23  1  0  0  0  0
 22 36  1  1  0  0  0
 23 24  1  0  0  0  0
 23 31  1  1  0  0  0
 24 25  1  0  0  0  0
 24 26  1  1  0  0  0
 26 39  1  0  0  0  0
 27 28  1  0  0  0  0
 27 32  1  0  0  0  0
 27 38  1  6  0  0  0
 28 29  1  0  0  0  0
 28 37  1  1  0  0  0
 29 30  1  0  0  0  0
 29 42  1  6  0  0  0
 30 31  1  6  0  0  0
 30 33  1  0  0  0  0
 32 33  1  0  0  0  0
 32 34  1  6  0  0  0
 34 41  1  0  0  0  0
M  CHG  6   4   1  13   1  19   1  35   1  41   1  42   1
M  END
>  <CHROM.1>
-107.23674123,-12.65376903,176.15783263,-163.58491944,151.99122872,-149.42351130
-96.16597121,-48.84862392,60.54711244,57.96377094,120.81437277,-63.03405166
-52.98376295,-88.83500699,-162.79746193,43.81798155,-51.88363243,64.73916011
12.76899433,161.14793408,138.66314659,150.82151538,-5.24288649,-0.89613243
-4.02322385,0.23870873,-0.79943419,-3.05890798

>  <Name>


>  <RI>
0

>  <Rbt.Current_Directory>
/home/itssahil/PROJECTS/Mol_Feturizer/New_Systems/rnas/1ei2

>  <Rbt.Executable>
rbdock ($Id: //depot/dev/client3/rdock/2013.1/src/exe/rbdock.cxx#4 $)

>  <Rbt.Library>
libRbt.so (2013.1, Build901 2013/11/27)

>  <Rbt.Parameter_File>
/export/apps/rDock/src/rDock_2013.1_src/data/scripts/dock_solv.prm

>  <Rbt.Receptor>
prm/blind_docking_80.prm

>  <SCORE>
25.0691

>  <SCORE.INTER>
12.0856

>  <SCORE.INTER.CONST>
1

>  <SCORE.INTER.POLAR>
-5.00336

>  <SCORE.INTER.ROT>
9

>  <SCORE.INTER.SOLV>
50.7515

>  <SCORE.INTER.VDW>
-1.78222

>  <SCORE.INTER.norm>
0.287753

>  <SCORE.INTRA>
0.330967

>  <SCORE.INTRA.DIHEDRAL>
6.23187

>  <SCORE.INTRA.DIHEDRAL.0>
40.8761

>  <SCORE.INTRA.POLAR>
-0.984064

>  <SCORE.INTRA.POLAR.0>
-0.0268208

>  <SCORE.INTRA.REPUL>
-0.60901

>  <SCORE.INTRA.REPUL.0>
0.641615

>  <SCORE.INTRA.SOLV>
-9.1876

>  <SCORE.INTRA.SOLV.lig_0>
-162.567

>  <SCORE.INTRA.VDW>
8.1997

>  <SCORE.INTRA.VDW.0>
-4.80338

>  <SCORE.INTRA.norm>
0.00788017

>  <SCORE.RESTR>
12.6525

>  <SCORE.RESTR.CAVITY>
12.6525

>  <SCORE.RESTR.norm>
0.30125

>  <SCORE.SYSTEM>
0

>  <SCORE.SYSTEM.CONST>
0

>  <SCORE.SYSTEM.DIHEDRAL>
0

>  <SCORE.SYSTEM.SOLV>
0

>  <SCORE.SYSTEM.norm>
0

>  <SCORE.heavy>
42

>  <SCORE.norm>
0.596883

>  <RMSD>
9.766

$$$$

 OpenBabel11021811393D
libRbt.so/2013.1/901 2013/11/27
 42 45  0  0  0  0  0  0  0  0999 V2000
   -2.4105   -2.6950   -6.0660 C   0  0  2  0  0  0  0  0  0  0  0  0
   -1.6949   -1.8164   -5.1442 O   0  0  0  0  0  0  0  0  0  0  0  0
   -2.6501   -4.1092   -5.4444 C   0  0  2  0  0  0  0  0  0  0  0  0
   -2.4217   -4.1092   -3.9812 N   0  3  0  0  0  0  0  0  0  0  0  0
   -1.7494   -5.1751   -6.1383 C   0  0  1  0  0  0  0  0  0  0  0  0
   -1.9841   -6.4618   -5.5702 O   0  0  0  0  0  0  0  0  0  0  0  0
   -2.0212   -5.2539   -7.6645 C   0  0  2  0  0  0  0  0  0  0  0  0
   -0.9861   -6.0171   -8.2742 O   0  0  0  0  0  0  0  0  0  0  0  0
   -2.0839   -3.8289   -8.3040 C   0  0  2  0  0  0  0  0  0  0  0  0
   -1.6681   -2.8198   -7.3272 O   0  0  0  0  0  0  0  0  0  0  0  0
   -3.4873   -3.4085   -8.7978 C   0  0  0  0  0  0  0  0  0  0  0  0
   -1.3231    2.4617   -4.7205 C   0  0  1  0  0  0  0  0  0  0  0  0
   -1.6296    3.9047   -4.6010 N   0  3  0  0  0  0  0  0  0  0  0  0
   -1.7810    1.6766   -3.4634 C   0  0  1  0  0  0  0  0  0  0  0  0
   -1.6190    0.1222   -3.5951 C   0  0  1  0  0  0  0  0  0  0  0  0
   -2.3671   -0.5048   -2.5189 O   0  0  0  0  0  0  0  0  0  0  0  0
   -2.1714   -0.4490   -4.9526 C   0  0  1  0  0  0  0  0  0  0  0  0
   -1.7014    0.3982   -6.1791 C   0  0  1  0  0  0  0  0  0  0  0  0
   -2.3376   -0.0458   -7.4361 N   0  3  0  0  0  0  0  0  0  0  0  0
   -2.0020    1.9018   -5.9878 C   0  0  0  0  0  0  0  0  0  0  0  0
   -3.3999   -1.4822   -2.8364 C   0  0  1  0  0  0  0  0  0  0  0  0
   -4.3800   -1.5486   -1.6711 C   0  0  1  0  0  0  0  0  0  0  0  0
   -5.2316   -0.3222   -1.9695 C   0  0  1  0  0  0  0  0  0  0  0  0
   -5.3822   -0.4126   -3.4947 C   0  0  2  0  0  0  0  0  0  0  0  0
   -4.1656   -1.0380   -3.9684 O   0  0  0  0  0  0  0  0  0  0  0  0
   -5.5671    0.9611   -4.1640 C   0  0  0  0  0  0  0  0  0  0  0  0
  -10.1019   -1.4369   -0.3941 C   0  0  1  0  0  0  0  0  0  0  0  0
   -9.6483    0.0124   -0.7244 C   0  0  1  0  0  0  0  0  0  0  0  0
   -8.8366    0.1383   -2.0460 C   0  0  2  0  0  0  0  0  0  0  0  0
   -7.6467   -0.8741   -2.0763 C   0  0  1  0  0  0  0  0  0  0  0  0
   -6.5201   -0.3877   -1.2931 O   0  0  0  0  0  0  0  0  0  0  0  0
   -9.4977   -2.4524   -1.4109 C   0  0  1  0  0  0  0  0  0  0  0  0
   -8.0625   -2.1996   -1.5626 O   0  0  0  0  0  0  0  0  0  0  0  0
   -9.7139   -3.9251   -0.9769 C   0  0  0  0  0  0  0  0  0  0  0  0
   -3.4934   -2.2359   -9.6901 N   0  3  0  0  0  0  0  0  0  0  0  0
   -5.1465   -2.7504   -1.7525 O   0  0  0  0  0  0  0  0  0  0  0  0
  -10.8099    0.8354   -0.8239 O   0  0  0  0  0  0  0  0  0  0  0  0
   -9.6729   -1.7534    0.9321 O   0  0  0  0  0  0  0  0  0  0  0  0
   -5.5169    0.8464   -5.5757 O   0  0  0  0  0  0  0  0  0  0  0  0
   -1.0174    2.1204   -2.3421 O   0  0  0  0  0  0  0  0  0  0  0  0
   -8.8866   -4.3090    0.1816 N   0  3  0  0  0  0  0  0  0  0  0  0
   -8.4024    1.5372   -2.2840 N   0  3  0  0  0  0  0  0  0  0  0  0
  1  2  1  1  0  0  0
  1  3  1  0  0  0  0
  1 10  1  0  0  0  0
  3  4  1  1  0  0  0
  3  5  1  0  0  0  0
  5  6  1  1  0  0  0
  5  7  1  0  0  0  0
  7  8  1  6  0  0  0
  7  9  1  0  0  0  0
  9 10  1  0  0  0  0
  9 11  1  1  0  0  0
 11 35  1  0  0  0  0
 12 13  1  1  0  0  0
 12 14  1  0  0  0  0
 12 20  1  0  0  0  0
 14 15  1  0  0  0  0
 14 40  1  1  0  0  0
 15 16  1  1  0  0  0
 15 17  1  0  0  0  0
 17  2  1  6  0  0  0
 17 18  1  0  0  0  0
 18 19  1  6  0  0  0
 18 20  1  0  0  0  0
 21 16  1  1  0  0  0
 21 22  1  0  0  0  0
 21 25  1  0  0  0  0
 22 23  1  0  0  0  0
 22 36  1  6  0  0  0
 23 24  1  0  0  0  0
 23 31  1  1  0  0  0
 24 25  1  0  0  0  0
 24 26  1  6  0  0  0
 26 39  1  0  0  0  0
 27 28  1  0  0  0  0
 27 32  1  0  0  0  0
 27 38  1  1  0  0  0
 28 29  1  0  0  0  0
 28 37  1  6  0  0  0
 29 30  1  0  0  0  0
 29 42  1  1  0  0  0
 30 31  1  1  0  0  0
 30 33  1  0  0  0  0
 32 33  1  0  0  0  0
 32 34  1  1  0  0  0
 34 41  1  0  0  0  0
M  CHG  6   4   1  13   1  19   1  35   1  41   1  42   1
M  END
>  <CHROM.1>
-134.12558877,159.55183634,104.72658078,-166.75384160,173.23888594,-165.42553756
-154.74788409,-86.69092895,-67.71178888,123.48277318,-157.01683630,41.00960870
-149.85261866,-97.18473516,171.95204030,70.87372573,158.10640872,174.91065072
50.35399981,-126.09522102,-71.22331432,167.69594162,-4.56270691,-1.35954208
-3.95288610,0.33353780,-0.63780146,-2.84340193

>  <Name>


>  <RI>
0

>  <Rbt.Current_Directory>
/home/itssahil/PROJECTS/Mol_Feturizer/New_Systems/rnas/1ei2

>  <Rbt.Executable>
rbdock ($Id: //depot/dev/client3/rdock/2013.1/src/exe/rbdock.cxx#4 $)

>  <Rbt.Library>
libRbt.so (2013.1, Build901 2013/11/27)

>  <Rbt.Parameter_File>
/export/apps/rDock/src/rDock_2013.1_src/data/scripts/dock_solv.prm

>  <Rbt.Receptor>
prm/blind_docking_20.prm

>  <SCORE>
-6.78498

>  <SCORE.INTER>
-19.1063

>  <SCORE.INTER.CONST>
1

>  <SCORE.INTER.POLAR>
-4.40485

>  <SCORE.INTER.ROT>
9

>  <SCORE.INTER.SOLV>
42.3953

>  <SCORE.INTER.VDW>
-21.7864

>  <SCORE.INTER.norm>
-0.454912

>  <SCORE.INTRA>
3.56864

>  <SCORE.INTRA.DIHEDRAL>
5.16944

>  <SCORE.INTRA.DIHEDRAL.0>
40.8761

>  <SCORE.INTRA.POLAR>
-2.45435

>  <SCORE.INTRA.POLAR.0>
-0.0268208

>  <SCORE.INTRA.REPUL>
-0.641615

>  <SCORE.INTRA.REPUL.0>
0.641615

>  <SCORE.INTRA.SOLV>
3.78713

>  <SCORE.INTRA.SOLV.lig_0>
-162.567

>  <SCORE.INTRA.VDW>
10.6432

>  <SCORE.INTRA.VDW.0>
-4.80338

>  <SCORE.INTRA.norm>
0.0849676

>  <SCORE.RESTR>
8.75268

>  <SCORE.RESTR.CAVITY>
8.75268

>  <SCORE.RESTR.norm>
0.208397

>  <SCORE.SYSTEM>
0

>  <SCORE.SYSTEM.CONST>
0

>  <SCORE.SYSTEM.DIHEDRAL>
0

>  <SCORE.SYSTEM.SOLV>
0

>  <SCORE.SYSTEM.norm>
0

>  <SCORE.heavy>
42

>  <SCORE.norm>
-0.161547

>  <RMSD>
9.769

$$$$

 OpenBabel11021811393D
libRbt.so/2013.1/901 2013/11/27
 42 45  0  0  0  0  0  0  0  0999 V2000
   -2.6401   -2.3176   -5.9104 C   0  0  2  0  0  0  0  0  0  0  0  0
   -2.0776   -1.3560   -4.9657 O   0  0  0  0  0  0  0  0  0  0  0  0
   -2.7890   -3.7354   -5.2688 C   0  0  2  0  0  0  0  0  0  0  0  0
   -2.6659   -3.6838   -3.7939 N   0  3  0  0  0  0  0  0  0  0  0  0
   -1.7451   -4.7240   -5.8704 C   0  0  1  0  0  0  0  0  0  0  0  0
   -1.8973   -6.0154   -5.2852 O   0  0  0  0  0  0  0  0  0  0  0  0
   -1.8995   -4.8594   -7.4090 C   0  0  2  0  0  0  0  0  0  0  0  0
   -0.7566   -5.5322   -7.9255 O   0  0  0  0  0  0  0  0  0  0  0  0
   -2.0505   -3.4602   -8.0893 C   0  0  2  0  0  0  0  0  0  0  0  0
   -1.8018   -2.3963   -7.1139 O   0  0  0  0  0  0  0  0  0  0  0  0
   -3.4488   -3.1863   -8.6894 C   0  0  0  0  0  0  0  0  0  0  0  0
   -1.5799    2.9293   -4.8736 C   0  0  1  0  0  0  0  0  0  0  0  0
   -1.8244    4.3856   -4.9727 N   0  3  0  0  0  0  0  0  0  0  0  0
   -2.3748    2.2972   -3.7011 C   0  0  1  0  0  0  0  0  0  0  0  0
   -2.2734    0.7333   -3.6390 C   0  0  1  0  0  0  0  0  0  0  0  0
   -3.2961    0.2481   -2.7282 O   0  0  0  0  0  0  0  0  0  0  0  0
   -2.5085    0.0381   -5.0303 C   0  0  1  0  0  0  0  0  0  0  0  0
   -1.7059    0.7348   -6.1764 C   0  0  1  0  0  0  0  0  0  0  0  0
   -2.0394    0.1793   -7.5038 N   0  3  0  0  0  0  0  0  0  0  0  0
   -1.9588    2.2589   -6.2106 C   0  0  0  0  0  0  0  0  0  0  0  0
   -4.5519    0.9764   -2.6042 C   0  0  1  0  0  0  0  0  0  0  0  0
   -5.6952   -0.0307   -2.5652 C   0  0  1  0  0  0  0  0  0  0  0  0
   -5.6216   -0.4605   -1.1063 C   0  0  1  0  0  0  0  0  0  0  0  0
   -5.3559    0.8775   -0.4017 C   0  0  2  0  0  0  0  0  0  0  0  0
   -4.5960    1.6691   -1.3460 O   0  0  0  0  0  0  0  0  0  0  0  0
   -4.5693    0.7203    0.9120 C   0  0  0  0  0  0  0  0  0  0  0  0
   -9.5894   -3.6995   -0.0200 C   0  0  1  0  0  0  0  0  0  0  0  0
   -9.8117   -2.3357   -0.7315 C   0  0  1  0  0  0  0  0  0  0  0  0
   -8.8071   -2.0496   -1.8847 C   0  0  2  0  0  0  0  0  0  0  0  0
   -7.3309   -2.2318   -1.4057 C   0  0  1  0  0  0  0  0  0  0  0  0
   -6.8696   -1.0675   -0.6635 O   0  0  0  0  0  0  0  0  0  0  0  0
   -8.2994   -4.3970   -0.5489 C   0  0  1  0  0  0  0  0  0  0  0  0
   -7.1916   -3.4381   -0.5576 O   0  0  0  0  0  0  0  0  0  0  0  0
   -7.9010   -5.6300    0.3024 C   0  0  0  0  0  0  0  0  0  0  0  0
   -3.8113   -4.0646   -9.8156 N   0  3  0  0  0  0  0  0  0  0  0  0
   -6.9286    0.6274   -2.8553 O   0  0  0  0  0  0  0  0  0  0  0  0
  -11.1348   -2.3179   -1.2660 O   0  0  0  0  0  0  0  0  0  0  0  0
   -9.4807   -3.4634    1.3855 O   0  0  0  0  0  0  0  0  0  0  0  0
   -3.3134    0.1063    0.6788 O   0  0  0  0  0  0  0  0  0  0  0  0
   -1.8848    2.8341   -2.4726 O   0  0  0  0  0  0  0  0  0  0  0  0
   -8.9644   -6.0528    1.2322 N   0  3  0  0  0  0  0  0  0  0  0  0
   -9.0489   -0.7194   -2.4965 N   0  3  0  0  0  0  0  0  0  0  0  0
  1  2  1  1  0  0  0
  1  3  1  0  0  0  0
  1 10  1  0  0  0  0
  3  4  1  1  0  0  0
  3  5  1  0  0  0  0
  5  6  1  1  0  0  0
  5  7  1  0  0  0  0
  7  8  1  6  0  0  0
  7  9  1  0  0  0  0
  9 10  1  0  0  0  0
  9 11  1  1  0  0  0
 11 35  1  0  0  0  0
 12 13  1  6  0  0  0
 12 14  1  0  0  0  0
 12 20  1  0  0  0  0
 14 15  1  0  0  0  0
 14 40  1  1  0  0  0
 15 16  1  1  0  0  0
 15 17  1  0  0  0  0
 17  2  1  1  0  0  0
 17 18  1  0  0  0  0
 18 19  1  6  0  0  0
 18 20  1  0  0  0  0
 21 16  1  1  0  0  0
 21 22  1  0  0  0  0
 21 25  1  0  0  0  0
 22 23  1  0  0  0  0
 22 36  1  1  0  0  0
 23 24  1  0  0  0  0
 23 31  1  1  0  0  0
 24 25  1  0  0  0  0
 24 26  1  1  0  0  0
 26 39  1  0  0  0  0
 27 28  1  0  0  0  0
 27 32  1  0  0  0  0
 27 38  1  1  0  0  0
 28 29  1  0  0  0  0
 28 37  1  6  0  0  0
 29 30  1  0  0  0  0
 29 42  1  1  0  0  0
 30 31  1  1  0  0  0
 30 33  1  0  0  0  0
 32 33  1  0  0  0  0
 32 34  1  1  0  0  0
 34 41  1  0  0  0  0
M  CHG  6   4   1  13   1  19   1  35   1  41   1  42   1
M  END
>  <CHROM.1>
-146.38831946,156.82897957,-14.45894633,64.51875669,81.99476575,-65.10528585
173.12491573,161.30906121,-47.10015764,31.48355692,137.47136549,162.00343408
-57.39880609,57.74667199,59.28372514,79.53019955,54.78022884,-171.07664614
-62.96296116,-127.31092723,12.52087357,65.80143181,-4.63779003,-1.48180609
-3.40479720,0.19011983,-0.76773233,-2.67831842

>  <Name>


>  <RI>
0

>  <Rbt.Current_Directory>
/home/itssahil/PROJECTS/Mol_Feturizer/New_Systems/rnas/1ei2

>  <Rbt.Executable>
rbdock ($Id: //depot/dev/client3/rdock/2013.1/src/exe/rbdock.cxx#4 $)

>  <Rbt.Library>
libRbt.so (2013.1, Build901 2013/11/27)

>  <Rbt.Parameter_File>
/export/apps/rDock/src/rDock_2013.1_src/data/scripts/dock_solv.prm

>  <Rbt.Receptor>
prm/blind_docking_40.prm

>  <SCORE>
46.8955

>  <SCORE.INTER>
45.172

>  <SCORE.INTER.CONST>
1

>  <SCORE.INTER.POLAR>
-4.04475

>  <SCORE.INTER.ROT>
9

>  <SCORE.INTER.SOLV>
50.2396

>  <SCORE.INTER.VDW>
17.2506

>  <SCORE.INTER.norm>
1.07552

>  <SCORE.INTRA>
-10.4677

>  <SCORE.INTRA.DIHEDRAL>
-2.6546

>  <SCORE.INTRA.DIHEDRAL.0>
40.8761

>  <SCORE.INTRA.POLAR>
-2.42437

>  <SCORE.INTRA.POLAR.0>
-0.0268208

>  <SCORE.INTRA.REPUL>
-0.641615

>  <SCORE.INTRA.REPUL.0>
0.641615

>  <SCORE.INTRA.SOLV>
-2.38585

>  <SCORE.INTRA.SOLV.lig_0>
-162.567

>  <SCORE.INTRA.VDW>
3.50343

>  <SCORE.INTRA.VDW.0>
-4.80338

>  <SCORE.INTRA.norm>
-0.249232

>  <SCORE.RESTR>
12.1913

>  <SCORE.RESTR.CAVITY>
12.1913

>  <SCORE.RESTR.norm>
0.290268

>  <SCORE.SYSTEM>
0

>  <SCORE.SYSTEM.CONST>
0

>  <SCORE.SYSTEM.DIHEDRAL>
0

>  <SCORE.SYSTEM.SOLV>
0

>  <SCORE.SYSTEM.norm>
0

>  <SCORE.heavy>
42

>  <SCORE.norm>
1.11656

>  <RMSD>
9.775

$$$$

 OpenBabel11021811393D
libRbt.so/2013.1/901 2013/11/27
 42 45  0  0  0  0  0  0  0  0999 V2000
   -2.8881   -1.2664   -7.4753 C   0  0  2  0  0  0  0  0  0  0  0  0
   -3.3849   -2.0369   -6.3381 O   0  0  0  0  0  0  0  0  0  0  0  0
   -2.6706    0.2360   -7.1019 C   0  0  2  0  0  0  0  0  0  0  0  0
   -2.6755    0.4412   -5.6352 N   0  3  0  0  0  0  0  0  0  0  0  0
   -3.7470    1.1337   -7.7832 C   0  0  1  0  0  0  0  0  0  0  0  0
   -3.5323    2.5020   -7.4436 O   0  0  0  0  0  0  0  0  0  0  0  0
   -3.7150    0.9995   -9.3293 C   0  0  2  0  0  0  0  0  0  0  0  0
   -4.8873    1.6033   -9.8648 O   0  0  0  0  0  0  0  0  0  0  0  0
   -3.6365   -0.4991   -9.7670 C   0  0  2  0  0  0  0  0  0  0  0  0
   -3.8193   -1.3732   -8.6061 O   0  0  0  0  0  0  0  0  0  0  0  0
   -2.2945   -0.9082  -10.4164 C   0  0  0  0  0  0  0  0  0  0  0  0
   -2.4992   -6.0799   -5.1178 C   0  0  1  0  0  0  0  0  0  0  0  0
   -1.7955   -7.2988   -4.6600 N   0  3  0  0  0  0  0  0  0  0  0  0
   -2.5916   -5.0187   -3.9902 C   0  0  1  0  0  0  0  0  0  0  0  0
   -3.1935   -3.6484   -4.4593 C   0  0  1  0  0  0  0  0  0  0  0  0
   -2.9289   -2.6598   -3.4280 O   0  0  0  0  0  0  0  0  0  0  0  0
   -2.5630   -3.1172   -5.7989 C   0  0  1  0  0  0  0  0  0  0  0  0
   -2.4691   -4.2360   -6.8863 C   0  0  1  0  0  0  0  0  0  0  0  0
   -1.7437   -3.7802   -8.0896 N   0  3  0  0  0  0  0  0  0  0  0  0
   -1.7678   -5.5032   -6.3478 C   0  0  0  0  0  0  0  0  0  0  0  0
   -3.3222   -1.2736   -3.6439 C   0  0  1  0  0  0  0  0  0  0  0  0
   -4.8412   -1.2110   -3.7506 C   0  0  1  0  0  0  0  0  0  0  0  0
   -5.2135   -1.2488   -2.2747 C   0  0  1  0  0  0  0  0  0  0  0  0
   -4.1496   -0.3264   -1.6627 C   0  0  2  0  0  0  0  0  0  0  0  0
   -2.9763   -0.4804   -2.4966 O   0  0  0  0  0  0  0  0  0  0  0  0
   -3.8127   -0.6812   -0.2032 C   0  0  0  0  0  0  0  0  0  0  0  0
   -9.7061   -1.7129   -0.0714 C   0  0  1  0  0  0  0  0  0  0  0  0
   -9.6049   -0.5262   -1.0698 C   0  0  1  0  0  0  0  0  0  0  0  0
   -9.0144   -0.9117   -2.4569 C   0  0  2  0  0  0  0  0  0  0  0  0
   -7.6569   -1.6700   -2.3016 C   0  0  1  0  0  0  0  0  0  0  0  0
   -6.5616   -0.7449   -2.0496 O   0  0  0  0  0  0  0  0  0  0  0  0
   -9.0443   -2.9940   -0.6638 C   0  0  1  0  0  0  0  0  0  0  0  0
   -7.7231   -2.6597   -1.2017 O   0  0  0  0  0  0  0  0  0  0  0  0
   -8.8970   -4.1248    0.3868 C   0  0  0  0  0  0  0  0  0  0  0  0
   -2.0622   -0.3298  -11.7516 N   0  3  0  0  0  0  0  0  0  0  0  0
   -5.2324    0.0207   -4.3577 O   0  0  0  0  0  0  0  0  0  0  0  0
  -10.9129    0.0096   -1.2654 O   0  0  0  0  0  0  0  0  0  0  0  0
   -9.0532   -1.3381    1.1436 O   0  0  0  0  0  0  0  0  0  0  0  0
   -2.7909    0.1629    0.2991 O   0  0  0  0  0  0  0  0  0  0  0  0
   -3.4056   -5.5369   -2.9383 O   0  0  0  0  0  0  0  0  0  0  0  0
   -9.1267   -5.4668   -0.1790 N   0  3  0  0  0  0  0  0  0  0  0  0
   -8.9097    0.2699   -3.3486 N   0  3  0  0  0  0  0  0  0  0  0  0
  1  2  1  1  0  0  0
  1  3  1  0  0  0  0
  1 10  1  0  0  0  0
  3  4  1  1  0  0  0
  3  5  1  0  0  0  0
  5  6  1  6  0  0  0
  5  7  1  0  0  0  0
  7  8  1  6  0  0  0
  7  9  1  0  0  0  0
  9 10  1  0  0  0  0
  9 11  1  1  0  0  0
 11 35  1  0  0  0  0
 12 13  1  1  0  0  0
 12 14  1  0  0  0  0
 12 20  1  0  0  0  0
 14 15  1  0  0  0  0
 14 40  1  1  0  0  0
 15 16  1  1  0  0  0
 15 17  1  0  0  0  0
 17  2  1  6  0  0  0
 17 18  1  0  0  0  0
 18 19  1  6  0  0  0
 18 20  1  0  0  0  0
 21 16  1  1  0  0  0
 21 22  1  0  0  0  0
 21 25  1  0  0  0  0
 22 23  1  0  0  0  0
 22 36  1  1  0  0  0
 23 24  1  0  0  0  0
 23 31  1  6  0  0  0
 24 25  1  0  0  0  0
 24 26  1  1  0  0  0
 26 39  1  0  0  0  0
 27 28  1  0  0  0  0
 27 32  1  0  0  0  0
 27 38  1  1  0  0  0
 28 29  1  0  0  0  0
 28 37  1  6  0  0  0
 29 30  1  0  0  0  0
 29 42  1  6  0  0  0
 30 31  1  1  0  0  0
 30 33  1  0  0  0  0
 32 33  1  0  0  0  0
 32 34  1  1  0  0  0
 34 41  1  0  0  0  0
M  CHG  6   4   1  13   1  19   1  35   1  41   1  42   1
M  END
>  <CHROM.1>
-116.71765602,171.33237980,48.83375840,67.92774210,-60.26597653,-69.78620383
-166.61683505,51.72442586,71.04128115,176.72186722,64.09666677,56.83264295
-158.94253827,80.76349970,177.71235115,64.91371199,44.54527940,-20.05676940
-72.18880608,-162.39697876,142.90054721,-166.34232137,-4.83959710,-1.72360568
-4.38574495,0.65471739,0.75560773,-0.74780315

>  <Name>


>  <RI>
0

>  <Rbt.Current_Directory>
/home/itssahil/PROJECTS/Mol_Feturizer/New_Systems/rnas/1ei2

>  <Rbt.Executable>
rbdock ($Id: //depot/dev/client3/rdock/2013.1/src/exe/rbdock.cxx#4 $)

>  <Rbt.Library>
libRbt.so (2013.1, Build901 2013/11/27)

>  <Rbt.Parameter_File>
/export/apps/rDock/src/rDock_2013.1_src/data/scripts/dock_solv.prm

>  <Rbt.Receptor>
prm/blind_docking_100.prm

>  <SCORE>
-8.69602

>  <SCORE.INTER>
-5.09463

>  <SCORE.INTER.CONST>
1

>  <SCORE.INTER.POLAR>
-7.17004

>  <SCORE.INTER.ROT>
9

>  <SCORE.INTER.SOLV>
50.1576

>  <SCORE.INTER.VDW>
-5.81549

>  <SCORE.INTER.norm>
-0.121301

>  <SCORE.INTRA>
-10.7369

>  <SCORE.INTRA.DIHEDRAL>
-14.2113

>  <SCORE.INTRA.DIHEDRAL.0>
40.8761

>  <SCORE.INTRA.POLAR>
-1.33284

>  <SCORE.INTRA.POLAR.0>
-0.0268208

>  <SCORE.INTRA.REPUL>
-0.612857

>  <SCORE.INTRA.REPUL.0>
0.641615

>  <SCORE.INTRA.SOLV>
-4.93121

>  <SCORE.INTRA.SOLV.lig_0>
-162.567

>  <SCORE.INTRA.VDW>
6.43028

>  <SCORE.INTRA.VDW.0>
-4.80338

>  <SCORE.INTRA.norm>
-0.255641

>  <SCORE.RESTR>
7.13552

>  <SCORE.RESTR.CAVITY>
7.13552

>  <SCORE.RESTR.norm>
0.169893

>  <SCORE.SYSTEM>
0

>  <SCORE.SYSTEM.CONST>
0

>  <SCORE.SYSTEM.DIHEDRAL>
0

>  <SCORE.SYSTEM.SOLV>
0

>  <SCORE.SYSTEM.norm>
0

>  <SCORE.heavy>
42

>  <SCORE.norm>
-0.207048

>  <RMSD>
9.783

$$$$

 OpenBabel11021811393D
libRbt.so/2013.1/901 2013/11/27
 42 45  0  0  0  0  0  0  0  0999 V2000
   -3.3852   -2.4591   -6.0692 C   0  0  2  0  0  0  0  0  0  0  0  0
   -4.5248   -1.6832   -6.5518 O   0  0  0  0  0  0  0  0  0  0  0  0
   -2.3867   -2.7949   -7.2243 C   0  0  2  0  0  0  0  0  0  0  0  0
   -2.6411   -1.9663   -8.4251 N   0  3  0  0  0  0  0  0  0  0  0  0
   -2.4493   -4.3104   -7.5825 C   0  0  1  0  0  0  0  0  0  0  0  0
   -1.5276   -4.6063   -8.6295 O   0  0  0  0  0  0  0  0  0  0  0  0
   -2.1104   -5.2059   -6.3607 C   0  0  2  0  0  0  0  0  0  0  0  0
   -2.4641   -6.5500   -6.6672 O   0  0  0  0  0  0  0  0  0  0  0  0
   -2.8708   -4.7304   -5.0805 C   0  0  2  0  0  0  0  0  0  0  0  0
   -3.8488   -3.6975   -5.4300 O   0  0  0  0  0  0  0  0  0  0  0  0
   -1.9649   -4.1231   -3.9847 C   0  0  0  0  0  0  0  0  0  0  0  0
   -3.4461    2.4715   -6.9925 C   0  0  1  0  0  0  0  0  0  0  0  0
   -3.4173    3.9468   -6.8777 N   0  3  0  0  0  0  0  0  0  0  0  0
   -3.0490    1.7889   -5.6574 C   0  0  1  0  0  0  0  0  0  0  0  0
   -3.2063    0.2285   -5.6739 C   0  0  1  0  0  0  0  0  0  0  0  0
   -3.1242   -0.2504   -4.3046 O   0  0  0  0  0  0  0  0  0  0  0  0
   -4.5831   -0.2526   -6.2631 C   0  0  1  0  0  0  0  0  0  0  0  0
   -4.9436    0.4895   -7.5907 C   0  0  1  0  0  0  0  0  0  0  0  0
   -6.3003    0.1490   -8.0654 N   0  3  0  0  0  0  0  0  0  0  0  0
   -4.8554    2.0242   -7.4332 C   0  0  0  0  0  0  0  0  0  0  0  0
   -3.4411    0.6539   -3.2070 C   0  0  1  0  0  0  0  0  0  0  0  0
   -4.9426    0.9157   -3.2119 C   0  0  1  0  0  0  0  0  0  0  0  0
   -5.4352   -0.3471   -2.5183 C   0  0  1  0  0  0  0  0  0  0  0  0
   -4.3876   -0.5207   -1.4094 C   0  0  2  0  0  0  0  0  0  0  0  0
   -3.1576    0.0188   -1.9496 O   0  0  0  0  0  0  0  0  0  0  0  0
   -4.1857   -1.9898   -0.9966 C   0  0  0  0  0  0  0  0  0  0  0  0
   -9.7337   -1.7338   -0.0923 C   0  0  1  0  0  0  0  0  0  0  0  0
   -9.7971   -0.4335   -0.9411 C   0  0  1  0  0  0  0  0  0  0  0  0
   -9.2015   -0.5788   -2.3712 C   0  0  2  0  0  0  0  0  0  0  0  0
   -7.7614   -1.1835   -2.3243 C   0  0  1  0  0  0  0  0  0  0  0  0
   -6.7752   -0.1713   -1.9749 O   0  0  0  0  0  0  0  0  0  0  0  0
   -8.9425   -2.8478   -0.8427 C   0  0  1  0  0  0  0  0  0  0  0  0
   -7.6835   -2.2975   -1.3513 O   0  0  0  0  0  0  0  0  0  0  0  0
   -8.6376   -4.0697    0.0618 C   0  0  0  0  0  0  0  0  0  0  0  0
   -2.5921   -4.0372   -2.6541 N   0  3  0  0  0  0  0  0  0  0  0  0
   -5.2319    2.0827   -2.4418 O   0  0  0  0  0  0  0  0  0  0  0  0
  -11.1633   -0.0374   -1.0555 O   0  0  0  0  0  0  0  0  0  0  0  0
   -9.0980   -1.4309    1.1515 O   0  0  0  0  0  0  0  0  0  0  0  0
   -2.9003   -2.1840   -0.4320 O   0  0  0  0  0  0  0  0  0  0  0  0
   -1.6878    2.1059   -5.3673 O   0  0  0  0  0  0  0  0  0  0  0  0
   -9.3270   -5.2961   -0.3793 N   0  3  0  0  0  0  0  0  0  0  0  0
   -9.2581    0.7042   -3.1148 N   0  3  0  0  0  0  0  0  0  0  0  0
  1  2  1  6  0  0  0
  1  3  1  0  0  0  0
  1 10  1  0  0  0  0
  3  4  1  6  0  0  0
  3  5  1  0  0  0  0
  5  6  1  6  0  0  0
  5  7  1  0  0  0  0
  7  8  1  6  0  0  0
  7  9  1  0  0  0  0
  9 10  1  0  0  0  0
  9 11  1  1  0  0  0
 11 35  1  0  0  0  0
 12 13  1  1  0  0  0
 12 14  1  0  0  0  0
 12 20  1  0  0  0  0
 14 15  1  0  0  0  0
 14 40  1  6  0  0  0
 15 16  1  1  0  0  0
 15 17  1  0  0  0  0
 17  2  1  6  0  0  0
 17 18  1  0  0  0  0
 18 19  1  1  0  0  0
 18 20  1  0  0  0  0
 21 16  1  6  0  0  0
 21 22  1  0  0  0  0
 21 25  1  0  0  0  0
 22 23  1  0  0  0  0
 22 36  1  1  0  0  0
 23 24  1  0  0  0  0
 23 31  1  1  0  0  0
 24 25  1  0  0  0  0
 24 26  1  6  0  0  0
 26 39  1  0  0  0  0
 27 28  1  0  0  0  0
 27 32  1  0  0  0  0
 27 38  1  1  0  0  0
 28 29  1  0  0  0  0
 28 37  1  6  0  0  0
 29 30  1  0  0  0  0
 29 42  1  1  0  0  0
 30 31  1  1  0  0  0
 30 33  1  0  0  0  0
 32 33  1  0  0  0  0
 32 34  1  1  0  0  0
 34 41  1  0  0  0  0
M  CHG  6   4   1  13   1  19   1  35   1  41   1  42   1
M  END
>  <CHROM.1>
-104.46068174,10.36729364,165.00315164,67.36142976,-75.06102408,-163.13861676
87.94593382,56.22949197,-177.41647945,23.55329047,70.71758883,74.78428356
-164.56195395,128.86526090,155.52221435,-23.12750308,54.42948911,126.66469189
-123.84112869,-149.91546562,114.45777526,-18.15595122,-5.06800104,-1.29375606
-3.99336564,-0.17778843,-0.77873710,2.85069031

>  <Name>


>  <RI>
0

>  <Rbt.Current_Directory>
/home/itssahil/PROJECTS/Mol_Feturizer/New_Systems/rnas/1ei2

>  <Rbt.Executable>
rbdock ($Id: //depot/dev/client3/rdock/2013.1/src/exe/rbdock.cxx#4 $)

>  <Rbt.Library>
libRbt.so (2013.1, Build901 2013/11/27)

>  <Rbt.Parameter_File>
/export/apps/rDock/src/rDock_2013.1_src/data/scripts/dock_solv.prm

>  <Rbt.Receptor>
prm/blind_docking_80.prm

>  <SCORE>
8.95751

>  <SCORE.INTER>
-2.32611

>  <SCORE.INTER.CONST>
1

>  <SCORE.INTER.POLAR>
-6.62053

>  <SCORE.INTER.ROT>
9

>  <SCORE.INTER.SOLV>
53.4252

>  <SCORE.INTER.VDW>
-6.89074

>  <SCORE.INTER.norm>
-0.0553837

>  <SCORE.INTRA>
3.8053

>  <SCORE.INTRA.DIHEDRAL>
19.6236

>  <SCORE.INTRA.DIHEDRAL.0>
40.8761

>  <SCORE.INTRA.POLAR>
-0.655297

>  <SCORE.INTRA.POLAR.0>
-0.0268208

>  <SCORE.INTRA.REPUL>
-0.567273

>  <SCORE.INTRA.REPUL.0>
0.641615

>  <SCORE.INTRA.SOLV>
-7.90924

>  <SCORE.INTRA.SOLV.lig_0>
-162.567

>  <SCORE.INTRA.VDW>
3.01248

>  <SCORE.INTRA.VDW.0>
-4.80338

>  <SCORE.INTRA.norm>
0.0906023

>  <SCORE.RESTR>
7.47833

>  <SCORE.RESTR.CAVITY>
7.47833

>  <SCORE.RESTR.norm>
0.178055

>  <SCORE.SYSTEM>
0

>  <SCORE.SYSTEM.CONST>
0

>  <SCORE.SYSTEM.DIHEDRAL>
0

>  <SCORE.SYSTEM.SOLV>
0

>  <SCORE.SYSTEM.norm>
0

>  <SCORE.heavy>
42

>  <SCORE.norm>
0.213274

>  <RMSD>
9.788

$$$$

 OpenBabel11021811393D
libRbt.so/2013.1/901 2013/11/27
 42 45  0  0  0  0  0  0  0  0999 V2000
   -2.9462   -2.3049   -7.4162 C   0  0  2  0  0  0  0  0  0  0  0  0
   -2.1627   -1.1741   -6.9253 O   0  0  0  0  0  0  0  0  0  0  0  0
   -3.0767   -3.4272   -6.3358 C   0  0  2  0  0  0  0  0  0  0  0  0
   -2.6939   -2.9389   -4.9911 N   0  3  0  0  0  0  0  0  0  0  0  0
   -2.2241   -4.6712   -6.7289 C   0  0  1  0  0  0  0  0  0  0  0  0
   -2.3591   -5.6913   -5.7417 O   0  0  0  0  0  0  0  0  0  0  0  0
   -2.6544   -5.2545   -8.1014 C   0  0  2  0  0  0  0  0  0  0  0  0
   -1.6681   -6.1861   -8.5315 O   0  0  0  0  0  0  0  0  0  0  0  0
   -2.8265   -4.1256   -9.1688 C   0  0  2  0  0  0  0  0  0  0  0  0
   -2.3389   -2.8510   -8.6370 O   0  0  0  0  0  0  0  0  0  0  0  0
   -4.2863   -3.8836   -9.6169 C   0  0  0  0  0  0  0  0  0  0  0  0
   -2.6761    2.9891   -5.9132 C   0  0  1  0  0  0  0  0  0  0  0  0
   -3.2551    4.2788   -5.4753 N   0  3  0  0  0  0  0  0  0  0  0  0
   -2.5296    1.9993   -4.7278 C   0  0  1  0  0  0  0  0  0  0  0  0
   -2.0620    0.5648   -5.1562 C   0  0  1  0  0  0  0  0  0  0  0  0
   -2.2757   -0.3355   -4.0360 O   0  0  0  0  0  0  0  0  0  0  0  0
   -2.8588   -0.0092   -6.3849 C   0  0  1  0  0  0  0  0  0  0  0  0
   -2.9990    1.0406   -7.5343 C   0  0  1  0  0  0  0  0  0  0  0  0
   -3.8714    0.5569   -8.6237 N   0  3  0  0  0  0  0  0  0  0  0  0
   -3.5644    2.3836   -7.0199 C   0  0  0  0  0  0  0  0  0  0  0  0
   -2.5096    0.2141   -2.7070 C   0  0  1  0  0  0  0  0  0  0  0  0
   -3.9065    0.8226   -2.6725 C   0  0  1  0  0  0  0  0  0  0  0  0
   -4.7398   -0.4353   -2.4679 C   0  0  1  0  0  0  0  0  0  0  0  0
   -3.8892   -1.2088   -1.4504 C   0  0  2  0  0  0  0  0  0  0  0  0
   -2.5175   -0.8422   -1.7328 O   0  0  0  0  0  0  0  0  0  0  0  0
   -4.0626   -2.7345   -1.5567 C   0  0  0  0  0  0  0  0  0  0  0  0
   -9.7861   -0.6050   -1.1458 C   0  0  1  0  0  0  0  0  0  0  0  0
   -9.1379    0.7208   -1.6332 C   0  0  1  0  0  0  0  0  0  0  0  0
   -8.2547    0.5662   -2.9049 C   0  0  2  0  0  0  0  0  0  0  0  0
   -7.2020   -0.5746   -2.7259 C   0  0  1  0  0  0  0  0  0  0  0  0
   -6.0617   -0.1221   -1.9422 O   0  0  0  0  0  0  0  0  0  0  0  0
   -9.2671   -1.8153   -1.9800 C   0  0  1  0  0  0  0  0  0  0  0  0
   -7.8059   -1.7579   -2.0709 O   0  0  0  0  0  0  0  0  0  0  0  0
   -9.6879   -3.1781   -1.3718 C   0  0  0  0  0  0  0  0  0  0  0  0
   -4.4247   -3.0159  -10.7998 N   0  3  0  0  0  0  0  0  0  0  0  0
   -4.0189    1.7114   -1.5607 O   0  0  0  0  0  0  0  0  0  0  0  0
  -10.1802    1.6542   -1.9141 O   0  0  0  0  0  0  0  0  0  0  0  0
   -9.4642   -0.7843    0.2352 O   0  0  0  0  0  0  0  0  0  0  0  0
   -2.9206   -3.3332   -2.1450 O   0  0  0  0  0  0  0  0  0  0  0  0
   -1.5814    2.5295   -3.8020 O   0  0  0  0  0  0  0  0  0  0  0  0
   -9.1601   -3.3862   -0.0109 N   0  3  0  0  0  0  0  0  0  0  0  0
   -7.6366    1.8575   -3.2956 N   0  3  0  0  0  0  0  0  0  0  0  0
  1  2  1  1  0  0  0
  1  3  1  0  0  0  0
  1 10  1  0  0  0  0
  3  4  1  1  0  0  0
  3  5  1  0  0  0  0
  5  6  1  1  0  0  0
  5  7  1  0  0  0  0
  7  8  1  6  0  0  0
  7  9  1  0  0  0  0
  9 10  1  0  0  0  0
  9 11  1  1  0  0  0
 11 35  1  0  0  0  0
 12 13  1  1  0  0  0
 12 14  1  0  0  0  0
 12 20  1  0  0  0  0
 14 15  1  0  0  0  0
 14 40  1  1  0  0  0
 15 16  1  1  0  0  0
 15 17  1  0  0  0  0
 17  2  1  6  0  0  0
 17 18  1  0  0  0  0
 18 19  1  6  0  0  0
 18 20  1  0  0  0  0
 21 16  1  6  0  0  0
 21 22  1  0  0  0  0
 21 25  1  0  0  0  0
 22 23  1  0  0  0  0
 22 36  1  1  0  0  0
 23 24  1  0  0  0  0
 23 31  1  1  0  0  0
 24 25  1  0  0  0  0
 24 26  1  6  0  0  0
 26 39  1  0  0  0  0
 27 28  1  0  0  0  0
 27 32  1  0  0  0  0
 27 38  1  1  0  0  0
 28 29  1  0  0  0  0
 28 37  1  6  0  0  0
 29 30  1  0  0  0  0
 29 42  1  1  0  0  0
 30 31  1  1  0  0  0
 30 33  1  0  0  0  0
 32 33  1  0  0  0  0
 32 34  1  1  0  0  0
 34 41  1  0  0  0  0
M  CHG  6   4   1  13   1  19   1  35   1  41   1  42   1
M  END
>  <CHROM.1>
-96.93004257,142.47474061,39.57408617,69.32721236,-179.55238417,-168.64409731
85.27261793,125.89238444,62.57497907,-15.60918823,72.19740009,-63.35303099
61.52784547,122.62832986,106.53196764,91.86425883,-33.93855559,55.01055318
67.43701242,-132.64937903,-60.92291844,169.60071281,-4.61340573,-1.01925718
-4.47504595,0.52658574,-0.77201289,-2.80791470

>  <Name>


>  <RI>
0

>  <Rbt.Current_Directory>
/home/itssahil/PROJECTS/Mol_Feturizer/New_Systems/rnas/1ei2

>  <Rbt.Executable>
rbdock ($Id: //depot/dev/client3/rdock/2013.1/src/exe/rbdock.cxx#4 $)

>  <Rbt.Library>
libRbt.so (2013.1, Build901 2013/11/27)

>  <Rbt.Parameter_File>
/export/apps/rDock/src/rDock_2013.1_src/data/scripts/dock_solv.prm

>  <Rbt.Receptor>
prm/blind_docking_100.prm

>  <SCORE>
-8.1423

>  <SCORE.INTER>
-17.0606

>  <SCORE.INTER.CONST>
1

>  <SCORE.INTER.POLAR>
-2.82727

>  <SCORE.INTER.ROT>
9

>  <SCORE.INTER.SOLV>
30.7431

>  <SCORE.INTER.VDW>
-21.7972

>  <SCORE.INTER.norm>
-0.406204

>  <SCORE.INTRA>
-2.81643

>  <SCORE.INTRA.DIHEDRAL>
8.47609

>  <SCORE.INTRA.DIHEDRAL.0>
40.8761

>  <SCORE.INTRA.POLAR>
-2.17458

>  <SCORE.INTRA.POLAR.0>
-0.0268208

>  <SCORE.INTRA.REPUL>
-0.638122

>  <SCORE.INTRA.REPUL.0>
0.641615

>  <SCORE.INTRA.SOLV>
-0.120905

>  <SCORE.INTRA.SOLV.lig_0>
-162.567

>  <SCORE.INTRA.VDW>
3.59014

>  <SCORE.INTRA.VDW.0>
-4.80338

>  <SCORE.INTRA.norm>
-0.0670579

>  <SCORE.RESTR>
11.7347

>  <SCORE.RESTR.CAVITY>
11.7347

>  <SCORE.RESTR.norm>
0.279397

>  <SCORE.SYSTEM>
0

>  <SCORE.SYSTEM.CONST>
0

>  <SCORE.SYSTEM.DIHEDRAL>
0

>  <SCORE.SYSTEM.SOLV>
0

>  <SCORE.SYSTEM.norm>
0

>  <SCORE.heavy>
42

>  <SCORE.norm>
-0.193864

>  <RMSD>
9.795

$$$$

 OpenBabel11021811393D
libRbt.so/2013.1/901 2013/11/27
 42 45  0  0  0  0  0  0  0  0999 V2000
   -2.8741   -0.4991   -7.4108 C   0  0  2  0  0  0  0  0  0  0  0  0
   -4.1465    0.2181   -7.4336 O   0  0  0  0  0  0  0  0  0  0  0  0
   -2.9150   -1.7729   -8.3162 C   0  0  2  0  0  0  0  0  0  0  0  0
   -4.0763   -1.7538   -9.2349 N   0  3  0  0  0  0  0  0  0  0  0  0
   -2.9271   -3.0660   -7.4463 C   0  0  1  0  0  0  0  0  0  0  0  0
   -2.9541   -4.2206   -8.2827 O   0  0  0  0  0  0  0  0  0  0  0  0
   -1.6799   -3.1536   -6.5264 C   0  0  2  0  0  0  0  0  0  0  0  0
   -1.8910   -4.1836   -5.5672 O   0  0  0  0  0  0  0  0  0  0  0  0
   -1.4122   -1.7942   -5.8027 C   0  0  2  0  0  0  0  0  0  0  0  0
   -2.5269   -0.8726   -6.0335 O   0  0  0  0  0  0  0  0  0  0  0  0
   -0.1335   -1.0605   -6.2684 C   0  0  0  0  0  0  0  0  0  0  0  0
   -2.9124    3.7309   -5.2525 C   0  0  1  0  0  0  0  0  0  0  0  0
   -2.9192    4.9729   -4.4477 N   0  3  0  0  0  0  0  0  0  0  0  0
   -3.3380    2.5022   -4.4066 C   0  0  1  0  0  0  0  0  0  0  0  0
   -3.4945    1.1836   -5.2412 C   0  0  1  0  0  0  0  0  0  0  0  0
   -4.1966    0.2095   -4.4233 O   0  0  0  0  0  0  0  0  0  0  0  0
   -4.3233    1.3782   -6.5639 C   0  0  1  0  0  0  0  0  0  0  0  0
   -3.8700    2.6457   -7.3582 C   0  0  1  0  0  0  0  0  0  0  0  0
   -4.7425    2.9136   -8.5196 N   0  3  0  0  0  0  0  0  0  0  0  0
   -3.8499    3.9066   -6.4652 C   0  0  0  0  0  0  0  0  0  0  0  0
   -3.9174    0.1357   -2.9952 C   0  0  1  0  0  0  0  0  0  0  0  0
   -5.2419    0.0608   -2.2449 C   0  0  1  0  0  0  0  0  0  0  0  0
   -5.5614   -1.4180   -2.4160 C   0  0  1  0  0  0  0  0  0  0  0  0
   -4.1819   -2.0594   -2.2090 C   0  0  2  0  0  0  0  0  0  0  0  0
   -3.2251   -1.0866   -2.6923 O   0  0  0  0  0  0  0  0  0  0  0  0
   -4.0158   -3.3883   -2.9678 C   0  0  0  0  0  0  0  0  0  0  0  0
   -9.7873   -2.8601    0.3450 C   0  0  1  0  0  0  0  0  0  0  0  0
   -9.2466   -1.4099    0.2031 C   0  0  1  0  0  0  0  0  0  0  0  0
   -8.8585   -1.0161   -1.2514 C   0  0  2  0  0  0  0  0  0  0  0  0
   -7.8936   -2.0704   -1.8833 C   0  0  1  0  0  0  0  0  0  0  0  0
   -6.5258   -1.8755   -1.4248 O   0  0  0  0  0  0  0  0  0  0  0  0
   -9.6704   -3.6300   -1.0055 C   0  0  1  0  0  0  0  0  0  0  0  0
   -8.3257   -3.4493   -1.5585 O   0  0  0  0  0  0  0  0  0  0  0  0
   -9.9597   -5.1454   -0.8505 C   0  0  0  0  0  0  0  0  0  0  0  0
   -0.2217    0.4095   -6.2173 N   0  3  0  0  0  0  0  0  0  0  0  0
   -5.0391    0.3971   -0.8722 O   0  0  0  0  0  0  0  0  0  0  0  0
  -10.2512   -0.5083    0.6657 O   0  0  0  0  0  0  0  0  0  0  0  0
   -9.0320   -3.5267    1.3589 O   0  0  0  0  0  0  0  0  0  0  0  0
   -4.7636   -3.3797   -4.1717 O   0  0  0  0  0  0  0  0  0  0  0  0
   -2.3599    2.2841   -3.3902 O   0  0  0  0  0  0  0  0  0  0  0  0
   -9.6883   -5.9099   -2.0817 N   0  3  0  0  0  0  0  0  0  0  0  0
   -8.3158    0.3637   -1.3127 N   0  3  0  0  0  0  0  0  0  0  0  0
  1  2  1  1  0  0  0
  1  3  1  0  0  0  0
  1 10  1  0  0  0  0
  3  4  1  1  0  0  0
  3  5  1  0  0  0  0
  5  6  1  6  0  0  0
  5  7  1  0  0  0  0
  7  8  1  1  0  0  0
  7  9  1  0  0  0  0
  9 10  1  0  0  0  0
  9 11  1  6  0  0  0
 11 35  1  0  0  0  0
 12 13  1  1  0  0  0
 12 14  1  0  0  0  0
 12 20  1  0  0  0  0
 14 15  1  0  0  0  0
 14 40  1  1  0  0  0
 15 16  1  1  0  0  0
 15 17  1  0  0  0  0
 17  2  1  6  0  0  0
 17 18  1  0  0  0  0
 18 19  1  6  0  0  0
 18 20  1  0  0  0  0
 21 16  1  6  0  0  0
 21 22  1  0  0  0  0
 21 25  1  0  0  0  0
 22 23  1  0  0  0  0
 22 36  1  1  0  0  0
 23 24  1  0  0  0  0
 23 31  1  1  0  0  0
 24 25  1  0  0  0  0
 24 26  1  6  0  0  0
 26 39  1  0  0  0  0
 27 28  1  0  0  0  0
 27 32  1  0  0  0  0
 27 38  1  1  0  0  0
 28 29  1  0  0  0  0
 28 37  1  6  0  0  0
 29 30  1  0  0  0  0
 29 42  1  1  0  0  0
 30 31  1  1  0  0  0
 30 33  1  0  0  0  0
 32 33  1  0  0  0  0
 32 34  1  1  0  0  0
 34 41  1  0  0  0  0
M  CHG  6   4   1  13   1  19   1  35   1  41   1  42   1
M  END
>  <CHROM.1>
175.35091038,-31.98856699,54.24219349,-52.30219061,74.28054675,147.90656072
77.57777714,-69.46519479,-44.59689679,-37.89599522,134.01595396,75.96104482
-55.66595594,103.74529321,31.81992270,70.70722223,-111.47325572,150.53021180
70.90625862,-111.80084713,-172.79957725,-118.93410258,-4.94001597,-0.90975332
-4.04702016,-0.20494607,-0.81883131,-2.94234450

>  <Name>


>  <RI>
0

>  <Rbt.Current_Directory>
/home/itssahil/PROJECTS/Mol_Feturizer/New_Systems/rnas/1ei2

>  <Rbt.Executable>
rbdock ($Id: //depot/dev/client3/rdock/2013.1/src/exe/rbdock.cxx#4 $)

>  <Rbt.Library>
libRbt.so (2013.1, Build901 2013/11/27)

>  <Rbt.Parameter_File>
/export/apps/rDock/src/rDock_2013.1_src/data/scripts/dock_solv.prm

>  <Rbt.Receptor>
prm/blind_docking_20.prm

>  <SCORE>
37.6737

>  <SCORE.INTER>
25.9854

>  <SCORE.INTER.CONST>
1

>  <SCORE.INTER.POLAR>
-5.42433

>  <SCORE.INTER.ROT>
9

>  <SCORE.INTER.SOLV>
51.3818

>  <SCORE.INTER.VDW>
8.67745

>  <SCORE.INTER.norm>
0.6187

>  <SCORE.INTRA>
4.59875

>  <SCORE.INTRA.DIHEDRAL>
8.57779

>  <SCORE.INTRA.DIHEDRAL.0>
40.8761

>  <SCORE.INTRA.POLAR>
-0.320306

>  <SCORE.INTRA.POLAR.0>
-0.0268208

>  <SCORE.INTRA.REPUL>
-0.620526

>  <SCORE.INTRA.REPUL.0>
0.641615

>  <SCORE.INTRA.SOLV>
-4.68024

>  <SCORE.INTRA.SOLV.lig_0>
-162.567

>  <SCORE.INTRA.VDW>
6.84165

>  <SCORE.INTRA.VDW.0>
-4.80338

>  <SCORE.INTRA.norm>
0.109494

>  <SCORE.RESTR>
7.08956

>  <SCORE.RESTR.CAVITY>
7.08956

>  <SCORE.RESTR.norm>
0.168799

>  <SCORE.SYSTEM>
0

>  <SCORE.SYSTEM.CONST>
0

>  <SCORE.SYSTEM.DIHEDRAL>
0

>  <SCORE.SYSTEM.SOLV>
0

>  <SCORE.SYSTEM.norm>
0

>  <SCORE.heavy>
42

>  <SCORE.norm>
0.896993

>  <RMSD>
9.806

$$$$

 OpenBabel11021811393D
libRbt.so/2013.1/901 2013/11/27
 42 45  0  0  0  0  0  0  0  0999 V2000
   -3.7327   -1.8668   -7.7208 C   0  0  2  0  0  0  0  0  0  0  0  0
   -3.4345   -1.9165   -6.2917 O   0  0  0  0  0  0  0  0  0  0  0  0
   -3.0554   -0.6367   -8.4079 C   0  0  2  0  0  0  0  0  0  0  0  0
   -2.0111   -0.0358   -7.5467 N   0  3  0  0  0  0  0  0  0  0  0  0
   -4.1213    0.4304   -8.8002 C   0  0  1  0  0  0  0  0  0  0  0  0
   -3.4931    1.5422   -9.4348 O   0  0  0  0  0  0  0  0  0  0  0  0
   -5.1887   -0.1493   -9.7666 C   0  0  2  0  0  0  0  0  0  0  0  0
   -6.2736    0.7679   -9.8525 O   0  0  0  0  0  0  0  0  0  0  0  0
   -5.7019   -1.5418   -9.2757 C   0  0  2  0  0  0  0  0  0  0  0  0
   -5.1852   -1.8248   -7.9347 O   0  0  0  0  0  0  0  0  0  0  0  0
   -5.2802   -2.7319  -10.1679 C   0  0  0  0  0  0  0  0  0  0  0  0
   -2.4873   -5.9718   -5.1616 C   0  0  1  0  0  0  0  0  0  0  0  0
   -1.7648   -7.1901   -4.7325 N   0  3  0  0  0  0  0  0  0  0  0  0
   -2.5905   -4.9364   -4.0111 C   0  0  1  0  0  0  0  0  0  0  0  0
   -3.2133   -3.5651   -4.4487 C   0  0  1  0  0  0  0  0  0  0  0  0
   -2.9590   -2.5951   -3.3973 O   0  0  0  0  0  0  0  0  0  0  0  0
   -2.5954   -2.9964   -5.7787 C   0  0  1  0  0  0  0  0  0  0  0  0
   -2.4898   -4.0901   -6.8902 C   0  0  1  0  0  0  0  0  0  0  0  0
   -1.7753   -3.5984   -8.0859 N   0  3  0  0  0  0  0  0  0  0  0  0
   -1.7687   -5.3586   -6.3814 C   0  0  0  0  0  0  0  0  0  0  0  0
   -3.2904   -1.1935   -3.6174 C   0  0  1  0  0  0  0  0  0  0  0  0
   -4.8018   -1.0702   -3.7693 C   0  0  1  0  0  0  0  0  0  0  0  0
   -5.2198   -1.0994   -2.3054 C   0  0  1  0  0  0  0  0  0  0  0  0
   -4.1392   -0.2226   -1.6568 C   0  0  2  0  0  0  0  0  0  0  0  0
   -2.9483   -0.4195   -2.4559 O   0  0  0  0  0  0  0  0  0  0  0  0
   -3.8608   -0.5966   -0.1898 C   0  0  0  0  0  0  0  0  0  0  0  0
   -9.6821   -1.5335   -0.1264 C   0  0  1  0  0  0  0  0  0  0  0  0
   -9.5704   -0.3010   -1.0665 C   0  0  1  0  0  0  0  0  0  0  0  0
   -9.0167   -0.6305   -2.4828 C   0  0  2  0  0  0  0  0  0  0  0  0
   -7.6760   -1.4281   -2.3933 C   0  0  1  0  0  0  0  0  0  0  0  0
   -6.5531   -0.5434   -2.1182 O   0  0  0  0  0  0  0  0  0  0  0  0
   -9.0642   -2.7988   -0.7952 C   0  0  1  0  0  0  0  0  0  0  0  0
   -7.7456   -2.4699   -1.3428 O   0  0  0  0  0  0  0  0  0  0  0  0
   -8.9250   -3.9841    0.1947 C   0  0  0  0  0  0  0  0  0  0  0  0
   -5.6739   -2.6029  -11.5819 N   0  3  0  0  0  0  0  0  0  0  0  0
   -5.1255    0.1785   -4.3812 O   0  0  0  0  0  0  0  0  0  0  0  0
  -10.8681    0.2754   -1.2083 O   0  0  0  0  0  0  0  0  0  0  0  0
   -8.9967   -1.2360    1.0921 O   0  0  0  0  0  0  0  0  0  0  0  0
   -2.9182   -1.6518   -0.1074 O   0  0  0  0  0  0  0  0  0  0  0  0
   -3.3932   -5.4885   -2.9678 O   0  0  0  0  0  0  0  0  0  0  0  0
   -9.2701   -5.2823   -0.4130 N   0  3  0  0  0  0  0  0  0  0  0  0
   -8.8996    0.5915   -3.3167 N   0  3  0  0  0  0  0  0  0  0  0  0
  1  2  1  1  0  0  0
  1  3  1  0  0  0  0
  1 10  1  0  0  0  0
  3  4  1  1  0  0  0
  3  5  1  0  0  0  0
  5  6  1  6  0  0  0
  5  7  1  0  0  0  0
  7  8  1  1  0  0  0
  7  9  1  0  0  0  0
  9 10  1  0  0  0  0
  9 11  1  6  0  0  0
 11 35  1  0  0  0  0
 12 13  1  1  0  0  0
 12 14  1  0  0  0  0
 12 20  1  0  0  0  0
 14 15  1  0  0  0  0
 14 40  1  1  0  0  0
 15 16  1  1  0  0  0
 15 17  1  0  0  0  0
 17  2  1  6  0  0  0
 17 18  1  0  0  0  0
 18 19  1  6  0  0  0
 18 20  1  0  0  0  0
 21 16  1  1  0  0  0
 21 22  1  0  0  0  0
 21 25  1  0  0  0  0
 22 23  1  0  0  0  0
 22 36  1  1  0  0  0
 23 24  1  0  0  0  0
 23 31  1  6  0  0  0
 24 25  1  0  0  0  0
 24 26  1  1  0  0  0
 26 39  1  0  0  0  0
 27 28  1  0  0  0  0
 27 32  1  0  0  0  0
 27 38  1  1  0  0  0
 28 29  1  0  0  0  0
 28 37  1  6  0  0  0
 29 30  1  0  0  0  0
 29 42  1  6  0  0  0
 30 31  1  1  0  0  0
 30 33  1  0  0  0  0
 32 33  1  0  0  0  0
 32 34  1  1  0  0  0
 34 41  1  0  0  0  0
M  CHG  6   4   1  13   1  19   1  35   1  41   1  42   1
M  END
>  <CHROM.1>
-112.28810751,-136.32367787,-158.48189359,61.80608364,65.84420633,-56.00262084
-173.65398543,171.82603929,77.64882241,172.60959957,64.97630012,110.50764817
70.81854048,81.44353936,85.19893358,-59.37779925,54.28127446,64.28532186
21.46614924,-166.61280341,139.78658686,98.73338621,-5.16806580,-1.93551419
-4.55593280,0.89171919,0.63112307,-1.15643113

>  <Name>


>  <RI>
0

>  <Rbt.Current_Directory>
/home/itssahil/PROJECTS/Mol_Feturizer/New_Systems/rnas/1ei2

>  <Rbt.Executable>
rbdock ($Id: //depot/dev/client3/rdock/2013.1/src/exe/rbdock.cxx#4 $)

>  <Rbt.Library>
libRbt.so (2013.1, Build901 2013/11/27)

>  <Rbt.Parameter_File>
/export/apps/rDock/src/rDock_2013.1_src/data/scripts/dock_solv.prm

>  <Rbt.Receptor>
prm/blind_docking_80.prm

>  <SCORE>
-11.0612

>  <SCORE.INTER>
-18.7643

>  <SCORE.INTER.CONST>
1

>  <SCORE.INTER.POLAR>
-8.58781

>  <SCORE.INTER.ROT>
9

>  <SCORE.INTER.SOLV>
54.0832

>  <SCORE.INTER.VDW>
-11.5112

>  <SCORE.INTER.norm>
-0.446768

>  <SCORE.INTRA>
-4.68392

>  <SCORE.INTRA.DIHEDRAL>
-5.72198

>  <SCORE.INTRA.DIHEDRAL.0>
40.8761

>  <SCORE.INTRA.POLAR>
-0.118248

>  <SCORE.INTRA.POLAR.0>
-0.0268208

>  <SCORE.INTRA.REPUL>
-0.641615

>  <SCORE.INTRA.REPUL.0>
0.641615

>  <SCORE.INTRA.SOLV>
-7.61987

>  <SCORE.INTRA.SOLV.lig_0>
-162.567

>  <SCORE.INTRA.VDW>
5.59712

>  <SCORE.INTRA.VDW.0>
-4.80338

>  <SCORE.INTRA.norm>
-0.111522

>  <SCORE.RESTR>
12.387

>  <SCORE.RESTR.CAVITY>
12.387

>  <SCORE.RESTR.norm>
0.294928

>  <SCORE.SYSTEM>
0

>  <SCORE.SYSTEM.CONST>
0

>  <SCORE.SYSTEM.DIHEDRAL>
0

>  <SCORE.SYSTEM.SOLV>
0

>  <SCORE.SYSTEM.norm>
0

>  <SCORE.heavy>
42

>  <SCORE.norm>
-0.263363

>  <RMSD>
9.806

$$$$

 OpenBabel11021811393D
libRbt.so/2013.1/901 2013/11/27
 42 45  0  0  0  0  0  0  0  0999 V2000
   -3.4173   -2.2113   -6.4525 C   0  0  2  0  0  0  0  0  0  0  0  0
   -4.4899   -1.3530   -6.9492 O   0  0  0  0  0  0  0  0  0  0  0  0
   -2.4702   -2.6754   -7.6064 C   0  0  2  0  0  0  0  0  0  0  0  0
   -2.6671   -1.8693   -8.8330 N   0  3  0  0  0  0  0  0  0  0  0  0
   -2.6737   -4.1906   -7.9094 C   0  0  1  0  0  0  0  0  0  0  0  0
   -1.7978   -4.6044   -8.9559 O   0  0  0  0  0  0  0  0  0  0  0  0
   -2.3983   -5.0702   -6.6605 C   0  0  2  0  0  0  0  0  0  0  0  0
   -2.8755   -6.3867   -6.9145 O   0  0  0  0  0  0  0  0  0  0  0  0
   -3.0940   -4.4841   -5.3893 C   0  0  2  0  0  0  0  0  0  0  0  0
   -3.9805   -3.3801   -5.7641 O   0  0  0  0  0  0  0  0  0  0  0  0
   -2.1212   -3.9234   -4.3265 C   0  0  0  0  0  0  0  0  0  0  0  0
   -3.1647    2.7535   -6.9409 C   0  0  1  0  0  0  0  0  0  0  0  0
   -3.0772    4.2126   -6.7094 N   0  3  0  0  0  0  0  0  0  0  0  0
   -2.9610    1.9554   -5.6264 C   0  0  1  0  0  0  0  0  0  0  0  0
   -3.1916    0.4119   -5.7817 C   0  0  1  0  0  0  0  0  0  0  0  0
   -3.2944   -0.1675   -4.4533 O   0  0  0  0  0  0  0  0  0  0  0  0
   -4.5116    0.0543   -6.5589 C   0  0  1  0  0  0  0  0  0  0  0  0
   -4.6768    0.9088   -7.8571 C   0  0  1  0  0  0  0  0  0  0  0  0
   -5.9834    0.6819   -8.5077 N   0  3  0  0  0  0  0  0  0  0  0  0
   -4.5327    2.4207   -7.5720 C   0  0  0  0  0  0  0  0  0  0  0  0
   -3.6232    0.6873   -3.3202 C   0  0  1  0  0  0  0  0  0  0  0  0
   -5.1188    0.5782   -3.0477 C   0  0  1  0  0  0  0  0  0  0  0  0
   -5.1527   -0.7298   -2.2690 C   0  0  1  0  0  0  0  0  0  0  0  0
   -3.9140   -0.5895   -1.3728 C   0  0  2  0  0  0  0  0  0  0  0  0
   -2.9719    0.2033   -2.1342 O   0  0  0  0  0  0  0  0  0  0  0  0
   -3.2856   -1.9437   -0.9978 C   0  0  0  0  0  0  0  0  0  0  0  0
   -9.9903   -1.6049   -0.4336 C   0  0  1  0  0  0  0  0  0  0  0  0
   -9.3820   -0.1849   -0.6043 C   0  0  1  0  0  0  0  0  0  0  0  0
   -8.6538    0.0352   -1.9617 C   0  0  2  0  0  0  0  0  0  0  0  0
   -7.6054   -1.0923   -2.2292 C   0  0  1  0  0  0  0  0  0  0  0  0
   -6.3754   -0.8559   -1.4873 O   0  0  0  0  0  0  0  0  0  0  0  0
   -9.5898   -2.5266   -1.6253 C   0  0  1  0  0  0  0  0  0  0  0  0
   -8.1481   -2.4211   -1.8642 O   0  0  0  0  0  0  0  0  0  0  0  0
   -9.9590   -4.0117   -1.3758 C   0  0  0  0  0  0  0  0  0  0  0  0
   -2.5326   -4.1702   -2.9333 N   0  3  0  0  0  0  0  0  0  0  0  0
   -5.5446    1.6778   -2.2427 O   0  0  0  0  0  0  0  0  0  0  0  0
  -10.4350    0.7717   -0.4927 O   0  0  0  0  0  0  0  0  0  0  0  0
   -9.5142   -2.1555    0.7965 O   0  0  0  0  0  0  0  0  0  0  0  0
   -4.2237   -2.7677   -0.3271 O   0  0  0  0  0  0  0  0  0  0  0  0
   -1.6294    2.1720   -5.1600 O   0  0  0  0  0  0  0  0  0  0  0  0
   -9.3353   -4.5609   -0.1579 N   0  3  0  0  0  0  0  0  0  0  0  0
   -8.0647    1.3946   -2.0464 N   0  3  0  0  0  0  0  0  0  0  0  0
  1  2  1  6  0  0  0
  1  3  1  0  0  0  0
  1 10  1  0  0  0  0
  3  4  1  6  0  0  0
  3  5  1  0  0  0  0
  5  6  1  6  0  0  0
  5  7  1  0  0  0  0
  7  8  1  6  0  0  0
  7  9  1  0  0  0  0
  9 10  1  0  0  0  0
  9 11  1  1  0  0  0
 11 35  1  0  0  0  0
 12 13  1  1  0  0  0
 12 14  1  0  0  0  0
 12 20  1  0  0  0  0
 14 15  1  0  0  0  0
 14 40  1  6  0  0  0
 15 16  1  1  0  0  0
 15 17  1  0  0  0  0
 17  2  1  6  0  0  0
 17 18  1  0  0  0  0
 18 19  1  1  0  0  0
 18 20  1  0  0  0  0
 21 16  1  6  0  0  0
 21 22  1  0  0  0  0
 21 25  1  0  0  0  0
 22 23  1  0  0  0  0
 22 36  1  1  0  0  0
 23 24  1  0  0  0  0
 23 31  1  1  0  0  0
 24 25  1  0  0  0  0
 24 26  1  6  0  0  0
 26 39  1  0  0  0  0
 27 28  1  0  0  0  0
 27 32  1  0  0  0  0
 27 38  1  1  0  0  0
 28 29  1  0  0  0  0
 28 37  1  6  0  0  0
 29 30  1  0  0  0  0
 29 42  1  1  0  0  0
 30 31  1  1  0  0  0
 30 33  1  0  0  0  0
 32 33  1  0  0  0  0
 32 34  1  1  0  0  0
 34 41  1  0  0  0  0
M  CHG  6   4   1  13   1  19   1  35   1  41   1  42   1
M  END
>  <CHROM.1>
-112.67866886,7.49071056,-89.83281293,-166.30676286,-155.92867129,-142.67691976
-42.78437704,157.78833482,-176.27761542,20.27314209,97.27586116,-61.50426683
-47.51190684,71.20484295,-58.40925909,14.08095159,-94.32267888,-33.24111389
-150.83663321,-121.07050653,-57.99493740,-169.68731458,-5.06592014,-1.17933382
-4.09659144,-0.09251623,-0.83273969,3.01123148

>  <Name>


>  <RI>
0

>  <Rbt.Current_Directory>
/home/itssahil/PROJECTS/Mol_Feturizer/New_Systems/rnas/1ei2

>  <Rbt.Executable>
rbdock ($Id: //depot/dev/client3/rdock/2013.1/src/exe/rbdock.cxx#4 $)

>  <Rbt.Library>
libRbt.so (2013.1, Build901 2013/11/27)

>  <Rbt.Parameter_File>
/export/apps/rDock/src/rDock_2013.1_src/data/scripts/dock_solv.prm

>  <Rbt.Receptor>
prm/blind_docking_40.prm

>  <SCORE>
16.0729

>  <SCORE.INTER>
-3.65679

>  <SCORE.INTER.CONST>
1

>  <SCORE.INTER.POLAR>
-4.12867

>  <SCORE.INTER.ROT>
9

>  <SCORE.INTER.SOLV>
46.3425

>  <SCORE.INTER.VDW>
-13.7231

>  <SCORE.INTER.norm>
-0.0870664

>  <SCORE.INTRA>
8.65379

>  <SCORE.INTRA.DIHEDRAL>
18.6272

>  <SCORE.INTRA.DIHEDRAL.0>
40.8761

>  <SCORE.INTRA.POLAR>
-1.6042

>  <SCORE.INTRA.POLAR.0>
-0.0268208

>  <SCORE.INTRA.REPUL>
-0.641615

>  <SCORE.INTRA.REPUL.0>
0.641615

>  <SCORE.INTRA.SOLV>
-2.15444

>  <SCORE.INTRA.SOLV.lig_0>
-162.567

>  <SCORE.INTRA.VDW>
9.07978

>  <SCORE.INTRA.VDW.0>
-4.80338

>  <SCORE.INTRA.norm>
0.206043

>  <SCORE.RESTR>
11.0759

>  <SCORE.RESTR.CAVITY>
11.0759

>  <SCORE.RESTR.norm>
0.263711

>  <SCORE.SYSTEM>
0

>  <SCORE.SYSTEM.CONST>
0

>  <SCORE.SYSTEM.DIHEDRAL>
0

>  <SCORE.SYSTEM.SOLV>
0

>  <SCORE.SYSTEM.norm>
0

>  <SCORE.heavy>
42

>  <SCORE.norm>
0.382687

>  <RMSD>
9.835

$$$$

 OpenBabel11021811393D
libRbt.so/2013.1/901 2013/11/27
 42 45  0  0  0  0  0  0  0  0999 V2000
   -3.9394    0.1386   -2.7120 C   0  0  2  0  0  0  0  0  0  0  0  0
   -2.6829   -0.5466   -3.0044 O   0  0  0  0  0  0  0  0  0  0  0  0
   -4.0781    0.4615   -1.1887 C   0  0  2  0  0  0  0  0  0  0  0  0
   -2.7847    0.3240   -0.4806 N   0  3  0  0  0  0  0  0  0  0  0  0
   -5.1610   -0.4455   -0.5304 C   0  0  1  0  0  0  0  0  0  0  0  0
   -5.2857   -0.1349    0.8558 O   0  0  0  0  0  0  0  0  0  0  0  0
   -6.5490   -0.2659   -1.2017 C   0  0  2  0  0  0  0  0  0  0  0  0
   -7.4083   -1.3116   -0.7614 O   0  0  0  0  0  0  0  0  0  0  0  0
   -6.4325   -0.2888   -2.7603 C   0  0  2  0  0  0  0  0  0  0  0  0
   -5.0772   -0.6757   -3.1585 O   0  0  0  0  0  0  0  0  0  0  0  0
   -6.7199    1.0673   -3.4450 C   0  0  0  0  0  0  0  0  0  0  0  0
   -2.9340   -0.0315   -7.2813 C   0  0  1  0  0  0  0  0  0  0  0  0
   -2.6425   -0.0711   -8.7317 N   0  3  0  0  0  0  0  0  0  0  0  0
   -3.2746   -1.4410   -6.7304 C   0  0  1  0  0  0  0  0  0  0  0  0
   -3.4455   -1.4865   -5.1720 C   0  0  1  0  0  0  0  0  0  0  0  0
   -3.4342   -2.8781   -4.7547 O   0  0  0  0  0  0  0  0  0  0  0  0
   -2.2921   -0.7493   -4.3971 C   0  0  1  0  0  0  0  0  0  0  0  0
   -1.9738    0.6511   -5.0139 C   0  0  1  0  0  0  0  0  0  0  0  0
   -0.7951    1.2797   -4.3834 N   0  3  0  0  0  0  0  0  0  0  0  0
   -1.7217    0.5646   -6.5360 C   0  0  0  0  0  0  0  0  0  0  0  0
   -2.1811   -3.6212   -4.7652 C   0  0  1  0  0  0  0  0  0  0  0  0
   -2.5000   -5.1096   -4.8416 C   0  0  1  0  0  0  0  0  0  0  0  0
   -2.7732   -5.2471   -6.3332 C   0  0  1  0  0  0  0  0  0  0  0  0
   -1.6720   -4.3613   -6.9332 C   0  0  2  0  0  0  0  0  0  0  0  0
   -1.4394   -3.3171   -5.9579 O   0  0  0  0  0  0  0  0  0  0  0  0
   -2.0667   -3.7438   -8.2868 C   0  0  0  0  0  0  0  0  0  0  0  0
   -3.4812   -8.1966  -10.1802 C   0  0  1  0  0  0  0  0  0  0  0  0
   -2.8534   -8.9509   -8.9751 C   0  0  1  0  0  0  0  0  0  0  0  0
   -3.6221   -8.7596   -7.6358 C   0  0  2  0  0  0  0  0  0  0  0  0
   -3.8530   -7.2449   -7.3288 C   0  0  1  0  0  0  0  0  0  0  0  0
   -2.6557   -6.6306   -6.7737 O   0  0  0  0  0  0  0  0  0  0  0  0
   -4.6671   -7.2979   -9.7151 C   0  0  1  0  0  0  0  0  0  0  0  0
   -4.2578   -6.5102   -8.5494 O   0  0  0  0  0  0  0  0  0  0  0  0
   -5.1585   -6.3407  -10.8315 C   0  0  0  0  0  0  0  0  0  0  0  0
   -5.5192    1.8725   -3.7302 N   0  3  0  0  0  0  0  0  0  0  0  0
   -1.3574   -5.8693   -4.4466 O   0  0  0  0  0  0  0  0  0  0  0  0
   -2.8190  -10.3434   -9.2849 O   0  0  0  0  0  0  0  0  0  0  0  0
   -2.4665   -7.3961  -10.7905 O   0  0  0  0  0  0  0  0  0  0  0  0
   -2.3176   -4.7537   -9.2490 O   0  0  0  0  0  0  0  0  0  0  0  0
   -4.4879   -1.8887   -7.3345 O   0  0  0  0  0  0  0  0  0  0  0  0
   -6.3493   -5.5650  -10.4388 N   0  3  0  0  0  0  0  0  0  0  0  0
   -2.9523   -9.4728   -6.5200 N   0  3  0  0  0  0  0  0  0  0  0  0
  1  2  1  1  0  0  0
  1  3  1  0  0  0  0
  1 10  1  0  0  0  0
  3  4  1  1  0  0  0
  3  5  1  0  0  0  0
  5  6  1  1  0  0  0
  5  7  1  0  0  0  0
  7  8  1  1  0  0  0
  7  9  1  0  0  0  0
  9 10  1  0  0  0  0
  9 11  1  1  0  0  0
 11 35  1  0  0  0  0
 12 13  1  6  0  0  0
 12 14  1  0  0  0  0
 12 20  1  0  0  0  0
 14 15  1  0  0  0  0
 14 40  1  6  0  0  0
 15 16  1  1  0  0  0
 15 17  1  0  0  0  0
 17  2  1  1  0  0  0
 17 18  1  0  0  0  0
 18 19  1  1  0  0  0
 18 20  1  0  0  0  0
 21 16  1  6  0  0  0
 21 22  1  0  0  0  0
 21 25  1  0  0  0  0
 22 23  1  0  0  0  0
 22 36  1  6  0  0  0
 23 24  1  0  0  0  0
 23 31  1  6  0  0  0
 24 25  1  0  0  0  0
 24 26  1  6  0  0  0
 26 39  1  0  0  0  0
 27 28  1  0  0  0  0
 27 32  1  0  0  0  0
 27 38  1  1  0  0  0
 28 29  1  0  0  0  0
 28 37  1  6  0  0  0
 29 30  1  0  0  0  0
 29 42  1  1  0  0  0
 30 31  1  6  0  0  0
 30 33  1  0  0  0  0
 32 33  1  0  0  0  0
 32 34  1  6  0  0  0
 34 41  1  0  0  0  0
M  CHG  6   4   1  13   1  19   1  35   1  41   1  42   1
M  END
>  <CHROM.1>
-171.00289633,-54.55264467,-158.13219280,148.35452777,-49.94855896,95.13668702
-61.00650035,63.96094847,69.72904555,73.10965759,-157.58231246,-78.91023303
-164.58444513,118.30946367,-61.35330147,64.86898466,175.32028062,175.94404814
168.33533911,-174.75932723,175.30127253,49.35893842,-3.56888595,-3.21686230
-5.72749284,1.88942423,1.22146479,0.40790970

>  <Name>


>  <RI>
0

>  <Rbt.Current_Directory>
/home/itssahil/PROJECTS/Mol_Feturizer/New_Systems/rnas/1ei2

>  <Rbt.Executable>
rbdock ($Id: //depot/dev/client3/rdock/2013.1/src/exe/rbdock.cxx#4 $)

>  <Rbt.Library>
libRbt.so (2013.1, Build901 2013/11/27)

>  <Rbt.Parameter_File>
/export/apps/rDock/src/rDock_2013.1_src/data/scripts/dock_solv.prm

>  <Rbt.Receptor>
prm/blind_docking_20.prm

>  <SCORE>
-26.0935

>  <SCORE.INTER>
-34.5151

>  <SCORE.INTER.CONST>
1

>  <SCORE.INTER.POLAR>
-5.68171

>  <SCORE.INTER.ROT>
9

>  <SCORE.INTER.SOLV>
32.9971

>  <SCORE.INTER.VDW>
-24.6701

>  <SCORE.INTER.norm>
-0.821789

>  <SCORE.INTRA>
-14.5684

>  <SCORE.INTRA.DIHEDRAL>
-17.4129

>  <SCORE.INTRA.DIHEDRAL.0>
40.8761

>  <SCORE.INTRA.POLAR>
-1.31025

>  <SCORE.INTRA.POLAR.0>
-0.0268208

>  <SCORE.INTRA.REPUL>
-0.641615

>  <SCORE.INTRA.REPUL.0>
0.641615

>  <SCORE.INTRA.SOLV>
-5.39097

>  <SCORE.INTRA.SOLV.lig_0>
-162.567

>  <SCORE.INTRA.VDW>
4.49648

>  <SCORE.INTRA.VDW.0>
-4.80338

>  <SCORE.INTRA.norm>
-0.346866

>  <SCORE.RESTR>
22.99

>  <SCORE.RESTR.CAVITY>
22.99

>  <SCORE.RESTR.norm>
0.54738

>  <SCORE.SYSTEM>
0

>  <SCORE.SYSTEM.CONST>
0

>  <SCORE.SYSTEM.DIHEDRAL>
0

>  <SCORE.SYSTEM.SOLV>
0

>  <SCORE.SYSTEM.norm>
0

>  <SCORE.heavy>
42

>  <SCORE.norm>
-0.621275

>  <RMSD>
9.836

$$$$

 OpenBabel11021811393D
libRbt.so/2013.1/901 2013/11/27
 42 45  0  0  0  0  0  0  0  0999 V2000
   -3.4616   -1.1171   -6.6268 C   0  0  2  0  0  0  0  0  0  0  0  0
   -3.8967   -2.4520   -6.2236 O   0  0  0  0  0  0  0  0  0  0  0  0
   -4.2935   -0.5815   -7.8371 C   0  0  2  0  0  0  0  0  0  0  0  0
   -5.5240   -1.3776   -8.0499 N   0  3  0  0  0  0  0  0  0  0  0  0
   -3.4273   -0.5572   -9.1325 C   0  0  1  0  0  0  0  0  0  0  0  0
   -4.1933   -0.0576  -10.2266 O   0  0  0  0  0  0  0  0  0  0  0  0
   -2.1671    0.3338   -8.9664 C   0  0  2  0  0  0  0  0  0  0  0  0
   -1.2854    0.0858  -10.0558 O   0  0  0  0  0  0  0  0  0  0  0  0
   -1.4412    0.0432   -7.6129 C   0  0  2  0  0  0  0  0  0  0  0  0
   -2.0326   -1.1302   -6.9659 O   0  0  0  0  0  0  0  0  0  0  0  0
   -1.5166    1.1950   -6.5844 C   0  0  0  0  0  0  0  0  0  0  0  0
   -2.3904   -6.3438   -5.1260 C   0  0  1  0  0  0  0  0  0  0  0  0
   -1.4981   -7.4588   -4.7376 N   0  3  0  0  0  0  0  0  0  0  0  0
   -2.5394   -5.3085   -3.9805 C   0  0  1  0  0  0  0  0  0  0  0  0
   -3.3521   -4.0297   -4.3857 C   0  0  1  0  0  0  0  0  0  0  0  0
   -3.1458   -3.0181   -3.3635 O   0  0  0  0  0  0  0  0  0  0  0  0
   -2.8999   -3.4141   -5.7608 C   0  0  1  0  0  0  0  0  0  0  0  0
   -2.7389   -4.5064   -6.8671 C   0  0  1  0  0  0  0  0  0  0  0  0
   -2.1727   -3.9533   -8.1142 N   0  3  0  0  0  0  0  0  0  0  0  0
   -1.8364   -5.6700   -6.3986 C   0  0  0  0  0  0  0  0  0  0  0  0
   -3.3646   -1.6145   -3.6872 C   0  0  1  0  0  0  0  0  0  0  0  0
   -4.8628   -1.3366   -3.6539 C   0  0  1  0  0  0  0  0  0  0  0  0
   -5.0716   -1.1831   -2.1534 C   0  0  1  0  0  0  0  0  0  0  0  0
   -3.8293   -0.3771   -1.7482 C   0  0  2  0  0  0  0  0  0  0  0  0
   -2.7879   -0.7798   -2.6696 O   0  0  0  0  0  0  0  0  0  0  0  0
   -3.3858   -0.6428   -0.2983 C   0  0  0  0  0  0  0  0  0  0  0  0
   -9.9255   -1.0740   -0.7362 C   0  0  1  0  0  0  0  0  0  0  0  0
   -9.3529    0.2878   -1.2189 C   0  0  1  0  0  0  0  0  0  0  0  0
   -8.5916    0.2123   -2.5738 C   0  0  2  0  0  0  0  0  0  0  0  0
   -7.5042   -0.9097   -2.5488 C   0  0  1  0  0  0  0  0  0  0  0  0
   -6.3038   -0.4657   -1.8551 O   0  0  0  0  0  0  0  0  0  0  0  0
   -9.4642   -2.2325   -1.6718 C   0  0  1  0  0  0  0  0  0  0  0  0
   -8.0196   -2.1357   -1.8968 O   0  0  0  0  0  0  0  0  0  0  0  0
   -9.7983   -3.6311   -1.0921 C   0  0  0  0  0  0  0  0  0  0  0  0
   -2.8446    1.8230   -6.4690 N   0  3  0  0  0  0  0  0  0  0  0  0
   -5.1442   -0.1213   -4.3485 O   0  0  0  0  0  0  0  0  0  0  0  0
  -10.4354    1.2074   -1.3560 O   0  0  0  0  0  0  0  0  0  0  0  0
   -9.4704   -1.3080    0.5984 O   0  0  0  0  0  0  0  0  0  0  0  0
   -4.4393   -0.3714    0.6101 O   0  0  0  0  0  0  0  0  0  0  0  0
   -3.1960   -5.9348   -2.8787 O   0  0  0  0  0  0  0  0  0  0  0  0
   -9.0759   -3.9204    0.1603 N   0  3  0  0  0  0  0  0  0  0  0  0
   -8.0389    1.5346   -2.9592 N   0  3  0  0  0  0  0  0  0  0  0  0
  1  2  1  6  0  0  0
  1  3  1  0  0  0  0
  1 10  1  0  0  0  0
  3  4  1  6  0  0  0
  3  5  1  0  0  0  0
  5  6  1  6  0  0  0
  5  7  1  0  0  0  0
  7  8  1  6  0  0  0
  7  9  1  0  0  0  0
  9 10  1  0  0  0  0
  9 11  1  1  0  0  0
 11 35  1  0  0  0  0
 12 13  1  1  0  0  0
 12 14  1  0  0  0  0
 12 20  1  0  0  0  0
 14 15  1  0  0  0  0
 14 40  1  1  0  0  0
 15 16  1  1  0  0  0
 15 17  1  0  0  0  0
 17  2  1  6  0  0  0
 17 18  1  0  0  0  0
 18 19  1  6  0  0  0
 18 20  1  0  0  0  0
 21 16  1  1  0  0  0
 21 22  1  0  0  0  0
 21 25  1  0  0  0  0
 22 23  1  0  0  0  0
 22 36  1  6  0  0  0
 23 24  1  0  0  0  0
 23 31  1  6  0  0  0
 24 25  1  0  0  0  0
 24 26  1  1  0  0  0
 26 39  1  0  0  0  0
 27 28  1  0  0  0  0
 27 32  1  0  0  0  0
 27 38  1  1  0  0  0
 28 29  1  0  0  0  0
 28 37  1  6  0  0  0
 29 30  1  0  0  0  0
 29 42  1  1  0  0  0
 30 31  1  1  0  0  0
 30 33  1  0  0  0  0
 32 33  1  0  0  0  0
 32 34  1  1  0  0  0
 34 41  1  0  0  0  0
M  CHG  6   4   1  13   1  19   1  35   1  41   1  42   1
M  END
>  <CHROM.1>
143.73840720,129.22561619,133.82593712,65.03381310,-59.01484642,43.43730771
-35.79972033,-64.52174816,75.60126674,158.07572119,79.21831306,22.08251916
178.84579044,48.31562060,-56.76866110,39.07711000,50.31599165,174.09317546
-53.58157686,-158.76743257,-64.41363556,49.19041122,-4.79744196,-1.70503888
-4.31174593,0.37017615,0.76874415,-0.64286797

>  <Name>


>  <RI>
0

>  <Rbt.Current_Directory>
/home/itssahil/PROJECTS/Mol_Feturizer/New_Systems/rnas/1ei2

>  <Rbt.Executable>
rbdock ($Id: //depot/dev/client3/rdock/2013.1/src/exe/rbdock.cxx#4 $)

>  <Rbt.Library>
libRbt.so (2013.1, Build901 2013/11/27)

>  <Rbt.Parameter_File>
/export/apps/rDock/src/rDock_2013.1_src/data/scripts/dock_solv.prm

>  <Rbt.Receptor>
prm/blind_docking_100.prm

>  <SCORE>
-14.2633

>  <SCORE.INTER>
-9.14414

>  <SCORE.INTER.CONST>
1

>  <SCORE.INTER.POLAR>
-4.83974

>  <SCORE.INTER.ROT>
9

>  <SCORE.INTER.SOLV>
51.5141

>  <SCORE.INTER.VDW>
-16.735

>  <SCORE.INTER.norm>
-0.217718

>  <SCORE.INTRA>
-12.8523

>  <SCORE.INTRA.DIHEDRAL>
-10.0355

>  <SCORE.INTRA.DIHEDRAL.0>
40.8761

>  <SCORE.INTRA.POLAR>
-2.20174

>  <SCORE.INTRA.POLAR.0>
-0.0268208

>  <SCORE.INTRA.REPUL>
-0.641615

>  <SCORE.INTRA.REPUL.0>
0.641615

>  <SCORE.INTRA.SOLV>
-0.310919

>  <SCORE.INTRA.SOLV.lig_0>
-162.567

>  <SCORE.INTRA.VDW>
3.01491

>  <SCORE.INTRA.VDW.0>
-4.80338

>  <SCORE.INTRA.norm>
-0.306007

>  <SCORE.RESTR>
7.73315

>  <SCORE.RESTR.CAVITY>
7.73315

>  <SCORE.RESTR.norm>
0.184123

>  <SCORE.SYSTEM>
0

>  <SCORE.SYSTEM.CONST>
0

>  <SCORE.SYSTEM.DIHEDRAL>
0

>  <SCORE.SYSTEM.SOLV>
0

>  <SCORE.SYSTEM.norm>
0

>  <SCORE.heavy>
42

>  <SCORE.norm>
-0.339602

>  <RMSD>
9.841

$$$$

 OpenBabel11021811393D
libRbt.so/2013.1/901 2013/11/27
 42 45  0  0  0  0  0  0  0  0999 V2000
   -3.0146   -1.9707   -7.4570 C   0  0  2  0  0  0  0  0  0  0  0  0
   -2.2882   -0.8052   -6.9594 O   0  0  0  0  0  0  0  0  0  0  0  0
   -2.9445   -3.1654   -6.4511 C   0  0  2  0  0  0  0  0  0  0  0  0
   -2.4791   -2.7285   -5.1148 N   0  3  0  0  0  0  0  0  0  0  0  0
   -2.0293   -4.2985   -7.0054 C   0  0  1  0  0  0  0  0  0  0  0  0
   -1.9814   -5.3862   -6.0845 O   0  0  0  0  0  0  0  0  0  0  0  0
   -2.5364   -4.8324   -8.3718 C   0  0  2  0  0  0  0  0  0  0  0  0
   -1.5189   -5.6405   -8.9528 O   0  0  0  0  0  0  0  0  0  0  0  0
   -2.9059   -3.6599   -9.3373 C   0  0  2  0  0  0  0  0  0  0  0  0
   -2.4815   -2.3813   -8.7625 O   0  0  0  0  0  0  0  0  0  0  0  0
   -4.4170   -3.5262   -9.6352 C   0  0  0  0  0  0  0  0  0  0  0  0
   -2.9652    3.2534   -5.6596 C   0  0  1  0  0  0  0  0  0  0  0  0
   -3.5984    4.4891   -5.1471 N   0  3  0  0  0  0  0  0  0  0  0  0
   -2.8245    2.1821   -4.5465 C   0  0  1  0  0  0  0  0  0  0  0  0
   -2.2982    0.7982   -5.0640 C   0  0  1  0  0  0  0  0  0  0  0  0
   -2.5181   -0.1895   -4.0213 O   0  0  0  0  0  0  0  0  0  0  0  0
   -3.0376    0.2949   -6.3579 C   0  0  1  0  0  0  0  0  0  0  0  0
   -3.1752    1.4234   -7.4304 C   0  0  1  0  0  0  0  0  0  0  0  0
   -3.9973    0.9973   -8.5813 N   0  3  0  0  0  0  0  0  0  0  0  0
   -3.7988    2.7068   -6.8373 C   0  0  0  0  0  0  0  0  0  0  0  0
   -2.7350    0.2503   -2.6493 C   0  0  1  0  0  0  0  0  0  0  0  0
   -4.2228    0.5179   -2.4549 C   0  0  1  0  0  0  0  0  0  0  0  0
   -4.7234   -0.9042   -2.2419 C   0  0  1  0  0  0  0  0  0  0  0  0
   -3.6208   -1.4907   -1.3488 C   0  0  2  0  0  0  0  0  0  0  0  0
   -2.4040   -0.8084   -1.7358 O   0  0  0  0  0  0  0  0  0  0  0  0
   -3.4530   -3.0112   -1.5195 C   0  0  0  0  0  0  0  0  0  0  0  0
   -9.7775   -1.2669   -0.8655 C   0  0  1  0  0  0  0  0  0  0  0  0
   -9.0796    0.0180   -1.3921 C   0  0  1  0  0  0  0  0  0  0  0  0
   -8.1688   -0.2165   -2.6317 C   0  0  2  0  0  0  0  0  0  0  0  0
   -7.1539   -1.3767   -2.3753 C   0  0  1  0  0  0  0  0  0  0  0  0
   -6.0217   -0.9214   -1.5815 O   0  0  0  0  0  0  0  0  0  0  0  0
   -9.2719   -2.5265   -1.6322 C   0  0  1  0  0  0  0  0  0  0  0  0
   -7.8078   -2.5131   -1.6862 O   0  0  0  0  0  0  0  0  0  0  0  0
   -9.7468   -3.8491   -0.9772 C   0  0  0  0  0  0  0  0  0  0  0  0
   -5.0392   -4.7424  -10.1875 N   0  3  0  0  0  0  0  0  0  0  0  0
   -4.4209    1.3223   -1.2920 O   0  0  0  0  0  0  0  0  0  0  0  0
  -10.0874    0.9662   -1.7410 O   0  0  0  0  0  0  0  0  0  0  0  0
   -9.4965   -1.3940    0.5302 O   0  0  0  0  0  0  0  0  0  0  0  0
   -2.2203   -3.3161   -2.1489 O   0  0  0  0  0  0  0  0  0  0  0  0
   -1.9230    2.6690   -3.5527 O   0  0  0  0  0  0  0  0  0  0  0  0
   -8.8627   -4.2986    0.1138 N   0  3  0  0  0  0  0  0  0  0  0  0
   -7.5043    1.0390   -3.0612 N   0  3  0  0  0  0  0  0  0  0  0  0
  1  2  1  1  0  0  0
  1  3  1  0  0  0  0
  1 10  1  0  0  0  0
  3  4  1  1  0  0  0
  3  5  1  0  0  0  0
  5  6  1  1  0  0  0
  5  7  1  0  0  0  0
  7  8  1  6  0  0  0
  7  9  1  0  0  0  0
  9 10  1  0  0  0  0
  9 11  1  1  0  0  0
 11 35  1  0  0  0  0
 12 13  1  1  0  0  0
 12 14  1  0  0  0  0
 12 20  1  0  0  0  0
 14 15  1  0  0  0  0
 14 40  1  1  0  0  0
 15 16  1  1  0  0  0
 15 17  1  0  0  0  0
 17  2  1  6  0  0  0
 17 18  1  0  0  0  0
 18 19  1  6  0  0  0
 18 20  1  0  0  0  0
 21 16  1  6  0  0  0
 21 22  1  0  0  0  0
 21 25  1  0  0  0  0
 22 23  1  0  0  0  0
 22 36  1  1  0  0  0
 23 24  1  0  0  0  0
 23 31  1  1  0  0  0
 24 25  1  0  0  0  0
 24 26  1  6  0  0  0
 26 39  1  0  0  0  0
 27 28  1  0  0  0  0
 27 32  1  0  0  0  0
 27 38  1  1  0  0  0
 28 29  1  0  0  0  0
 28 37  1  6  0  0  0
 29 30  1  0  0  0  0
 29 42  1  1  0  0  0
 30 31  1  1  0  0  0
 30 33  1  0  0  0  0
 32 33  1  0  0  0  0
 32 34  1  1  0  0  0
 34 41  1  0  0  0  0
M  CHG  6   4   1  13   1  19   1  35   1  41   1  42   1
M  END
>  <CHROM.1>
-100.96288468,137.33797707,45.20961411,-176.90874703,-161.86162596,-56.32182113
-35.98055318,141.51732745,-60.79235101,-19.10118931,87.41817580,75.73228120
-133.48574519,111.63541038,111.06279107,171.74719796,169.96503804,178.70021793
-176.61151180,-113.55868413,-85.16650522,-151.86307802,-4.63439615,-1.16718186
-4.37016153,0.45309491,-0.81527275,-2.75088916

>  <Name>


>  <RI>
0

>  <Rbt.Current_Directory>
/home/itssahil/PROJECTS/Mol_Feturizer/New_Systems/rnas/1ei2

>  <Rbt.Executable>
rbdock ($Id: //depot/dev/client3/rdock/2013.1/src/exe/rbdock.cxx#4 $)

>  <Rbt.Library>
libRbt.so (2013.1, Build901 2013/11/27)

>  <Rbt.Parameter_File>
/export/apps/rDock/src/rDock_2013.1_src/data/scripts/dock_solv.prm

>  <Rbt.Receptor>
prm/blind_docking_80.prm

>  <SCORE>
1.44693

>  <SCORE.INTER>
-9.97335

>  <SCORE.INTER.CONST>
1

>  <SCORE.INTER.POLAR>
-3.18703

>  <SCORE.INTER.ROT>
9

>  <SCORE.INTER.SOLV>
33.8553

>  <SCORE.INTER.VDW>
-16.9106

>  <SCORE.INTER.norm>
-0.237461

>  <SCORE.INTRA>
1.441

>  <SCORE.INTRA.DIHEDRAL>
15.2982

>  <SCORE.INTRA.DIHEDRAL.0>
40.8761

>  <SCORE.INTRA.POLAR>
-1.6457

>  <SCORE.INTRA.POLAR.0>
-0.0268208

>  <SCORE.INTRA.REPUL>
-0.59127

>  <SCORE.INTRA.REPUL.0>
0.641615

>  <SCORE.INTRA.SOLV>
-0.416687

>  <SCORE.INTRA.SOLV.lig_0>
-162.567

>  <SCORE.INTRA.VDW>
2.55195

>  <SCORE.INTRA.VDW.0>
-4.80338

>  <SCORE.INTRA.norm>
0.0343094

>  <SCORE.RESTR>
9.97929

>  <SCORE.RESTR.CAVITY>
9.97929

>  <SCORE.RESTR.norm>
0.237602

>  <SCORE.SYSTEM>
0

>  <SCORE.SYSTEM.CONST>
0

>  <SCORE.SYSTEM.DIHEDRAL>
0

>  <SCORE.SYSTEM.SOLV>
0

>  <SCORE.SYSTEM.norm>
0

>  <SCORE.heavy>
42

>  <SCORE.norm>
0.0344508

>  <RMSD>
9.868

$$$$

 OpenBabel11021811393D
libRbt.so/2013.1/901 2013/11/27
 42 45  0  0  0  0  0  0  0  0999 V2000
   -3.5338   -1.0265   -6.5700 C   0  0  2  0  0  0  0  0  0  0  0  0
   -3.9657   -2.3562   -6.1467 O   0  0  0  0  0  0  0  0  0  0  0  0
   -4.3360   -0.5304   -7.8167 C   0  0  2  0  0  0  0  0  0  0  0  0
   -5.5509   -1.3458   -8.0451 N   0  3  0  0  0  0  0  0  0  0  0  0
   -3.4327   -0.5274   -9.0867 C   0  0  1  0  0  0  0  0  0  0  0  0
   -4.1720   -0.0636  -10.2145 O   0  0  0  0  0  0  0  0  0  0  0  0
   -2.1878    0.3821   -8.9065 C   0  0  2  0  0  0  0  0  0  0  0  0
   -1.2721    0.1180   -9.9636 O   0  0  0  0  0  0  0  0  0  0  0  0
   -1.4985    0.1331   -7.5258 C   0  0  2  0  0  0  0  0  0  0  0  0
   -2.0955   -1.0311   -6.8674 O   0  0  0  0  0  0  0  0  0  0  0  0
   -1.6165    1.3087   -6.5287 C   0  0  0  0  0  0  0  0  0  0  0  0
   -2.4510   -6.2262   -4.9853 C   0  0  1  0  0  0  0  0  0  0  0  0
   -1.5562   -7.3328   -4.5791 N   0  3  0  0  0  0  0  0  0  0  0  0
   -2.6009   -5.1721   -3.8572 C   0  0  1  0  0  0  0  0  0  0  0  0
   -3.4164   -3.9018   -4.2831 C   0  0  1  0  0  0  0  0  0  0  0  0
   -3.2110   -2.8728   -3.2782 O   0  0  0  0  0  0  0  0  0  0  0  0
   -2.9666   -3.3085   -5.6687 C   0  0  1  0  0  0  0  0  0  0  0  0
   -2.8046   -4.4189   -6.7567 C   0  0  1  0  0  0  0  0  0  0  0  0
   -2.2406   -3.8858   -8.0135 N   0  3  0  0  0  0  0  0  0  0  0  0
   -1.8995   -5.5728   -6.2696 C   0  0  0  0  0  0  0  0  0  0  0  0
   -3.4985   -1.4822   -3.6047 C   0  0  1  0  0  0  0  0  0  0  0  0
   -5.0036   -1.3277   -3.7876 C   0  0  1  0  0  0  0  0  0  0  0  0
   -5.4408   -1.2378   -2.3318 C   0  0  1  0  0  0  0  0  0  0  0  0
   -4.3433   -0.3467   -1.7328 C   0  0  2  0  0  0  0  0  0  0  0  0
   -3.1486   -0.6352   -2.4978 O   0  0  0  0  0  0  0  0  0  0  0  0
   -4.0946   -0.6200   -0.2386 C   0  0  0  0  0  0  0  0  0  0  0  0
   -9.7129   -1.5878    0.0536 C   0  0  1  0  0  0  0  0  0  0  0  0
   -9.6767   -0.3658   -0.9060 C   0  0  1  0  0  0  0  0  0  0  0  0
   -9.2453   -0.7126   -2.3602 C   0  0  2  0  0  0  0  0  0  0  0  0
   -7.9045   -1.5149   -2.3752 C   0  0  1  0  0  0  0  0  0  0  0  0
   -6.7595   -0.6321   -2.2053 O   0  0  0  0  0  0  0  0  0  0  0  0
   -9.1577   -2.8627   -0.6510 C   0  0  1  0  0  0  0  0  0  0  0  0
   -7.8889   -2.5452   -1.3113 O   0  0  0  0  0  0  0  0  0  0  0  0
   -8.9396   -4.0380    0.3365 C   0  0  0  0  0  0  0  0  0  0  0  0
   -2.9081    2.0166   -6.5713 N   0  3  0  0  0  0  0  0  0  0  0  0
   -5.2828   -0.1185   -4.4935 O   0  0  0  0  0  0  0  0  0  0  0  0
  -10.9798    0.2145   -0.9442 O   0  0  0  0  0  0  0  0  0  0  0  0
   -8.9263   -1.2803    1.2067 O   0  0  0  0  0  0  0  0  0  0  0  0
   -2.7671   -1.0657   -0.0204 O   0  0  0  0  0  0  0  0  0  0  0  0
   -3.2554   -5.7810   -2.7445 O   0  0  0  0  0  0  0  0  0  0  0  0
   -9.7286   -3.9008    1.5745 N   0  3  0  0  0  0  0  0  0  0  0  0
   -9.1949    0.5000   -3.2142 N   0  3  0  0  0  0  0  0  0  0  0  0
  1  2  1  6  0  0  0
  1  3  1  0  0  0  0
  1 10  1  0  0  0  0
  3  4  1  6  0  0  0
  3  5  1  0  0  0  0
  5  6  1  6  0  0  0
  5  7  1  0  0  0  0
  7  8  1  6  0  0  0
  7  9  1  0  0  0  0
  9 10  1  0  0  0  0
  9 11  1  1  0  0  0
 11 35  1  0  0  0  0
 12 13  1  1  0  0  0
 12 14  1  0  0  0  0
 12 20  1  0  0  0  0
 14 15  1  0  0  0  0
 14 40  1  1  0  0  0
 15 16  1  1  0  0  0
 15 17  1  0  0  0  0
 17  2  1  6  0  0  0
 17 18  1  0  0  0  0
 18 19  1  6  0  0  0
 18 20  1  0  0  0  0
 21 16  1  1  0  0  0
 21 22  1  0  0  0  0
 21 25  1  0  0  0  0
 22 23  1  0  0  0  0
 22 36  1  6  0  0  0
 23 24  1  0  0  0  0
 23 31  1  6  0  0  0
 24 25  1  0  0  0  0
 24 26  1  1  0  0  0
 26 39  1  0  0  0  0
 27 28  1  0  0  0  0
 27 32  1  0  0  0  0
 27 38  1  1  0  0  0
 28 29  1  0  0  0  0
 28 37  1  6  0  0  0
 29 30  1  0  0  0  0
 29 42  1  6  0  0  0
 30 31  1  1  0  0  0
 30 33  1  0  0  0  0
 32 33  1  0  0  0  0
 32 34  1  1  0  0  0
 34 41  1  0  0  0  0
M  CHG  6   4   1  13   1  19   1  35   1  41   1  42   1
M  END
>  <CHROM.1>
141.95247190,129.09863550,12.47261864,53.87763125,-52.95535835,37.15910863
63.07349294,-64.51823027,67.95552743,161.20245548,68.08203662,172.73944318
113.53851398,83.99635428,118.29694745,48.88344101,53.85587517,151.40442153
110.94548254,-174.17921938,20.99013012,128.63149315,-4.88819912,-1.81510948
-4.14411887,0.53147044,0.71714136,-0.71978433

>  <Name>


>  <RI>
0

>  <Rbt.Current_Directory>
/home/itssahil/PROJECTS/Mol_Feturizer/New_Systems/rnas/1ei2

>  <Rbt.Executable>
rbdock ($Id: //depot/dev/client3/rdock/2013.1/src/exe/rbdock.cxx#4 $)

>  <Rbt.Library>
libRbt.so (2013.1, Build901 2013/11/27)

>  <Rbt.Parameter_File>
/export/apps/rDock/src/rDock_2013.1_src/data/scripts/dock_solv.prm

>  <Rbt.Receptor>
prm/blind_docking_100.prm

>  <SCORE>
36.1825

>  <SCORE.INTER>
28.5271

>  <SCORE.INTER.CONST>
1

>  <SCORE.INTER.POLAR>
-6.46943

>  <SCORE.INTER.ROT>
9

>  <SCORE.INTER.SOLV>
62.1948

>  <SCORE.INTER.VDW>
10.2513

>  <SCORE.INTER.norm>
0.679217

>  <SCORE.INTRA>
3.56244

>  <SCORE.INTRA.DIHEDRAL>
8.20792

>  <SCORE.INTRA.DIHEDRAL.0>
40.8761

>  <SCORE.INTRA.POLAR>
-0.383838

>  <SCORE.INTRA.POLAR.0>
-0.0268208

>  <SCORE.INTRA.REPUL>
-0.641615

>  <SCORE.INTRA.REPUL.0>
0.641615

>  <SCORE.INTRA.SOLV>
-0.82471

>  <SCORE.INTRA.SOLV.lig_0>
-162.567

>  <SCORE.INTRA.VDW>
4.38396

>  <SCORE.INTRA.VDW.0>
-4.80338

>  <SCORE.INTRA.norm>
0.08482

>  <SCORE.RESTR>
4.09296

>  <SCORE.RESTR.CAVITY>
4.09296

>  <SCORE.RESTR.norm>
0.0974515

>  <SCORE.SYSTEM>
0

>  <SCORE.SYSTEM.CONST>
0

>  <SCORE.SYSTEM.DIHEDRAL>
0

>  <SCORE.SYSTEM.SOLV>
0

>  <SCORE.SYSTEM.norm>
0

>  <SCORE.heavy>
42

>  <SCORE.norm>
0.861489

>  <RMSD>
9.890

$$$$

 OpenBabel11021811393D
libRbt.so/2013.1/901 2013/11/27
 42 45  0  0  0  0  0  0  0  0999 V2000
   -3.6621   -1.1939   -6.7015 C   0  0  2  0  0  0  0  0  0  0  0  0
   -4.0442   -2.5543   -6.3312 O   0  0  0  0  0  0  0  0  0  0  0  0
   -4.4252   -0.7085   -7.9766 C   0  0  2  0  0  0  0  0  0  0  0  0
   -5.5823   -1.5793   -8.2861 N   0  3  0  0  0  0  0  0  0  0  0  0
   -3.4601   -0.6270   -9.1977 C   0  0  1  0  0  0  0  0  0  0  0  0
   -4.1648   -0.1737  -10.3515 O   0  0  0  0  0  0  0  0  0  0  0  0
   -2.2756    0.3405   -8.9326 C   0  0  2  0  0  0  0  0  0  0  0  0
   -1.2949    0.1507   -9.9464 O   0  0  0  0  0  0  0  0  0  0  0  0
   -1.6449    0.0927   -7.5240 C   0  0  2  0  0  0  0  0  0  0  0  0
   -2.2123   -1.1169   -6.9238 O   0  0  0  0  0  0  0  0  0  0  0  0
   -1.8751    1.2351   -6.5081 C   0  0  0  0  0  0  0  0  0  0  0  0
   -2.4023   -6.3740   -5.1761 C   0  0  1  0  0  0  0  0  0  0  0  0
   -1.4730   -7.4491   -4.7626 N   0  3  0  0  0  0  0  0  0  0  0  0
   -2.6152   -5.3379   -4.0415 C   0  0  1  0  0  0  0  0  0  0  0  0
   -3.4713   -4.0961   -4.4716 C   0  0  1  0  0  0  0  0  0  0  0  0
   -3.3259   -3.0701   -3.4533 O   0  0  0  0  0  0  0  0  0  0  0  0
   -3.0182   -3.4718   -5.8424 C   0  0  1  0  0  0  0  0  0  0  0  0
   -2.7917   -4.5641   -6.9372 C   0  0  1  0  0  0  0  0  0  0  0  0
   -2.2246   -3.9967   -8.1776 N   0  3  0  0  0  0  0  0  0  0  0  0
   -1.8518   -5.6867   -6.4431 C   0  0  0  0  0  0  0  0  0  0  0  0
   -3.5048   -1.6697   -3.8136 C   0  0  1  0  0  0  0  0  0  0  0  0
   -4.9904   -1.3367   -3.7443 C   0  0  1  0  0  0  0  0  0  0  0  0
   -5.1473   -1.1310   -2.2438 C   0  0  1  0  0  0  0  0  0  0  0  0
   -3.8653   -0.3590   -1.9008 C   0  0  2  0  0  0  0  0  0  0  0  0
   -2.8677   -0.8265   -2.8399 O   0  0  0  0  0  0  0  0  0  0  0  0
   -3.3871   -0.5971   -0.4572 C   0  0  0  0  0  0  0  0  0  0  0  0
   -9.9273   -1.0105   -0.7178 C   0  0  1  0  0  0  0  0  0  0  0  0
   -9.3614    0.3733   -1.1421 C   0  0  1  0  0  0  0  0  0  0  0  0
   -8.6501    0.3715   -2.5260 C   0  0  2  0  0  0  0  0  0  0  0  0
   -7.5718   -0.7567   -2.6050 C   0  0  1  0  0  0  0  0  0  0  0  0
   -6.3435   -0.3607   -1.9313 O   0  0  0  0  0  0  0  0  0  0  0  0
   -9.5095   -2.1159   -1.7346 C   0  0  1  0  0  0  0  0  0  0  0  0
   -8.0733   -2.0151   -2.0062 O   0  0  0  0  0  0  0  0  0  0  0  0
   -9.8340   -3.5436   -1.2242 C   0  0  0  0  0  0  0  0  0  0  0  0
   -0.6397    1.8599   -6.0035 N   0  3  0  0  0  0  0  0  0  0  0  0
   -5.2499   -0.1333   -4.4675 O   0  0  0  0  0  0  0  0  0  0  0  0
  -10.4406    1.3059   -1.1867 O   0  0  0  0  0  0  0  0  0  0  0  0
   -9.4264   -1.3237    0.5837 O   0  0  0  0  0  0  0  0  0  0  0  0
   -2.7668    0.5640    0.0677 O   0  0  0  0  0  0  0  0  0  0  0  0
   -3.2669   -5.9831   -2.9476 O   0  0  0  0  0  0  0  0  0  0  0  0
   -9.1101   -3.8886    0.0131 N   0  3  0  0  0  0  0  0  0  0  0  0
   -8.1010    1.7104   -2.8548 N   0  3  0  0  0  0  0  0  0  0  0  0
  1  2  1  6  0  0  0
  1  3  1  0  0  0  0
  1 10  1  0  0  0  0
  3  4  1  6  0  0  0
  3  5  1  0  0  0  0
  5  6  1  6  0  0  0
  5  7  1  0  0  0  0
  7  8  1  6  0  0  0
  7  9  1  0  0  0  0
  9 10  1  0  0  0  0
  9 11  1  1  0  0  0
 11 35  1  0  0  0  0
 12 13  1  1  0  0  0
 12 14  1  0  0  0  0
 12 20  1  0  0  0  0
 14 15  1  0  0  0  0
 14 40  1  1  0  0  0
 15 16  1  1  0  0  0
 15 17  1  0  0  0  0
 17  2  1  6  0  0  0
 17 18  1  0  0  0  0
 18 19  1  6  0  0  0
 18 20  1  0  0  0  0
 21 16  1  1  0  0  0
 21 22  1  0  0  0  0
 21 25  1  0  0  0  0
 22 23  1  0  0  0  0
 22 36  1  6  0  0  0
 23 24  1  0  0  0  0
 23 31  1  6  0  0  0
 24 25  1  0  0  0  0
 24 26  1  1  0  0  0
 26 39  1  0  0  0  0
 27 28  1  0  0  0  0
 27 32  1  0  0  0  0
 27 38  1  1  0  0  0
 28 29  1  0  0  0  0
 28 37  1  6  0  0  0
 29 30  1  0  0  0  0
 29 42  1  1  0  0  0
 30 31  1  1  0  0  0
 30 33  1  0  0  0  0
 32 33  1  0  0  0  0
 32 34  1  1  0  0  0
 34 41  1  0  0  0  0
M  CHG  6   4   1  13   1  19   1  35   1  41   1  42   1
M  END
>  <CHROM.1>
141.04846462,127.56417419,37.96157864,-62.10750057,-66.37098623,-119.51161860
150.08222346,55.11532879,98.35956812,153.84233839,85.24186327,155.29316174
-52.61453569,46.56378014,-146.94956242,67.89586552,58.21266210,67.82794183
-49.88192137,-163.05748403,-62.09083629,45.70910007,-4.75575145,-1.67326500
-4.36068223,0.26432831,0.78357270,-0.52790719

>  <Name>


>  <RI>
0

>  <Rbt.Current_Directory>
/home/itssahil/PROJECTS/Mol_Feturizer/New_Systems/rnas/1ei2

>  <Rbt.Executable>
rbdock ($Id: //depot/dev/client3/rdock/2013.1/src/exe/rbdock.cxx#4 $)

>  <Rbt.Library>
libRbt.so (2013.1, Build901 2013/11/27)

>  <Rbt.Parameter_File>
/export/apps/rDock/src/rDock_2013.1_src/data/scripts/dock_solv.prm

>  <Rbt.Receptor>
prm/blind_docking_100.prm

>  <SCORE>
-10.4298

>  <SCORE.INTER>
-10.8304

>  <SCORE.INTER.CONST>
1

>  <SCORE.INTER.POLAR>
-5.78139

>  <SCORE.INTER.ROT>
9

>  <SCORE.INTER.SOLV>
59.9606

>  <SCORE.INTER.VDW>
-17.5358

>  <SCORE.INTER.norm>
-0.257867

>  <SCORE.INTRA>
-8.26679

>  <SCORE.INTRA.DIHEDRAL>
-1.19687

>  <SCORE.INTRA.DIHEDRAL.0>
40.8761

>  <SCORE.INTRA.POLAR>
-0.952446

>  <SCORE.INTRA.POLAR.0>
-0.0268208

>  <SCORE.INTRA.REPUL>
-0.589222

>  <SCORE.INTRA.REPUL.0>
0.641615

>  <SCORE.INTRA.SOLV>
-6.82853

>  <SCORE.INTRA.SOLV.lig_0>
-162.567

>  <SCORE.INTRA.VDW>
1.93033

>  <SCORE.INTRA.VDW.0>
-4.80338

>  <SCORE.INTRA.norm>
-0.196828

>  <SCORE.RESTR>
8.66738

>  <SCORE.RESTR.CAVITY>
8.66738

>  <SCORE.RESTR.norm>
0.206366

>  <SCORE.SYSTEM>
0

>  <SCORE.SYSTEM.CONST>
0

>  <SCORE.SYSTEM.DIHEDRAL>
0

>  <SCORE.SYSTEM.SOLV>
0

>  <SCORE.SYSTEM.norm>
0

>  <SCORE.heavy>
42

>  <SCORE.norm>
-0.248329

>  <RMSD>
9.895

$$$$

 OpenBabel11021811393D
libRbt.so/2013.1/901 2013/11/27
 42 45  0  0  0  0  0  0  0  0999 V2000
   -3.1826   -2.1743   -7.1663 C   0  0  2  0  0  0  0  0  0  0  0  0
   -4.3208   -1.2590   -7.1844 O   0  0  0  0  0  0  0  0  0  0  0  0
   -2.8271   -2.6795   -8.6023 C   0  0  2  0  0  0  0  0  0  0  0  0
   -3.4774   -1.8569   -9.6480 N   0  3  0  0  0  0  0  0  0  0  0  0
   -3.2127   -4.1803   -8.7688 C   0  0  1  0  0  0  0  0  0  0  0  0
   -2.8746   -4.6323  -10.0783 O   0  0  0  0  0  0  0  0  0  0  0  0
   -2.4853   -5.0805   -7.7344 C   0  0  2  0  0  0  0  0  0  0  0  0
   -3.0893   -6.3692   -7.7454 O   0  0  0  0  0  0  0  0  0  0  0  0
   -2.5578   -4.4672   -6.2984 C   0  0  2  0  0  0  0  0  0  0  0  0
   -3.4642   -3.3167   -6.2872 O   0  0  0  0  0  0  0  0  0  0  0  0
   -1.2041   -3.9637   -5.7468 C   0  0  0  0  0  0  0  0  0  0  0  0
   -2.8430    2.7444   -6.5449 C   0  0  1  0  0  0  0  0  0  0  0  0
   -2.6511    4.1166   -6.0248 N   0  3  0  0  0  0  0  0  0  0  0  0
   -2.4297    1.6762   -5.4987 C   0  0  1  0  0  0  0  0  0  0  0  0
   -2.7514    0.2049   -5.9364 C   0  0  1  0  0  0  0  0  0  0  0  0
   -2.6268   -0.6529   -4.7704 O   0  0  0  0  0  0  0  0  0  0  0  0
   -4.2082    0.0278   -6.5025 C   0  0  1  0  0  0  0  0  0  0  0  0
   -4.5783    1.1474   -7.5283 C   0  0  1  0  0  0  0  0  0  0  0  0
   -5.9926    1.0698   -7.9476 N   0  3  0  0  0  0  0  0  0  0  0  0
   -4.3184    2.5592   -6.9565 C   0  0  0  0  0  0  0  0  0  0  0  0
   -2.6478   -0.0625   -3.4386 C   0  0  1  0  0  0  0  0  0  0  0  0
   -4.0897    0.2786   -3.0816 C   0  0  1  0  0  0  0  0  0  0  0  0
   -4.5887   -1.0935   -2.6497 C   0  0  1  0  0  0  0  0  0  0  0  0
   -3.3896   -1.6222   -1.8498 C   0  0  2  0  0  0  0  0  0  0  0  0
   -2.2209   -1.0299   -2.4655 O   0  0  0  0  0  0  0  0  0  0  0  0
   -3.2802   -3.1573   -1.8728 C   0  0  0  0  0  0  0  0  0  0  0  0
   -9.4706   -0.9616   -0.7471 C   0  0  1  0  0  0  0  0  0  0  0  0
   -8.8171    0.0451   -1.7345 C   0  0  1  0  0  0  0  0  0  0  0  0
   -8.0127   -0.6253   -2.8854 C   0  0  2  0  0  0  0  0  0  0  0  0
   -6.9816   -1.6579   -2.3265 C   0  0  1  0  0  0  0  0  0  0  0  0
   -5.7867   -0.9929   -1.8272 O   0  0  0  0  0  0  0  0  0  0  0  0
   -9.0321   -2.4217   -1.0727 C   0  0  1  0  0  0  0  0  0  0  0  0
   -7.5775   -2.4710   -1.2414 O   0  0  0  0  0  0  0  0  0  0  0  0
   -9.4528   -3.4266    0.0305 C   0  0  0  0  0  0  0  0  0  0  0  0
   -0.7476   -2.6872   -6.3243 N   0  3  0  0  0  0  0  0  0  0  0  0
   -4.1120    1.2085   -1.9983 O   0  0  0  0  0  0  0  0  0  0  0  0
   -9.8491    0.8468   -2.3079 O   0  0  0  0  0  0  0  0  0  0  0  0
   -9.0748   -0.6131    0.5813 O   0  0  0  0  0  0  0  0  0  0  0  0
   -2.4629   -3.5897   -2.9469 O   0  0  0  0  0  0  0  0  0  0  0  0
   -1.0261    1.7842   -5.2628 O   0  0  0  0  0  0  0  0  0  0  0  0
   -8.5615   -4.5986    0.1088 N   0  3  0  0  0  0  0  0  0  0  0  0
   -7.3844    0.3879   -3.7691 N   0  3  0  0  0  0  0  0  0  0  0  0
  1  2  1  6  0  0  0
  1  3  1  0  0  0  0
  1 10  1  0  0  0  0
  3  4  1  6  0  0  0
  3  5  1  0  0  0  0
  5  6  1  6  0  0  0
  5  7  1  0  0  0  0
  7  8  1  1  0  0  0
  7  9  1  0  0  0  0
  9 10  1  0  0  0  0
  9 11  1  6  0  0  0
 11 35  1  0  0  0  0
 12 13  1  1  0  0  0
 12 14  1  0  0  0  0
 12 20  1  0  0  0  0
 14 15  1  0  0  0  0
 14 40  1  6  0  0  0
 15 16  1  1  0  0  0
 15 17  1  0  0  0  0
 17  2  1  6  0  0  0
 17 18  1  0  0  0  0
 18 19  1  1  0  0  0
 18 20  1  0  0  0  0
 21 16  1  6  0  0  0
 21 22  1  0  0  0  0
 21 25  1  0  0  0  0
 22 23  1  0  0  0  0
 22 36  1  1  0  0  0
 23 24  1  0  0  0  0
 23 31  1  1  0  0  0
 24 25  1  0  0  0  0
 24 26  1  6  0  0  0
 26 39  1  0  0  0  0
 27 28  1  0  0  0  0
 27 32  1  0  0  0  0
 27 38  1  1  0  0  0
 28 29  1  0  0  0  0
 28 37  1  6  0  0  0
 29 30  1  0  0  0  0
 29 42  1  1  0  0  0
 30 31  1  1  0  0  0
 30 33  1  0  0  0  0
 32 33  1  0  0  0  0
 32 34  1  1  0  0  0
 34 41  1  0  0  0  0
M  CHG  6   4   1  13   1  19   1  35   1  41   1  42   1
M  END
>  <CHROM.1>
-129.52129845,4.01363875,87.00179012,174.00808209,170.66417592,75.59631374
-156.49442974,-76.73234885,-158.71547565,17.92646597,77.22990320,174.88095603
-42.53280672,120.22209003,91.40463213,-52.70951201,87.04486684,-82.79389703
-76.22671053,-105.56432734,-152.44728612,154.58830983,-4.61138778,-1.27863072
-4.57661305,0.10106419,-0.86327952,-3.12119695

>  <Name>


>  <RI>
0

>  <Rbt.Current_Directory>
/home/itssahil/PROJECTS/Mol_Feturizer/New_Systems/rnas/1ei2

>  <Rbt.Executable>
rbdock ($Id: //depot/dev/client3/rdock/2013.1/src/exe/rbdock.cxx#4 $)

>  <Rbt.Library>
libRbt.so (2013.1, Build901 2013/11/27)

>  <Rbt.Parameter_File>
/export/apps/rDock/src/rDock_2013.1_src/data/scripts/dock_solv.prm

>  <Rbt.Receptor>
prm/blind_docking_80.prm

>  <SCORE>
10.2398

>  <SCORE.INTER>
-5.0851

>  <SCORE.INTER.CONST>
1

>  <SCORE.INTER.POLAR>
-2.43424

>  <SCORE.INTER.ROT>
9

>  <SCORE.INTER.SOLV>
43.4026

>  <SCORE.INTER.VDW>
-19.3435

>  <SCORE.INTER.norm>
-0.121074

>  <SCORE.INTRA>
5.82365

>  <SCORE.INTRA.DIHEDRAL>
14.5931

>  <SCORE.INTRA.DIHEDRAL.0>
40.8761

>  <SCORE.INTRA.POLAR>
-1.53659

>  <SCORE.INTRA.POLAR.0>
-0.0268208

>  <SCORE.INTRA.REPUL>
-0.613889

>  <SCORE.INTRA.REPUL.0>
0.641615

>  <SCORE.INTRA.SOLV>
-1.16128

>  <SCORE.INTRA.SOLV.lig_0>
-162.567

>  <SCORE.INTRA.VDW>
7.40159

>  <SCORE.INTRA.VDW.0>
-4.80338

>  <SCORE.INTRA.norm>
0.138658

>  <SCORE.RESTR>
9.50127

>  <SCORE.RESTR.CAVITY>
9.50127

>  <SCORE.RESTR.norm>
0.226221

>  <SCORE.SYSTEM>
0

>  <SCORE.SYSTEM.CONST>
0

>  <SCORE.SYSTEM.DIHEDRAL>
0

>  <SCORE.SYSTEM.SOLV>
0

>  <SCORE.SYSTEM.norm>
0

>  <SCORE.heavy>
42

>  <SCORE.norm>
0.243805

>  <RMSD>
9.941

$$$$

 OpenBabel11021811393D
libRbt.so/2013.1/901 2013/11/27
 42 45  0  0  0  0  0  0  0  0999 V2000
   -2.8756   -2.1807   -6.3131 C   0  0  2  0  0  0  0  0  0  0  0  0
   -2.3315   -1.1737   -5.4055 O   0  0  0  0  0  0  0  0  0  0  0  0
   -2.9199   -3.5936   -5.6455 C   0  0  2  0  0  0  0  0  0  0  0  0
   -2.7427   -3.5106   -4.1775 N   0  3  0  0  0  0  0  0  0  0  0  0
   -1.8464   -4.5329   -6.2735 C   0  0  1  0  0  0  0  0  0  0  0  0
   -1.9033   -5.8208   -5.6640 O   0  0  0  0  0  0  0  0  0  0  0  0
   -2.0526   -4.7024   -7.8026 C   0  0  2  0  0  0  0  0  0  0  0  0
   -0.8947   -5.3194   -8.3542 O   0  0  0  0  0  0  0  0  0  0  0  0
   -2.3079   -3.3253   -8.4968 C   0  0  2  0  0  0  0  0  0  0  0  0
   -2.0815   -2.2331   -7.5475 O   0  0  0  0  0  0  0  0  0  0  0  0
   -3.7416   -3.1393   -9.0448 C   0  0  0  0  0  0  0  0  0  0  0  0
   -1.6537    3.0877   -5.3872 C   0  0  1  0  0  0  0  0  0  0  0  0
   -1.7994    4.5455   -5.5968 N   0  3  0  0  0  0  0  0  0  0  0  0
   -2.7095    2.5482   -4.3869 C   0  0  1  0  0  0  0  0  0  0  0  0
   -2.7010    0.9868   -4.2396 C   0  0  1  0  0  0  0  0  0  0  0  0
   -3.9163    0.5894   -3.5498 O   0  0  0  0  0  0  0  0  0  0  0  0
   -2.6695    0.2311   -5.6189 C   0  0  1  0  0  0  0  0  0  0  0  0
   -1.6086    0.8361   -6.5943 C   0  0  1  0  0  0  0  0  0  0  0  0
   -1.6799    0.2270   -7.9381 N   0  3  0  0  0  0  0  0  0  0  0  0
   -1.7729    2.3652   -6.7452 C   0  0  0  0  0  0  0  0  0  0  0  0
   -3.9922    0.7115   -2.0999 C   0  0  1  0  0  0  0  0  0  0  0  0
   -5.4502    0.5766   -1.6771 C   0  0  1  0  0  0  0  0  0  0  0  0
   -5.5983   -0.9384   -1.7121 C   0  0  1  0  0  0  0  0  0  0  0  0
   -4.2654   -1.3947   -1.1018 C   0  0  2  0  0  0  0  0  0  0  0  0
   -3.3001   -0.3835   -1.4777 O   0  0  0  0  0  0  0  0  0  0  0  0
   -3.8119   -2.7751   -1.6096 C   0  0  0  0  0  0  0  0  0  0  0  0
  -10.1916   -2.7527    0.0446 C   0  0  1  0  0  0  0  0  0  0  0  0
   -9.9352   -1.4233   -0.7185 C   0  0  1  0  0  0  0  0  0  0  0  0
   -8.9980   -1.5694   -1.9520 C   0  0  2  0  0  0  0  0  0  0  0  0
   -7.6686   -2.2956   -1.5681 C   0  0  1  0  0  0  0  0  0  0  0  0
   -6.7372   -1.3834   -0.9203 O   0  0  0  0  0  0  0  0  0  0  0  0
   -9.3149   -3.9034   -0.5364 C   0  0  1  0  0  0  0  0  0  0  0  0
   -7.9299   -3.4449   -0.6711 O   0  0  0  0  0  0  0  0  0  0  0  0
   -9.3477   -5.1771    0.3472 C   0  0  0  0  0  0  0  0  0  0  0  0
   -4.1933   -4.2133   -9.9467 N   0  3  0  0  0  0  0  0  0  0  0  0
   -5.6190    1.0885   -0.3550 O   0  0  0  0  0  0  0  0  0  0  0  0
  -11.1909   -0.9088   -1.1599 O   0  0  0  0  0  0  0  0  0  0  0  0
   -9.8836   -2.5478    1.4252 O   0  0  0  0  0  0  0  0  0  0  0  0
   -2.4002   -2.8338   -1.7212 O   0  0  0  0  0  0  0  0  0  0  0  0
   -2.4654    3.1275   -3.1054 O   0  0  0  0  0  0  0  0  0  0  0  0
   -8.0783   -5.9267    0.3202 N   0  3  0  0  0  0  0  0  0  0  0  0
   -8.7639   -0.2614   -2.6128 N   0  3  0  0  0  0  0  0  0  0  0  0
  1  2  1  1  0  0  0
  1  3  1  0  0  0  0
  1 10  1  0  0  0  0
  3  4  1  1  0  0  0
  3  5  1  0  0  0  0
  5  6  1  1  0  0  0
  5  7  1  0  0  0  0
  7  8  1  6  0  0  0
  7  9  1  0  0  0  0
  9 10  1  0  0  0  0
  9 11  1  1  0  0  0
 11 35  1  0  0  0  0
 12 13  1  6  0  0  0
 12 14  1  0  0  0  0
 12 20  1  0  0  0  0
 14 15  1  0  0  0  0
 14 40  1  1  0  0  0
 15 16  1  6  0  0  0
 15 17  1  0  0  0  0
 17  2  1  1  0  0  0
 17 18  1  0  0  0  0
 18 19  1  6  0  0  0
 18 20  1  0  0  0  0
 21 16  1  6  0  0  0
 21 22  1  0  0  0  0
 21 25  1  0  0  0  0
 22 23  1  0  0  0  0
 22 36  1  1  0  0  0
 23 24  1  0  0  0  0
 23 31  1  1  0  0  0
 24 25  1  0  0  0  0
 24 26  1  6  0  0  0
 26 39  1  0  0  0  0
 27 28  1  0  0  0  0
 27 32  1  0  0  0  0
 27 38  1  1  0  0  0
 28 29  1  0  0  0  0
 28 37  1  6  0  0  0
 29 30  1  0  0  0  0
 29 42  1  1  0  0  0
 30 31  1  1  0  0  0
 30 33  1  0  0  0  0
 32 33  1  0  0  0  0
 32 34  1  1  0  0  0
 34 41  1  0  0  0  0
M  CHG  6   4   1  13   1  19   1  35   1  41   1  42   1
M  END
>  <CHROM.1>
-156.67412592,148.87261723,-117.24445529,-69.38798044,66.06065275,-53.57804406
-56.73500708,122.27964944,-48.62185305,-79.94653993,165.71321097,127.26389942
-54.96810440,129.70894016,145.22236158,-36.33495275,44.55590598,96.58798731
78.15477442,-105.79816218,-147.45151132,173.32364708,-4.64761950,-1.51064290
-3.74001825,0.14044895,-0.77625855,-2.77850163

>  <Name>


>  <RI>
0

>  <Rbt.Current_Directory>
/home/itssahil/PROJECTS/Mol_Feturizer/New_Systems/rnas/1ei2

>  <Rbt.Executable>
rbdock ($Id: //depot/dev/client3/rdock/2013.1/src/exe/rbdock.cxx#4 $)

>  <Rbt.Library>
libRbt.so (2013.1, Build901 2013/11/27)

>  <Rbt.Parameter_File>
/export/apps/rDock/src/rDock_2013.1_src/data/scripts/dock_solv.prm

>  <Rbt.Receptor>
prm/blind_docking_60.prm

>  <SCORE>
65.6109

>  <SCORE.INTER>
57.586

>  <SCORE.INTER.CONST>
1

>  <SCORE.INTER.POLAR>
-4.29883

>  <SCORE.INTER.ROT>
9

>  <SCORE.INTER.SOLV>
59.1961

>  <SCORE.INTER.VDW>
23.3881

>  <SCORE.INTER.norm>
1.3711

>  <SCORE.INTRA>
0.767726

>  <SCORE.INTRA.DIHEDRAL>
8.99734

>  <SCORE.INTRA.DIHEDRAL.0>
40.8761

>  <SCORE.INTRA.POLAR>
-0.945009

>  <SCORE.INTRA.POLAR.0>
-0.0268208

>  <SCORE.INTRA.REPUL>
-0.641615

>  <SCORE.INTRA.REPUL.0>
0.641615

>  <SCORE.INTRA.SOLV>
-2.5455

>  <SCORE.INTRA.SOLV.lig_0>
-162.567

>  <SCORE.INTRA.VDW>
3.96291

>  <SCORE.INTRA.VDW.0>
-4.80338

>  <SCORE.INTRA.norm>
0.0182792

>  <SCORE.RESTR>
7.25713

>  <SCORE.RESTR.CAVITY>
7.25713

>  <SCORE.RESTR.norm>
0.172789

>  <SCORE.SYSTEM>
0

>  <SCORE.SYSTEM.CONST>
0

>  <SCORE.SYSTEM.DIHEDRAL>
0

>  <SCORE.SYSTEM.SOLV>
0

>  <SCORE.SYSTEM.norm>
0

>  <SCORE.heavy>
42

>  <SCORE.norm>
1.56216

>  <RMSD>
9.960

$$$$

 OpenBabel11021811393D
libRbt.so/2013.1/901 2013/11/27
 42 45  0  0  0  0  0  0  0  0999 V2000
   -3.4578   -1.1298   -6.6322 C   0  0  2  0  0  0  0  0  0  0  0  0
   -3.8860   -2.4662   -6.2271 O   0  0  0  0  0  0  0  0  0  0  0  0
   -4.2474   -0.6270   -7.8843 C   0  0  2  0  0  0  0  0  0  0  0  0
   -5.4538   -1.4483   -8.1359 N   0  3  0  0  0  0  0  0  0  0  0  0
   -3.3281   -0.6059   -9.1426 C   0  0  1  0  0  0  0  0  0  0  0  0
   -4.0561   -0.1362  -10.2752 O   0  0  0  0  0  0  0  0  0  0  0  0
   -2.0918    0.3101   -8.9378 C   0  0  2  0  0  0  0  0  0  0  0  0
   -1.1609    0.0623   -9.9856 O   0  0  0  0  0  0  0  0  0  0  0  0
   -1.4183    0.0525   -7.5509 C   0  0  2  0  0  0  0  0  0  0  0  0
   -2.0158   -1.1219   -6.9112 O   0  0  0  0  0  0  0  0  0  0  0  0
   -1.5569    1.2176   -6.5442 C   0  0  0  0  0  0  0  0  0  0  0  0
   -2.3827   -6.3646   -5.1490 C   0  0  1  0  0  0  0  0  0  0  0  0
   -1.4874   -7.4891   -4.7960 N   0  3  0  0  0  0  0  0  0  0  0  0
   -2.4385   -5.3048   -4.0178 C   0  0  1  0  0  0  0  0  0  0  0  0
   -3.2524   -4.0185   -4.3961 C   0  0  1  0  0  0  0  0  0  0  0  0
   -2.9622   -2.9916   -3.4102 O   0  0  0  0  0  0  0  0  0  0  0  0
   -2.8790   -3.4384   -5.8096 C   0  0  1  0  0  0  0  0  0  0  0  0
   -2.8096   -4.5548   -6.9014 C   0  0  1  0  0  0  0  0  0  0  0  0
   -2.3152   -4.0368   -8.1934 N   0  3  0  0  0  0  0  0  0  0  0  0
   -1.8999   -5.7264   -6.4681 C   0  0  0  0  0  0  0  0  0  0  0  0
   -3.3631   -1.6147   -3.6676 C   0  0  1  0  0  0  0  0  0  0  0  0
   -4.8774   -1.5157   -3.5267 C   0  0  1  0  0  0  0  0  0  0  0  0
   -4.9988   -1.4308   -2.0113 C   0  0  1  0  0  0  0  0  0  0  0  0
   -3.8326   -0.4965   -1.6586 C   0  0  2  0  0  0  0  0  0  0  0  0
   -2.8177   -0.7475   -2.6598 O   0  0  0  0  0  0  0  0  0  0  0  0
   -3.2628   -0.7496   -0.2513 C   0  0  0  0  0  0  0  0  0  0  0  0
   -9.8024   -1.4979   -0.2102 C   0  0  1  0  0  0  0  0  0  0  0  0
   -9.3501   -0.2130   -0.9584 C   0  0  1  0  0  0  0  0  0  0  0  0
   -8.6397   -0.4852   -2.3157 C   0  0  2  0  0  0  0  0  0  0  0  0
   -7.4734   -1.5113   -2.1467 C   0  0  1  0  0  0  0  0  0  0  0  0
   -6.2819   -0.8718   -1.6076 O   0  0  0  0  0  0  0  0  0  0  0  0
   -9.2954   -2.7754   -0.9458 C   0  0  1  0  0  0  0  0  0  0  0  0
   -7.8719   -2.6284   -1.2596 O   0  0  0  0  0  0  0  0  0  0  0  0
   -9.5036   -4.0634   -0.1081 C   0  0  0  0  0  0  0  0  0  0  0  0
   -2.7038    1.0972   -5.6268 N   0  3  0  0  0  0  0  0  0  0  0  0
   -5.3441   -0.3225   -4.1569 O   0  0  0  0  0  0  0  0  0  0  0  0
  -10.5013    0.5945   -1.2014 O   0  0  0  0  0  0  0  0  0  0  0  0
   -9.2789   -1.4546    1.1192 O   0  0  0  0  0  0  0  0  0  0  0  0
   -2.7627    0.4497    0.3147 O   0  0  0  0  0  0  0  0  0  0  0  0
   -3.0339   -5.8968   -2.8635 O   0  0  0  0  0  0  0  0  0  0  0  0
   -9.6557   -5.2707   -0.9407 N   0  3  0  0  0  0  0  0  0  0  0  0
   -8.2006    0.7774   -2.9602 N   0  3  0  0  0  0  0  0  0  0  0  0
  1  2  1  6  0  0  0
  1  3  1  0  0  0  0
  1 10  1  0  0  0  0
  3  4  1  6  0  0  0
  3  5  1  0  0  0  0
  5  6  1  6  0  0  0
  5  7  1  0  0  0  0
  7  8  1  6  0  0  0
  7  9  1  0  0  0  0
  9 10  1  0  0  0  0
  9 11  1  1  0  0  0
 11 35  1  0  0  0  0
 12 13  1  1  0  0  0
 12 14  1  0  0  0  0
 12 20  1  0  0  0  0
 14 15  1  0  0  0  0
 14 40  1  1  0  0  0
 15 16  1  1  0  0  0
 15 17  1  0  0  0  0
 17  2  1  6  0  0  0
 17 18  1  0  0  0  0
 18 19  1  6  0  0  0
 18 20  1  0  0  0  0
 21 16  1  1  0  0  0
 21 22  1  0  0  0  0
 21 25  1  0  0  0  0
 22 23  1  0  0  0  0
 22 36  1  6  0  0  0
 23 24  1  0  0  0  0
 23 31  1  6  0  0  0
 24 25  1  0  0  0  0
 24 26  1  1  0  0  0
 26 39  1  0  0  0  0
 27 28  1  0  0  0  0
 27 32  1  0  0  0  0
 27 38  1  1  0  0  0
 28 29  1  0  0  0  0
 28 37  1  6  0  0  0
 29 30  1  0  0  0  0
 29 42  1  1  0  0  0
 30 31  1  1  0  0  0
 30 33  1  0  0  0  0
 32 33  1  0  0  0  0
 32 34  1  1  0  0  0
 34 41  1  0  0  0  0
M  CHG  6   4   1  13   1  19   1  35   1  41   1  42   1
M  END
>  <CHROM.1>
138.88840839,126.72454460,-81.04692546,-167.28468588,-53.06917417,94.08177899
178.78965010,59.44015678,145.17560662,167.35064735,72.57973060,60.30188904
54.67451387,53.58289858,-148.76295654,173.95848615,57.41264818,-143.22069979
14.18972565,-149.39275467,152.52148452,-29.03125342,-4.72573094,-1.90473919
-4.21528492,0.36968567,0.78408419,-0.53951009

>  <Name>


>  <RI>
0

>  <Rbt.Current_Directory>
/home/itssahil/PROJECTS/Mol_Feturizer/New_Systems/rnas/1ei2

>  <Rbt.Executable>
rbdock ($Id: //depot/dev/client3/rdock/2013.1/src/exe/rbdock.cxx#4 $)

>  <Rbt.Library>
libRbt.so (2013.1, Build901 2013/11/27)

>  <Rbt.Parameter_File>
/export/apps/rDock/src/rDock_2013.1_src/data/scripts/dock_solv.prm

>  <Rbt.Receptor>
prm/blind_docking_40.prm

>  <SCORE>
21.344

>  <SCORE.INTER>
9.18236

>  <SCORE.INTER.CONST>
1

>  <SCORE.INTER.POLAR>
-6.66377

>  <SCORE.INTER.ROT>
9

>  <SCORE.INTER.SOLV>
55.1812

>  <SCORE.INTER.VDW>
0.340382

>  <SCORE.INTER.norm>
0.218628

>  <SCORE.INTRA>
2.36448

>  <SCORE.INTRA.DIHEDRAL>
2.60321

>  <SCORE.INTRA.DIHEDRAL.0>
40.8761

>  <SCORE.INTRA.POLAR>
-0.647365

>  <SCORE.INTRA.POLAR.0>
-0.0268208

>  <SCORE.INTRA.REPUL>
-0.592734

>  <SCORE.INTRA.REPUL.0>
0.641615

>  <SCORE.INTRA.SOLV>
-0.939849

>  <SCORE.INTRA.SOLV.lig_0>
-162.567

>  <SCORE.INTRA.VDW>
6.6975

>  <SCORE.INTRA.VDW.0>
-4.80338

>  <SCORE.INTRA.norm>
0.0562971

>  <SCORE.RESTR>
9.79717

>  <SCORE.RESTR.CAVITY>
9.79717

>  <SCORE.RESTR.norm>
0.233266

>  <SCORE.SYSTEM>
0

>  <SCORE.SYSTEM.CONST>
0

>  <SCORE.SYSTEM.DIHEDRAL>
0

>  <SCORE.SYSTEM.SOLV>
0

>  <SCORE.SYSTEM.norm>
0

>  <SCORE.heavy>
42

>  <SCORE.norm>
0.508191

>  <RMSD>
9.973

$$$$

 OpenBabel11021811393D
libRbt.so/2013.1/901 2013/11/27
 42 45  0  0  0  0  0  0  0  0999 V2000
   -3.4899   -0.7575   -7.1407 C   0  0  2  0  0  0  0  0  0  0  0  0
   -4.6026    0.1887   -7.1251 O   0  0  0  0  0  0  0  0  0  0  0  0
   -2.7802   -0.7887   -8.5333 C   0  0  2  0  0  0  0  0  0  0  0  0
   -3.1634    0.3726   -9.3685 N   0  3  0  0  0  0  0  0  0  0  0  0
   -3.0878   -2.1229   -9.2778 C   0  0  1  0  0  0  0  0  0  0  0  0
   -2.4273   -2.1440  -10.5414 O   0  0  0  0  0  0  0  0  0  0  0  0
   -2.6260   -3.3589   -8.4603 C   0  0  2  0  0  0  0  0  0  0  0  0
   -3.1871   -4.5290   -9.0448 O   0  0  0  0  0  0  0  0  0  0  0  0
   -3.0633   -3.2450   -6.9639 C   0  0  2  0  0  0  0  0  0  0  0  0
   -3.9627   -2.1025   -6.7875 O   0  0  0  0  0  0  0  0  0  0  0  0
   -1.8977   -3.0427   -5.9686 C   0  0  0  0  0  0  0  0  0  0  0  0
   -2.5374    3.4582   -5.2106 C   0  0  1  0  0  0  0  0  0  0  0  0
   -2.2377    4.7170   -4.4923 N   0  3  0  0  0  0  0  0  0  0  0  0
   -3.2011    2.4135   -4.2756 C   0  0  1  0  0  0  0  0  0  0  0  0
   -3.6781    1.1154   -5.0156 C   0  0  1  0  0  0  0  0  0  0  0  0
   -4.5545    0.3791   -4.1208 O   0  0  0  0  0  0  0  0  0  0  0  0
   -4.4847    1.4105   -6.3334 C   0  0  1  0  0  0  0  0  0  0  0  0
   -3.7837    2.4899   -7.2201 C   0  0  1  0  0  0  0  0  0  0  0  0
   -4.6110    2.8761   -8.3813 N   0  3  0  0  0  0  0  0  0  0  0  0
   -3.4505    3.7664   -6.4156 C   0  0  0  0  0  0  0  0  0  0  0  0
   -4.2351    0.3067   -2.7011 C   0  0  1  0  0  0  0  0  0  0  0  0
   -5.5381    0.2966   -1.9104 C   0  0  1  0  0  0  0  0  0  0  0  0
   -5.9264   -1.1685   -2.0560 C   0  0  1  0  0  0  0  0  0  0  0  0
   -4.5703   -1.8675   -1.8838 C   0  0  2  0  0  0  0  0  0  0  0  0
   -3.5875   -0.9418   -2.4062 O   0  0  0  0  0  0  0  0  0  0  0  0
   -4.4852   -3.2094   -2.6330 C   0  0  0  0  0  0  0  0  0  0  0  0
   -9.7627   -3.3900    0.7366 C   0  0  1  0  0  0  0  0  0  0  0  0
   -9.6405   -1.8495    0.5709 C   0  0  1  0  0  0  0  0  0  0  0  0
   -9.3598   -1.3878   -0.8882 C   0  0  2  0  0  0  0  0  0  0  0  0
   -8.1351   -2.1457   -1.4945 C   0  0  1  0  0  0  0  0  0  0  0  0
   -6.8789   -1.5742   -1.0313 O   0  0  0  0  0  0  0  0  0  0  0  0
   -9.4235   -4.1199   -0.5985 C   0  0  1  0  0  0  0  0  0  0  0  0
   -8.1745   -3.5849   -1.1466 O   0  0  0  0  0  0  0  0  0  0  0  0
   -9.2862   -5.6535   -0.4171 C   0  0  0  0  0  0  0  0  0  0  0  0
   -0.8482   -4.0745   -6.0414 N   0  3  0  0  0  0  0  0  0  0  0  0
   -5.2790    0.6365   -0.5481 O   0  0  0  0  0  0  0  0  0  0  0  0
  -10.8596   -1.2520    1.0105 O   0  0  0  0  0  0  0  0  0  0  0  0
   -8.8644   -3.8062    1.7674 O   0  0  0  0  0  0  0  0  0  0  0  0
   -4.8591   -3.0545   -3.9913 O   0  0  0  0  0  0  0  0  0  0  0  0
   -2.2645    2.0426   -3.2643 O   0  0  0  0  0  0  0  0  0  0  0  0
  -10.0822   -6.1711    0.7110 N   0  3  0  0  0  0  0  0  0  0  0  0
   -9.2173    0.0869   -0.9720 N   0  3  0  0  0  0  0  0  0  0  0  0
  1  2  1  6  0  0  0
  1  3  1  0  0  0  0
  1 10  1  0  0  0  0
  3  4  1  6  0  0  0
  3  5  1  0  0  0  0
  5  6  1  6  0  0  0
  5  7  1  0  0  0  0
  7  8  1  6  0  0  0
  7  9  1  0  0  0  0
  9 10  1  0  0  0  0
  9 11  1  1  0  0  0
 11 35  1  0  0  0  0
 12 13  1  1  0  0  0
 12 14  1  0  0  0  0
 12 20  1  0  0  0  0
 14 15  1  0  0  0  0
 14 40  1  1  0  0  0
 15 16  1  1  0  0  0
 15 17  1  0  0  0  0
 17  2  1  6  0  0  0
 17 18  1  0  0  0  0
 18 19  1  6  0  0  0
 18 20  1  0  0  0  0
 21 16  1  6  0  0  0
 21 22  1  0  0  0  0
 21 25  1  0  0  0  0
 22 23  1  0  0  0  0
 22 36  1  1  0  0  0
 23 24  1  0  0  0  0
 23 31  1  1  0  0  0
 24 25  1  0  0  0  0
 24 26  1  6  0  0  0
 26 39  1  0  0  0  0
 27 28  1  0  0  0  0
 27 32  1  0  0  0  0
 27 38  1  1  0  0  0
 28 29  1  0  0  0  0
 28 37  1  6  0  0  0
 29 30  1  0  0  0  0
 29 42  1  1  0  0  0
 30 31  1  1  0  0  0
 30 33  1  0  0  0  0
 32 33  1  0  0  0  0
 32 34  1  1  0  0  0
 34 41  1  0  0  0  0
M  CHG  6   4   1  13   1  19   1  35   1  41   1  42   1
M  END
>  <CHROM.1>
-110.44809367,-35.69852860,78.89949335,67.13351165,-40.85632225,-55.50328555
-128.28166291,179.80984682,91.47871982,-39.33195431,145.72676298,87.30557883
55.33977956,123.87504337,51.96541074,68.95268802,-146.37155593,173.80436826
-48.09553174,-125.83400082,27.23157794,92.85546301,-5.19375397,-1.07460196
-4.03962190,-0.03392382,-0.93552460,-2.81754706

>  <Name>


>  <RI>
0

>  <Rbt.Current_Directory>
/home/itssahil/PROJECTS/Mol_Feturizer/New_Systems/rnas/1ei2

>  <Rbt.Executable>
rbdock ($Id: //depot/dev/client3/rdock/2013.1/src/exe/rbdock.cxx#4 $)

>  <Rbt.Library>
libRbt.so (2013.1, Build901 2013/11/27)

>  <Rbt.Parameter_File>
/export/apps/rDock/src/rDock_2013.1_src/data/scripts/dock_solv.prm

>  <Rbt.Receptor>
prm/blind_docking_100.prm

>  <SCORE>
56.4026

>  <SCORE.INTER>
42.1255

>  <SCORE.INTER.CONST>
1

>  <SCORE.INTER.POLAR>
-4.31838

>  <SCORE.INTER.ROT>
9

>  <SCORE.INTER.SOLV>
49.4095

>  <SCORE.INTER.VDW>
16.4085

>  <SCORE.INTER.norm>
1.00299

>  <SCORE.INTRA>
8.27381

>  <SCORE.INTRA.DIHEDRAL>
11.9449

>  <SCORE.INTRA.DIHEDRAL.0>
40.8761

>  <SCORE.INTRA.POLAR>
-0.139848

>  <SCORE.INTRA.POLAR.0>
-0.0268208

>  <SCORE.INTRA.REPUL>
-0.641615

>  <SCORE.INTRA.REPUL.0>
0.641615

>  <SCORE.INTRA.SOLV>
-1.51948

>  <SCORE.INTRA.SOLV.lig_0>
-162.567

>  <SCORE.INTRA.VDW>
6.74465

>  <SCORE.INTRA.VDW.0>
-4.80338

>  <SCORE.INTRA.norm>
0.196995

>  <SCORE.RESTR>
6.00325

>  <SCORE.RESTR.CAVITY>
6.00325

>  <SCORE.RESTR.norm>
0.142934

>  <SCORE.SYSTEM>
0

>  <SCORE.SYSTEM.CONST>
0

>  <SCORE.SYSTEM.DIHEDRAL>
0

>  <SCORE.SYSTEM.SOLV>
0

>  <SCORE.SYSTEM.norm>
0

>  <SCORE.heavy>
42

>  <SCORE.norm>
1.34292

>  <RMSD>
9.974

$$$$

 OpenBabel11021811393D
libRbt.so/2013.1/901 2013/11/27
 42 45  0  0  0  0  0  0  0  0999 V2000
   -3.5332   -1.1741   -6.6437 C   0  0  2  0  0  0  0  0  0  0  0  0
   -3.9388   -2.5304   -6.2838 O   0  0  0  0  0  0  0  0  0  0  0  0
   -4.3572   -0.6291   -7.8552 C   0  0  2  0  0  0  0  0  0  0  0  0
   -5.5612   -1.4521   -8.1122 N   0  3  0  0  0  0  0  0  0  0  0  0
   -3.4683   -0.5468   -9.1327 C   0  0  1  0  0  0  0  0  0  0  0  0
   -4.2275   -0.0391  -10.2278 O   0  0  0  0  0  0  0  0  0  0  0  0
   -2.2363    0.3731   -8.9195 C   0  0  2  0  0  0  0  0  0  0  0  0
   -1.3283    0.1781   -9.9980 O   0  0  0  0  0  0  0  0  0  0  0  0
   -1.5277    0.0662   -7.5604 C   0  0  2  0  0  0  0  0  0  0  0  0
   -2.0984   -1.1396   -6.9557 O   0  0  0  0  0  0  0  0  0  0  0  0
   -1.6535    1.1878   -6.5038 C   0  0  0  0  0  0  0  0  0  0  0  0
   -2.3859   -6.3791   -5.1023 C   0  0  1  0  0  0  0  0  0  0  0  0
   -1.4790   -7.4767   -4.6982 N   0  3  0  0  0  0  0  0  0  0  0  0
   -2.5217   -5.3123   -3.9845 C   0  0  1  0  0  0  0  0  0  0  0  0
   -3.3505   -4.0510   -4.4116 C   0  0  1  0  0  0  0  0  0  0  0  0
   -3.1331   -3.0090   -3.4227 O   0  0  0  0  0  0  0  0  0  0  0  0
   -2.9272   -3.4723   -5.8116 C   0  0  1  0  0  0  0  0  0  0  0  0
   -2.7782   -4.5950   -6.8889 C   0  0  1  0  0  0  0  0  0  0  0  0
   -2.2381   -4.0743   -8.1613 N   0  3  0  0  0  0  0  0  0  0  0  0
   -1.8593   -5.7386   -6.4035 C   0  0  0  0  0  0  0  0  0  0  0  0
   -3.5154   -1.6369   -3.7289 C   0  0  1  0  0  0  0  0  0  0  0  0
   -5.0332   -1.5261   -3.6467 C   0  0  1  0  0  0  0  0  0  0  0  0
   -5.2099   -1.4026   -2.1394 C   0  0  1  0  0  0  0  0  0  0  0  0
   -4.0516   -0.4661   -1.7670 C   0  0  2  0  0  0  0  0  0  0  0  0
   -3.0020   -0.7477   -2.7234 O   0  0  0  0  0  0  0  0  0  0  0  0
   -3.5357   -0.6871   -0.3337 C   0  0  0  0  0  0  0  0  0  0  0  0
   -9.8358   -1.5687   -0.0415 C   0  0  1  0  0  0  0  0  0  0  0  0
   -9.5493   -0.3294   -0.9345 C   0  0  1  0  0  0  0  0  0  0  0  0
   -8.9349   -0.6745   -2.3218 C   0  0  2  0  0  0  0  0  0  0  0  0
   -7.6818   -1.5958   -2.1709 C   0  0  1  0  0  0  0  0  0  0  0  0
   -6.5035   -0.8267   -1.7975 O   0  0  0  0  0  0  0  0  0  0  0  0
   -9.2931   -2.8695   -0.7075 C   0  0  1  0  0  0  0  0  0  0  0  0
   -7.9164   -2.6518   -1.1592 O   0  0  0  0  0  0  0  0  0  0  0  0
   -9.3293   -4.0863    0.2526 C   0  0  0  0  0  0  0  0  0  0  0  0
   -1.0342    0.8731   -5.2043 N   0  3  0  0  0  0  0  0  0  0  0  0
   -5.4687   -0.3465   -4.3231 O   0  0  0  0  0  0  0  0  0  0  0  0
  -10.7765    0.3689   -1.1416 O   0  0  0  0  0  0  0  0  0  0  0  0
   -9.2088   -1.3663    1.2269 O   0  0  0  0  0  0  0  0  0  0  0  0
   -2.4274    0.1530   -0.0604 O   0  0  0  0  0  0  0  0  0  0  0  0
   -3.1542   -5.9108   -2.8536 O   0  0  0  0  0  0  0  0  0  0  0  0
   -8.1392   -4.9483    0.1313 N   0  3  0  0  0  0  0  0  0  0  0  0
   -8.6512    0.5512   -3.1088 N   0  3  0  0  0  0  0  0  0  0  0  0
  1  2  1  6  0  0  0
  1  3  1  0  0  0  0
  1 10  1  0  0  0  0
  3  4  1  6  0  0  0
  3  5  1  0  0  0  0
  5  6  1  6  0  0  0
  5  7  1  0  0  0  0
  7  8  1  6  0  0  0
  7  9  1  0  0  0  0
  9 10  1  0  0  0  0
  9 11  1  1  0  0  0
 11 35  1  0  0  0  0
 12 13  1  1  0  0  0
 12 14  1  0  0  0  0
 12 20  1  0  0  0  0
 14 15  1  0  0  0  0
 14 40  1  1  0  0  0
 15 16  1  1  0  0  0
 15 17  1  0  0  0  0
 17  2  1  6  0  0  0
 17 18  1  0  0  0  0
 18 19  1  6  0  0  0
 18 20  1  0  0  0  0
 21 16  1  1  0  0  0
 21 22  1  0  0  0  0
 21 25  1  0  0  0  0
 22 23  1  0  0  0  0
 22 36  1  6  0  0  0
 23 24  1  0  0  0  0
 23 31  1  6  0  0  0
 24 25  1  0  0  0  0
 24 26  1  1  0  0  0
 26 39  1  0  0  0  0
 27 28  1  0  0  0  0
 27 32  1  0  0  0  0
 27 38  1  1  0  0  0
 28 29  1  0  0  0  0
 28 37  1  6  0  0  0
 29 30  1  0  0  0  0
 29 42  1  1  0  0  0
 30 31  1  1  0  0  0
 30 33  1  0  0  0  0
 32 33  1  0  0  0  0
 32 34  1  1  0  0  0
 34 41  1  0  0  0  0
M  CHG  6   4   1  13   1  19   1  35   1  41   1  42   1
M  END
>  <CHROM.1>
144.49075777,124.94632786,162.28928236,-60.17308948,-70.73961053,177.52803895
167.64347548,-63.54475823,62.70382160,165.24912027,74.72777771,45.03683236
-40.59091936,63.69520718,177.14235815,-77.68776732,52.00308717,69.54385105
62.83722712,-155.84474400,-140.32955587,34.43671062,-4.73130962,-1.93167348
-4.17545681,0.45146545,0.75097787,-0.64081221

>  <Name>


>  <RI>
0

>  <Rbt.Current_Directory>
/home/itssahil/PROJECTS/Mol_Feturizer/New_Systems/rnas/1ei2

>  <Rbt.Executable>
rbdock ($Id: //depot/dev/client3/rdock/2013.1/src/exe/rbdock.cxx#4 $)

>  <Rbt.Library>
libRbt.so (2013.1, Build901 2013/11/27)

>  <Rbt.Parameter_File>
/export/apps/rDock/src/rDock_2013.1_src/data/scripts/dock_solv.prm

>  <Rbt.Receptor>
prm/blind_docking_40.prm

>  <SCORE>
4.21664

>  <SCORE.INTER>
8.12966

>  <SCORE.INTER.CONST>
1

>  <SCORE.INTER.POLAR>
-6.88554

>  <SCORE.INTER.ROT>
9

>  <SCORE.INTER.SOLV>
61.7305

>  <SCORE.INTER.VDW>
-1.80526

>  <SCORE.INTER.norm>
0.193563

>  <SCORE.INTRA>
-12.9523

>  <SCORE.INTRA.DIHEDRAL>
-12.7318

>  <SCORE.INTRA.DIHEDRAL.0>
40.8761

>  <SCORE.INTRA.POLAR>
-0.206601

>  <SCORE.INTRA.POLAR.0>
-0.0268208

>  <SCORE.INTRA.REPUL>
-0.604285

>  <SCORE.INTRA.REPUL.0>
0.641615

>  <SCORE.INTRA.SOLV>
-6.66249

>  <SCORE.INTRA.SOLV.lig_0>
-162.567

>  <SCORE.INTRA.VDW>
0.468702

>  <SCORE.INTRA.VDW.0>
-4.80338

>  <SCORE.INTRA.norm>
-0.308388

>  <SCORE.RESTR>
9.03928

>  <SCORE.RESTR.CAVITY>
9.03928

>  <SCORE.RESTR.norm>
0.215221

>  <SCORE.SYSTEM>
0

>  <SCORE.SYSTEM.CONST>
0

>  <SCORE.SYSTEM.DIHEDRAL>
0

>  <SCORE.SYSTEM.SOLV>
0

>  <SCORE.SYSTEM.norm>
0

>  <SCORE.heavy>
42

>  <SCORE.norm>
0.100396

>  <RMSD>
9.977

$$$$

 OpenBabel11021811393D
libRbt.so/2013.1/901 2013/11/27
 42 45  0  0  0  0  0  0  0  0999 V2000
   -3.3780   -1.8810   -6.6356 C   0  0  2  0  0  0  0  0  0  0  0  0
   -4.3415   -0.9328   -7.1891 O   0  0  0  0  0  0  0  0  0  0  0  0
   -2.4721   -2.4981   -7.7502 C   0  0  2  0  0  0  0  0  0  0  0  0
   -2.5608   -1.7311   -9.0139 N   0  3  0  0  0  0  0  0  0  0  0  0
   -2.8382   -3.9937   -7.9914 C   0  0  1  0  0  0  0  0  0  0  0  0
   -1.9990   -4.5481   -9.0022 O   0  0  0  0  0  0  0  0  0  0  0  0
   -2.6799   -4.8413   -6.7007 C   0  0  2  0  0  0  0  0  0  0  0  0
   -3.2968   -6.1072   -6.9069 O   0  0  0  0  0  0  0  0  0  0  0  0
   -3.3242   -4.1255   -5.4695 C   0  0  2  0  0  0  0  0  0  0  0  0
   -4.0772   -2.9484   -5.9083 O   0  0  0  0  0  0  0  0  0  0  0  0
   -2.3103   -3.6284   -4.4135 C   0  0  0  0  0  0  0  0  0  0  0  0
   -2.7293    2.8076   -5.7644 C   0  0  1  0  0  0  0  0  0  0  0  0
   -2.5975    4.2009   -5.2831 N   0  3  0  0  0  0  0  0  0  0  0  0
   -3.4245    1.9051   -4.7115 C   0  0  1  0  0  0  0  0  0  0  0  0
   -3.7270    0.4539   -5.2237 C   0  0  1  0  0  0  0  0  0  0  0  0
   -4.6489   -0.1731   -4.2921 O   0  0  0  0  0  0  0  0  0  0  0  0
   -4.3959    0.4224   -6.6470 C   0  0  1  0  0  0  0  0  0  0  0  0
   -3.6714    1.3712   -7.6559 C   0  0  1  0  0  0  0  0  0  0  0  0
   -4.3847    1.4567   -8.9466 N   0  3  0  0  0  0  0  0  0  0  0  0
   -3.5175    2.8011   -7.0907 C   0  0  0  0  0  0  0  0  0  0  0  0
   -5.4729    0.6600   -3.4262 C   0  0  1  0  0  0  0  0  0  0  0  0
   -6.6312   -0.1808   -2.9028 C   0  0  1  0  0  0  0  0  0  0  0  0
   -5.9301   -0.9278   -1.7762 C   0  0  1  0  0  0  0  0  0  0  0  0
   -5.0561    0.1781   -1.1677 C   0  0  2  0  0  0  0  0  0  0  0  0
   -4.7218    1.0579   -2.2676 O   0  0  0  0  0  0  0  0  0  0  0  0
   -3.7724   -0.3616   -0.5117 C   0  0  0  0  0  0  0  0  0  0  0  0
   -9.8443   -3.3163    0.7760 C   0  0  1  0  0  0  0  0  0  0  0  0
   -9.7233   -1.7728    0.6403 C   0  0  1  0  0  0  0  0  0  0  0  0
   -9.3696   -1.2872   -0.7951 C   0  0  2  0  0  0  0  0  0  0  0  0
   -8.1101   -2.0289   -1.3477 C   0  0  1  0  0  0  0  0  0  0  0  0
   -6.8835   -1.4577   -0.8107 O   0  0  0  0  0  0  0  0  0  0  0  0
   -9.4312   -4.0237   -0.5503 C   0  0  1  0  0  0  0  0  0  0  0  0
   -8.1586   -3.4734   -1.0241 O   0  0  0  0  0  0  0  0  0  0  0  0
   -9.2940   -5.5592   -0.3851 C   0  0  0  0  0  0  0  0  0  0  0  0
   -2.4492   -4.2612   -3.0901 N   0  3  0  0  0  0  0  0  0  0  0  0
   -7.6608    0.6730   -2.4033 O   0  0  0  0  0  0  0  0  0  0  0  0
  -10.9674   -1.1888    1.0243 O   0  0  0  0  0  0  0  0  0  0  0  0
   -8.9985   -3.7434    1.8461 O   0  0  0  0  0  0  0  0  0  0  0  0
   -2.7049   -0.3961   -1.4433 O   0  0  0  0  0  0  0  0  0  0  0  0
   -2.5868    1.8157   -3.5593 O   0  0  0  0  0  0  0  0  0  0  0  0
   -9.7841   -6.3082   -1.5567 N   0  3  0  0  0  0  0  0  0  0  0  0
   -9.2321    0.1895   -0.8490 N   0  3  0  0  0  0  0  0  0  0  0  0
  1  2  1  6  0  0  0
  1  3  1  0  0  0  0
  1 10  1  0  0  0  0
  3  4  1  6  0  0  0
  3  5  1  0  0  0  0
  5  6  1  6  0  0  0
  5  7  1  0  0  0  0
  7  8  1  6  0  0  0
  7  9  1  0  0  0  0
  9 10  1  0  0  0  0
  9 11  1  1  0  0  0
 11 35  1  0  0  0  0
 12 13  1  1  0  0  0
 12 14  1  0  0  0  0
 12 20  1  0  0  0  0
 14 15  1  0  0  0  0
 14 40  1  1  0  0  0
 15 16  1  1  0  0  0
 15 17  1  0  0  0  0
 17  2  1  6  0  0  0
 17 18  1  0  0  0  0
 18 19  1  6  0  0  0
 18 20  1  0  0  0  0
 21 16  1  6  0  0  0
 21 22  1  0  0  0  0
 21 25  1  0  0  0  0
 22 23  1  0  0  0  0
 22 36  1  1  0  0  0
 23 24  1  0  0  0  0
 23 31  1  1  0  0  0
 24 25  1  0  0  0  0
 24 26  1  6  0  0  0
 26 39  1  0  0  0  0
 27 28  1  0  0  0  0
 27 32  1  0  0  0  0
 27 38  1  1  0  0  0
 28 29  1  0  0  0  0
 28 37  1  6  0  0  0
 29 30  1  0  0  0  0
 29 42  1  1  0  0  0
 30 31  1  1  0  0  0
 30 33  1  0  0  0  0
 32 33  1  0  0  0  0
 32 34  1  1  0  0  0
 34 41  1  0  0  0  0
M  CHG  6   4   1  13   1  19   1  35   1  41   1  42   1
M  END
>  <CHROM.1>
-125.64114454,-19.52090512,51.34152206,-168.13074938,73.35713642,-117.15349390
22.00675781,-66.51300684,-67.05281341,21.65052194,161.83260930,-171.40342477
-40.08244315,40.28779245,90.74840379,-174.03417621,170.12630958,-172.39435683
-40.26529298,-120.79850119,141.88956952,-131.31578485,-5.31293824,-1.38751294
-3.76095749,-0.03965923,-0.87194888,-2.94299510

>  <Name>


>  <RI>
0

>  <Rbt.Current_Directory>
/home/itssahil/PROJECTS/Mol_Feturizer/New_Systems/rnas/1ei2

>  <Rbt.Executable>
rbdock ($Id: //depot/dev/client3/rdock/2013.1/src/exe/rbdock.cxx#4 $)

>  <Rbt.Library>
libRbt.so (2013.1, Build901 2013/11/27)

>  <Rbt.Parameter_File>
/export/apps/rDock/src/rDock_2013.1_src/data/scripts/dock_solv.prm

>  <Rbt.Receptor>
prm/blind_docking_40.prm

>  <SCORE>
42.7726

>  <SCORE.INTER>
26.3568

>  <SCORE.INTER.CONST>
1

>  <SCORE.INTER.POLAR>
-6.70919

>  <SCORE.INTER.ROT>
9

>  <SCORE.INTER.SOLV>
56.2899

>  <SCORE.INTER.VDW>
11.5719

>  <SCORE.INTER.norm>
0.627542

>  <SCORE.INTRA>
7.82492

>  <SCORE.INTRA.DIHEDRAL>
11.0615

>  <SCORE.INTRA.DIHEDRAL.0>
40.8761

>  <SCORE.INTRA.POLAR>
-0.0948624

>  <SCORE.INTRA.POLAR.0>
-0.0268208

>  <SCORE.INTRA.REPUL>
-0.588601

>  <SCORE.INTRA.REPUL.0>
0.641615

>  <SCORE.INTRA.SOLV>
-5.63887

>  <SCORE.INTRA.SOLV.lig_0>
-162.567

>  <SCORE.INTRA.VDW>
8.37916

>  <SCORE.INTRA.VDW.0>
-4.80338

>  <SCORE.INTRA.norm>
0.186308

>  <SCORE.RESTR>
8.59092

>  <SCORE.RESTR.CAVITY>
8.59092

>  <SCORE.RESTR.norm>
0.204546

>  <SCORE.SYSTEM>
0

>  <SCORE.SYSTEM.CONST>
0

>  <SCORE.SYSTEM.DIHEDRAL>
0

>  <SCORE.SYSTEM.SOLV>
0

>  <SCORE.SYSTEM.norm>
0

>  <SCORE.heavy>
42

>  <SCORE.norm>
1.0184

>  <RMSD>
9.993

$$$$

 OpenBabel11021811393D
libRbt.so/2013.1/901 2013/11/27
 42 45  0  0  0  0  0  0  0  0999 V2000
   -2.5138   -3.0438   -6.4802 C   0  0  2  0  0  0  0  0  0  0  0  0
   -2.0804   -1.6611   -6.2956 O   0  0  0  0  0  0  0  0  0  0  0  0
   -3.3830   -3.5400   -5.2793 C   0  0  2  0  0  0  0  0  0  0  0  0
   -3.8471   -2.4132   -4.4379 N   0  3  0  0  0  0  0  0  0  0  0  0
   -2.5955   -4.5752   -4.4209 C   0  0  1  0  0  0  0  0  0  0  0  0
   -3.4016   -5.0279   -3.3352 O   0  0  0  0  0  0  0  0  0  0  0  0
   -2.1615   -5.8077   -5.2588 C   0  0  2  0  0  0  0  0  0  0  0  0
   -1.2150   -6.5603   -4.5082 O   0  0  0  0  0  0  0  0  0  0  0  0
   -1.5384   -5.3737   -6.6252 C   0  0  2  0  0  0  0  0  0  0  0  0
   -1.3491   -3.9216   -6.6539 O   0  0  0  0  0  0  0  0  0  0  0  0
   -2.3951   -5.7283   -7.8624 C   0  0  0  0  0  0  0  0  0  0  0  0
   -3.3637    2.3688   -7.1516 C   0  0  1  0  0  0  0  0  0  0  0  0
   -4.1942    3.5580   -7.4458 N   0  3  0  0  0  0  0  0  0  0  0  0
   -3.5894    1.8611   -5.7033 C   0  0  1  0  0  0  0  0  0  0  0  0
   -2.8500    0.5156   -5.3827 C   0  0  1  0  0  0  0  0  0  0  0  0
   -3.3894   -0.0141   -4.1419 O   0  0  0  0  0  0  0  0  0  0  0  0
   -3.0454   -0.5823   -6.4920 C   0  0  1  0  0  0  0  0  0  0  0  0
   -2.8340   -0.0066   -7.9297 C   0  0  1  0  0  0  0  0  0  0  0  0
   -3.1618   -0.9956   -8.9767 N   0  3  0  0  0  0  0  0  0  0  0  0
   -3.6871    1.2586   -8.1731 C   0  0  0  0  0  0  0  0  0  0  0  0
   -3.9536    0.8986   -3.1563 C   0  0  1  0  0  0  0  0  0  0  0  0
   -5.4255    0.5539   -2.9624 C   0  0  1  0  0  0  0  0  0  0  0  0
   -5.2985   -0.6336   -2.0178 C   0  0  1  0  0  0  0  0  0  0  0  0
   -4.1815   -0.1626   -1.0757 C   0  0  2  0  0  0  0  0  0  0  0  0
   -3.3298    0.6891   -1.8788 O   0  0  0  0  0  0  0  0  0  0  0  0
   -3.3629   -1.3243   -0.4843 C   0  0  0  0  0  0  0  0  0  0  0  0
   -9.7128   -2.5757    0.0479 C   0  0  1  0  0  0  0  0  0  0  0  0
   -9.6879   -1.3633   -0.9242 C   0  0  1  0  0  0  0  0  0  0  0  0
   -8.7763   -1.5657   -2.1688 C   0  0  2  0  0  0  0  0  0  0  0  0
   -7.3398   -2.0155   -1.7494 C   0  0  1  0  0  0  0  0  0  0  0  0
   -6.5421   -0.8832   -1.3015 O   0  0  0  0  0  0  0  0  0  0  0  0
   -8.6862   -3.6623   -0.3946 C   0  0  1  0  0  0  0  0  0  0  0  0
   -7.3934   -3.0314   -0.6729 O   0  0  0  0  0  0  0  0  0  0  0  0
   -8.4952   -4.7678    0.6757 C   0  0  0  0  0  0  0  0  0  0  0  0
   -3.1406   -6.9939   -7.7448 N   0  3  0  0  0  0  0  0  0  0  0  0
   -6.0998    1.6478   -2.3401 O   0  0  0  0  0  0  0  0  0  0  0  0
  -11.0207   -1.1184   -1.3715 O   0  0  0  0  0  0  0  0  0  0  0  0
   -9.3994   -2.1080    1.3617 O   0  0  0  0  0  0  0  0  0  0  0  0
   -4.0801   -2.5436   -0.5712 O   0  0  0  0  0  0  0  0  0  0  0  0
   -3.1333    2.8596   -4.7910 O   0  0  0  0  0  0  0  0  0  0  0  0
   -9.7702   -5.3528    1.1297 N   0  3  0  0  0  0  0  0  0  0  0  0
   -8.7672   -0.3610   -3.0354 N   0  3  0  0  0  0  0  0  0  0  0  0
  1  2  1  1  0  0  0
  1  3  1  0  0  0  0
  1 10  1  0  0  0  0
  3  4  1  1  0  0  0
  3  5  1  0  0  0  0
  5  6  1  1  0  0  0
  5  7  1  0  0  0  0
  7  8  1  1  0  0  0
  7  9  1  0  0  0  0
  9 10  1  0  0  0  0
  9 11  1  6  0  0  0
 11 35  1  0  0  0  0
 12 13  1  6  0  0  0
 12 14  1  0  0  0  0
 12 20  1  0  0  0  0
 14 15  1  0  0  0  0
 14 40  1  1  0  0  0
 15 16  1  1  0  0  0
 15 17  1  0  0  0  0
 17  2  1  1  0  0  0
 17 18  1  0  0  0  0
 18 19  1  6  0  0  0
 18 20  1  0  0  0  0
 21 16  1  6  0  0  0
 21 22  1  0  0  0  0
 21 25  1  0  0  0  0
 22 23  1  0  0  0  0
 22 36  1  1  0  0  0
 23 24  1  0  0  0  0
 23 31  1  1  0  0  0
 24 25  1  0  0  0  0
 24 26  1  6  0  0  0
 26 39  1  0  0  0  0
 27 28  1  0  0  0  0
 27 32  1  0  0  0  0
 27 38  1  1  0  0  0
 28 29  1  0  0  0  0
 28 37  1  6  0  0  0
 29 30  1  0  0  0  0
 29 42  1  1  0  0  0
 30 31  1  1  0  0  0
 30 33  1  0  0  0  0
 32 33  1  0  0  0  0
 32 34  1  1  0  0  0
 34 41  1  0  0  0  0
M  CHG  6   4   1  13   1  19   1  35   1  41   1  42   1
M  END
>  <CHROM.1>
-75.12117762,139.15961524,-54.79927373,-154.99060464,-170.17724871,-34.65828127
-65.42317637,94.61633565,137.82037900,-27.10830232,118.43326605,32.28840116
85.01453717,104.27225050,-19.75406620,83.85194568,63.98187782,-68.19875116
-148.84879814,-121.94645738,51.58821073,49.00125168,-4.89204958,-1.76544726
-3.73961212,-0.19244524,-0.80093791,2.93924866

>  <Name>


>  <RI>
0

>  <Rbt.Current_Directory>
/home/itssahil/PROJECTS/Mol_Feturizer/New_Systems/rnas/1ei2

>  <Rbt.Executable>
rbdock ($Id: //depot/dev/client3/rdock/2013.1/src/exe/rbdock.cxx#4 $)

>  <Rbt.Library>
libRbt.so (2013.1, Build901 2013/11/27)

>  <Rbt.Parameter_File>
/export/apps/rDock/src/rDock_2013.1_src/data/scripts/dock_solv.prm

>  <Rbt.Receptor>
prm/blind_docking_40.prm

>  <SCORE>
36.7652

>  <SCORE.INTER>
18.7319

>  <SCORE.INTER.CONST>
1

>  <SCORE.INTER.POLAR>
-6.71201

>  <SCORE.INTER.ROT>
9

>  <SCORE.INTER.SOLV>
46.5397

>  <SCORE.INTER.VDW>
9.74804

>  <SCORE.INTER.norm>
0.445998

>  <SCORE.INTRA>
9.99911

>  <SCORE.INTRA.DIHEDRAL>
17.1418

>  <SCORE.INTRA.DIHEDRAL.0>
40.8761

>  <SCORE.INTRA.POLAR>
-0.331781

>  <SCORE.INTRA.POLAR.0>
-0.0268208

>  <SCORE.INTRA.REPUL>
-0.0345577

>  <SCORE.INTRA.REPUL.0>
0.641615

>  <SCORE.INTRA.SOLV>
-0.691134

>  <SCORE.INTRA.SOLV.lig_0>
-162.567

>  <SCORE.INTRA.VDW>
3.07463

>  <SCORE.INTRA.VDW.0>
-4.80338

>  <SCORE.INTRA.norm>
0.238074

>  <SCORE.RESTR>
8.03418

>  <SCORE.RESTR.CAVITY>
8.03418

>  <SCORE.RESTR.norm>
0.19129

>  <SCORE.SYSTEM>
0

>  <SCORE.SYSTEM.CONST>
0

>  <SCORE.SYSTEM.DIHEDRAL>
0

>  <SCORE.SYSTEM.SOLV>
0

>  <SCORE.SYSTEM.norm>
0

>  <SCORE.heavy>
42

>  <SCORE.norm>
0.875362

>  <RMSD>
10.008

$$$$

 OpenBabel11021811393D
libRbt.so/2013.1/901 2013/11/27
 42 45  0  0  0  0  0  0  0  0999 V2000
   -3.5395   -1.5266   -8.7826 C   0  0  2  0  0  0  0  0  0  0  0  0
   -3.9479   -2.7196   -8.0453 O   0  0  0  0  0  0  0  0  0  0  0  0
   -4.7725   -0.6755   -9.2292 C   0  0  2  0  0  0  0  0  0  0  0  0
   -6.0036   -1.0779   -8.5111 N   0  3  0  0  0  0  0  0  0  0  0  0
   -4.9809   -0.7756  -10.7704 C   0  0  1  0  0  0  0  0  0  0  0  0
   -6.1014    0.0123  -11.1669 O   0  0  0  0  0  0  0  0  0  0  0  0
   -3.7333   -0.2865  -11.5538 C   0  0  2  0  0  0  0  0  0  0  0  0
   -3.8708   -0.6699  -12.9175 O   0  0  0  0  0  0  0  0  0  0  0  0
   -2.4185   -0.8866  -10.9585 C   0  0  2  0  0  0  0  0  0  0  0  0
   -2.7385   -1.9039   -9.9544 O   0  0  0  0  0  0  0  0  0  0  0  0
   -1.5013    0.1441  -10.2609 C   0  0  0  0  0  0  0  0  0  0  0  0
   -2.4560   -5.9362   -5.5861 C   0  0  1  0  0  0  0  0  0  0  0  0
   -1.5644   -6.8474   -4.8344 N   0  3  0  0  0  0  0  0  0  0  0  0
   -2.5191   -4.5321   -4.9297 C   0  0  1  0  0  0  0  0  0  0  0  0
   -3.3291   -3.4799   -5.7644 C   0  0  1  0  0  0  0  0  0  0  0  0
   -3.0452   -2.1597   -5.2283 O   0  0  0  0  0  0  0  0  0  0  0  0
   -2.9449   -3.4654   -7.2896 C   0  0  1  0  0  0  0  0  0  0  0  0
   -2.8685   -4.9072   -7.8883 C   0  0  1  0  0  0  0  0  0  0  0  0
   -2.3643   -4.9052   -9.2766 N   0  3  0  0  0  0  0  0  0  0  0  0
   -1.9631   -5.8324   -7.0445 C   0  0  0  0  0  0  0  0  0  0  0  0
   -3.7897   -1.0085   -5.7215 C   0  0  1  0  0  0  0  0  0  0  0  0
   -4.5991   -0.4243   -4.5698 C   0  0  1  0  0  0  0  0  0  0  0  0
   -3.5165    0.3825   -3.8660 C   0  0  1  0  0  0  0  0  0  0  0  0
   -2.7620    0.9933   -5.0555 C   0  0  2  0  0  0  0  0  0  0  0  0
   -2.8805    0.0276   -6.1274 O   0  0  0  0  0  0  0  0  0  0  0  0
   -1.2784    1.2675   -4.7509 C   0  0  0  0  0  0  0  0  0  0  0  0
   -5.0337   -2.0629   -1.6608 C   0  0  1  0  0  0  0  0  0  0  0  0
   -3.6606   -1.3650   -1.4538 C   0  0  1  0  0  0  0  0  0  0  0  0
   -3.7629    0.0904   -0.9128 C   0  0  2  0  0  0  0  0  0  0  0  0
   -4.7364    0.9490   -1.7828 C   0  0  1  0  0  0  0  0  0  0  0  0
   -4.0883    1.4074   -3.0031 O   0  0  0  0  0  0  0  0  0  0  0  0
   -6.2058   -1.0663   -1.4094 C   0  0  1  0  0  0  0  0  0  0  0  0
   -5.9531    0.1813   -2.1348 O   0  0  0  0  0  0  0  0  0  0  0  0
   -7.5774   -1.6424   -1.8461 C   0  0  0  0  0  0  0  0  0  0  0  0
   -1.5641    0.1178   -8.7889 N   0  3  0  0  0  0  0  0  0  0  0  0
   -5.6302    0.4194   -5.0832 O   0  0  0  0  0  0  0  0  0  0  0  0
   -2.8966   -2.1405   -0.5312 O   0  0  0  0  0  0  0  0  0  0  0  0
   -5.0899   -2.5617   -2.9991 O   0  0  0  0  0  0  0  0  0  0  0  0
   -0.4409    0.3980   -5.4932 O   0  0  0  0  0  0  0  0  0  0  0  0
   -3.1234   -4.6543   -3.6424 O   0  0  0  0  0  0  0  0  0  0  0  0
   -8.7094   -0.7752   -1.4710 N   0  3  0  0  0  0  0  0  0  0  0  0
   -2.4227    0.7120   -0.7732 N   0  3  0  0  0  0  0  0  0  0  0  0
  1  2  1  6  0  0  0
  1  3  1  0  0  0  0
  1 10  1  0  0  0  0
  3  4  1  1  0  0  0
  3  5  1  0  0  0  0
  5  6  1  6  0  0  0
  5  7  1  0  0  0  0
  7  8  1  6  0  0  0
  7  9  1  0  0  0  0
  9 10  1  0  0  0  0
  9 11  1  1  0  0  0
 11 35  1  0  0  0  0
 12 13  1  1  0  0  0
 12 14  1  0  0  0  0
 12 20  1  0  0  0  0
 14 15  1  0  0  0  0
 14 40  1  1  0  0  0
 15 16  1  1  0  0  0
 15 17  1  0  0  0  0
 17  2  1  6  0  0  0
 17 18  1  0  0  0  0
 18 19  1  6  0  0  0
 18 20  1  0  0  0  0
 21 16  1  1  0  0  0
 21 22  1  0  0  0  0
 21 25  1  0  0  0  0
 22 23  1  0  0  0  0
 22 36  1  6  0  0  0
 23 24  1  0  0  0  0
 23 31  1  1  0  0  0
 24 25  1  0  0  0  0
 24 26  1  1  0  0  0
 26 39  1  0  0  0  0
 27 28  1  0  0  0  0
 27 32  1  0  0  0  0
 27 38  1  6  0  0  0
 28 29  1  0  0  0  0
 28 37  1  1  0  0  0
 29 30  1  0  0  0  0
 29 42  1  6  0  0  0
 30 31  1  6  0  0  0
 30 33  1  0  0  0  0
 32 33  1  0  0  0  0
 32 34  1  6  0  0  0
 34 41  1  0  0  0  0
M  CHG  6   4   1  13   1  19   1  35   1  41   1  42   1
M  END
>  <CHROM.1>
-166.00573206,119.15533055,14.89962146,-68.80056314,76.06049919,102.53724421
-71.66392685,8.12888359,66.80256444,-172.91028962,116.37168651,93.69157140
-41.45549542,71.67472878,111.31985294,70.89660408,69.17938485,65.89069417
95.83148535,56.09394370,173.34152645,174.17169426,-3.72858592,-1.50321345
-5.78946087,1.16203862,1.16958861,-1.27319760

>  <Name>


>  <RI>
0

>  <Rbt.Current_Directory>
/home/itssahil/PROJECTS/Mol_Feturizer/New_Systems/rnas/1ei2

>  <Rbt.Executable>
rbdock ($Id: //depot/dev/client3/rdock/2013.1/src/exe/rbdock.cxx#4 $)

>  <Rbt.Library>
libRbt.so (2013.1, Build901 2013/11/27)

>  <Rbt.Parameter_File>
/export/apps/rDock/src/rDock_2013.1_src/data/scripts/dock_solv.prm

>  <Rbt.Receptor>
prm/blind_docking_100.prm

>  <SCORE>
-26.3266

>  <SCORE.INTER>
-30.1152

>  <SCORE.INTER.CONST>
1

>  <SCORE.INTER.POLAR>
-7.81539

>  <SCORE.INTER.ROT>
9

>  <SCORE.INTER.SOLV>
41.1788

>  <SCORE.INTER.VDW>
-17.3518

>  <SCORE.INTER.norm>
-0.717029

>  <SCORE.INTRA>
-7.76097

>  <SCORE.INTRA.DIHEDRAL>
1.08851

>  <SCORE.INTRA.DIHEDRAL.0>
40.8761

>  <SCORE.INTRA.POLAR>
-2.47189

>  <SCORE.INTRA.POLAR.0>
-0.0268208

>  <SCORE.INTRA.REPUL>
-0.641615

>  <SCORE.INTRA.REPUL.0>
0.641615

>  <SCORE.INTRA.SOLV>
1.96389

>  <SCORE.INTRA.SOLV.lig_0>
-162.567

>  <SCORE.INTRA.VDW>
2.32532

>  <SCORE.INTRA.VDW.0>
-4.80338

>  <SCORE.INTRA.norm>
-0.184785

>  <SCORE.RESTR>
11.5496

>  <SCORE.RESTR.CAVITY>
11.5496

>  <SCORE.RESTR.norm>
0.27499

>  <SCORE.SYSTEM>
0

>  <SCORE.SYSTEM.CONST>
0

>  <SCORE.SYSTEM.DIHEDRAL>
0

>  <SCORE.SYSTEM.SOLV>
0

>  <SCORE.SYSTEM.norm>
0

>  <SCORE.heavy>
42

>  <SCORE.norm>
-0.626823

>  <RMSD>
10.012

$$$$

 OpenBabel11021811393D
libRbt.so/2013.1/901 2013/11/27
 42 45  0  0  0  0  0  0  0  0999 V2000
   -4.0645   -0.2396   -2.9143 C   0  0  2  0  0  0  0  0  0  0  0  0
   -2.8180   -0.9218   -3.2525 O   0  0  0  0  0  0  0  0  0  0  0  0
   -4.1444    0.0905   -1.3883 C   0  0  2  0  0  0  0  0  0  0  0  0
   -2.8238   -0.0389   -0.7310 N   0  3  0  0  0  0  0  0  0  0  0  0
   -5.1973   -0.8170   -0.6835 C   0  0  1  0  0  0  0  0  0  0  0  0
   -5.2685   -0.4999    0.7050 O   0  0  0  0  0  0  0  0  0  0  0  0
   -6.6113   -0.6458   -1.3006 C   0  0  2  0  0  0  0  0  0  0  0  0
   -7.4486   -1.6923   -0.8217 O   0  0  0  0  0  0  0  0  0  0  0  0
   -6.5560   -0.6761   -2.8625 C   0  0  2  0  0  0  0  0  0  0  0  0
   -5.2159   -1.0602   -3.3118 O   0  0  0  0  0  0  0  0  0  0  0  0
   -6.8752    0.6755   -3.5420 C   0  0  0  0  0  0  0  0  0  0  0  0
   -2.9482    0.0323   -7.4588 C   0  0  1  0  0  0  0  0  0  0  0  0
   -2.6331    0.1143   -8.9025 N   0  3  0  0  0  0  0  0  0  0  0  0
   -3.4047   -1.3944   -7.0560 C   0  0  1  0  0  0  0  0  0  0  0  0
   -3.6081   -1.5808   -5.5120 C   0  0  1  0  0  0  0  0  0  0  0  0
   -3.7098   -3.0037   -5.2362 O   0  0  0  0  0  0  0  0  0  0  0  0
   -2.4172   -1.0151   -4.6540 C   0  0  1  0  0  0  0  0  0  0  0  0
   -1.9825    0.4109   -5.1237 C   0  0  1  0  0  0  0  0  0  0  0  0
   -0.7719    0.8813   -4.4200 N   0  3  0  0  0  0  0  0  0  0  0  0
   -1.7087    0.4565   -6.6438 C   0  0  0  0  0  0  0  0  0  0  0  0
   -2.5050   -3.7646   -4.9324 C   0  0  1  0  0  0  0  0  0  0  0  0
   -2.8564   -5.2476   -4.9256 C   0  0  1  0  0  0  0  0  0  0  0  0
   -2.8444   -5.5308   -6.4216 C   0  0  1  0  0  0  0  0  0  0  0  0
   -1.6180   -4.7286   -6.8794 C   0  0  2  0  0  0  0  0  0  0  0  0
   -1.5389   -3.5950   -5.9825 O   0  0  0  0  0  0  0  0  0  0  0  0
   -1.7246   -4.2449   -8.3368 C   0  0  0  0  0  0  0  0  0  0  0  0
   -3.7027   -8.1214  -10.2112 C   0  0  1  0  0  0  0  0  0  0  0  0
   -2.8519   -8.9431   -9.2031 C   0  0  1  0  0  0  0  0  0  0  0  0
   -3.4799   -9.0534   -7.7837 C   0  0  2  0  0  0  0  0  0  0  0  0
   -3.8613   -7.6451   -7.2241 C   0  0  1  0  0  0  0  0  0  0  0  0
   -2.6943   -6.9535   -6.6959 O   0  0  0  0  0  0  0  0  0  0  0  0
   -4.9303   -7.4733   -9.5018 C   0  0  1  0  0  0  0  0  0  0  0  0
   -4.4917   -6.8091   -8.2717 O   0  0  0  0  0  0  0  0  0  0  0  0
   -5.6619   -6.4463  -10.4040 C   0  0  0  0  0  0  0  0  0  0  0  0
   -8.2132    1.2109   -3.2351 N   0  3  0  0  0  0  0  0  0  0  0  0
   -1.8382   -5.9821   -4.2457 O   0  0  0  0  0  0  0  0  0  0  0  0
   -2.6797  -10.2589   -9.7278 O   0  0  0  0  0  0  0  0  0  0  0  0
   -2.8724   -7.1080  -10.7826 O   0  0  0  0  0  0  0  0  0  0  0  0
   -3.0805   -4.1050   -8.7249 O   0  0  0  0  0  0  0  0  0  0  0  0
   -4.6366   -1.6852   -7.7156 O   0  0  0  0  0  0  0  0  0  0  0  0
   -6.5017   -7.0839  -11.4345 N   0  3  0  0  0  0  0  0  0  0  0  0
   -2.6030   -9.8162   -6.8610 N   0  3  0  0  0  0  0  0  0  0  0  0
  1  2  1  1  0  0  0
  1  3  1  0  0  0  0
  1 10  1  0  0  0  0
  3  4  1  1  0  0  0
  3  5  1  0  0  0  0
  5  6  1  1  0  0  0
  5  7  1  0  0  0  0
  7  8  1  1  0  0  0
  7  9  1  0  0  0  0
  9 10  1  0  0  0  0
  9 11  1  6  0  0  0
 11 35  1  0  0  0  0
 12 13  1  6  0  0  0
 12 14  1  0  0  0  0
 12 20  1  0  0  0  0
 14 15  1  0  0  0  0
 14 40  1  6  0  0  0
 15 16  1  6  0  0  0
 15 17  1  0  0  0  0
 17  2  1  1  0  0  0
 17 18  1  0  0  0  0
 18 19  1  1  0  0  0
 18 20  1  0  0  0  0
 21 16  1  6  0  0  0
 21 22  1  0  0  0  0
 21 25  1  0  0  0  0
 22 23  1  0  0  0  0
 22 36  1  1  0  0  0
 23 24  1  0  0  0  0
 23 31  1  1  0  0  0
 24 25  1  0  0  0  0
 24 26  1  6  0  0  0
 26 39  1  0  0  0  0
 27 28  1  0  0  0  0
 27 32  1  0  0  0  0
 27 38  1  1  0  0  0
 28 29  1  0  0  0  0
 28 37  1  6  0  0  0
 29 30  1  0  0  0  0
 29 42  1  1  0  0  0
 30 31  1  6  0  0  0
 30 33  1  0  0  0  0
 32 33  1  0  0  0  0
 32 34  1  6  0  0  0
 34 41  1  0  0  0  0
M  CHG  6   4   1  13   1  19   1  35   1  41   1  42   1
M  END
>  <CHROM.1>
-165.07741432,-51.09728904,94.95339430,59.16837805,-50.13209419,-59.63109580
-179.28743128,57.70610303,-59.21340113,90.42248001,-170.30197828,-178.85488823
-55.61590709,109.20839199,26.35463109,-69.39215833,173.63403442,164.74807025
-171.88133385,166.60140638,76.54797101,-158.59947399,-3.75407230,-3.44681705
-5.83082905,1.86696938,1.14072786,0.44383197

>  <Name>


>  <RI>
0

>  <Rbt.Current_Directory>
/home/itssahil/PROJECTS/Mol_Feturizer/New_Systems/rnas/1ei2

>  <Rbt.Executable>
rbdock ($Id: //depot/dev/client3/rdock/2013.1/src/exe/rbdock.cxx#4 $)

>  <Rbt.Library>
libRbt.so (2013.1, Build901 2013/11/27)

>  <Rbt.Parameter_File>
/export/apps/rDock/src/rDock_2013.1_src/data/scripts/dock_solv.prm

>  <Rbt.Receptor>
prm/blind_docking_20.prm

>  <SCORE>
-18.1429

>  <SCORE.INTER>
-20.7585

>  <SCORE.INTER.CONST>
1

>  <SCORE.INTER.POLAR>
-4.4539

>  <SCORE.INTER.ROT>
9

>  <SCORE.INTER.SOLV>
35.7954

>  <SCORE.INTER.VDW>
-20.5244

>  <SCORE.INTER.norm>
-0.494249

>  <SCORE.INTRA>
-19.9662

>  <SCORE.INTRA.DIHEDRAL>
-17.1562

>  <SCORE.INTRA.DIHEDRAL.0>
40.8761

>  <SCORE.INTRA.POLAR>
-1.27296

>  <SCORE.INTRA.POLAR.0>
-0.0268208

>  <SCORE.INTRA.REPUL>
-0.610571

>  <SCORE.INTRA.REPUL.0>
0.641615

>  <SCORE.INTRA.SOLV>
-10.6905

>  <SCORE.INTRA.SOLV.lig_0>
-162.567

>  <SCORE.INTRA.VDW>
1.33802

>  <SCORE.INTRA.VDW.0>
-4.80338

>  <SCORE.INTRA.norm>
-0.475387

>  <SCORE.RESTR>
22.5819

>  <SCORE.RESTR.CAVITY>
22.5819

>  <SCORE.RESTR.norm>
0.537663

>  <SCORE.SYSTEM>
0

>  <SCORE.SYSTEM.CONST>
0

>  <SCORE.SYSTEM.DIHEDRAL>
0

>  <SCORE.SYSTEM.SOLV>
0

>  <SCORE.SYSTEM.norm>
0

>  <SCORE.heavy>
42

>  <SCORE.norm>
-0.431973

>  <RMSD>
10.026

$$$$

 OpenBabel11021811393D
libRbt.so/2013.1/901 2013/11/27
 42 45  0  0  0  0  0  0  0  0999 V2000
   -3.4696   -0.5947   -7.4370 C   0  0  2  0  0  0  0  0  0  0  0  0
   -4.5859    0.3469   -7.4670 O   0  0  0  0  0  0  0  0  0  0  0  0
   -2.7220   -0.6454   -8.8090 C   0  0  2  0  0  0  0  0  0  0  0  0
   -3.0866    0.5008   -9.6730 N   0  3  0  0  0  0  0  0  0  0  0  0
   -3.0041   -1.9926   -9.5399 C   0  0  1  0  0  0  0  0  0  0  0  0
   -2.3092   -2.0313  -10.7845 O   0  0  0  0  0  0  0  0  0  0  0  0
   -2.5601   -3.2134   -8.6902 C   0  0  2  0  0  0  0  0  0  0  0  0
   -3.1006   -4.3951   -9.2708 O   0  0  0  0  0  0  0  0  0  0  0  0
   -3.0386   -3.0773   -7.2083 C   0  0  2  0  0  0  0  0  0  0  0  0
   -3.9468   -1.9358   -7.0751 O   0  0  0  0  0  0  0  0  0  0  0  0
   -1.9015   -2.8541   -6.1850 C   0  0  0  0  0  0  0  0  0  0  0  0
   -2.5730    3.6706   -5.5906 C   0  0  1  0  0  0  0  0  0  0  0  0
   -2.2930    4.9476   -4.8968 N   0  3  0  0  0  0  0  0  0  0  0  0
   -3.2510    2.6454   -4.6442 C   0  0  1  0  0  0  0  0  0  0  0  0
   -3.7077    1.3280   -5.3623 C   0  0  1  0  0  0  0  0  0  0  0  0
   -4.5988    0.6092   -4.4678 O   0  0  0  0  0  0  0  0  0  0  0  0
   -4.4889    1.5877   -6.7026 C   0  0  1  0  0  0  0  0  0  0  0  0
   -3.7747    2.6489   -7.6008 C   0  0  1  0  0  0  0  0  0  0  0  0
   -4.5801    3.0035   -8.7872 N   0  3  0  0  0  0  0  0  0  0  0  0
   -3.4630    3.9458   -6.8205 C   0  0  0  0  0  0  0  0  0  0  0  0
   -4.1966    0.3769   -3.0868 C   0  0  1  0  0  0  0  0  0  0  0  0
   -5.4507    0.2727   -2.2270 C   0  0  1  0  0  0  0  0  0  0  0  0
   -5.8519   -1.1677   -2.5150 C   0  0  1  0  0  0  0  0  0  0  0  0
   -4.4904   -1.8771   -2.5036 C   0  0  2  0  0  0  0  0  0  0  0  0
   -3.5369   -0.8948   -2.9744 O   0  0  0  0  0  0  0  0  0  0  0  0
   -4.4541   -3.1249   -3.4042 C   0  0  0  0  0  0  0  0  0  0  0  0
   -9.7489   -3.3204    0.2579 C   0  0  1  0  0  0  0  0  0  0  0  0
   -9.3210   -1.8341    0.4104 C   0  0  1  0  0  0  0  0  0  0  0  0
   -9.1007   -1.0947   -0.9409 C   0  0  2  0  0  0  0  0  0  0  0  0
   -8.1334   -1.8951   -1.8712 C   0  0  1  0  0  0  0  0  0  0  0  0
   -6.7438   -1.6903   -1.4887 O   0  0  0  0  0  0  0  0  0  0  0  0
   -9.7113   -3.7576   -1.2379 C   0  0  1  0  0  0  0  0  0  0  0  0
   -8.4406   -3.3436   -1.8383 O   0  0  0  0  0  0  0  0  0  0  0  0
   -9.8840   -5.2885   -1.4123 C   0  0  0  0  0  0  0  0  0  0  0  0
   -0.9355   -3.9633   -6.0958 N   0  3  0  0  0  0  0  0  0  0  0  0
   -5.1107    0.4564   -0.8526 O   0  0  0  0  0  0  0  0  0  0  0  0
  -10.3340   -1.1476    1.1445 O   0  0  0  0  0  0  0  0  0  0  0  0
   -8.8578   -4.1285    1.0298 O   0  0  0  0  0  0  0  0  0  0  0  0
   -3.5434   -4.0863   -2.8992 O   0  0  0  0  0  0  0  0  0  0  0  0
   -2.3334    2.3031   -3.6059 O   0  0  0  0  0  0  0  0  0  0  0  0
   -9.2837   -6.0625   -0.3102 N   0  3  0  0  0  0  0  0  0  0  0  0
   -8.6585    0.3056   -0.7267 N   0  3  0  0  0  0  0  0  0  0  0  0
  1  2  1  6  0  0  0
  1  3  1  0  0  0  0
  1 10  1  0  0  0  0
  3  4  1  6  0  0  0
  3  5  1  0  0  0  0
  5  6  1  6  0  0  0
  5  7  1  0  0  0  0
  7  8  1  6  0  0  0
  7  9  1  0  0  0  0
  9 10  1  0  0  0  0
  9 11  1  1  0  0  0
 11 35  1  0  0  0  0
 12 13  1  1  0  0  0
 12 14  1  0  0  0  0
 12 20  1  0  0  0  0
 14 15  1  0  0  0  0
 14 40  1  1  0  0  0
 15 16  1  1  0  0  0
 15 17  1  0  0  0  0
 17  2  1  6  0  0  0
 17 18  1  0  0  0  0
 18 19  1  6  0  0  0
 18 20  1  0  0  0  0
 21 16  1  6  0  0  0
 21 22  1  0  0  0  0
 21 25  1  0  0  0  0
 22 23  1  0  0  0  0
 22 36  1  1  0  0  0
 23 24  1  0  0  0  0
 23 31  1  1  0  0  0
 24 25  1  0  0  0  0
 24 26  1  6  0  0  0
 26 39  1  0  0  0  0
 27 28  1  0  0  0  0
 27 32  1  0  0  0  0
 27 38  1  1  0  0  0
 28 29  1  0  0  0  0
 28 37  1  6  0  0  0
 29 30  1  0  0  0  0
 29 42  1  1  0  0  0
 30 31  1  1  0  0  0
 30 33  1  0  0  0  0
 32 33  1  0  0  0  0
 32 34  1  1  0  0  0
 34 41  1  0  0  0  0
M  CHG  6   4   1  13   1  19   1  35   1  41   1  42   1
M  END
>  <CHROM.1>
-109.86047055,-35.65260049,-38.83360215,63.91440901,-165.34571812,-62.66160281
115.47586472,55.91289543,72.92450651,-49.71066121,152.09737056,-15.59943834
85.31970968,108.89336032,-150.24098529,-173.77213371,-77.38365441,75.11623994
-124.30608624,-122.86142318,-33.63157908,166.02332043,-5.09597863,-0.98310243
-4.37026646,-0.09722079,-0.94190990,-2.87317683

>  <Name>


>  <RI>
0

>  <Rbt.Current_Directory>
/home/itssahil/PROJECTS/Mol_Feturizer/New_Systems/rnas/1ei2

>  <Rbt.Executable>
rbdock ($Id: //depot/dev/client3/rdock/2013.1/src/exe/rbdock.cxx#4 $)

>  <Rbt.Library>
libRbt.so (2013.1, Build901 2013/11/27)

>  <Rbt.Parameter_File>
/export/apps/rDock/src/rDock_2013.1_src/data/scripts/dock_solv.prm

>  <Rbt.Receptor>
prm/blind_docking_100.prm

>  <SCORE>
22.6977

>  <SCORE.INTER>
12.2532

>  <SCORE.INTER.CONST>
1

>  <SCORE.INTER.POLAR>
-6.15515

>  <SCORE.INTER.ROT>
9

>  <SCORE.INTER.SOLV>
50.4461

>  <SCORE.INTER.VDW>
2.27057

>  <SCORE.INTER.norm>
0.291742

>  <SCORE.INTRA>
3.04913

>  <SCORE.INTRA.DIHEDRAL>
9.66108

>  <SCORE.INTRA.DIHEDRAL.0>
40.8761

>  <SCORE.INTRA.POLAR>
-0.310144

>  <SCORE.INTRA.POLAR.0>
-0.0268208

>  <SCORE.INTRA.REPUL>
-0.641615

>  <SCORE.INTRA.REPUL.0>
0.641615

>  <SCORE.INTRA.SOLV>
-1.01676

>  <SCORE.INTRA.SOLV.lig_0>
-162.567

>  <SCORE.INTRA.VDW>
2.98954

>  <SCORE.INTRA.VDW.0>
-4.80338

>  <SCORE.INTRA.norm>
0.0725984

>  <SCORE.RESTR>
7.39537

>  <SCORE.RESTR.CAVITY>
7.39537

>  <SCORE.RESTR.norm>
0.17608

>  <SCORE.SYSTEM>
0

>  <SCORE.SYSTEM.CONST>
0

>  <SCORE.SYSTEM.DIHEDRAL>
0

>  <SCORE.SYSTEM.SOLV>
0

>  <SCORE.SYSTEM.norm>
0

>  <SCORE.heavy>
42

>  <SCORE.norm>
0.540421

>  <RMSD>
10.031

$$$$

 OpenBabel11021811393D
libRbt.so/2013.1/901 2013/11/27
 42 45  0  0  0  0  0  0  0  0999 V2000
   -2.9190   -2.5474   -7.3387 C   0  0  2  0  0  0  0  0  0  0  0  0
   -2.2088   -1.3994   -6.7808 O   0  0  0  0  0  0  0  0  0  0  0  0
   -2.9261   -3.7569   -6.3483 C   0  0  2  0  0  0  0  0  0  0  0  0
   -2.5371   -3.3454   -4.9799 N   0  3  0  0  0  0  0  0  0  0  0  0
   -1.9939   -4.8950   -6.8628 C   0  0  1  0  0  0  0  0  0  0  0  0
   -2.0166   -5.9960   -5.9569 O   0  0  0  0  0  0  0  0  0  0  0  0
   -2.4240   -5.4025   -8.2652 C   0  0  2  0  0  0  0  0  0  0  0  0
   -1.3839   -6.2167   -8.7953 O   0  0  0  0  0  0  0  0  0  0  0  0
   -2.7184   -4.2115   -9.2338 C   0  0  2  0  0  0  0  0  0  0  0  0
   -2.3129   -2.9472   -8.6155 O   0  0  0  0  0  0  0  0  0  0  0  0
   -4.2067   -4.0523   -9.6209 C   0  0  0  0  0  0  0  0  0  0  0  0
   -2.8943    2.8177   -6.1755 C   0  0  1  0  0  0  0  0  0  0  0  0
   -3.5340    4.1219   -5.8923 N   0  3  0  0  0  0  0  0  0  0  0  0
   -2.8053    1.9387   -4.9005 C   0  0  1  0  0  0  0  0  0  0  0  0
   -2.2737    0.4877   -5.1688 C   0  0  1  0  0  0  0  0  0  0  0  0
   -2.5416   -0.3189   -3.9904 O   0  0  0  0  0  0  0  0  0  0  0  0
   -2.9693   -0.2143   -6.3925 C   0  0  1  0  0  0  0  0  0  0  0  0
   -3.0561    0.7278   -7.6367 C   0  0  1  0  0  0  0  0  0  0  0  0
   -3.8390    0.1254   -8.7349 N   0  3  0  0  0  0  0  0  0  0  0  0
   -3.6888    2.0921   -7.2813 C   0  0  0  0  0  0  0  0  0  0  0  0
   -2.8020    0.3363   -2.7154 C   0  0  1  0  0  0  0  0  0  0  0  0
   -4.2985    0.6025   -2.6032 C   0  0  1  0  0  0  0  0  0  0  0  0
   -4.7822   -0.7749   -2.1704 C   0  0  1  0  0  0  0  0  0  0  0  0
   -3.6947   -1.1843   -1.1668 C   0  0  2  0  0  0  0  0  0  0  0  0
   -2.4790   -0.5508   -1.6320 O   0  0  0  0  0  0  0  0  0  0  0  0
   -3.4985   -2.7085   -1.0802 C   0  0  0  0  0  0  0  0  0  0  0  0
   -9.7741   -1.3597   -0.6552 C   0  0  1  0  0  0  0  0  0  0  0  0
   -9.2501   -0.1416   -1.4658 C   0  0  1  0  0  0  0  0  0  0  0  0
   -8.3216   -0.5220   -2.6551 C   0  0  2  0  0  0  0  0  0  0  0  0
   -7.1643   -1.4630   -2.1893 C   0  0  1  0  0  0  0  0  0  0  0  0
   -6.0972   -0.7090   -1.5473 O   0  0  0  0  0  0  0  0  0  0  0  0
   -9.1130   -2.6816   -1.1511 C   0  0  1  0  0  0  0  0  0  0  0  0
   -7.6632   -2.4968   -1.2532 O   0  0  0  0  0  0  0  0  0  0  0  0
   -9.4105   -3.8806   -0.2142 C   0  0  0  0  0  0  0  0  0  0  0  0
   -4.4472   -3.1457  -10.7573 N   0  3  0  0  0  0  0  0  0  0  0  0
   -4.5403    1.5832   -1.5941 O   0  0  0  0  0  0  0  0  0  0  0  0
  -10.3733    0.5751   -1.9769 O   0  0  0  0  0  0  0  0  0  0  0  0
   -9.4734   -1.1465    0.7258 O   0  0  0  0  0  0  0  0  0  0  0  0
   -3.1486   -3.2457   -2.3442 O   0  0  0  0  0  0  0  0  0  0  0  0
   -1.9367    2.5756   -3.9639 O   0  0  0  0  0  0  0  0  0  0  0  0
   -9.6079   -5.1452   -0.9462 N   0  3  0  0  0  0  0  0  0  0  0  0
   -7.8266    0.6844   -3.3634 N   0  3  0  0  0  0  0  0  0  0  0  0
  1  2  1  1  0  0  0
  1  3  1  0  0  0  0
  1 10  1  0  0  0  0
  3  4  1  1  0  0  0
  3  5  1  0  0  0  0
  5  6  1  1  0  0  0
  5  7  1  0  0  0  0
  7  8  1  6  0  0  0
  7  9  1  0  0  0  0
  9 10  1  0  0  0  0
  9 11  1  1  0  0  0
 11 35  1  0  0  0  0
 12 13  1  1  0  0  0
 12 14  1  0  0  0  0
 12 20  1  0  0  0  0
 14 15  1  0  0  0  0
 14 40  1  1  0  0  0
 15 16  1  1  0  0  0
 15 17  1  0  0  0  0
 17  2  1  6  0  0  0
 17 18  1  0  0  0  0
 18 19  1  6  0  0  0
 18 20  1  0  0  0  0
 21 16  1  6  0  0  0
 21 22  1  0  0  0  0
 21 25  1  0  0  0  0
 22 23  1  0  0  0  0
 22 36  1  1  0  0  0
 23 24  1  0  0  0  0
 23 31  1  1  0  0  0
 24 25  1  0  0  0  0
 24 26  1  6  0  0  0
 26 39  1  0  0  0  0
 27 28  1  0  0  0  0
 27 32  1  0  0  0  0
 27 38  1  1  0  0  0
 28 29  1  0  0  0  0
 28 37  1  6  0  0  0
 29 30  1  0  0  0  0
 29 42  1  1  0  0  0
 30 31  1  1  0  0  0
 30 33  1  0  0  0  0
 32 33  1  0  0  0  0
 32 34  1  1  0  0  0
 34 41  1  0  0  0  0
M  CHG  6   4   1  13   1  19   1  35   1  41   1  42   1
M  END
>  <CHROM.1>
-110.00035020,148.13137471,-85.10440872,62.98841570,62.04577021,-166.59970158
75.73308625,150.23784018,84.06973858,-19.23913778,89.08023784,79.47658954
94.92607917,119.63299170,58.71191477,-68.97875933,53.04798262,77.15826151
91.69355721,-119.13699231,142.98478464,-33.73318916,-4.65741065,-1.38091372
-4.41680672,0.40770461,-0.82419043,-2.82106753

>  <Name>


>  <RI>
0

>  <Rbt.Current_Directory>
/home/itssahil/PROJECTS/Mol_Feturizer/New_Systems/rnas/1ei2

>  <Rbt.Executable>
rbdock ($Id: //depot/dev/client3/rdock/2013.1/src/exe/rbdock.cxx#4 $)

>  <Rbt.Library>
libRbt.so (2013.1, Build901 2013/11/27)

>  <Rbt.Parameter_File>
/export/apps/rDock/src/rDock_2013.1_src/data/scripts/dock_solv.prm

>  <Rbt.Receptor>
prm/blind_docking_80.prm

>  <SCORE>
-7.0468

>  <SCORE.INTER>
-17.5838

>  <SCORE.INTER.CONST>
1

>  <SCORE.INTER.POLAR>
-5.57454

>  <SCORE.INTER.ROT>
9

>  <SCORE.INTER.SOLV>
36.7109

>  <SCORE.INTER.VDW>
-14.9777

>  <SCORE.INTER.norm>
-0.418662

>  <SCORE.INTRA>
0.470056

>  <SCORE.INTRA.DIHEDRAL>
14.4458

>  <SCORE.INTRA.DIHEDRAL.0>
40.8761

>  <SCORE.INTRA.POLAR>
-1.11691

>  <SCORE.INTRA.POLAR.0>
-0.0268208

>  <SCORE.INTRA.REPUL>
-0.581496

>  <SCORE.INTRA.REPUL.0>
0.641615

>  <SCORE.INTRA.SOLV>
-3.33318

>  <SCORE.INTRA.SOLV.lig_0>
-162.567

>  <SCORE.INTRA.VDW>
1.61872

>  <SCORE.INTRA.VDW.0>
-4.80338

>  <SCORE.INTRA.norm>
0.0111918

>  <SCORE.RESTR>
10.0669

>  <SCORE.RESTR.CAVITY>
10.0669

>  <SCORE.RESTR.norm>
0.239689

>  <SCORE.SYSTEM>
0

>  <SCORE.SYSTEM.CONST>
0

>  <SCORE.SYSTEM.DIHEDRAL>
0

>  <SCORE.SYSTEM.SOLV>
0

>  <SCORE.SYSTEM.norm>
0

>  <SCORE.heavy>
42

>  <SCORE.norm>
-0.167781

>  <RMSD>
10.046

$$$$

 OpenBabel11021811393D
libRbt.so/2013.1/901 2013/11/27
 42 45  0  0  0  0  0  0  0  0999 V2000
   -3.4024   -1.4635   -6.5361 C   0  0  2  0  0  0  0  0  0  0  0  0
   -3.8700   -2.8380   -6.3761 O   0  0  0  0  0  0  0  0  0  0  0  0
   -4.2196   -0.7008   -7.6290 C   0  0  2  0  0  0  0  0  0  0  0  0
   -5.4686   -1.4164   -7.9767 N   0  3  0  0  0  0  0  0  0  0  0  0
   -3.3512   -0.4665   -8.9018 C   0  0  1  0  0  0  0  0  0  0  0  0
   -4.1036    0.2385   -9.8869 O   0  0  0  0  0  0  0  0  0  0  0  0
   -2.0702    0.3501   -8.5833 C   0  0  2  0  0  0  0  0  0  0  0  0
   -1.1933    0.2795   -9.7021 O   0  0  0  0  0  0  0  0  0  0  0  0
   -1.3533   -0.1945   -7.3055 C   0  0  2  0  0  0  0  0  0  0  0  0
   -1.9737   -1.4500   -6.8764 O   0  0  0  0  0  0  0  0  0  0  0  0
   -1.4023    0.7568   -6.0878 C   0  0  0  0  0  0  0  0  0  0  0  0
   -2.6916   -6.7264   -4.9230 C   0  0  1  0  0  0  0  0  0  0  0  0
   -1.8910   -7.8853   -4.4686 N   0  3  0  0  0  0  0  0  0  0  0  0
   -2.6273   -5.5565   -3.9065 C   0  0  1  0  0  0  0  0  0  0  0  0
   -3.3332   -4.2472   -4.4039 C   0  0  1  0  0  0  0  0  0  0  0  0
   -2.9306   -3.1558   -3.5335 O   0  0  0  0  0  0  0  0  0  0  0  0
   -2.9432   -3.8496   -5.8750 C   0  0  1  0  0  0  0  0  0  0  0  0
   -2.9981   -5.0727   -6.8466 C   0  0  1  0  0  0  0  0  0  0  0  0
   -2.4903   -4.7352   -8.1920 N   0  3  0  0  0  0  0  0  0  0  0  0
   -2.1854   -6.2714   -6.3077 C   0  0  0  0  0  0  0  0  0  0  0  0
   -3.3826   -1.8014   -3.8234 C   0  0  1  0  0  0  0  0  0  0  0  0
   -4.8967   -1.7490   -3.6573 C   0  0  1  0  0  0  0  0  0  0  0  0
   -4.9941   -1.6232   -2.1430 C   0  0  1  0  0  0  0  0  0  0  0  0
   -3.8544   -0.6403   -1.8394 C   0  0  2  0  0  0  0  0  0  0  0  0
   -2.8493   -0.8869   -2.8516 O   0  0  0  0  0  0  0  0  0  0  0  0
   -3.2516   -0.8323   -0.4362 C   0  0  0  0  0  0  0  0  0  0  0  0
   -9.7528   -1.6235   -0.1643 C   0  0  1  0  0  0  0  0  0  0  0  0
   -9.3677   -0.4574   -1.1168 C   0  0  1  0  0  0  0  0  0  0  0  0
   -8.6730   -0.9143   -2.4319 C   0  0  2  0  0  0  0  0  0  0  0  0
   -7.4627   -1.8566   -2.1332 C   0  0  1  0  0  0  0  0  0  0  0  0
   -6.2883   -1.0958   -1.7319 O   0  0  0  0  0  0  0  0  0  0  0  0
   -9.2083   -2.9816   -0.7023 C   0  0  1  0  0  0  0  0  0  0  0  0
   -7.7982   -2.8332   -1.0714 O   0  0  0  0  0  0  0  0  0  0  0  0
   -9.3475   -4.1276    0.3328 C   0  0  0  0  0  0  0  0  0  0  0  0
   -0.6732    2.0236   -6.2745 N   0  3  0  0  0  0  0  0  0  0  0  0
   -5.4147   -0.5914   -4.3131 O   0  0  0  0  0  0  0  0  0  0  0  0
  -10.5554    0.2580   -1.4546 O   0  0  0  0  0  0  0  0  0  0  0  0
   -9.2061   -1.3508    1.1278 O   0  0  0  0  0  0  0  0  0  0  0  0
   -2.2633    0.1487   -0.1721 O   0  0  0  0  0  0  0  0  0  0  0  0
   -3.2454   -5.9723   -2.6889 O   0  0  0  0  0  0  0  0  0  0  0  0
   -9.3421   -5.4649   -0.2880 N   0  3  0  0  0  0  0  0  0  0  0  0
   -8.2982    0.2457   -3.2782 N   0  3  0  0  0  0  0  0  0  0  0  0
  1  2  1  6  0  0  0
  1  3  1  0  0  0  0
  1 10  1  0  0  0  0
  3  4  1  6  0  0  0
  3  5  1  0  0  0  0
  5  6  1  6  0  0  0
  5  7  1  0  0  0  0
  7  8  1  6  0  0  0
  7  9  1  0  0  0  0
  9 10  1  0  0  0  0
  9 11  1  1  0  0  0
 11 35  1  0  0  0  0
 12 13  1  1  0  0  0
 12 14  1  0  0  0  0
 12 20  1  0  0  0  0
 14 15  1  0  0  0  0
 14 40  1  1  0  0  0
 15 16  1  1  0  0  0
 15 17  1  0  0  0  0
 17  2  1  6  0  0  0
 17 18  1  0  0  0  0
 18 19  1  6  0  0  0
 18 20  1  0  0  0  0
 21 16  1  1  0  0  0
 21 22  1  0  0  0  0
 21 25  1  0  0  0  0
 22 23  1  0  0  0  0
 22 36  1  6  0  0  0
 23 24  1  0  0  0  0
 23 31  1  6  0  0  0
 24 25  1  0  0  0  0
 24 26  1  1  0  0  0
 26 39  1  0  0  0  0
 27 28  1  0  0  0  0
 27 32  1  0  0  0  0
 27 38  1  1  0  0  0
 28 29  1  0  0  0  0
 28 37  1  6  0  0  0
 29 30  1  0  0  0  0
 29 42  1  1  0  0  0
 30 31  1  1  0  0  0
 30 33  1  0  0  0  0
 32 33  1  0  0  0  0
 32 34  1  1  0  0  0
 34 41  1  0  0  0  0
M  CHG  6   4   1  13   1  19   1  35   1  41   1  42   1
M  END
>  <CHROM.1>
154.02665809,108.07093103,-73.06372222,-169.99125142,-68.34090712,-65.17513157
-162.67879365,-74.74030990,123.16515086,176.30656619,65.55670159,-57.93315809
-46.46401999,58.74843941,-176.35896935,157.35393413,63.84963289,65.87825263
144.19501906,-145.91458514,157.77657299,66.97225222,-4.68386222,-2.08769508
-4.17853685,0.32093979,0.78024773,-0.39745782

>  <Name>


>  <RI>
0

>  <Rbt.Current_Directory>
/home/itssahil/PROJECTS/Mol_Feturizer/New_Systems/rnas/1ei2

>  <Rbt.Executable>
rbdock ($Id: //depot/dev/client3/rdock/2013.1/src/exe/rbdock.cxx#4 $)

>  <Rbt.Library>
libRbt.so (2013.1, Build901 2013/11/27)

>  <Rbt.Parameter_File>
/export/apps/rDock/src/rDock_2013.1_src/data/scripts/dock_solv.prm

>  <Rbt.Receptor>
prm/blind_docking_20.prm

>  <SCORE>
26.2647

>  <SCORE.INTER>
32.0663

>  <SCORE.INTER.CONST>
1

>  <SCORE.INTER.POLAR>
-7.28778

>  <SCORE.INTER.ROT>
9

>  <SCORE.INTER.SOLV>
67.3876

>  <SCORE.INTER.VDW>
13.6076

>  <SCORE.INTER.norm>
0.763482

>  <SCORE.INTRA>
-15.7235

>  <SCORE.INTRA.DIHEDRAL>
-9.2756

>  <SCORE.INTRA.DIHEDRAL.0>
40.8761

>  <SCORE.INTRA.POLAR>
-1.02036

>  <SCORE.INTRA.POLAR.0>
-0.0268208

>  <SCORE.INTRA.REPUL>
-0.641615

>  <SCORE.INTRA.REPUL.0>
0.641615

>  <SCORE.INTRA.SOLV>
-11.3039

>  <SCORE.INTRA.SOLV.lig_0>
-162.567

>  <SCORE.INTRA.VDW>
1.24353

>  <SCORE.INTRA.VDW.0>
-4.80338

>  <SCORE.INTRA.norm>
-0.37437

>  <SCORE.RESTR>
9.92195

>  <SCORE.RESTR.CAVITY>
9.92195

>  <SCORE.RESTR.norm>
0.236237

>  <SCORE.SYSTEM>
0

>  <SCORE.SYSTEM.CONST>
0

>  <SCORE.SYSTEM.DIHEDRAL>
0

>  <SCORE.SYSTEM.SOLV>
0

>  <SCORE.SYSTEM.norm>
0

>  <SCORE.heavy>
42

>  <SCORE.norm>
0.62535

>  <RMSD>
10.062

$$$$

 OpenBabel11021811393D
libRbt.so/2013.1/901 2013/11/27
 42 45  0  0  0  0  0  0  0  0999 V2000
   -3.4761   -0.1822   -3.1331 C   0  0  2  0  0  0  0  0  0  0  0  0
   -2.1312   -0.3918   -3.6631 O   0  0  0  0  0  0  0  0  0  0  0  0
   -3.5834    1.1679   -2.3524 C   0  0  2  0  0  0  0  0  0  0  0  0
   -2.4316    2.0552   -2.6337 N   0  3  0  0  0  0  0  0  0  0  0  0
   -3.7131    0.9091   -0.8210 C   0  0  1  0  0  0  0  0  0  0  0  0
   -3.8204    2.1468   -0.1209 O   0  0  0  0  0  0  0  0  0  0  0  0
   -4.9579    0.0446   -0.4859 C   0  0  2  0  0  0  0  0  0  0  0  0
   -4.8598   -0.3937    0.8646 O   0  0  0  0  0  0  0  0  0  0  0  0
   -5.0673   -1.1871   -1.4422 C   0  0  2  0  0  0  0  0  0  0  0  0
   -3.8569   -1.2996   -2.2592 O   0  0  0  0  0  0  0  0  0  0  0  0
   -6.2572   -1.1304   -2.4276 C   0  0  0  0  0  0  0  0  0  0  0  0
   -3.0831   -0.4670   -7.8712 C   0  0  1  0  0  0  0  0  0  0  0  0
   -3.0329   -0.7106   -9.3301 N   0  3  0  0  0  0  0  0  0  0  0  0
   -3.3184   -1.7818   -7.0824 C   0  0  1  0  0  0  0  0  0  0  0  0
   -3.2315   -1.6096   -5.5259 C   0  0  1  0  0  0  0  0  0  0  0  0
   -3.1416   -2.9305   -4.9275 O   0  0  0  0  0  0  0  0  0  0  0  0
   -1.9723   -0.7905   -5.0592 C   0  0  1  0  0  0  0  0  0  0  0  0
   -1.7697    0.5066   -5.9075 C   0  0  1  0  0  0  0  0  0  0  0  0
   -0.5084    1.1978   -5.5710 N   0  3  0  0  0  0  0  0  0  0  0  0
   -1.7696    0.2074   -7.4235 C   0  0  0  0  0  0  0  0  0  0  0  0
   -1.9790   -3.7652   -5.2002 C   0  0  1  0  0  0  0  0  0  0  0  0
   -2.3902   -5.2271   -5.0713 C   0  0  1  0  0  0  0  0  0  0  0  0
   -3.0524   -5.4378   -6.4261 C   0  0  1  0  0  0  0  0  0  0  0  0
   -2.0991   -4.6775   -7.3590 C   0  0  2  0  0  0  0  0  0  0  0  0
   -1.5603   -3.5941   -6.5642 O   0  0  0  0  0  0  0  0  0  0  0  0
   -2.7996   -4.1190   -8.6106 C   0  0  0  0  0  0  0  0  0  0  0  0
   -1.7049   -8.5538   -9.8993 C   0  0  1  0  0  0  0  0  0  0  0  0
   -2.3621   -9.2904   -8.6990 C   0  0  1  0  0  0  0  0  0  0  0  0
   -3.7528   -8.7245   -8.2907 C   0  0  2  0  0  0  0  0  0  0  0  0
   -3.6913   -7.1784   -8.0725 C   0  0  1  0  0  0  0  0  0  0  0  0
   -3.1327   -6.8514   -6.7686 O   0  0  0  0  0  0  0  0  0  0  0  0
   -2.5488   -7.3114  -10.3169 C   0  0  1  0  0  0  0  0  0  0  0  0
   -2.8839   -6.5238   -9.1277 O   0  0  0  0  0  0  0  0  0  0  0  0
   -1.8084   -6.4076  -11.3362 C   0  0  0  0  0  0  0  0  0  0  0  0
   -7.5657   -0.8997   -1.7905 N   0  3  0  0  0  0  0  0  0  0  0  0
   -1.2287   -6.0443   -4.9237 O   0  0  0  0  0  0  0  0  0  0  0  0
   -2.5148  -10.6665   -9.0449 O   0  0  0  0  0  0  0  0  0  0  0  0
   -0.3890   -8.1490   -9.5154 O   0  0  0  0  0  0  0  0  0  0  0  0
   -1.8664   -3.4960   -9.4765 O   0  0  0  0  0  0  0  0  0  0  0  0
   -4.6109   -2.2897   -7.4125 O   0  0  0  0  0  0  0  0  0  0  0  0
   -0.7149   -5.6301  -10.7249 N   0  3  0  0  0  0  0  0  0  0  0  0
   -4.3081   -9.4450   -7.1182 N   0  3  0  0  0  0  0  0  0  0  0  0
  1  2  1  1  0  0  0
  1  3  1  0  0  0  0
  1 10  1  0  0  0  0
  3  4  1  1  0  0  0
  3  5  1  0  0  0  0
  5  6  1  1  0  0  0
  5  7  1  0  0  0  0
  7  8  1  1  0  0  0
  7  9  1  0  0  0  0
  9 10  1  0  0  0  0
  9 11  1  6  0  0  0
 11 35  1  0  0  0  0
 12 13  1  6  0  0  0
 12 14  1  0  0  0  0
 12 20  1  0  0  0  0
 14 15  1  0  0  0  0
 14 40  1  1  0  0  0
 15 16  1  1  0  0  0
 15 17  1  0  0  0  0
 17  2  1  1  0  0  0
 17 18  1  0  0  0  0
 18 19  1  1  0  0  0
 18 20  1  0  0  0  0
 21 16  1  6  0  0  0
 21 22  1  0  0  0  0
 21 25  1  0  0  0  0
 22 23  1  0  0  0  0
 22 36  1  6  0  0  0
 23 24  1  0  0  0  0
 23 31  1  6  0  0  0
 24 25  1  0  0  0  0
 24 26  1  6  0  0  0
 26 39  1  0  0  0  0
 27 28  1  0  0  0  0
 27 32  1  0  0  0  0
 27 38  1  1  0  0  0
 28 29  1  0  0  0  0
 28 37  1  6  0  0  0
 29 30  1  0  0  0  0
 29 42  1  1  0  0  0
 30 31  1  1  0  0  0
 30 33  1  0  0  0  0
 32 33  1  0  0  0  0
 32 34  1  6  0  0  0
 34 41  1  0  0  0  0
M  CHG  6   4   1  13   1  19   1  35   1  41   1  42   1
M  END
>  <CHROM.1>
-131.80021991,-28.97514837,171.53666904,170.52228837,160.79006539,-53.10267226
-179.47319148,39.43381827,-70.43211226,64.29557710,-152.75494037,90.11896716
72.80566598,-177.21041054,-176.54798815,-64.39430315,153.34488193,172.26415366
-44.95749294,-178.46249002,-73.56276798,-77.83469587,-2.96465105,-3.30557012
-5.91828248,-1.91499915,-1.09571833,-2.72983887

>  <Name>


>  <RI>
0

>  <Rbt.Current_Directory>
/home/itssahil/PROJECTS/Mol_Feturizer/New_Systems/rnas/1ei2

>  <Rbt.Executable>
rbdock ($Id: //depot/dev/client3/rdock/2013.1/src/exe/rbdock.cxx#4 $)

>  <Rbt.Library>
libRbt.so (2013.1, Build901 2013/11/27)

>  <Rbt.Parameter_File>
/export/apps/rDock/src/rDock_2013.1_src/data/scripts/dock_solv.prm

>  <Rbt.Receptor>
prm/blind_docking_60.prm

>  <SCORE>
-17.8809

>  <SCORE.INTER>
-30.1913

>  <SCORE.INTER.CONST>
1

>  <SCORE.INTER.POLAR>
-5.83453

>  <SCORE.INTER.ROT>
9

>  <SCORE.INTER.SOLV>
36.2239

>  <SCORE.INTER.VDW>
-22.3537

>  <SCORE.INTER.norm>
-0.71884

>  <SCORE.INTRA>
-6.60763

>  <SCORE.INTRA.DIHEDRAL>
-14.8282

>  <SCORE.INTRA.DIHEDRAL.0>
40.8761

>  <SCORE.INTRA.POLAR>
-1.42057

>  <SCORE.INTRA.POLAR.0>
-0.0268208

>  <SCORE.INTRA.REPUL>
-0.639842

>  <SCORE.INTRA.REPUL.0>
0.641615

>  <SCORE.INTRA.SOLV>
1.3779

>  <SCORE.INTRA.SOLV.lig_0>
-162.567

>  <SCORE.INTRA.VDW>
8.14665

>  <SCORE.INTRA.VDW.0>
-4.80338

>  <SCORE.INTRA.norm>
-0.157325

>  <SCORE.RESTR>
18.918

>  <SCORE.RESTR.CAVITY>
18.918

>  <SCORE.RESTR.norm>
0.45043

>  <SCORE.SYSTEM>
0

>  <SCORE.SYSTEM.CONST>
0

>  <SCORE.SYSTEM.DIHEDRAL>
0

>  <SCORE.SYSTEM.SOLV>
0

>  <SCORE.SYSTEM.norm>
0

>  <SCORE.heavy>
42

>  <SCORE.norm>
-0.425735

>  <RMSD>
10.091

$$$$

 OpenBabel11021811393D
libRbt.so/2013.1/901 2013/11/27
 42 45  0  0  0  0  0  0  0  0999 V2000
   -2.5651   -2.8552   -6.5978 C   0  0  2  0  0  0  0  0  0  0  0  0
   -2.1943   -1.4560   -6.4017 O   0  0  0  0  0  0  0  0  0  0  0  0
   -3.4359   -3.3911   -5.4153 C   0  0  2  0  0  0  0  0  0  0  0  0
   -3.9637   -2.2874   -4.5808 N   0  3  0  0  0  0  0  0  0  0  0  0
   -2.6223   -4.3947   -4.5436 C   0  0  1  0  0  0  0  0  0  0  0  0
   -3.4297   -4.8842   -3.4750 O   0  0  0  0  0  0  0  0  0  0  0  0
   -2.1201   -5.6052   -5.3754 C   0  0  2  0  0  0  0  0  0  0  0  0
   -1.1576   -6.3194   -4.6079 O   0  0  0  0  0  0  0  0  0  0  0  0
   -1.4893   -5.1413   -6.7283 C   0  0  2  0  0  0  0  0  0  0  0  0
   -1.3611   -3.6824   -6.7503 O   0  0  0  0  0  0  0  0  0  0  0  0
   -2.3057   -5.5282   -7.9829 C   0  0  0  0  0  0  0  0  0  0  0  0
   -3.6166    2.5604   -7.0841 C   0  0  1  0  0  0  0  0  0  0  0  0
   -4.4781    3.7252   -7.3867 N   0  3  0  0  0  0  0  0  0  0  0  0
   -3.9924    1.9121   -5.7260 C   0  0  1  0  0  0  0  0  0  0  0  0
   -3.2143    0.5846   -5.4222 C   0  0  1  0  0  0  0  0  0  0  0  0
   -3.8726   -0.0835   -4.3127 O   0  0  0  0  0  0  0  0  0  0  0  0
   -3.1942   -0.4171   -6.6349 C   0  0  1  0  0  0  0  0  0  0  0  0
   -2.8383    0.2971   -7.9789 C   0  0  1  0  0  0  0  0  0  0  0  0
   -2.9644   -0.6090   -9.1386 N   0  3  0  0  0  0  0  0  0  0  0  0
   -3.7336    1.5317   -8.2281 C   0  0  0  0  0  0  0  0  0  0  0  0
   -4.2379    0.6817   -3.1279 C   0  0  1  0  0  0  0  0  0  0  0  0
   -5.7098    0.4303   -2.8225 C   0  0  1  0  0  0  0  0  0  0  0  0
   -5.6088   -0.9132   -2.1132 C   0  0  1  0  0  0  0  0  0  0  0  0
   -4.3596   -0.7117   -1.2436 C   0  0  2  0  0  0  0  0  0  0  0  0
   -3.5119    0.1967   -1.9865 O   0  0  0  0  0  0  0  0  0  0  0  0
   -3.6075   -2.0238   -0.9570 C   0  0  0  0  0  0  0  0  0  0  0  0
  -10.1767   -2.5164   -0.0809 C   0  0  1  0  0  0  0  0  0  0  0  0
   -9.9343   -1.1048   -0.6842 C   0  0  1  0  0  0  0  0  0  0  0  0
   -9.1725   -1.1162   -2.0410 C   0  0  2  0  0  0  0  0  0  0  0  0
   -7.8547   -1.9500   -1.9416 C   0  0  1  0  0  0  0  0  0  0  0  0
   -6.7919   -1.1834   -1.3075 O   0  0  0  0  0  0  0  0  0  0  0  0
   -9.4568   -3.6115   -0.9251 C   0  0  1  0  0  0  0  0  0  0  0  0
   -8.0735   -3.2025   -1.1818 O   0  0  0  0  0  0  0  0  0  0  0  0
   -9.4590   -4.9954   -0.2261 C   0  0  0  0  0  0  0  0  0  0  0  0
   -1.7676   -4.9974   -9.2477 N   0  3  0  0  0  0  0  0  0  0  0  0
   -6.2026    1.4472   -1.9498 O   0  0  0  0  0  0  0  0  0  0  0  0
  -11.2002   -0.4755   -0.8787 O   0  0  0  0  0  0  0  0  0  0  0  0
   -9.6835   -2.5252    1.2606 O   0  0  0  0  0  0  0  0  0  0  0  0
   -2.5313   -1.8041   -0.0613 O   0  0  0  0  0  0  0  0  0  0  0  0
   -3.7229    2.8467   -4.6813 O   0  0  0  0  0  0  0  0  0  0  0  0
   -9.7415   -6.1060   -1.1537 N   0  3  0  0  0  0  0  0  0  0  0  0
   -8.9406    0.2606   -2.5438 N   0  3  0  0  0  0  0  0  0  0  0  0
  1  2  1  1  0  0  0
  1  3  1  0  0  0  0
  1 10  1  0  0  0  0
  3  4  1  1  0  0  0
  3  5  1  0  0  0  0
  5  6  1  1  0  0  0
  5  7  1  0  0  0  0
  7  8  1  1  0  0  0
  7  9  1  0  0  0  0
  9 10  1  0  0  0  0
  9 11  1  6  0  0  0
 11 35  1  0  0  0  0
 12 13  1  6  0  0  0
 12 14  1  0  0  0  0
 12 20  1  0  0  0  0
 14 15  1  0  0  0  0
 14 40  1  1  0  0  0
 15 16  1  1  0  0  0
 15 17  1  0  0  0  0
 17  2  1  1  0  0  0
 17 18  1  0  0  0  0
 18 19  1  6  0  0  0
 18 20  1  0  0  0  0
 21 16  1  6  0  0  0
 21 22  1  0  0  0  0
 21 25  1  0  0  0  0
 22 23  1  0  0  0  0
 22 36  1  1  0  0  0
 23 24  1  0  0  0  0
 23 31  1  1  0  0  0
 24 25  1  0  0  0  0
 24 26  1  6  0  0  0
 26 39  1  0  0  0  0
 27 28  1  0  0  0  0
 27 32  1  0  0  0  0
 27 38  1  1  0  0  0
 28 29  1  0  0  0  0
 28 37  1  6  0  0  0
 29 30  1  0  0  0  0
 29 42  1  1  0  0  0
 30 31  1  1  0  0  0
 30 33  1  0  0  0  0
 32 33  1  0  0  0  0
 32 34  1  1  0  0  0
 34 41  1  0  0  0  0
M  CHG  6   4   1  13   1  19   1  35   1  41   1  42   1
M  END
>  <CHROM.1>
-76.05719510,131.56915629,-43.45199742,-163.87325871,-10.45526441,175.30805710
-55.36479514,-170.62656725,60.57122277,-46.82626325,128.14709617,-74.89407268
-42.04413884,93.31447697,-175.04279089,-65.13852472,177.95603335,154.90916851
-158.60160613,-117.76591866,138.00622944,-156.73491577,-5.01412562,-1.65384773
-3.89242789,-0.18607342,-0.75236377,2.90979909

>  <Name>


>  <RI>
0

>  <Rbt.Current_Directory>
/home/itssahil/PROJECTS/Mol_Feturizer/New_Systems/rnas/1ei2

>  <Rbt.Executable>
rbdock ($Id: //depot/dev/client3/rdock/2013.1/src/exe/rbdock.cxx#4 $)

>  <Rbt.Library>
libRbt.so (2013.1, Build901 2013/11/27)

>  <Rbt.Parameter_File>
/export/apps/rDock/src/rDock_2013.1_src/data/scripts/dock_solv.prm

>  <Rbt.Receptor>
prm/blind_docking_40.prm

>  <SCORE>
2.60159

>  <SCORE.INTER>
-5.2295

>  <SCORE.INTER.CONST>
1

>  <SCORE.INTER.POLAR>
-9.55739

>  <SCORE.INTER.ROT>
9

>  <SCORE.INTER.SOLV>
49.8803

>  <SCORE.INTER.VDW>
2.14486

>  <SCORE.INTER.norm>
-0.124512

>  <SCORE.INTRA>
-0.569045

>  <SCORE.INTRA.DIHEDRAL>
6.76905

>  <SCORE.INTRA.DIHEDRAL.0>
40.8761

>  <SCORE.INTRA.POLAR>
-1.42401

>  <SCORE.INTRA.POLAR.0>
-0.0268208

>  <SCORE.INTRA.REPUL>
-0.641615

>  <SCORE.INTRA.REPUL.0>
0.641615

>  <SCORE.INTRA.SOLV>
-1.62137

>  <SCORE.INTRA.SOLV.lig_0>
-162.567

>  <SCORE.INTRA.VDW>
4.90682

>  <SCORE.INTRA.VDW.0>
-4.80338

>  <SCORE.INTRA.norm>
-0.0135487

>  <SCORE.RESTR>
8.40013

>  <SCORE.RESTR.CAVITY>
8.40013

>  <SCORE.RESTR.norm>
0.200003

>  <SCORE.SYSTEM>
0

>  <SCORE.SYSTEM.CONST>
0

>  <SCORE.SYSTEM.DIHEDRAL>
0

>  <SCORE.SYSTEM.SOLV>
0

>  <SCORE.SYSTEM.norm>
0

>  <SCORE.heavy>
42

>  <SCORE.norm>
0.0619425

>  <RMSD>
10.106

$$$$

 OpenBabel11021811393D
libRbt.so/2013.1/901 2013/11/27
 42 45  0  0  0  0  0  0  0  0999 V2000
   -3.4570    1.4509   -5.9609 C   0  0  2  0  0  0  0  0  0  0  0  0
   -4.5047    0.5366   -6.4079 O   0  0  0  0  0  0  0  0  0  0  0  0
   -2.0364    0.9437   -6.3715 C   0  0  2  0  0  0  0  0  0  0  0  0
   -2.1117   -0.1230   -7.3960 N   0  3  0  0  0  0  0  0  0  0  0  0
   -1.2471    0.4476   -5.1226 C   0  0  1  0  0  0  0  0  0  0  0  0
    0.0499   -0.0028   -5.5080 O   0  0  0  0  0  0  0  0  0  0  0  0
   -1.0836    1.5686   -4.0614 C   0  0  2  0  0  0  0  0  0  0  0  0
   -0.6228    0.9852   -2.8477 O   0  0  0  0  0  0  0  0  0  0  0  0
   -2.4327    2.3191   -3.8166 C   0  0  2  0  0  0  0  0  0  0  0  0
   -3.5257    1.6280   -4.5045 O   0  0  0  0  0  0  0  0  0  0  0  0
   -2.4538    3.7811   -4.3192 C   0  0  0  0  0  0  0  0  0  0  0  0
   -5.5200   -0.8487   -2.4494 C   0  0  1  0  0  0  0  0  0  0  0  0
   -6.1707   -1.5426   -1.3156 N   0  3  0  0  0  0  0  0  0  0  0  0
   -4.7443   -1.8411   -3.3546 C   0  0  1  0  0  0  0  0  0  0  0  0
   -4.1593   -1.1866   -4.6543 C   0  0  1  0  0  0  0  0  0  0  0  0
   -3.7533   -2.2515   -5.5555 O   0  0  0  0  0  0  0  0  0  0  0  0
   -5.1975   -0.2868   -5.4202 C   0  0  1  0  0  0  0  0  0  0  0  0
   -5.9679    0.6706   -4.4543 C   0  0  1  0  0  0  0  0  0  0  0  0
   -7.0444    1.4080   -5.1466 N   0  3  0  0  0  0  0  0  0  0  0  0
   -6.5905   -0.0932   -3.2641 C   0  0  0  0  0  0  0  0  0  0  0  0
   -2.4694   -2.9108   -5.3564 C   0  0  1  0  0  0  0  0  0  0  0  0
   -2.7214   -4.3841   -5.0587 C   0  0  1  0  0  0  0  0  0  0  0  0
   -2.9455   -4.9065   -6.4713 C   0  0  1  0  0  0  0  0  0  0  0  0
   -1.8668   -4.1478   -7.2574 C   0  0  2  0  0  0  0  0  0  0  0  0
   -1.7077   -2.8812   -6.5745 O   0  0  0  0  0  0  0  0  0  0  0  0
   -2.2488   -3.9117   -8.7297 C   0  0  0  0  0  0  0  0  0  0  0  0
   -2.8368   -8.1645   -9.9266 C   0  0  1  0  0  0  0  0  0  0  0  0
   -2.3602   -8.7882   -8.5853 C   0  0  1  0  0  0  0  0  0  0  0  0
   -3.3622   -8.6063   -7.4088 C   0  0  2  0  0  0  0  0  0  0  0  0
   -3.7789   -7.1088   -7.2484 C   0  0  1  0  0  0  0  0  0  0  0  0
   -2.7557   -6.3489   -6.5450 O   0  0  0  0  0  0  0  0  0  0  0  0
   -4.1615   -7.3671   -9.7277 C   0  0  1  0  0  0  0  0  0  0  0  0
   -4.0322   -6.4829   -8.5667 O   0  0  0  0  0  0  0  0  0  0  0  0
   -4.5379   -6.5234  -10.9730 C   0  0  0  0  0  0  0  0  0  0  0  0
   -2.0753    3.9447   -5.7338 N   0  3  0  0  0  0  0  0  0  0  0  0
   -1.5589   -4.9627   -4.4650 O   0  0  0  0  0  0  0  0  0  0  0  0
   -2.1470  -10.1843   -8.7893 O   0  0  0  0  0  0  0  0  0  0  0  0
   -1.8088   -7.2984  -10.4126 O   0  0  0  0  0  0  0  0  0  0  0  0
   -3.5900   -3.4667   -8.8387 O   0  0  0  0  0  0  0  0  0  0  0  0
   -3.6678   -2.4019   -2.6035 O   0  0  0  0  0  0  0  0  0  0  0  0
   -5.2674   -5.2888  -10.6301 N   0  3  0  0  0  0  0  0  0  0  0  0
   -2.8329   -9.1896   -6.1511 N   0  3  0  0  0  0  0  0  0  0  0  0
  1  2  1  1  0  0  0
  1  3  1  0  0  0  0
  1 10  1  0  0  0  0
  3  4  1  6  0  0  0
  3  5  1  0  0  0  0
  5  6  1  6  0  0  0
  5  7  1  0  0  0  0
  7  8  1  1  0  0  0
  7  9  1  0  0  0  0
  9 10  1  0  0  0  0
  9 11  1  6  0  0  0
 11 35  1  0  0  0  0
 12 13  1  1  0  0  0
 12 14  1  0  0  0  0
 12 20  1  0  0  0  0
 14 15  1  0  0  0  0
 14 40  1  1  0  0  0
 15 16  1  6  0  0  0
 15 17  1  0  0  0  0
 17  2  1  6  0  0  0
 17 18  1  0  0  0  0
 18 19  1  6  0  0  0
 18 20  1  0  0  0  0
 21 16  1  6  0  0  0
 21 22  1  0  0  0  0
 21 25  1  0  0  0  0
 22 23  1  0  0  0  0
 22 36  1  6  0  0  0
 23 24  1  0  0  0  0
 23 31  1  1  0  0  0
 24 25  1  0  0  0  0
 24 26  1  6  0  0  0
 26 39  1  0  0  0  0
 27 28  1  0  0  0  0
 27 32  1  0  0  0  0
 27 38  1  1  0  0  0
 28 29  1  0  0  0  0
 28 37  1  6  0  0  0
 29 30  1  0  0  0  0
 29 42  1  1  0  0  0
 30 31  1  6  0  0  0
 30 33  1  0  0  0  0
 32 33  1  0  0  0  0
 32 34  1  6  0  0  0
 34 41  1  0  0  0  0
M  CHG  6   4   1  13   1  19   1  35   1  41   1  42   1
M  END
>  <CHROM.1>
107.67428013,-58.55219143,-70.08094370,36.65623915,85.51888155,53.70883040
-161.27779511,-55.08028457,173.46741601,-81.12874521,117.76471992,-168.09198117
136.29162768,132.90781458,44.83145289,60.65632436,176.82903697,68.63161840
51.41530250,172.78694194,-149.00274458,-177.11601972,-3.25269221,-2.71916123
-6.15600307,-1.63397345,-0.99200517,-2.74079923

>  <Name>


>  <RI>
0

>  <Rbt.Current_Directory>
/home/itssahil/PROJECTS/Mol_Feturizer/New_Systems/rnas/1ei2

>  <Rbt.Executable>
rbdock ($Id: //depot/dev/client3/rdock/2013.1/src/exe/rbdock.cxx#4 $)

>  <Rbt.Library>
libRbt.so (2013.1, Build901 2013/11/27)

>  <Rbt.Parameter_File>
/export/apps/rDock/src/rDock_2013.1_src/data/scripts/dock_solv.prm

>  <Rbt.Receptor>
prm/blind_docking_20.prm

>  <SCORE>
-23.3041

>  <SCORE.INTER>
-28.7216

>  <SCORE.INTER.CONST>
1

>  <SCORE.INTER.POLAR>
-5.82563

>  <SCORE.INTER.ROT>
9

>  <SCORE.INTER.SOLV>
41.8516

>  <SCORE.INTER.VDW>
-23.2795

>  <SCORE.INTER.norm>
-0.683848

>  <SCORE.INTRA>
-11.663

>  <SCORE.INTRA.DIHEDRAL>
-1.45197

>  <SCORE.INTRA.DIHEDRAL.0>
40.8761

>  <SCORE.INTRA.POLAR>
-2.08732

>  <SCORE.INTRA.POLAR.0>
-0.0268208

>  <SCORE.INTRA.REPUL>
-0.632822

>  <SCORE.INTRA.REPUL.0>
0.641615

>  <SCORE.INTRA.SOLV>
-0.918167

>  <SCORE.INTRA.SOLV.lig_0>
-162.567

>  <SCORE.INTRA.VDW>
-0.216921

>  <SCORE.INTRA.VDW.0>
-4.80338

>  <SCORE.INTRA.norm>
-0.277691

>  <SCORE.RESTR>
17.0805

>  <SCORE.RESTR.CAVITY>
17.0805

>  <SCORE.RESTR.norm>
0.406678

>  <SCORE.SYSTEM>
0

>  <SCORE.SYSTEM.CONST>
0

>  <SCORE.SYSTEM.DIHEDRAL>
0

>  <SCORE.SYSTEM.SOLV>
0

>  <SCORE.SYSTEM.norm>
0

>  <SCORE.heavy>
42

>  <SCORE.norm>
-0.55486

>  <RMSD>
10.171

$$$$

 OpenBabel11021811393D
libRbt.so/2013.1/901 2013/11/27
 42 45  0  0  0  0  0  0  0  0999 V2000
   -2.9333   -2.5222   -7.5519 C   0  0  2  0  0  0  0  0  0  0  0  0
   -2.5247   -1.1518   -7.2538 O   0  0  0  0  0  0  0  0  0  0  0  0
   -2.6523   -3.4812   -6.3497 C   0  0  2  0  0  0  0  0  0  0  0  0
   -2.3810   -2.7299   -5.1027 N   0  3  0  0  0  0  0  0  0  0  0  0
   -1.4700   -4.4423   -6.6772 C   0  0  1  0  0  0  0  0  0  0  0  0
   -1.2300   -5.3184   -5.5779 O   0  0  0  0  0  0  0  0  0  0  0  0
   -1.7578   -5.3015   -7.9375 C   0  0  2  0  0  0  0  0  0  0  0  0
   -0.5490   -5.9318   -8.3466 O   0  0  0  0  0  0  0  0  0  0  0  0
   -2.3270   -4.4276   -9.1019 C   0  0  2  0  0  0  0  0  0  0  0  0
   -2.2423   -3.0075   -8.7537 O   0  0  0  0  0  0  0  0  0  0  0  0
   -3.8077   -4.7062   -9.4483 C   0  0  0  0  0  0  0  0  0  0  0  0
   -4.2148    2.8156   -7.1021 C   0  0  1  0  0  0  0  0  0  0  0  0
   -5.1523    3.9503   -6.9479 N   0  3  0  0  0  0  0  0  0  0  0  0
   -3.9147    2.1362   -5.7403 C   0  0  1  0  0  0  0  0  0  0  0  0
   -3.0463    0.8356   -5.8603 C   0  0  1  0  0  0  0  0  0  0  0  0
   -3.1100    0.1288   -4.5926 O   0  0  0  0  0  0  0  0  0  0  0  0
   -3.5504   -0.1490   -6.9786 C   0  0  1  0  0  0  0  0  0  0  0  0
   -3.8637    0.5953   -8.3168 C   0  0  1  0  0  0  0  0  0  0  0  0
   -4.4767   -0.3002   -9.3190 N   0  3  0  0  0  0  0  0  0  0  0  0
   -4.8091    1.7978   -8.0977 C   0  0  0  0  0  0  0  0  0  0  0  0
   -3.3948    0.8693   -3.3706 C   0  0  1  0  0  0  0  0  0  0  0  0
   -4.8800    0.7343   -3.0562 C   0  0  1  0  0  0  0  0  0  0  0  0
   -4.8905   -0.6432   -2.4075 C   0  0  1  0  0  0  0  0  0  0  0  0
   -3.6198   -0.5908   -1.5474 C   0  0  2  0  0  0  0  0  0  0  0  0
   -2.7030    0.2722   -2.2616 O   0  0  0  0  0  0  0  0  0  0  0  0
   -2.9833   -1.9751   -1.3287 C   0  0  0  0  0  0  0  0  0  0  0  0
   -9.7630   -1.3839   -0.6398 C   0  0  1  0  0  0  0  0  0  0  0  0
   -9.2155   -0.1767   -1.4513 C   0  0  1  0  0  0  0  0  0  0  0  0
   -8.3227   -0.5772   -2.6611 C   0  0  2  0  0  0  0  0  0  0  0  0
   -7.1877   -1.5587   -2.2248 C   0  0  1  0  0  0  0  0  0  0  0  0
   -6.0847   -0.8446   -1.5981 O   0  0  0  0  0  0  0  0  0  0  0  0
   -9.1546   -2.7223   -1.1583 C   0  0  1  0  0  0  0  0  0  0  0  0
   -7.7017   -2.5834   -1.2870 O   0  0  0  0  0  0  0  0  0  0  0  0
   -9.4727   -3.9186   -0.2247 C   0  0  0  0  0  0  0  0  0  0  0  0
   -4.1305   -6.1308   -9.6424 N   0  3  0  0  0  0  0  0  0  0  0  0
   -5.2726    1.7504   -2.1332 O   0  0  0  0  0  0  0  0  0  0  0  0
  -10.3245    0.5798   -1.9351 O   0  0  0  0  0  0  0  0  0  0  0  0
   -9.4292   -1.1917    0.7366 O   0  0  0  0  0  0  0  0  0  0  0  0
   -3.9498   -2.9112   -0.8833 O   0  0  0  0  0  0  0  0  0  0  0  0
   -3.2269    3.0670   -4.9049 O   0  0  0  0  0  0  0  0  0  0  0  0
   -9.6216   -5.1914   -0.9541 N   0  3  0  0  0  0  0  0  0  0  0  0
   -7.8026    0.6184   -3.3699 N   0  3  0  0  0  0  0  0  0  0  0  0
  1  2  1  1  0  0  0
  1  3  1  0  0  0  0
  1 10  1  0  0  0  0
  3  4  1  1  0  0  0
  3  5  1  0  0  0  0
  5  6  1  1  0  0  0
  5  7  1  0  0  0  0
  7  8  1  6  0  0  0
  7  9  1  0  0  0  0
  9 10  1  0  0  0  0
  9 11  1  1  0  0  0
 11 35  1  0  0  0  0
 12 13  1  1  0  0  0
 12 14  1  0  0  0  0
 12 20  1  0  0  0  0
 14 15  1  0  0  0  0
 14 40  1  1  0  0  0
 15 16  1  1  0  0  0
 15 17  1  0  0  0  0
 17  2  1  6  0  0  0
 17 18  1  0  0  0  0
 18 19  1  6  0  0  0
 18 20  1  0  0  0  0
 21 16  1  6  0  0  0
 21 22  1  0  0  0  0
 21 25  1  0  0  0  0
 22 23  1  0  0  0  0
 22 36  1  1  0  0  0
 23 24  1  0  0  0  0
 23 31  1  1  0  0  0
 24 25  1  0  0  0  0
 24 26  1  6  0  0  0
 26 39  1  0  0  0  0
 27 28  1  0  0  0  0
 27 32  1  0  0  0  0
 27 38  1  1  0  0  0
 28 29  1  0  0  0  0
 28 37  1  6  0  0  0
 29 30  1  0  0  0  0
 29 42  1  1  0  0  0
 30 31  1  1  0  0  0
 30 33  1  0  0  0  0
 32 33  1  0  0  0  0
 32 34  1  1  0  0  0
 34 41  1  0  0  0  0
M  CHG  6   4   1  13   1  19   1  35   1  41   1  42   1
M  END
>  <CHROM.1>
-105.96379955,143.08218386,35.05464868,62.40958615,-55.70024549,-49.85140385
-168.86604253,-175.99438597,-68.86563489,-25.18120590,97.58632750,176.58281435
50.98137813,96.93645563,-50.20212254,58.57795218,56.38526095,95.30442770
59.21210086,-103.22704861,147.44020579,-33.46321479,-4.84899454,-1.34115396
-4.58878625,0.16245622,-0.88358583,3.08071894

>  <Name>


>  <RI>
0

>  <Rbt.Current_Directory>
/home/itssahil/PROJECTS/Mol_Feturizer/New_Systems/rnas/1ei2

>  <Rbt.Executable>
rbdock ($Id: //depot/dev/client3/rdock/2013.1/src/exe/rbdock.cxx#4 $)

>  <Rbt.Library>
libRbt.so (2013.1, Build901 2013/11/27)

>  <Rbt.Parameter_File>
/export/apps/rDock/src/rDock_2013.1_src/data/scripts/dock_solv.prm

>  <Rbt.Receptor>
prm/blind_docking_60.prm

>  <SCORE>
-13.3059

>  <SCORE.INTER>
-15.8012

>  <SCORE.INTER.CONST>
1

>  <SCORE.INTER.POLAR>
-4.7807

>  <SCORE.INTER.ROT>
9

>  <SCORE.INTER.SOLV>
37.9974

>  <SCORE.INTER.VDW>
-16.8643

>  <SCORE.INTER.norm>
-0.376219

>  <SCORE.INTRA>
-8.36494

>  <SCORE.INTRA.DIHEDRAL>
3.44319

>  <SCORE.INTRA.DIHEDRAL.0>
40.8761

>  <SCORE.INTRA.POLAR>
-1.6094

>  <SCORE.INTRA.POLAR.0>
-0.0268208

>  <SCORE.INTRA.REPUL>
-0.641615

>  <SCORE.INTRA.REPUL.0>
0.641615

>  <SCORE.INTRA.SOLV>
-5.39636

>  <SCORE.INTRA.SOLV.lig_0>
-162.567

>  <SCORE.INTRA.VDW>
1.29168

>  <SCORE.INTRA.VDW.0>
-4.80338

>  <SCORE.INTRA.norm>
-0.199165

>  <SCORE.RESTR>
10.8602

>  <SCORE.RESTR.CAVITY>
10.8602

>  <SCORE.RESTR.norm>
0.258577

>  <SCORE.SYSTEM>
0

>  <SCORE.SYSTEM.CONST>
0

>  <SCORE.SYSTEM.DIHEDRAL>
0

>  <SCORE.SYSTEM.SOLV>
0

>  <SCORE.SYSTEM.norm>
0

>  <SCORE.heavy>
42

>  <SCORE.norm>
-0.316807

>  <RMSD>
10.203

$$$$

 OpenBabel11021811393D
libRbt.so/2013.1/901 2013/11/27
 42 45  0  0  0  0  0  0  0  0999 V2000
   -3.0176   -2.6120   -7.4088 C   0  0  2  0  0  0  0  0  0  0  0  0
   -2.5318   -1.3412   -6.8770 O   0  0  0  0  0  0  0  0  0  0  0  0
   -2.8207   -3.7773   -6.3854 C   0  0  2  0  0  0  0  0  0  0  0  0
   -2.5291   -3.2677   -5.0259 N   0  3  0  0  0  0  0  0  0  0  0  0
   -1.6932   -4.7425   -6.8610 C   0  0  1  0  0  0  0  0  0  0  0  0
   -1.5299   -5.8062   -5.9253 O   0  0  0  0  0  0  0  0  0  0  0  0
   -2.0075   -5.3549   -8.2523 C   0  0  2  0  0  0  0  0  0  0  0  0
   -0.8317   -5.9826   -8.7514 O   0  0  0  0  0  0  0  0  0  0  0  0
   -2.4981   -4.2613   -9.2556 C   0  0  2  0  0  0  0  0  0  0  0  0
   -2.3335   -2.9293   -8.6691 O   0  0  0  0  0  0  0  0  0  0  0  0
   -3.9858   -4.3816   -9.6587 C   0  0  0  0  0  0  0  0  0  0  0  0
   -3.8678    2.7618   -6.8740 C   0  0  1  0  0  0  0  0  0  0  0  0
   -4.7081    3.9772   -6.7898 N   0  3  0  0  0  0  0  0  0  0  0  0
   -3.7098    2.0820   -5.4887 C   0  0  1  0  0  0  0  0  0  0  0  0
   -2.9551    0.7081   -5.5411 C   0  0  1  0  0  0  0  0  0  0  0  0
   -3.1557    0.0314   -4.2711 O   0  0  0  0  0  0  0  0  0  0  0  0
   -3.4785   -0.2473   -6.6757 C   0  0  1  0  0  0  0  0  0  0  0  0
   -3.6452    0.4986   -8.0391 C   0  0  1  0  0  0  0  0  0  0  0  0
   -4.2757   -0.3564   -9.0654 N   0  3  0  0  0  0  0  0  0  0  0  0
   -4.4910    1.7834   -7.8914 C   0  0  0  0  0  0  0  0  0  0  0  0
   -3.5454    0.8042   -3.0990 C   0  0  1  0  0  0  0  0  0  0  0  0
   -5.0311    0.5813   -2.8427 C   0  0  1  0  0  0  0  0  0  0  0  0
   -4.9795   -0.7635   -2.1305 C   0  0  1  0  0  0  0  0  0  0  0  0
   -3.7562   -0.5856   -1.2199 C   0  0  2  0  0  0  0  0  0  0  0  0
   -2.8671    0.3059   -1.9342 O   0  0  0  0  0  0  0  0  0  0  0  0
   -3.0394   -1.9117   -0.9087 C   0  0  0  0  0  0  0  0  0  0  0  0
   -9.8857   -1.6446   -0.5246 C   0  0  1  0  0  0  0  0  0  0  0  0
   -9.3366   -0.3931   -1.2646 C   0  0  1  0  0  0  0  0  0  0  0  0
   -8.4089   -0.7236   -2.4693 C   0  0  2  0  0  0  0  0  0  0  0  0
   -7.2705   -1.7090   -2.0514 C   0  0  1  0  0  0  0  0  0  0  0  0
   -6.1937   -1.0105   -1.3645 O   0  0  0  0  0  0  0  0  0  0  0  0
   -9.2452   -2.9485   -1.0901 C   0  0  1  0  0  0  0  0  0  0  0  0
   -7.7919   -2.7839   -1.1759 O   0  0  0  0  0  0  0  0  0  0  0  0
   -9.5681   -4.1920   -0.2220 C   0  0  0  0  0  0  0  0  0  0  0  0
   -4.4523   -5.7645   -9.8614 N   0  3  0  0  0  0  0  0  0  0  0  0
   -5.5329    1.6080   -1.9867 O   0  0  0  0  0  0  0  0  0  0  0  0
  -10.4447    0.3703   -1.7399 O   0  0  0  0  0  0  0  0  0  0  0  0
   -9.5883   -1.5132    0.8672 O   0  0  0  0  0  0  0  0  0  0  0  0
   -3.0106   -2.7508   -2.0505 O   0  0  0  0  0  0  0  0  0  0  0  0
   -2.9921    2.9628   -4.6248 O   0  0  0  0  0  0  0  0  0  0  0  0
   -9.6094   -5.4418   -1.0032 N   0  3  0  0  0  0  0  0  0  0  0  0
   -7.8895    0.5112   -3.1079 N   0  3  0  0  0  0  0  0  0  0  0  0
  1  2  1  1  0  0  0
  1  3  1  0  0  0  0
  1 10  1  0  0  0  0
  3  4  1  1  0  0  0
  3  5  1  0  0  0  0
  5  6  1  1  0  0  0
  5  7  1  0  0  0  0
  7  8  1  6  0  0  0
  7  9  1  0  0  0  0
  9 10  1  0  0  0  0
  9 11  1  1  0  0  0
 11 35  1  0  0  0  0
 12 13  1  1  0  0  0
 12 14  1  0  0  0  0
 12 20  1  0  0  0  0
 14 15  1  0  0  0  0
 14 40  1  1  0  0  0
 15 16  1  1  0  0  0
 15 17  1  0  0  0  0
 17  2  1  6  0  0  0
 17 18  1  0  0  0  0
 18 19  1  6  0  0  0
 18 20  1  0  0  0  0
 21 16  1  6  0  0  0
 21 22  1  0  0  0  0
 21 25  1  0  0  0  0
 22 23  1  0  0  0  0
 22 36  1  1  0  0  0
 23 24  1  0  0  0  0
 23 31  1  1  0  0  0
 24 25  1  0  0  0  0
 24 26  1  6  0  0  0
 26 39  1  0  0  0  0
 27 28  1  0  0  0  0
 27 32  1  0  0  0  0
 27 38  1  1  0  0  0
 28 29  1  0  0  0  0
 28 37  1  6  0  0  0
 29 30  1  0  0  0  0
 29 42  1  1  0  0  0
 30 31  1  1  0  0  0
 30 33  1  0  0  0  0
 32 33  1  0  0  0  0
 32 34  1  1  0  0  0
 34 41  1  0  0  0  0
M  CHG  6   4   1  13   1  19   1  35   1  41   1  42   1
M  END
>  <CHROM.1>
-117.14347438,153.68883174,95.94151271,171.44516231,76.80922674,-39.35633831
-170.90336190,-53.58999496,-56.62200954,-20.49346177,103.51542783,-58.65140037
-45.66480083,90.88206010,38.83794730,62.76546760,178.05998804,67.93893336
62.62825604,-103.66827910,150.50502165,-157.45844876,-4.87555761,-1.45463752
-4.50293643,0.28605037,-0.87058817,-3.02187483

>  <Name>


>  <RI>
0

>  <Rbt.Current_Directory>
/home/itssahil/PROJECTS/Mol_Feturizer/New_Systems/rnas/1ei2

>  <Rbt.Executable>
rbdock ($Id: //depot/dev/client3/rdock/2013.1/src/exe/rbdock.cxx#4 $)

>  <Rbt.Library>
libRbt.so (2013.1, Build901 2013/11/27)

>  <Rbt.Parameter_File>
/export/apps/rDock/src/rDock_2013.1_src/data/scripts/dock_solv.prm

>  <Rbt.Receptor>
prm/blind_docking_80.prm

>  <SCORE>
-12.4753

>  <SCORE.INTER>
-17.4208

>  <SCORE.INTER.CONST>
1

>  <SCORE.INTER.POLAR>
-4.89048

>  <SCORE.INTER.ROT>
9

>  <SCORE.INTER.SOLV>
37.3686

>  <SCORE.INTER.VDW>
-17.3685

>  <SCORE.INTER.norm>
-0.414782

>  <SCORE.INTRA>
-6.06118

>  <SCORE.INTRA.DIHEDRAL>
3.24942

>  <SCORE.INTRA.DIHEDRAL.0>
40.8761

>  <SCORE.INTRA.POLAR>
-1.76175

>  <SCORE.INTRA.POLAR.0>
-0.0268208

>  <SCORE.INTRA.REPUL>
-0.641615

>  <SCORE.INTRA.REPUL.0>
0.641615

>  <SCORE.INTRA.SOLV>
-3.39201

>  <SCORE.INTRA.SOLV.lig_0>
-162.567

>  <SCORE.INTRA.VDW>
3.20814

>  <SCORE.INTRA.VDW.0>
-4.80338

>  <SCORE.INTRA.norm>
-0.144314

>  <SCORE.RESTR>
11.0067

>  <SCORE.RESTR.CAVITY>
11.0067

>  <SCORE.RESTR.norm>
0.262064

>  <SCORE.SYSTEM>
0

>  <SCORE.SYSTEM.CONST>
0

>  <SCORE.SYSTEM.DIHEDRAL>
0

>  <SCORE.SYSTEM.SOLV>
0

>  <SCORE.SYSTEM.norm>
0

>  <SCORE.heavy>
42

>  <SCORE.norm>
-0.297031

>  <RMSD>
10.225

$$$$

 OpenBabel11021811393D
libRbt.so/2013.1/901 2013/11/27
 42 45  0  0  0  0  0  0  0  0999 V2000
   -3.4718   -2.2379   -6.6724 C   0  0  2  0  0  0  0  0  0  0  0  0
   -4.5319   -1.5705   -7.4236 O   0  0  0  0  0  0  0  0  0  0  0  0
   -2.3928   -2.8528   -7.6218 C   0  0  2  0  0  0  0  0  0  0  0  0
   -2.5077   -2.3190   -8.9984 N   0  3  0  0  0  0  0  0  0  0  0  0
   -2.4883   -4.4084   -7.6288 C   0  0  1  0  0  0  0  0  0  0  0  0
   -1.4932   -4.9579   -8.4899 O   0  0  0  0  0  0  0  0  0  0  0  0
   -2.2938   -5.0042   -6.2088 C   0  0  2  0  0  0  0  0  0  0  0  0
   -2.6763   -6.3749   -6.2320 O   0  0  0  0  0  0  0  0  0  0  0  0
   -3.1408   -4.2295   -5.1477 C   0  0  2  0  0  0  0  0  0  0  0  0
   -4.0405   -3.2848   -5.8135 O   0  0  0  0  0  0  0  0  0  0  0  0
   -2.3077   -3.4048   -4.1397 C   0  0  0  0  0  0  0  0  0  0  0  0
   -3.3548    2.5145   -6.6837 C   0  0  1  0  0  0  0  0  0  0  0  0
   -3.3673    3.9870   -6.5358 N   0  3  0  0  0  0  0  0  0  0  0  0
   -4.1988    1.8243   -5.5803 C   0  0  1  0  0  0  0  0  0  0  0  0
   -4.3459    0.2748   -5.7732 C   0  0  1  0  0  0  0  0  0  0  0  0
   -5.4005   -0.1942   -4.8906 O   0  0  0  0  0  0  0  0  0  0  0  0
   -4.7371   -0.1360   -7.2403 C   0  0  1  0  0  0  0  0  0  0  0  0
   -3.8742    0.6115   -8.3078 C   0  0  1  0  0  0  0  0  0  0  0  0
   -4.3381    0.3411   -9.6839 N   0  3  0  0  0  0  0  0  0  0  0  0
   -3.8820    2.1405   -8.0847 C   0  0  0  0  0  0  0  0  0  0  0  0
   -5.7817    0.6090   -3.7364 C   0  0  1  0  0  0  0  0  0  0  0  0
   -6.9772   -0.0507   -3.0595 C   0  0  1  0  0  0  0  0  0  0  0  0
   -6.2664   -1.1368   -2.2634 C   0  0  1  0  0  0  0  0  0  0  0  0
   -5.0310   -0.3851   -1.7477 C   0  0  2  0  0  0  0  0  0  0  0  0
   -4.7255    0.6015   -2.7620 O   0  0  0  0  0  0  0  0  0  0  0  0
   -3.8179   -1.3049   -1.5206 C   0  0  0  0  0  0  0  0  0  0  0  0
   -9.8090   -3.4926    0.8042 C   0  0  1  0  0  0  0  0  0  0  0  0
   -9.7036   -1.9485    0.6627 C   0  0  1  0  0  0  0  0  0  0  0  0
   -9.5540   -1.4539   -0.8050 C   0  0  2  0  0  0  0  0  0  0  0  0
   -8.3872   -2.1946   -1.5343 C   0  0  1  0  0  0  0  0  0  0  0  0
   -7.0954   -1.6297   -1.1718 O   0  0  0  0  0  0  0  0  0  0  0  0
   -9.5891   -4.1918   -0.5717 C   0  0  1  0  0  0  0  0  0  0  0  0
   -8.3942   -3.6412   -1.2163 O   0  0  0  0  0  0  0  0  0  0  0  0
   -9.4347   -5.7287   -0.4373 C   0  0  0  0  0  0  0  0  0  0  0  0
   -2.3439   -3.9149   -2.7578 N   0  3  0  0  0  0  0  0  0  0  0  0
   -7.6250    0.8884   -2.2010 O   0  0  0  0  0  0  0  0  0  0  0  0
  -10.8794   -1.3644    1.2219 O   0  0  0  0  0  0  0  0  0  0  0  0
   -8.8223   -3.9289    1.7417 O   0  0  0  0  0  0  0  0  0  0  0  0
   -2.7717   -0.6091   -0.8648 O   0  0  0  0  0  0  0  0  0  0  0  0
   -3.5869    2.0693   -4.3142 O   0  0  0  0  0  0  0  0  0  0  0  0
   -9.8501   -6.4552   -1.6512 N   0  3  0  0  0  0  0  0  0  0  0  0
   -9.4209    0.0228   -0.8683 N   0  3  0  0  0  0  0  0  0  0  0  0
  1  2  1  6  0  0  0
  1  3  1  0  0  0  0
  1 10  1  0  0  0  0
  3  4  1  6  0  0  0
  3  5  1  0  0  0  0
  5  6  1  6  0  0  0
  5  7  1  0  0  0  0
  7  8  1  6  0  0  0
  7  9  1  0  0  0  0
  9 10  1  0  0  0  0
  9 11  1  1  0  0  0
 11 35  1  0  0  0  0
 12 13  1  1  0  0  0
 12 14  1  0  0  0  0
 12 20  1  0  0  0  0
 14 15  1  0  0  0  0
 14 40  1  1  0  0  0
 15 16  1  1  0  0  0
 15 17  1  0  0  0  0
 17  2  1  1  0  0  0
 17 18  1  0  0  0  0
 18 19  1  6  0  0  0
 18 20  1  0  0  0  0
 21 16  1  6  0  0  0
 21 22  1  0  0  0  0
 21 25  1  0  0  0  0
 22 23  1  0  0  0  0
 22 36  1  1  0  0  0
 23 24  1  0  0  0  0
 23 31  1  1  0  0  0
 24 25  1  0  0  0  0
 24 26  1  6  0  0  0
 26 39  1  0  0  0  0
 27 28  1  0  0  0  0
 27 32  1  0  0  0  0
 27 38  1  1  0  0  0
 28 29  1  0  0  0  0
 28 37  1  6  0  0  0
 29 30  1  0  0  0  0
 29 42  1  1  0  0  0
 30 31  1  1  0  0  0
 30 33  1  0  0  0  0
 32 33  1  0  0  0  0
 32 34  1  1  0  0  0
 34 41  1  0  0  0  0
M  CHG  6   4   1  13   1  19   1  35   1  41   1  42   1
M  END
>  <CHROM.1>
-117.92429432,-30.90877224,103.52179873,-162.81900048,70.77211377,-111.73917811
-36.98285823,-57.45076147,-52.76100292,-20.99548322,175.27562579,89.21861716
65.16182459,58.58988388,-171.44883066,-171.41015002,-178.65624907,-172.28882589
46.40407501,-122.82921402,153.09931721,-12.89052360,-5.44010741,-1.64342925
-3.94639894,-0.25828556,-0.86084189,3.02458920

>  <Name>


>  <RI>
0

>  <Rbt.Current_Directory>
/home/itssahil/PROJECTS/Mol_Feturizer/New_Systems/rnas/1ei2

>  <Rbt.Executable>
rbdock ($Id: //depot/dev/client3/rdock/2013.1/src/exe/rbdock.cxx#4 $)

>  <Rbt.Library>
libRbt.so (2013.1, Build901 2013/11/27)

>  <Rbt.Parameter_File>
/export/apps/rDock/src/rDock_2013.1_src/data/scripts/dock_solv.prm

>  <Rbt.Receptor>
prm/blind_docking_20.prm

>  <SCORE>
38.7945

>  <SCORE.INTER>
28.8242

>  <SCORE.INTER.CONST>
1

>  <SCORE.INTER.POLAR>
-6.9135

>  <SCORE.INTER.ROT>
9

>  <SCORE.INTER.SOLV>
58.9457

>  <SCORE.INTER.VDW>
13.0126

>  <SCORE.INTER.norm>
0.686291

>  <SCORE.INTRA>
0.438767

>  <SCORE.INTRA.DIHEDRAL>
3.23405

>  <SCORE.INTRA.DIHEDRAL.0>
40.8761

>  <SCORE.INTRA.POLAR>
-0.625441

>  <SCORE.INTRA.POLAR.0>
-0.0268208

>  <SCORE.INTRA.REPUL>
-0.641615

>  <SCORE.INTRA.REPUL.0>
0.641615

>  <SCORE.INTRA.SOLV>
-3.47156

>  <SCORE.INTRA.SOLV.lig_0>
-162.567

>  <SCORE.INTRA.VDW>
5.8921

>  <SCORE.INTRA.VDW.0>
-4.80338

>  <SCORE.INTRA.norm>
0.0104468

>  <SCORE.RESTR>
9.53154

>  <SCORE.RESTR.CAVITY>
9.53154

>  <SCORE.RESTR.norm>
0.226942

>  <SCORE.SYSTEM>
0

>  <SCORE.SYSTEM.CONST>
0

>  <SCORE.SYSTEM.DIHEDRAL>
0

>  <SCORE.SYSTEM.SOLV>
0

>  <SCORE.SYSTEM.norm>
0

>  <SCORE.heavy>
42

>  <SCORE.norm>
0.923679

>  <RMSD>
10.266

$$$$

 OpenBabel11021811393D
libRbt.so/2013.1/901 2013/11/27
 42 45  0  0  0  0  0  0  0  0999 V2000
   -2.9611   -2.5371   -7.7745 C   0  0  2  0  0  0  0  0  0  0  0  0
   -2.3639   -1.3344   -7.1997 O   0  0  0  0  0  0  0  0  0  0  0  0
   -2.2026   -3.8279   -7.3247 C   0  0  2  0  0  0  0  0  0  0  0  0
   -1.3102   -3.5644   -6.1727 N   0  3  0  0  0  0  0  0  0  0  0  0
   -1.3970   -4.4349   -8.5128 C   0  0  1  0  0  0  0  0  0  0  0  0
   -0.7181   -5.6167   -8.0933 O   0  0  0  0  0  0  0  0  0  0  0  0
   -2.3179   -4.7948   -9.7094 C   0  0  2  0  0  0  0  0  0  0  0  0
   -1.5053   -5.0639  -10.8465 O   0  0  0  0  0  0  0  0  0  0  0  0
   -3.3157   -3.6341  -10.0265 C   0  0  2  0  0  0  0  0  0  0  0  0
   -2.9733   -2.4466   -9.2404 O   0  0  0  0  0  0  0  0  0  0  0  0
   -4.7948   -3.9559   -9.7124 C   0  0  0  0  0  0  0  0  0  0  0  0
   -3.2383    2.8888   -7.0581 C   0  0  1  0  0  0  0  0  0  0  0  0
   -3.9442    4.1863   -6.9650 N   0  3  0  0  0  0  0  0  0  0  0  0
   -3.2639    2.1287   -5.7061 C   0  0  1  0  0  0  0  0  0  0  0  0
   -2.6625    0.6821   -5.7826 C   0  0  1  0  0  0  0  0  0  0  0  0
   -3.0343   -0.0285   -4.5711 O   0  0  0  0  0  0  0  0  0  0  0  0
   -3.1977   -0.1511   -7.0047 C   0  0  1  0  0  0  0  0  0  0  0  0
   -3.1752    0.6746   -8.3316 C   0  0  1  0  0  0  0  0  0  0  0  0
   -3.8140   -0.0522   -9.4478 N   0  3  0  0  0  0  0  0  0  0  0  0
   -3.8840    2.0384   -8.1718 C   0  0  0  0  0  0  0  0  0  0  0  0
   -3.2802    0.7204   -3.3457 C   0  0  1  0  0  0  0  0  0  0  0  0
   -4.7660    0.6377   -3.0163 C   0  0  1  0  0  0  0  0  0  0  0  0
   -4.8187   -0.7393   -2.3686 C   0  0  1  0  0  0  0  0  0  0  0  0
   -3.5384   -0.7329   -1.5214 C   0  0  2  0  0  0  0  0  0  0  0  0
   -2.5988    0.0979   -2.2443 O   0  0  0  0  0  0  0  0  0  0  0  0
   -2.9490   -2.1391   -1.3103 C   0  0  0  0  0  0  0  0  0  0  0  0
   -9.7099   -1.3218   -0.6101 C   0  0  1  0  0  0  0  0  0  0  0  0
   -9.1367   -0.1934   -1.5120 C   0  0  1  0  0  0  0  0  0  0  0  0
   -8.2284   -0.7037   -2.6677 C   0  0  2  0  0  0  0  0  0  0  0  0
   -7.1110   -1.6544   -2.1298 C   0  0  1  0  0  0  0  0  0  0  0  0
   -6.0111   -0.8992   -1.5473 O   0  0  0  0  0  0  0  0  0  0  0  0
   -9.1070   -2.7050   -1.0019 C   0  0  1  0  0  0  0  0  0  0  0  0
   -7.6509   -2.5906   -1.1170 O   0  0  0  0  0  0  0  0  0  0  0  0
   -9.4527   -3.8143    0.0246 C   0  0  0  0  0  0  0  0  0  0  0  0
   -5.7426   -2.8911  -10.0853 N   0  3  0  0  0  0  0  0  0  0  0  0
   -5.1130    1.6660   -2.0886 O   0  0  0  0  0  0  0  0  0  0  0  0
  -10.2298    0.5289   -2.0777 O   0  0  0  0  0  0  0  0  0  0  0  0
   -9.3968   -1.0157    0.7505 O   0  0  0  0  0  0  0  0  0  0  0  0
   -3.7602   -2.9005   -0.4322 O   0  0  0  0  0  0  0  0  0  0  0  0
   -2.5232    2.8790   -4.7439 O   0  0  0  0  0  0  0  0  0  0  0  0
   -8.5125   -4.9492   -0.0189 N   0  3  0  0  0  0  0  0  0  0  0  0
   -7.6843    0.4223   -3.4668 N   0  3  0  0  0  0  0  0  0  0  0  0
  1  2  1  1  0  0  0
  1  3  1  0  0  0  0
  1 10  1  0  0  0  0
  3  4  1  1  0  0  0
  3  5  1  0  0  0  0
  5  6  1  1  0  0  0
  5  7  1  0  0  0  0
  7  8  1  6  0  0  0
  7  9  1  0  0  0  0
  9 10  1  0  0  0  0
  9 11  1  1  0  0  0
 11 35  1  0  0  0  0
 12 13  1  1  0  0  0
 12 14  1  0  0  0  0
 12 20  1  0  0  0  0
 14 15  1  0  0  0  0
 14 40  1  1  0  0  0
 15 16  1  1  0  0  0
 15 17  1  0  0  0  0
 17  2  1  6  0  0  0
 17 18  1  0  0  0  0
 18 19  1  6  0  0  0
 18 20  1  0  0  0  0
 21 16  1  6  0  0  0
 21 22  1  0  0  0  0
 21 25  1  0  0  0  0
 22 23  1  0  0  0  0
 22 36  1  1  0  0  0
 23 24  1  0  0  0  0
 23 31  1  1  0  0  0
 24 25  1  0  0  0  0
 24 26  1  6  0  0  0
 26 39  1  0  0  0  0
 27 28  1  0  0  0  0
 27 32  1  0  0  0  0
 27 38  1  1  0  0  0
 28 29  1  0  0  0  0
 28 37  1  6  0  0  0
 29 30  1  0  0  0  0
 29 42  1  1  0  0  0
 30 31  1  1  0  0  0
 30 33  1  0  0  0  0
 32 33  1  0  0  0  0
 32 34  1  1  0  0  0
 34 41  1  0  0  0  0
M  CHG  6   4   1  13   1  19   1  35   1  41   1  42   1
M  END
>  <CHROM.1>
-153.71428880,150.60508892,25.90809447,71.53613619,-179.35366805,-176.58858210
65.71343479,86.05591910,76.49204202,-27.39191751,111.26915395,-55.28648264
77.53538678,101.09354973,-71.19661500,-175.66734067,62.32789261,172.16989633
51.79097173,-101.18403180,-157.82277515,-72.43955582,-4.70931081,-1.22100963
-4.85158687,0.29243304,-0.95328833,-2.93022752

>  <Name>


>  <RI>
0

>  <Rbt.Current_Directory>
/home/itssahil/PROJECTS/Mol_Feturizer/New_Systems/rnas/1ei2

>  <Rbt.Executable>
rbdock ($Id: //depot/dev/client3/rdock/2013.1/src/exe/rbdock.cxx#4 $)

>  <Rbt.Library>
libRbt.so (2013.1, Build901 2013/11/27)

>  <Rbt.Parameter_File>
/export/apps/rDock/src/rDock_2013.1_src/data/scripts/dock_solv.prm

>  <Rbt.Receptor>
prm/blind_docking_100.prm

>  <SCORE>
12.4666

>  <SCORE.INTER>
6.7393

>  <SCORE.INTER.CONST>
1

>  <SCORE.INTER.POLAR>
-3.21236

>  <SCORE.INTER.ROT>
9

>  <SCORE.INTER.SOLV>
42.9756

>  <SCORE.INTER.VDW>
-8.72449

>  <SCORE.INTER.norm>
0.16046

>  <SCORE.INTRA>
-6.49358

>  <SCORE.INTRA.DIHEDRAL>
-2.06606

>  <SCORE.INTRA.DIHEDRAL.0>
40.8761

>  <SCORE.INTRA.POLAR>
-1.01084

>  <SCORE.INTRA.POLAR.0>
-0.0268208

>  <SCORE.INTRA.REPUL>
-0.445494

>  <SCORE.INTRA.REPUL.0>
0.641615

>  <SCORE.INTRA.SOLV>
-2.59435

>  <SCORE.INTRA.SOLV.lig_0>
-162.567

>  <SCORE.INTRA.VDW>
1.50094

>  <SCORE.INTRA.VDW.0>
-4.80338

>  <SCORE.INTRA.norm>
-0.154609

>  <SCORE.RESTR>
12.2209

>  <SCORE.RESTR.CAVITY>
12.2209

>  <SCORE.RESTR.norm>
0.290974

>  <SCORE.SYSTEM>
0

>  <SCORE.SYSTEM.CONST>
0

>  <SCORE.SYSTEM.DIHEDRAL>
0

>  <SCORE.SYSTEM.SOLV>
0

>  <SCORE.SYSTEM.norm>
0

>  <SCORE.heavy>
42

>  <SCORE.norm>
0.296825

>  <RMSD>
10.299

$$$$

 OpenBabel11021811393D
libRbt.so/2013.1/901 2013/11/27
 42 45  0  0  0  0  0  0  0  0999 V2000
   -2.8036   -2.9450   -6.8343 C   0  0  2  0  0  0  0  0  0  0  0  0
   -3.6246   -1.7980   -7.2136 O   0  0  0  0  0  0  0  0  0  0  0  0
   -2.2302   -3.6823   -8.0879 C   0  0  2  0  0  0  0  0  0  0  0  0
   -2.3547   -2.8577   -9.3117 N   0  3  0  0  0  0  0  0  0  0  0  0
   -2.9307   -5.0607   -8.2838 C   0  0  1  0  0  0  0  0  0  0  0  0
   -2.3925   -5.7278   -9.4235 O   0  0  0  0  0  0  0  0  0  0  0  0
   -2.7515   -5.9794   -7.0456 C   0  0  2  0  0  0  0  0  0  0  0  0
   -3.6411   -7.0841   -7.1636 O   0  0  0  0  0  0  0  0  0  0  0  0
   -3.0335   -5.2038   -5.7181 C   0  0  2  0  0  0  0  0  0  0  0  0
   -3.5860   -3.8803   -6.0156 O   0  0  0  0  0  0  0  0  0  0  0  0
   -1.7866   -4.9694   -4.8347 C   0  0  0  0  0  0  0  0  0  0  0  0
   -1.1083    1.3190   -5.6098 C   0  0  1  0  0  0  0  0  0  0  0  0
   -0.6176    2.6126   -5.0841 N   0  3  0  0  0  0  0  0  0  0  0  0
   -2.0837    0.6342   -4.6168 C   0  0  1  0  0  0  0  0  0  0  0  0
   -2.7525   -0.6665   -5.1832 C   0  0  1  0  0  0  0  0  0  0  0  0
   -3.8615   -1.0217   -4.3144 O   0  0  0  0  0  0  0  0  0  0  0  0
   -3.3263   -0.4896   -6.6370 C   0  0  1  0  0  0  0  0  0  0  0  0
   -2.3123    0.2309   -7.5834 C   0  0  1  0  0  0  0  0  0  0  0  0
   -2.9030    0.5309   -8.9036 N   0  3  0  0  0  0  0  0  0  0  0  0
   -1.7947    1.5522   -6.9718 C   0  0  0  0  0  0  0  0  0  0  0  0
   -4.7596    0.0200   -3.8336 C   0  0  1  0  0  0  0  0  0  0  0  0
   -6.0587   -0.6326   -3.3758 C   0  0  1  0  0  0  0  0  0  0  0  0
   -5.6387   -1.1227   -1.9967 C   0  0  1  0  0  0  0  0  0  0  0  0
   -4.8040    0.0611   -1.4877 C   0  0  2  0  0  0  0  0  0  0  0  0
   -4.2036    0.6482   -2.6669 O   0  0  0  0  0  0  0  0  0  0  0  0
   -3.7103   -0.3585   -0.4891 C   0  0  0  0  0  0  0  0  0  0  0  0
  -10.1223   -2.7304    0.2049 C   0  0  1  0  0  0  0  0  0  0  0  0
   -9.8651   -1.2642   -0.2415 C   0  0  1  0  0  0  0  0  0  0  0  0
   -9.2203   -1.1333   -1.6516 C   0  0  2  0  0  0  0  0  0  0  0  0
   -7.9392   -2.0201   -1.7711 C   0  0  1  0  0  0  0  0  0  0  0  0
   -6.7926   -1.3778   -1.1450 O   0  0  0  0  0  0  0  0  0  0  0  0
   -9.5272   -3.7366   -0.8265 C   0  0  1  0  0  0  0  0  0  0  0  0
   -8.1524   -3.3490   -1.1528 O   0  0  0  0  0  0  0  0  0  0  0  0
   -9.5360   -5.1961   -0.3033 C   0  0  0  0  0  0  0  0  0  0  0  0
   -2.0875   -4.5454   -3.4560 N   0  3  0  0  0  0  0  0  0  0  0  0
   -7.0895    0.3516   -3.2900 O   0  0  0  0  0  0  0  0  0  0  0  0
  -11.1120   -0.5701   -0.2454 O   0  0  0  0  0  0  0  0  0  0  0  0
   -9.5201   -2.9248    1.4865 O   0  0  0  0  0  0  0  0  0  0  0  0
   -4.1693   -0.2322    0.8458 O   0  0  0  0  0  0  0  0  0  0  0  0
   -1.3674    0.2974   -3.4290 O   0  0  0  0  0  0  0  0  0  0  0  0
   -9.8479   -6.1807   -1.3556 N   0  3  0  0  0  0  0  0  0  0  0  0
   -8.9668    0.2863   -2.0019 N   0  3  0  0  0  0  0  0  0  0  0  0
  1  2  1  6  0  0  0
  1  3  1  0  0  0  0
  1 10  1  0  0  0  0
  3  4  1  6  0  0  0
  3  5  1  0  0  0  0
  5  6  1  6  0  0  0
  5  7  1  0  0  0  0
  7  8  1  6  0  0  0
  7  9  1  0  0  0  0
  9 10  1  0  0  0  0
  9 11  1  6  0  0  0
 11 35  1  0  0  0  0
 12 13  1  1  0  0  0
 12 14  1  0  0  0  0
 12 20  1  0  0  0  0
 14 15  1  0  0  0  0
 14 40  1  1  0  0  0
 15 16  1  1  0  0  0
 15 17  1  0  0  0  0
 17  2  1  6  0  0  0
 17 18  1  0  0  0  0
 18 19  1  6  0  0  0
 18 20  1  0  0  0  0
 21 16  1  1  0  0  0
 21 22  1  0  0  0  0
 21 25  1  0  0  0  0
 22 23  1  0  0  0  0
 22 36  1  1  0  0  0
 23 24  1  0  0  0  0
 23 31  1  1  0  0  0
 24 25  1  0  0  0  0
 24 26  1  1  0  0  0
 26 39  1  0  0  0  0
 27 28  1  0  0  0  0
 27 32  1  0  0  0  0
 27 38  1  1  0  0  0
 28 29  1  0  0  0  0
 28 37  1  6  0  0  0
 29 30  1  0  0  0  0
 29 42  1  1  0  0  0
 30 31  1  1  0  0  0
 30 33  1  0  0  0  0
 32 33  1  0  0  0  0
 32 34  1  1  0  0  0
 34 41  1  0  0  0  0
M  CHG  6   4   1  13   1  19   1  35   1  41   1  42   1
M  END
>  <CHROM.1>
-126.66028952,-31.91049881,-37.92008498,68.11418926,65.76245947,-165.68055443
-33.51680588,-124.41245332,68.33220043,43.12311933,160.60164085,158.82909814
69.40633553,40.67326651,-94.36528482,-45.59451502,82.60091403,-77.49381615
-7.99296403,-121.23696080,142.31369493,-34.39762060,-4.92779302,-1.91065697
-3.96678531,0.32703209,-0.72923534,-2.67946794

>  <Name>


>  <RI>
0

>  <Rbt.Current_Directory>
/home/itssahil/PROJECTS/Mol_Feturizer/New_Systems/rnas/1ei2

>  <Rbt.Executable>
rbdock ($Id: //depot/dev/client3/rdock/2013.1/src/exe/rbdock.cxx#4 $)

>  <Rbt.Library>
libRbt.so (2013.1, Build901 2013/11/27)

>  <Rbt.Parameter_File>
/export/apps/rDock/src/rDock_2013.1_src/data/scripts/dock_solv.prm

>  <Rbt.Receptor>
prm/blind_docking_60.prm

>  <SCORE>
59.1704

>  <SCORE.INTER>
51.2464

>  <SCORE.INTER.CONST>
1

>  <SCORE.INTER.POLAR>
-7.74411

>  <SCORE.INTER.ROT>
9

>  <SCORE.INTER.SOLV>
61.5043

>  <SCORE.INTER.VDW>
29.8765

>  <SCORE.INTER.norm>
1.22015

>  <SCORE.INTRA>
1.59773

>  <SCORE.INTRA.DIHEDRAL>
7.47313

>  <SCORE.INTRA.DIHEDRAL.0>
40.8761

>  <SCORE.INTRA.POLAR>
-0.500104

>  <SCORE.INTRA.POLAR.0>
-0.0268208

>  <SCORE.INTRA.REPUL>
-0.641615

>  <SCORE.INTRA.REPUL.0>
0.641615

>  <SCORE.INTRA.SOLV>
-5.48015

>  <SCORE.INTRA.SOLV.lig_0>
-162.567

>  <SCORE.INTRA.VDW>
5.50966

>  <SCORE.INTRA.VDW.0>
-4.80338

>  <SCORE.INTRA.norm>
0.0380411

>  <SCORE.RESTR>
6.32621

>  <SCORE.RESTR.CAVITY>
6.32621

>  <SCORE.RESTR.norm>
0.150624

>  <SCORE.SYSTEM>
0

>  <SCORE.SYSTEM.CONST>
0

>  <SCORE.SYSTEM.DIHEDRAL>
0

>  <SCORE.SYSTEM.SOLV>
0

>  <SCORE.SYSTEM.norm>
0

>  <SCORE.heavy>
42

>  <SCORE.norm>
1.40882

>  <RMSD>
10.302

$$$$

 OpenBabel11021811393D
libRbt.so/2013.1/901 2013/11/27
 42 45  0  0  0  0  0  0  0  0999 V2000
   -4.0775   -4.1184   -7.4032 C   0  0  2  0  0  0  0  0  0  0  0  0
   -4.8020   -2.8543   -7.2987 O   0  0  0  0  0  0  0  0  0  0  0  0
   -2.8347   -4.1498   -6.4554 C   0  0  2  0  0  0  0  0  0  0  0  0
   -2.8906   -3.0692   -5.4444 N   0  3  0  0  0  0  0  0  0  0  0  0
   -1.5135   -4.0618   -7.2774 C   0  0  1  0  0  0  0  0  0  0  0  0
   -0.3875   -4.1016   -6.4035 O   0  0  0  0  0  0  0  0  0  0  0  0
   -1.3887   -5.2277   -8.2945 C   0  0  2  0  0  0  0  0  0  0  0  0
   -0.3286   -4.9346   -9.1978 O   0  0  0  0  0  0  0  0  0  0  0  0
   -2.7218   -5.4378   -9.0831 C   0  0  2  0  0  0  0  0  0  0  0  0
   -3.6567   -4.3486   -8.7914 O   0  0  0  0  0  0  0  0  0  0  0  0
   -3.4637   -6.7527   -8.7503 C   0  0  0  0  0  0  0  0  0  0  0  0
   -2.0274   -0.6257   -9.7389 C   0  0  1  0  0  0  0  0  0  0  0  0
   -1.3950    0.4341  -10.5558 N   0  3  0  0  0  0  0  0  0  0  0  0
   -2.1296   -0.2103   -8.2478 C   0  0  1  0  0  0  0  0  0  0  0  0
   -2.9258   -1.2296   -7.3607 C   0  0  1  0  0  0  0  0  0  0  0  0
   -3.2295   -0.5875   -6.0933 O   0  0  0  0  0  0  0  0  0  0  0  0
   -4.2890   -1.6816   -8.0023 C   0  0  1  0  0  0  0  0  0  0  0  0
   -4.1298   -2.0598   -9.5105 C   0  0  1  0  0  0  0  0  0  0  0  0
   -5.4304   -2.3405  -10.1520 N   0  3  0  0  0  0  0  0  0  0  0  0
   -3.4246   -0.9423  -10.3116 C   0  0  0  0  0  0  0  0  0  0  0  0
   -3.8618    0.7251   -6.0861 C   0  0  1  0  0  0  0  0  0  0  0  0
   -4.7740    0.8178   -4.8688 C   0  0  1  0  0  0  0  0  0  0  0  0
   -3.7472    1.1355   -3.7903 C   0  0  1  0  0  0  0  0  0  0  0  0
   -2.8341    2.1340   -4.5158 C   0  0  2  0  0  0  0  0  0  0  0  0
   -2.8681    1.7483   -5.9107 O   0  0  0  0  0  0  0  0  0  0  0  0
   -1.3856    2.1134   -3.9954 C   0  0  0  0  0  0  0  0  0  0  0  0
   -4.8262   -2.0771   -2.3760 C   0  0  1  0  0  0  0  0  0  0  0  0
   -3.4731   -1.3253   -2.2366 C   0  0  1  0  0  0  0  0  0  0  0  0
   -3.5029   -0.1469   -1.2210 C   0  0  2  0  0  0  0  0  0  0  0  0
   -4.6902    0.8247   -1.5181 C   0  0  1  0  0  0  0  0  0  0  0  0
   -4.3713    1.7275   -2.6147 O   0  0  0  0  0  0  0  0  0  0  0  0
   -5.9442   -1.3629   -1.5573 C   0  0  1  0  0  0  0  0  0  0  0  0
   -5.9233    0.0731   -1.8471 O   0  0  0  0  0  0  0  0  0  0  0  0
   -7.3557   -1.9258   -1.8656 C   0  0  0  0  0  0  0  0  0  0  0  0
   -2.6057   -7.9507   -8.7402 N   0  3  0  0  0  0  0  0  0  0  0  0
   -5.7014    1.8898   -5.0406 O   0  0  0  0  0  0  0  0  0  0  0  0
   -2.4800   -2.2609   -1.8187 O   0  0  0  0  0  0  0  0  0  0  0  0
   -5.1796   -2.1184   -3.7603 O   0  0  0  0  0  0  0  0  0  0  0  0
   -0.8726    0.7923   -3.9809 O   0  0  0  0  0  0  0  0  0  0  0  0
   -0.8111   -0.0781   -7.7171 O   0  0  0  0  0  0  0  0  0  0  0  0
   -8.3354   -0.8721   -2.1879 N   0  3  0  0  0  0  0  0  0  0  0  0
   -2.1947    0.5512   -1.1624 N   0  3  0  0  0  0  0  0  0  0  0  0
  1  2  1  6  0  0  0
  1  3  1  0  0  0  0
  1 10  1  0  0  0  0
  3  4  1  1  0  0  0
  3  5  1  0  0  0  0
  5  6  1  1  0  0  0
  5  7  1  0  0  0  0
  7  8  1  6  0  0  0
  7  9  1  0  0  0  0
  9 10  1  0  0  0  0
  9 11  1  1  0  0  0
 11 35  1  0  0  0  0
 12 13  1  6  0  0  0
 12 14  1  0  0  0  0
 12 20  1  0  0  0  0
 14 15  1  0  0  0  0
 14 40  1  1  0  0  0
 15 16  1  1  0  0  0
 15 17  1  0  0  0  0
 17  2  1  1  0  0  0
 17 18  1  0  0  0  0
 18 19  1  6  0  0  0
 18 20  1  0  0  0  0
 21 16  1  1  0  0  0
 21 22  1  0  0  0  0
 21 25  1  0  0  0  0
 22 23  1  0  0  0  0
 22 36  1  6  0  0  0
 23 24  1  0  0  0  0
 23 31  1  1  0  0  0
 24 25  1  0  0  0  0
 24 26  1  1  0  0  0
 26 39  1  0  0  0  0
 27 28  1  0  0  0  0
 27 32  1  0  0  0  0
 27 38  1  6  0  0  0
 28 29  1  0  0  0  0
 28 37  1  1  0  0  0
 29 30  1  0  0  0  0
 29 42  1  6  0  0  0
 30 31  1  6  0  0  0
 30 33  1  0  0  0  0
 32 33  1  0  0  0  0
 32 34  1  6  0  0  0
 34 41  1  0  0  0  0
M  CHG  6   4   1  13   1  19   1  35   1  41   1  42   1
M  END
>  <CHROM.1>
79.35514933,-67.35887491,-67.78120127,50.36862324,174.09147656,-47.24496577
58.66611856,73.39260430,53.13217176,51.32867999,147.01442971,64.25826875
71.57329442,96.30349610,51.49935866,-175.88748516,-60.64600053,-49.14951576
-36.20414695,45.08502889,-129.40887001,-122.22637917,-3.42970040,-1.52612274
-5.78978819,0.97163558,-1.10403302,-2.70347682

>  <Name>


>  <RI>
0

>  <Rbt.Current_Directory>
/home/itssahil/PROJECTS/Mol_Feturizer/New_Systems/rnas/1ei2

>  <Rbt.Executable>
rbdock ($Id: //depot/dev/client3/rdock/2013.1/src/exe/rbdock.cxx#4 $)

>  <Rbt.Library>
libRbt.so (2013.1, Build901 2013/11/27)

>  <Rbt.Parameter_File>
/export/apps/rDock/src/rDock_2013.1_src/data/scripts/dock_solv.prm

>  <Rbt.Receptor>
prm/blind_docking_100.prm

>  <SCORE>
62.487

>  <SCORE.INTER>
56.3973

>  <SCORE.INTER.CONST>
1

>  <SCORE.INTER.POLAR>
-5.96603

>  <SCORE.INTER.ROT>
9

>  <SCORE.INTER.SOLV>
35.834

>  <SCORE.INTER.VDW>
35.9403

>  <SCORE.INTER.norm>
1.34279

>  <SCORE.INTRA>
-4.01763

>  <SCORE.INTRA.DIHEDRAL>
-14.4928

>  <SCORE.INTRA.DIHEDRAL.0>
40.8761

>  <SCORE.INTRA.POLAR>
-2.63119

>  <SCORE.INTRA.POLAR.0>
-0.0268208

>  <SCORE.INTRA.REPUL>
-0.398271

>  <SCORE.INTRA.REPUL.0>
0.641615

>  <SCORE.INTRA.SOLV>
3.40171

>  <SCORE.INTRA.SOLV.lig_0>
-162.567

>  <SCORE.INTRA.VDW>
12.4653

>  <SCORE.INTRA.VDW.0>
-4.80338

>  <SCORE.INTRA.norm>
-0.0956578

>  <SCORE.RESTR>
10.1074

>  <SCORE.RESTR.CAVITY>
10.1074

>  <SCORE.RESTR.norm>
0.240653

>  <SCORE.SYSTEM>
0

>  <SCORE.SYSTEM.CONST>
0

>  <SCORE.SYSTEM.DIHEDRAL>
0

>  <SCORE.SYSTEM.SOLV>
0

>  <SCORE.SYSTEM.norm>
0

>  <SCORE.heavy>
42

>  <SCORE.norm>
1.48779

>  <RMSD>
10.308

$$$$

 OpenBabel11021811393D
libRbt.so/2013.1/901 2013/11/27
 42 45  0  0  0  0  0  0  0  0999 V2000
   -3.4971   -1.9932   -7.4481 C   0  0  2  0  0  0  0  0  0  0  0  0
   -4.6675   -1.1831   -7.7760 O   0  0  0  0  0  0  0  0  0  0  0  0
   -2.9113   -2.6977   -8.7148 C   0  0  2  0  0  0  0  0  0  0  0  0
   -3.4461   -2.1094   -9.9642 N   0  3  0  0  0  0  0  0  0  0  0  0
   -3.1888   -4.2306   -8.6696 C   0  0  1  0  0  0  0  0  0  0  0  0
   -2.6413   -4.8633   -9.8243 O   0  0  0  0  0  0  0  0  0  0  0  0
   -2.5722   -4.8910   -7.4075 C   0  0  2  0  0  0  0  0  0  0  0  0
   -3.0991   -6.2066   -7.2765 O   0  0  0  0  0  0  0  0  0  0  0  0
   -2.8840   -4.0585   -6.1218 C   0  0  2  0  0  0  0  0  0  0  0  0
   -3.8421   -2.9946   -6.4307 O   0  0  0  0  0  0  0  0  0  0  0  0
   -1.6530   -3.3694   -5.4895 C   0  0  0  0  0  0  0  0  0  0  0  0
   -3.1762    2.7545   -6.8321 C   0  0  1  0  0  0  0  0  0  0  0  0
   -3.0875    4.1769   -6.4331 N   0  3  0  0  0  0  0  0  0  0  0  0
   -3.5543    1.8488   -5.6309 C   0  0  1  0  0  0  0  0  0  0  0  0
   -3.8099    0.3520   -6.0235 C   0  0  1  0  0  0  0  0  0  0  0  0
   -4.4603   -0.3062   -4.9033 O   0  0  0  0  0  0  0  0  0  0  0  0
   -4.7444    0.1879   -7.2781 C   0  0  1  0  0  0  0  0  0  0  0  0
   -4.3334    1.1445   -8.4438 C   0  0  1  0  0  0  0  0  0  0  0  0
   -5.2960    1.0997   -9.5633 N   0  3  0  0  0  0  0  0  0  0  0  0
   -4.2100    2.6096   -7.9683 C   0  0  0  0  0  0  0  0  0  0  0  0
   -4.5913    0.3972   -3.6342 C   0  0  1  0  0  0  0  0  0  0  0  0
   -5.9556    0.0722   -3.0376 C   0  0  1  0  0  0  0  0  0  0  0  0
   -5.6615   -1.2918   -2.4282 C   0  0  1  0  0  0  0  0  0  0  0  0
   -4.2637   -1.0707   -1.8328 C   0  0  2  0  0  0  0  0  0  0  0  0
   -3.6238   -0.0996   -2.6949 O   0  0  0  0  0  0  0  0  0  0  0  0
   -3.4245   -2.3596   -1.7719 C   0  0  0  0  0  0  0  0  0  0  0  0
   -9.7499   -3.2093    0.2057 C   0  0  1  0  0  0  0  0  0  0  0  0
   -9.2889   -1.7368    0.3918 C   0  0  1  0  0  0  0  0  0  0  0  0
   -8.9968   -0.9893   -0.9413 C   0  0  2  0  0  0  0  0  0  0  0  0
   -8.0157   -1.8055   -1.8429 C   0  0  1  0  0  0  0  0  0  0  0  0
   -6.6370   -1.6424   -1.4048 O   0  0  0  0  0  0  0  0  0  0  0  0
   -9.6659   -3.6314   -1.2926 C   0  0  1  0  0  0  0  0  0  0  0  0
   -8.3623   -3.2455   -1.8387 O   0  0  0  0  0  0  0  0  0  0  0  0
   -9.8722   -5.1552   -1.4913 C   0  0  0  0  0  0  0  0  0  0  0  0
   -0.7605   -2.7082   -6.4578 N   0  3  0  0  0  0  0  0  0  0  0  0
   -6.2856    1.0334   -2.0347 O   0  0  0  0  0  0  0  0  0  0  0  0
  -10.3111   -1.0311    1.0944 O   0  0  0  0  0  0  0  0  0  0  0  0
   -8.9111   -4.0493    1.0018 O   0  0  0  0  0  0  0  0  0  0  0  0
   -3.3729   -2.9896   -3.0405 O   0  0  0  0  0  0  0  0  0  0  0  0
   -2.4979    1.8938   -4.6721 O   0  0  0  0  0  0  0  0  0  0  0  0
   -9.2545   -5.9617   -0.4228 N   0  3  0  0  0  0  0  0  0  0  0  0
   -8.5263    0.3962   -0.6938 N   0  3  0  0  0  0  0  0  0  0  0  0
  1  2  1  6  0  0  0
  1  3  1  0  0  0  0
  1 10  1  0  0  0  0
  3  4  1  6  0  0  0
  3  5  1  0  0  0  0
  5  6  1  6  0  0  0
  5  7  1  0  0  0  0
  7  8  1  1  0  0  0
  7  9  1  0  0  0  0
  9 10  1  0  0  0  0
  9 11  1  6  0  0  0
 11 35  1  0  0  0  0
 12 13  1  1  0  0  0
 12 14  1  0  0  0  0
 12 20  1  0  0  0  0
 14 15  1  0  0  0  0
 14 40  1  1  0  0  0
 15 16  1  1  0  0  0
 15 17  1  0  0  0  0
 17  2  1  6  0  0  0
 17 18  1  0  0  0  0
 18 19  1  6  0  0  0
 18 20  1  0  0  0  0
 21 16  1  6  0  0  0
 21 22  1  0  0  0  0
 21 25  1  0  0  0  0
 22 23  1  0  0  0  0
 22 36  1  1  0  0  0
 23 24  1  0  0  0  0
 23 31  1  1  0  0  0
 24 25  1  0  0  0  0
 24 26  1  6  0  0  0
 26 39  1  0  0  0  0
 27 28  1  0  0  0  0
 27 32  1  0  0  0  0
 27 38  1  1  0  0  0
 28 29  1  0  0  0  0
 28 37  1  6  0  0  0
 29 30  1  0  0  0  0
 29 42  1  1  0  0  0
 30 31  1  1  0  0  0
 30 33  1  0  0  0  0
 32 33  1  0  0  0  0
 32 34  1  1  0  0  0
 34 41  1  0  0  0  0
M  CHG  6   4   1  13   1  19   1  35   1  41   1  42   1
M  END
>  <CHROM.1>
-131.64627459,-22.10272695,57.93364066,60.99598358,-147.85660586,44.19497512
-72.65507024,-74.64379784,-166.14962237,-8.12503529,141.12864529,-174.88893003
62.38669583,63.68460662,52.99980050,58.61876607,-80.43203777,60.68834944
-119.28696352,-130.18621982,-37.60003219,-80.31317867,-5.20974074,-1.53281364
-4.44661679,-0.07530210,-0.92951767,-3.05806186

>  <Name>


>  <RI>
0

>  <Rbt.Current_Directory>
/home/itssahil/PROJECTS/Mol_Feturizer/New_Systems/rnas/1ei2

>  <Rbt.Executable>
rbdock ($Id: //depot/dev/client3/rdock/2013.1/src/exe/rbdock.cxx#4 $)

>  <Rbt.Library>
libRbt.so (2013.1, Build901 2013/11/27)

>  <Rbt.Parameter_File>
/export/apps/rDock/src/rDock_2013.1_src/data/scripts/dock_solv.prm

>  <Rbt.Receptor>
prm/blind_docking_40.prm

>  <SCORE>
34.5334

>  <SCORE.INTER>
21.0202

>  <SCORE.INTER.CONST>
1

>  <SCORE.INTER.POLAR>
-5.28769

>  <SCORE.INTER.ROT>
9

>  <SCORE.INTER.SOLV>
44.5715

>  <SCORE.INTER.VDW>
7.18195

>  <SCORE.INTER.norm>
0.500481

>  <SCORE.INTRA>
2.26315

>  <SCORE.INTRA.DIHEDRAL>
4.833

>  <SCORE.INTRA.DIHEDRAL.0>
40.8761

>  <SCORE.INTRA.POLAR>
-2.43005

>  <SCORE.INTRA.POLAR.0>
-0.0268208

>  <SCORE.INTRA.REPUL>
-0.641615

>  <SCORE.INTRA.REPUL.0>
0.641615

>  <SCORE.INTRA.SOLV>
1.13182

>  <SCORE.INTRA.SOLV.lig_0>
-162.567

>  <SCORE.INTRA.VDW>
10.751

>  <SCORE.INTRA.VDW.0>
-4.80338

>  <SCORE.INTRA.norm>
0.0538845

>  <SCORE.RESTR>
11.2501

>  <SCORE.RESTR.CAVITY>
11.2501

>  <SCORE.RESTR.norm>
0.267859

>  <SCORE.SYSTEM>
0

>  <SCORE.SYSTEM.CONST>
0

>  <SCORE.SYSTEM.DIHEDRAL>
0

>  <SCORE.SYSTEM.SOLV>
0

>  <SCORE.SYSTEM.norm>
0

>  <SCORE.heavy>
42

>  <SCORE.norm>
0.822224

>  <RMSD>
10.334

$$$$

 OpenBabel11021811393D
libRbt.so/2013.1/901 2013/11/27
 42 45  0  0  0  0  0  0  0  0999 V2000
   -3.3357   -2.8587   -6.5573 C   0  0  2  0  0  0  0  0  0  0  0  0
   -4.3997   -2.0703   -7.1737 O   0  0  0  0  0  0  0  0  0  0  0  0
   -2.3494   -3.4307   -7.6269 C   0  0  2  0  0  0  0  0  0  0  0  0
   -2.5151   -2.7606   -8.9371 N   0  3  0  0  0  0  0  0  0  0  0  0
   -2.5304   -4.9716   -7.7740 C   0  0  1  0  0  0  0  0  0  0  0  0
   -1.6191   -5.4830   -8.7443 O   0  0  0  0  0  0  0  0  0  0  0  0
   -2.2863   -5.7114   -6.4314 C   0  0  2  0  0  0  0  0  0  0  0  0
   -2.7442   -7.0530   -6.5591 O   0  0  0  0  0  0  0  0  0  0  0  0
   -3.0261   -5.0030   -5.2507 C   0  0  2  0  0  0  0  0  0  0  0  0
   -3.9099   -3.9550   -5.7663 O   0  0  0  0  0  0  0  0  0  0  0  0
   -2.0915   -4.3220   -4.2245 C   0  0  0  0  0  0  0  0  0  0  0  0
   -2.8180    1.9165   -6.7005 C   0  0  1  0  0  0  0  0  0  0  0  0
   -2.6997    3.3816   -6.5273 N   0  3  0  0  0  0  0  0  0  0  0  0
   -3.3788    1.2359   -5.4243 C   0  0  1  0  0  0  0  0  0  0  0  0
   -3.6673   -0.2957   -5.5994 C   0  0  1  0  0  0  0  0  0  0  0  0
   -4.4757   -0.7366   -4.4756 O   0  0  0  0  0  0  0  0  0  0  0  0
   -4.4596   -0.6339   -6.9155 C   0  0  1  0  0  0  0  0  0  0  0  0
   -3.8677    0.1017   -8.1611 C   0  0  1  0  0  0  0  0  0  0  0  0
   -4.6970   -0.0955   -9.3674 N   0  3  0  0  0  0  0  0  0  0  0  0
   -3.7213    1.6203   -7.9157 C   0  0  0  0  0  0  0  0  0  0  0  0
   -4.7098    0.1702   -3.3595 C   0  0  1  0  0  0  0  0  0  0  0  0
   -6.1138   -0.0763   -2.8201 C   0  0  1  0  0  0  0  0  0  0  0  0
   -5.8577   -1.3100   -1.9652 C   0  0  1  0  0  0  0  0  0  0  0  0
   -4.5119   -0.9618   -1.3134 C   0  0  2  0  0  0  0  0  0  0  0  0
   -3.8144   -0.1390   -2.2789 O   0  0  0  0  0  0  0  0  0  0  0  0
   -3.6703   -2.2039   -0.9693 C   0  0  0  0  0  0  0  0  0  0  0  0
   -9.8549   -3.3395    0.6603 C   0  0  1  0  0  0  0  0  0  0  0  0
   -9.6535   -1.7985    0.6509 C   0  0  1  0  0  0  0  0  0  0  0  0
   -9.3718   -1.2034   -0.7589 C   0  0  2  0  0  0  0  0  0  0  0  0
   -8.1989   -1.9563   -1.4655 C   0  0  1  0  0  0  0  0  0  0  0  0
   -6.9069   -1.5009   -0.9729 O   0  0  0  0  0  0  0  0  0  0  0  0
   -9.5762   -3.9438   -0.7494 C   0  0  1  0  0  0  0  0  0  0  0  0
   -8.3093   -3.4198   -1.2661 O   0  0  0  0  0  0  0  0  0  0  0  0
   -9.5178   -5.4931   -0.7290 C   0  0  0  0  0  0  0  0  0  0  0  0
   -2.7715   -3.3966   -3.3012 N   0  3  0  0  0  0  0  0  0  0  0  0
   -6.5277    1.0348   -2.0247 O   0  0  0  0  0  0  0  0  0  0  0  0
  -10.8320   -1.1879    1.1751 O   0  0  0  0  0  0  0  0  0  0  0  0
   -8.9637   -3.9057    1.6238 O   0  0  0  0  0  0  0  0  0  0  0  0
   -2.5811   -1.8597   -0.1303 O   0  0  0  0  0  0  0  0  0  0  0  0
   -2.4379    1.4034   -4.3640 O   0  0  0  0  0  0  0  0  0  0  0  0
   -8.3186   -6.0129   -0.0467 N   0  3  0  0  0  0  0  0  0  0  0  0
   -9.1523    0.2629   -0.6941 N   0  3  0  0  0  0  0  0  0  0  0  0
  1  2  1  6  0  0  0
  1  3  1  0  0  0  0
  1 10  1  0  0  0  0
  3  4  1  6  0  0  0
  3  5  1  0  0  0  0
  5  6  1  6  0  0  0
  5  7  1  0  0  0  0
  7  8  1  6  0  0  0
  7  9  1  0  0  0  0
  9 10  1  0  0  0  0
  9 11  1  1  0  0  0
 11 35  1  0  0  0  0
 12 13  1  1  0  0  0
 12 14  1  0  0  0  0
 12 20  1  0  0  0  0
 14 15  1  0  0  0  0
 14 40  1  1  0  0  0
 15 16  1  1  0  0  0
 15 17  1  0  0  0  0
 17  2  1  6  0  0  0
 17 18  1  0  0  0  0
 18 19  1  6  0  0  0
 18 20  1  0  0  0  0
 21 16  1  6  0  0  0
 21 22  1  0  0  0  0
 21 25  1  0  0  0  0
 22 23  1  0  0  0  0
 22 36  1  1  0  0  0
 23 24  1  0  0  0  0
 23 31  1  1  0  0  0
 24 25  1  0  0  0  0
 24 26  1  6  0  0  0
 26 39  1  0  0  0  0
 27 28  1  0  0  0  0
 27 32  1  0  0  0  0
 27 38  1  1  0  0  0
 28 29  1  0  0  0  0
 28 37  1  6  0  0  0
 29 30  1  0  0  0  0
 29 42  1  1  0  0  0
 30 31  1  1  0  0  0
 30 33  1  0  0  0  0
 32 33  1  0  0  0  0
 32 34  1  1  0  0  0
 34 41  1  0  0  0  0
M  CHG  6   4   1  13   1  19   1  35   1  41   1  42   1
M  END
>  <CHROM.1>
-113.77728576,-20.82109765,96.71921130,161.31868522,-85.53609155,166.28197873
169.30789556,52.79003801,-156.73274946,-8.30872766,145.34382269,-172.16366256
60.28608395,72.40443460,-167.83700545,-157.66754970,-108.44401705,-159.74537018
-105.20857450,-138.40097395,-70.43197861,-26.27511296,-5.14361881,-1.95573022
-3.82007789,-0.09440494,-0.89167261,3.09995797

>  <Name>


>  <RI>
0

>  <Rbt.Current_Directory>
/home/itssahil/PROJECTS/Mol_Feturizer/New_Systems/rnas/1ei2

>  <Rbt.Executable>
rbdock ($Id: //depot/dev/client3/rdock/2013.1/src/exe/rbdock.cxx#4 $)

>  <Rbt.Library>
libRbt.so (2013.1, Build901 2013/11/27)

>  <Rbt.Parameter_File>
/export/apps/rDock/src/rDock_2013.1_src/data/scripts/dock_solv.prm

>  <Rbt.Receptor>
prm/blind_docking_20.prm

>  <SCORE>
59.418

>  <SCORE.INTER>
43.1608

>  <SCORE.INTER.CONST>
1

>  <SCORE.INTER.POLAR>
-4.15579

>  <SCORE.INTER.ROT>
9

>  <SCORE.INTER.SOLV>
49.3833

>  <SCORE.INTER.VDW>
16.5654

>  <SCORE.INTER.norm>
1.02764

>  <SCORE.INTRA>
9.32335

>  <SCORE.INTRA.DIHEDRAL>
16.7182

>  <SCORE.INTRA.DIHEDRAL.0>
40.8761

>  <SCORE.INTRA.POLAR>
-2.9052

>  <SCORE.INTRA.POLAR.0>
-0.0268208

>  <SCORE.INTRA.REPUL>
-0.641615

>  <SCORE.INTRA.REPUL.0>
0.641615

>  <SCORE.INTRA.SOLV>
3.45886

>  <SCORE.INTRA.SOLV.lig_0>
-162.567

>  <SCORE.INTRA.VDW>
12.3206

>  <SCORE.INTRA.VDW.0>
-4.80338

>  <SCORE.INTRA.norm>
0.221985

>  <SCORE.RESTR>
6.93385

>  <SCORE.RESTR.CAVITY>
6.93385

>  <SCORE.RESTR.norm>
0.165092

>  <SCORE.SYSTEM>
0

>  <SCORE.SYSTEM.CONST>
0

>  <SCORE.SYSTEM.DIHEDRAL>
0

>  <SCORE.SYSTEM.SOLV>
0

>  <SCORE.SYSTEM.norm>
0

>  <SCORE.heavy>
42

>  <SCORE.norm>
1.41471

>  <RMSD>
10.358

$$$$

 OpenBabel11021811393D
libRbt.so/2013.1/901 2013/11/27
 42 45  0  0  0  0  0  0  0  0999 V2000
   -3.0622   -5.7889   -6.9719 C   0  0  2  0  0  0  0  0  0  0  0  0
   -3.5336   -4.4450   -6.6475 O   0  0  0  0  0  0  0  0  0  0  0  0
   -1.8472   -5.7511   -7.9550 C   0  0  2  0  0  0  0  0  0  0  0  0
   -1.2526   -4.3974   -8.0376 N   0  3  0  0  0  0  0  0  0  0  0  0
   -2.2685   -6.2506   -9.3699 C   0  0  1  0  0  0  0  0  0  0  0  0
   -1.1504   -6.2213  -10.2544 O   0  0  0  0  0  0  0  0  0  0  0  0
   -2.8250   -7.6990   -9.3278 C   0  0  2  0  0  0  0  0  0  0  0  0
   -3.4517   -7.9842  -10.5734 O   0  0  0  0  0  0  0  0  0  0  0  0
   -3.8477   -7.8801   -8.1596 C   0  0  2  0  0  0  0  0  0  0  0  0
   -4.1532   -6.5829   -7.5519 O   0  0  0  0  0  0  0  0  0  0  0  0
   -3.3578   -8.7959   -7.0143 C   0  0  0  0  0  0  0  0  0  0  0  0
   -3.6440   -2.9726   -2.5929 C   0  0  1  0  0  0  0  0  0  0  0  0
   -3.2609   -2.3937   -1.2857 N   0  3  0  0  0  0  0  0  0  0  0  0
   -3.6146   -1.9057   -3.7185 C   0  0  1  0  0  0  0  0  0  0  0  0
   -3.8654   -2.4915   -5.1516 C   0  0  1  0  0  0  0  0  0  0  0  0
   -3.4951   -1.4799   -6.1265 O   0  0  0  0  0  0  0  0  0  0  0  0
   -3.0138   -3.7784   -5.4563 C   0  0  1  0  0  0  0  0  0  0  0  0
   -3.0578   -4.8029   -4.2767 C   0  0  1  0  0  0  0  0  0  0  0  0
   -2.1426   -5.9413   -4.4965 N   0  3  0  0  0  0  0  0  0  0  0  0
   -2.6949   -4.1420   -2.9278 C   0  0  0  0  0  0  0  0  0  0  0  0
   -2.0867   -1.1907   -6.3621 C   0  0  1  0  0  0  0  0  0  0  0  0
   -1.9770    0.1739   -7.0321 C   0  0  1  0  0  0  0  0  0  0  0  0
   -2.1190    1.0795   -5.8163 C   0  0  1  0  0  0  0  0  0  0  0  0
   -1.2743    0.3336   -4.7735 C   0  0  2  0  0  0  0  0  0  0  0  0
   -1.3936   -1.0695   -5.1092 O   0  0  0  0  0  0  0  0  0  0  0  0
   -1.7492    0.5753   -3.3295 C   0  0  0  0  0  0  0  0  0  0  0  0
   -5.3560    3.0475   -5.6043 C   0  0  1  0  0  0  0  0  0  0  0  0
   -4.2260    3.6587   -4.7297 C   0  0  1  0  0  0  0  0  0  0  0  0
   -3.0892    4.3395   -5.5455 C   0  0  2  0  0  0  0  0  0  0  0  0
   -2.5309    3.3799   -6.6452 C   0  0  1  0  0  0  0  0  0  0  0  0
   -1.5994    2.4146   -6.0797 O   0  0  0  0  0  0  0  0  0  0  0  0
   -4.9963    3.1391   -7.1184 C   0  0  1  0  0  0  0  0  0  0  0  0
   -3.6287    2.6570   -7.3278 O   0  0  0  0  0  0  0  0  0  0  0  0
   -5.9680    2.3222   -8.0087 C   0  0  0  0  0  0  0  0  0  0  0  0
   -2.5785   -9.9645   -7.4595 N   0  3  0  0  0  0  0  0  0  0  0  0
   -0.6924    0.3116   -7.6401 O   0  0  0  0  0  0  0  0  0  0  0  0
   -4.8061    4.6300   -3.8600 O   0  0  0  0  0  0  0  0  0  0  0  0
   -5.5344    1.6818   -5.2222 O   0  0  0  0  0  0  0  0  0  0  0  0
   -0.6462    0.7610   -2.4591 O   0  0  0  0  0  0  0  0  0  0  0  0
   -4.6149   -0.9244   -3.4466 O   0  0  0  0  0  0  0  0  0  0  0  0
   -6.6139    3.1393   -9.0523 N   0  3  0  0  0  0  0  0  0  0  0  0
   -2.0258    4.8684   -4.6558 N   0  3  0  0  0  0  0  0  0  0  0  0
  1  2  1  6  0  0  0
  1  3  1  0  0  0  0
  1 10  1  0  0  0  0
  3  4  1  6  0  0  0
  3  5  1  0  0  0  0
  5  6  1  6  0  0  0
  5  7  1  0  0  0  0
  7  8  1  6  0  0  0
  7  9  1  0  0  0  0
  9 10  1  0  0  0  0
  9 11  1  1  0  0  0
 11 35  1  0  0  0  0
 12 13  1  1  0  0  0
 12 14  1  0  0  0  0
 12 20  1  0  0  0  0
 14 15  1  0  0  0  0
 14 40  1  1  0  0  0
 15 16  1  6  0  0  0
 15 17  1  0  0  0  0
 17  2  1  6  0  0  0
 17 18  1  0  0  0  0
 18 19  1  6  0  0  0
 18 20  1  0  0  0  0
 21 16  1  1  0  0  0
 21 22  1  0  0  0  0
 21 25  1  0  0  0  0
 22 23  1  0  0  0  0
 22 36  1  1  0  0  0
 23 24  1  0  0  0  0
 23 31  1  6  0  0  0
 24 25  1  0  0  0  0
 24 26  1  1  0  0  0
 26 39  1  0  0  0  0
 27 28  1  0  0  0  0
 27 32  1  0  0  0  0
 27 38  1  1  0  0  0
 28 29  1  0  0  0  0
 28 37  1  1  0  0  0
 29 30  1  0  0  0  0
 29 42  1  1  0  0  0
 30 31  1  1  0  0  0
 30 33  1  0  0  0  0
 32 33  1  0  0  0  0
 32 34  1  6  0  0  0
 34 41  1  0  0  0  0
M  CHG  6   4   1  13   1  19   1  35   1  41   1  42   1
M  END
>  <CHROM.1>
-93.25775530,-168.54586138,135.56450646,-178.36702764,-60.35146590,-38.14414305
-52.51095956,-146.94347419,65.45267580,73.48477645,-160.98233957,26.81031733
65.08780921,88.52586960,-138.31161719,28.53295828,51.70138516,-76.97133158
-164.59705873,100.04153451,123.53306860,-170.40650273,-3.06141803,-1.71597428
-6.07949897,1.17088846,1.36564191,-2.51989294

>  <Name>


>  <RI>
0

>  <Rbt.Current_Directory>
/home/itssahil/PROJECTS/Mol_Feturizer/New_Systems/rnas/1ei2

>  <Rbt.Executable>
rbdock ($Id: //depot/dev/client3/rdock/2013.1/src/exe/rbdock.cxx#4 $)

>  <Rbt.Library>
libRbt.so (2013.1, Build901 2013/11/27)

>  <Rbt.Parameter_File>
/export/apps/rDock/src/rDock_2013.1_src/data/scripts/dock_solv.prm

>  <Rbt.Receptor>
prm/blind_docking_60.prm

>  <SCORE>
-36.9175

>  <SCORE.INTER>
-47.4787

>  <SCORE.INTER.CONST>
1

>  <SCORE.INTER.POLAR>
-8.675

>  <SCORE.INTER.ROT>
9

>  <SCORE.INTER.SOLV>
48.8458

>  <SCORE.INTER.VDW>
-28.6177

>  <SCORE.INTER.norm>
-1.13044

>  <SCORE.INTRA>
0.0254561

>  <SCORE.INTRA.DIHEDRAL>
0.74602

>  <SCORE.INTRA.DIHEDRAL.0>
40.8761

>  <SCORE.INTRA.POLAR>
0.018048

>  <SCORE.INTRA.POLAR.0>
-0.0268208

>  <SCORE.INTRA.REPUL>
-0.427341

>  <SCORE.INTRA.REPUL.0>
0.641615

>  <SCORE.INTRA.SOLV>
-5.47942

>  <SCORE.INTRA.SOLV.lig_0>
-162.567

>  <SCORE.INTRA.VDW>
4.4675

>  <SCORE.INTRA.VDW.0>
-4.80338

>  <SCORE.INTRA.norm>
0.000606098

>  <SCORE.RESTR>
10.5357

>  <SCORE.RESTR.CAVITY>
10.5357

>  <SCORE.RESTR.norm>
0.25085

>  <SCORE.SYSTEM>
0

>  <SCORE.SYSTEM.CONST>
0

>  <SCORE.SYSTEM.DIHEDRAL>
0

>  <SCORE.SYSTEM.SOLV>
0

>  <SCORE.SYSTEM.norm>
0

>  <SCORE.heavy>
42

>  <SCORE.norm>
-0.878989

>  <RMSD>
10.377

$$$$

 OpenBabel11021811393D
libRbt.so/2013.1/901 2013/11/27
 42 45  0  0  0  0  0  0  0  0999 V2000
   -2.9796   -2.4760   -7.7432 C   0  0  2  0  0  0  0  0  0  0  0  0
   -2.5557   -1.1073   -7.4592 O   0  0  0  0  0  0  0  0  0  0  0  0
   -2.6091   -3.4474   -6.5758 C   0  0  2  0  0  0  0  0  0  0  0  0
   -2.2513   -2.7092   -5.3428 N   0  3  0  0  0  0  0  0  0  0  0  0
   -1.4500   -4.3993   -6.9990 C   0  0  1  0  0  0  0  0  0  0  0  0
   -1.1280   -5.2869   -5.9303 O   0  0  0  0  0  0  0  0  0  0  0  0
   -1.8247   -5.2453   -8.2453 C   0  0  2  0  0  0  0  0  0  0  0  0
   -0.6463   -5.8653   -8.7479 O   0  0  0  0  0  0  0  0  0  0  0  0
   -2.4797   -4.3607   -9.3553 C   0  0  2  0  0  0  0  0  0  0  0  0
   -2.3754   -2.9443   -8.9974 O   0  0  0  0  0  0  0  0  0  0  0  0
   -3.9805   -4.6421   -9.5972 C   0  0  0  0  0  0  0  0  0  0  0  0
   -4.0688    2.8884   -6.8551 C   0  0  1  0  0  0  0  0  0  0  0  0
   -4.9680    4.0466   -6.6537 N   0  3  0  0  0  0  0  0  0  0  0  0
   -4.0545    1.9564   -5.6152 C   0  0  1  0  0  0  0  0  0  0  0  0
   -3.2368    0.6349   -5.8269 C   0  0  1  0  0  0  0  0  0  0  0  0
   -3.5637   -0.2791   -4.7459 O   0  0  0  0  0  0  0  0  0  0  0  0
   -3.5695   -0.0932   -7.1809 C   0  0  1  0  0  0  0  0  0  0  0  0
   -3.5982    0.8991   -8.3881 C   0  0  1  0  0  0  0  0  0  0  0  0
   -4.0551    0.2462   -9.6319 N   0  3  0  0  0  0  0  0  0  0  0  0
   -4.5140    2.1129   -8.1125 C   0  0  0  0  0  0  0  0  0  0  0  0
   -3.5560    0.2024   -3.3708 C   0  0  1  0  0  0  0  0  0  0  0  0
   -4.9951    0.2767   -2.8745 C   0  0  1  0  0  0  0  0  0  0  0  0
   -5.2316   -1.1861   -2.5241 C   0  0  1  0  0  0  0  0  0  0  0  0
   -3.8969   -1.5678   -1.8685 C   0  0  2  0  0  0  0  0  0  0  0  0
   -2.8962   -0.7497   -2.5204 O   0  0  0  0  0  0  0  0  0  0  0  0
   -3.5507   -3.0588   -2.0314 C   0  0  0  0  0  0  0  0  0  0  0  0
   -9.7981   -2.2427   -0.1753 C   0  0  1  0  0  0  0  0  0  0  0  0
   -9.2123   -0.8060   -0.2656 C   0  0  1  0  0  0  0  0  0  0  0  0
   -8.6686   -0.4291   -1.6739 C   0  0  2  0  0  0  0  0  0  0  0  0
   -7.6688   -1.5085   -2.2006 C   0  0  1  0  0  0  0  0  0  0  0  0
   -6.3509   -1.3421   -1.6050 O   0  0  0  0  0  0  0  0  0  0  0  0
   -9.5617   -3.0225   -1.5043 C   0  0  1  0  0  0  0  0  0  0  0  0
   -8.1637   -2.8755   -1.9173 O   0  0  0  0  0  0  0  0  0  0  0  0
   -9.9003   -4.5300   -1.3750 C   0  0  0  0  0  0  0  0  0  0  0  0
   -4.3327   -6.0721   -9.6435 N   0  3  0  0  0  0  0  0  0  0  0  0
   -5.0644    1.1099   -1.7170 O   0  0  0  0  0  0  0  0  0  0  0  0
  -10.2379    0.1208    0.0890 O   0  0  0  0  0  0  0  0  0  0  0  0
   -9.1661   -2.9207    0.9128 O   0  0  0  0  0  0  0  0  0  0  0  0
   -3.7010   -3.4681   -3.3799 O   0  0  0  0  0  0  0  0  0  0  0  0
   -3.4920    2.6680   -4.5130 O   0  0  0  0  0  0  0  0  0  0  0  0
   -9.1714   -5.1893   -0.2759 N   0  3  0  0  0  0  0  0  0  0  0  0
   -8.0907    0.9377   -1.6838 N   0  3  0  0  0  0  0  0  0  0  0  0
  1  2  1  1  0  0  0
  1  3  1  0  0  0  0
  1 10  1  0  0  0  0
  3  4  1  1  0  0  0
  3  5  1  0  0  0  0
  5  6  1  1  0  0  0
  5  7  1  0  0  0  0
  7  8  1  6  0  0  0
  7  9  1  0  0  0  0
  9 10  1  0  0  0  0
  9 11  1  1  0  0  0
 11 35  1  0  0  0  0
 12 13  1  1  0  0  0
 12 14  1  0  0  0  0
 12 20  1  0  0  0  0
 14 15  1  0  0  0  0
 14 40  1  1  0  0  0
 15 16  1  1  0  0  0
 15 17  1  0  0  0  0
 17  2  1  6  0  0  0
 17 18  1  0  0  0  0
 18 19  1  6  0  0  0
 18 20  1  0  0  0  0
 21 16  1  6  0  0  0
 21 22  1  0  0  0  0
 21 25  1  0  0  0  0
 22 23  1  0  0  0  0
 22 36  1  1  0  0  0
 23 24  1  0  0  0  0
 23 31  1  1  0  0  0
 24 25  1  0  0  0  0
 24 26  1  6  0  0  0
 26 39  1  0  0  0  0
 27 28  1  0  0  0  0
 27 32  1  0  0  0  0
 27 38  1  1  0  0  0
 28 29  1  0  0  0  0
 28 37  1  6  0  0  0
 29 30  1  0  0  0  0
 29 42  1  1  0  0  0
 30 31  1  1  0  0  0
 30 33  1  0  0  0  0
 32 33  1  0  0  0  0
 32 34  1  1  0  0  0
 34 41  1  0  0  0  0
M  CHG  6   4   1  13   1  19   1  35   1  41   1  42   1
M  END
>  <CHROM.1>
-109.75148484,127.26379660,53.78857795,51.29798675,87.47750002,-43.75635371
61.11584810,-157.27356331,114.04038587,-47.61321222,108.89520685,-54.74745486
39.47631354,89.38263821,48.81403231,-59.53476477,102.51569698,113.13723551
84.78358409,-124.14526369,-55.23331965,-95.44035476,-4.92460341,-1.58277262
-4.59561894,0.10974733,-0.89598436,3.12744346

>  <Name>


>  <RI>
0

>  <Rbt.Current_Directory>
/home/itssahil/PROJECTS/Mol_Feturizer/New_Systems/rnas/1ei2

>  <Rbt.Executable>
rbdock ($Id: //depot/dev/client3/rdock/2013.1/src/exe/rbdock.cxx#4 $)

>  <Rbt.Library>
libRbt.so (2013.1, Build901 2013/11/27)

>  <Rbt.Parameter_File>
/export/apps/rDock/src/rDock_2013.1_src/data/scripts/dock_solv.prm

>  <Rbt.Receptor>
prm/blind_docking_60.prm

>  <SCORE>
1.96695

>  <SCORE.INTER>
-4.15822

>  <SCORE.INTER.CONST>
1

>  <SCORE.INTER.POLAR>
-3.93513

>  <SCORE.INTER.ROT>
9

>  <SCORE.INTER.SOLV>
33.4827

>  <SCORE.INTER.VDW>
-10.4159

>  <SCORE.INTER.norm>
-0.0990053

>  <SCORE.INTRA>
-3.40213

>  <SCORE.INTRA.DIHEDRAL>
22.4166

>  <SCORE.INTRA.DIHEDRAL.0>
40.8761

>  <SCORE.INTRA.POLAR>
-3.46832

>  <SCORE.INTRA.POLAR.0>
-0.0268208

>  <SCORE.INTRA.REPUL>
-0.619735

>  <SCORE.INTRA.REPUL.0>
0.641615

>  <SCORE.INTRA.SOLV>
1.92994

>  <SCORE.INTRA.SOLV.lig_0>
-162.567

>  <SCORE.INTRA.VDW>
-0.684462

>  <SCORE.INTRA.VDW.0>
-4.80338

>  <SCORE.INTRA.norm>
-0.0810031

>  <SCORE.RESTR>
9.52731

>  <SCORE.RESTR.CAVITY>
9.52731

>  <SCORE.RESTR.norm>
0.226841

>  <SCORE.SYSTEM>
0

>  <SCORE.SYSTEM.CONST>
0

>  <SCORE.SYSTEM.DIHEDRAL>
0

>  <SCORE.SYSTEM.SOLV>
0

>  <SCORE.SYSTEM.norm>
0

>  <SCORE.heavy>
42

>  <SCORE.norm>
0.0468321

>  <RMSD>
10.432

$$$$

 OpenBabel11021811393D
libRbt.so/2013.1/901 2013/11/27
 42 45  0  0  0  0  0  0  0  0999 V2000
   -3.3169   -1.9894   -7.6474 C   0  0  2  0  0  0  0  0  0  0  0  0
   -4.4928   -1.2020   -8.0093 O   0  0  0  0  0  0  0  0  0  0  0  0
   -2.6906   -2.6950   -8.8940 C   0  0  2  0  0  0  0  0  0  0  0  0
   -3.2064   -2.1268  -10.1605 N   0  3  0  0  0  0  0  0  0  0  0  0
   -2.9436   -4.2319   -8.8411 C   0  0  1  0  0  0  0  0  0  0  0  0
   -2.3594   -4.8655   -9.9772 O   0  0  0  0  0  0  0  0  0  0  0  0
   -2.3451   -4.8709   -7.5593 C   0  0  2  0  0  0  0  0  0  0  0  0
   -2.8530   -6.1939   -7.4283 O   0  0  0  0  0  0  0  0  0  0  0  0
   -2.7001   -4.0325   -6.2887 C   0  0  2  0  0  0  0  0  0  0  0  0
   -3.6684   -2.9875   -6.6290 O   0  0  0  0  0  0  0  0  0  0  0  0
   -1.4954   -3.3172   -5.6349 C   0  0  0  0  0  0  0  0  0  0  0  0
   -3.1029    2.7437   -6.9513 C   0  0  1  0  0  0  0  0  0  0  0  0
   -3.0535    4.1641   -6.5384 N   0  3  0  0  0  0  0  0  0  0  0  0
   -3.5434    1.8257   -5.7810 C   0  0  1  0  0  0  0  0  0  0  0  0
   -3.7590    0.3292   -6.1981 C   0  0  1  0  0  0  0  0  0  0  0  0
   -4.4690   -0.3435   -5.1237 O   0  0  0  0  0  0  0  0  0  0  0  0
   -4.6141    0.1645   -7.5080 C   0  0  1  0  0  0  0  0  0  0  0  0
   -4.1435    1.1335   -8.6405 C   0  0  1  0  0  0  0  0  0  0  0  0
   -5.0361    1.0869   -9.8165 N   0  3  0  0  0  0  0  0  0  0  0  0
   -4.0644    2.5964   -8.1489 C   0  0  0  0  0  0  0  0  0  0  0  0
   -4.2382    0.0645   -3.7441 C   0  0  1  0  0  0  0  0  0  0  0  0
   -5.5759    0.0858   -3.0141 C   0  0  1  0  0  0  0  0  0  0  0  0
   -5.7374   -1.3977   -2.7111 C   0  0  1  0  0  0  0  0  0  0  0  0
   -4.3089   -1.7890   -2.3066 C   0  0  2  0  0  0  0  0  0  0  0  0
   -3.4378   -0.9191   -3.0682 O   0  0  0  0  0  0  0  0  0  0  0  0
   -3.9805   -3.2625   -2.6066 C   0  0  0  0  0  0  0  0  0  0  0  0
   -9.7356   -3.1318    0.1505 C   0  0  1  0  0  0  0  0  0  0  0  0
   -9.2701   -1.6536    0.2668 C   0  0  1  0  0  0  0  0  0  0  0  0
   -9.0291   -0.9539   -1.1020 C   0  0  2  0  0  0  0  0  0  0  0  0
   -8.0813   -1.8016   -2.0102 C   0  0  1  0  0  0  0  0  0  0  0  0
   -6.6875   -1.6229   -1.6301 O   0  0  0  0  0  0  0  0  0  0  0  0
   -9.7072   -3.6069   -1.3340 C   0  0  1  0  0  0  0  0  0  0  0  0
   -8.4255   -3.2406   -1.9419 O   0  0  0  0  0  0  0  0  0  0  0  0
   -9.9187   -5.1368   -1.4706 C   0  0  0  0  0  0  0  0  0  0  0  0
   -1.0761   -2.0812   -6.3188 N   0  3  0  0  0  0  0  0  0  0  0  0
   -5.4604    0.8549   -1.8167 O   0  0  0  0  0  0  0  0  0  0  0  0
  -10.2662   -0.9234    0.9817 O   0  0  0  0  0  0  0  0  0  0  0  0
   -8.8665   -3.9429    0.9440 O   0  0  0  0  0  0  0  0  0  0  0  0
   -2.6850   -3.5969   -2.1389 O   0  0  0  0  0  0  0  0  0  0  0  0
   -2.5474    1.8746   -4.7598 O   0  0  0  0  0  0  0  0  0  0  0  0
   -9.2127   -5.9084   -0.4313 N   0  3  0  0  0  0  0  0  0  0  0  0
   -8.5516    0.4395   -0.9217 N   0  3  0  0  0  0  0  0  0  0  0  0
  1  2  1  6  0  0  0
  1  3  1  0  0  0  0
  1 10  1  0  0  0  0
  3  4  1  6  0  0  0
  3  5  1  0  0  0  0
  5  6  1  6  0  0  0
  5  7  1  0  0  0  0
  7  8  1  1  0  0  0
  7  9  1  0  0  0  0
  9 10  1  0  0  0  0
  9 11  1  6  0  0  0
 11 35  1  0  0  0  0
 12 13  1  1  0  0  0
 12 14  1  0  0  0  0
 12 20  1  0  0  0  0
 14 15  1  0  0  0  0
 14 40  1  1  0  0  0
 15 16  1  1  0  0  0
 15 17  1  0  0  0  0
 17  2  1  6  0  0  0
 17 18  1  0  0  0  0
 18 19  1  6  0  0  0
 18 20  1  0  0  0  0
 21 16  1  6  0  0  0
 21 22  1  0  0  0  0
 21 25  1  0  0  0  0
 22 23  1  0  0  0  0
 22 36  1  1  0  0  0
 23 24  1  0  0  0  0
 23 31  1  1  0  0  0
 24 25  1  0  0  0  0
 24 26  1  6  0  0  0
 26 39  1  0  0  0  0
 27 28  1  0  0  0  0
 27 32  1  0  0  0  0
 27 38  1  1  0  0  0
 28 29  1  0  0  0  0
 28 37  1  6  0  0  0
 29 30  1  0  0  0  0
 29 42  1  1  0  0  0
 30 31  1  1  0  0  0
 30 33  1  0  0  0  0
 32 33  1  0  0  0  0
 32 34  1  1  0  0  0
 34 41  1  0  0  0  0
M  CHG  6   4   1  13   1  19   1  35   1  41   1  42   1
M  END
>  <CHROM.1>
-132.62267253,-23.84119769,-161.19535972,60.44559847,-59.40513130,78.60972795
74.11546078,163.68938396,68.14818875,-32.79847168,138.71062996,-30.21815252
161.24494432,90.26985963,-176.26306989,-178.43044337,-77.29353852,-99.31609630
-68.42096601,-134.17174350,-40.05297710,35.37193567,-5.10390123,-1.58917904
-4.57826903,-0.13776968,-0.92206674,-3.13245568

>  <Name>


>  <RI>
0

>  <Rbt.Current_Directory>
/home/itssahil/PROJECTS/Mol_Feturizer/New_Systems/rnas/1ei2

>  <Rbt.Executable>
rbdock ($Id: //depot/dev/client3/rdock/2013.1/src/exe/rbdock.cxx#4 $)

>  <Rbt.Library>
libRbt.so (2013.1, Build901 2013/11/27)

>  <Rbt.Parameter_File>
/export/apps/rDock/src/rDock_2013.1_src/data/scripts/dock_solv.prm

>  <Rbt.Receptor>
prm/blind_docking_100.prm

>  <SCORE>
33.843

>  <SCORE.INTER>
18.0409

>  <SCORE.INTER.CONST>
1

>  <SCORE.INTER.POLAR>
-4.41812

>  <SCORE.INTER.ROT>
9

>  <SCORE.INTER.SOLV>
42.7846

>  <SCORE.INTER.VDW>
2.8928

>  <SCORE.INTER.norm>
0.429545

>  <SCORE.INTRA>
8.06245

>  <SCORE.INTRA.DIHEDRAL>
5.48882

>  <SCORE.INTRA.DIHEDRAL.0>
40.8761

>  <SCORE.INTRA.POLAR>
-0.450664

>  <SCORE.INTRA.POLAR.0>
-0.0268208

>  <SCORE.INTRA.REPUL>
-0.60158

>  <SCORE.INTRA.REPUL.0>
0.641615

>  <SCORE.INTRA.SOLV>
2.24872

>  <SCORE.INTRA.SOLV.lig_0>
-162.567

>  <SCORE.INTRA.VDW>
8.73384

>  <SCORE.INTRA.VDW.0>
-4.80338

>  <SCORE.INTRA.norm>
0.191963

>  <SCORE.RESTR>
7.73963

>  <SCORE.RESTR.CAVITY>
7.73963

>  <SCORE.RESTR.norm>
0.184277

>  <SCORE.SYSTEM>
0

>  <SCORE.SYSTEM.CONST>
0

>  <SCORE.SYSTEM.DIHEDRAL>
0

>  <SCORE.SYSTEM.SOLV>
0

>  <SCORE.SYSTEM.norm>
0

>  <SCORE.heavy>
42

>  <SCORE.norm>
0.805785

>  <RMSD>
10.455

$$$$

 OpenBabel11021811393D
libRbt.so/2013.1/901 2013/11/27
 42 45  0  0  0  0  0  0  0  0999 V2000
   -3.0440   -2.7457   -7.3320 C   0  0  2  0  0  0  0  0  0  0  0  0
   -2.6342   -1.4400   -6.8213 O   0  0  0  0  0  0  0  0  0  0  0  0
   -2.8214   -3.8739   -6.2730 C   0  0  2  0  0  0  0  0  0  0  0  0
   -2.5930   -3.3165   -4.9200 N   0  3  0  0  0  0  0  0  0  0  0  0
   -1.6365   -4.7956   -6.6918 C   0  0  1  0  0  0  0  0  0  0  0  0
   -1.4497   -5.8261   -5.7240 O   0  0  0  0  0  0  0  0  0  0  0  0
   -1.8818   -5.4574   -8.0742 C   0  0  2  0  0  0  0  0  0  0  0  0
   -0.6639   -6.0403   -8.5243 O   0  0  0  0  0  0  0  0  0  0  0  0
   -2.3949   -4.4144   -9.1194 C   0  0  2  0  0  0  0  0  0  0  0  0
   -2.3102   -3.0616   -8.5644 O   0  0  0  0  0  0  0  0  0  0  0  0
   -3.8632   -4.6162   -9.5594 C   0  0  0  0  0  0  0  0  0  0  0  0
   -3.7799    2.7031   -7.1981 C   0  0  1  0  0  0  0  0  0  0  0  0
   -4.5673    3.9444   -7.3701 N   0  3  0  0  0  0  0  0  0  0  0  0
   -4.0854    2.0189   -5.8399 C   0  0  1  0  0  0  0  0  0  0  0  0
   -3.3939    0.6219   -5.6660 C   0  0  1  0  0  0  0  0  0  0  0  0
   -4.0035   -0.0478   -4.5298 O   0  0  0  0  0  0  0  0  0  0  0  0
   -3.5630   -0.3167   -6.9168 C   0  0  1  0  0  0  0  0  0  0  0  0
   -3.2707    0.4338   -8.2563 C   0  0  1  0  0  0  0  0  0  0  0  0
   -3.5723   -0.4011   -9.4369 N   0  3  0  0  0  0  0  0  0  0  0  0
   -4.0811    1.7446   -8.3691 C   0  0  0  0  0  0  0  0  0  0  0  0
   -4.3464    0.7220   -3.3413 C   0  0  1  0  0  0  0  0  0  0  0  0
   -5.8080    0.4597   -2.9981 C   0  0  1  0  0  0  0  0  0  0  0  0
   -5.6774   -0.8782   -2.2828 C   0  0  1  0  0  0  0  0  0  0  0  0
   -4.4090   -0.6599   -1.4456 C   0  0  2  0  0  0  0  0  0  0  0  0
   -3.5882    0.2511   -2.2151 O   0  0  0  0  0  0  0  0  0  0  0  0
   -3.6382   -1.9632   -1.1693 C   0  0  0  0  0  0  0  0  0  0  0  0
  -10.1671   -2.5269   -0.1168 C   0  0  1  0  0  0  0  0  0  0  0  0
   -9.9703   -1.1309   -0.7710 C   0  0  1  0  0  0  0  0  0  0  0  0
   -9.2313   -1.1694   -2.1398 C   0  0  2  0  0  0  0  0  0  0  0  0
   -7.8915   -1.9669   -2.0358 C   0  0  1  0  0  0  0  0  0  0  0  0
   -6.8378   -1.1535   -1.4464 O   0  0  0  0  0  0  0  0  0  0  0  0
   -9.4342   -3.6318   -0.9366 C   0  0  1  0  0  0  0  0  0  0  0  0
   -8.0660   -3.1979   -1.2310 O   0  0  0  0  0  0  0  0  0  0  0  0
   -9.3900   -4.9910   -0.1919 C   0  0  0  0  0  0  0  0  0  0  0  0
   -4.2377   -6.0197   -9.8070 N   0  3  0  0  0  0  0  0  0  0  0  0
   -6.2882    1.4779   -2.1200 O   0  0  0  0  0  0  0  0  0  0  0  0
  -11.2547   -0.5397   -0.9640 O   0  0  0  0  0  0  0  0  0  0  0  0
   -9.6514   -2.4783    1.2154 O   0  0  0  0  0  0  0  0  0  0  0  0
   -2.6375   -1.7599   -0.1865 O   0  0  0  0  0  0  0  0  0  0  0  0
   -3.6492    2.8769   -4.7858 O   0  0  0  0  0  0  0  0  0  0  0  0
   -9.6455   -6.1400   -1.0799 N   0  3  0  0  0  0  0  0  0  0  0  0
   -9.0424    0.1949   -2.6922 N   0  3  0  0  0  0  0  0  0  0  0  0
  1  2  1  1  0  0  0
  1  3  1  0  0  0  0
  1 10  1  0  0  0  0
  3  4  1  1  0  0  0
  3  5  1  0  0  0  0
  5  6  1  1  0  0  0
  5  7  1  0  0  0  0
  7  8  1  6  0  0  0
  7  9  1  0  0  0  0
  9 10  1  0  0  0  0
  9 11  1  1  0  0  0
 11 35  1  0  0  0  0
 12 13  1  6  0  0  0
 12 14  1  0  0  0  0
 12 20  1  0  0  0  0
 14 15  1  0  0  0  0
 14 40  1  1  0  0  0
 15 16  1  1  0  0  0
 15 17  1  0  0  0  0
 17  2  1  1  0  0  0
 17 18  1  0  0  0  0
 18 19  1  6  0  0  0
 18 20  1  0  0  0  0
 21 16  1  6  0  0  0
 21 22  1  0  0  0  0
 21 25  1  0  0  0  0
 22 23  1  0  0  0  0
 22 36  1  1  0  0  0
 23 24  1  0  0  0  0
 23 31  1  1  0  0  0
 24 25  1  0  0  0  0
 24 26  1  6  0  0  0
 26 39  1  0  0  0  0
 27 28  1  0  0  0  0
 27 32  1  0  0  0  0
 27 38  1  1  0  0  0
 28 29  1  0  0  0  0
 28 37  1  6  0  0  0
 29 30  1  0  0  0  0
 29 42  1  1  0  0  0
 30 31  1  1  0  0  0
 30 33  1  0  0  0  0
 32 33  1  0  0  0  0
 32 34  1  1  0  0  0
 34 41  1  0  0  0  0
M  CHG  6   4   1  13   1  19   1  35   1  41   1  42   1
M  END
>  <CHROM.1>
-128.95312820,145.41756119,76.38306845,164.71196053,-59.44259368,-42.44596568
79.32101327,-59.48566278,-59.99452163,-39.47470319,127.38736910,175.39704203
39.68408812,95.06609986,-168.42149019,-62.54064516,-178.56313076,-55.23193199
-165.71993567,-117.57699368,138.63469495,91.55035563,-5.10785911,-1.66188219
-4.46018334,0.08966696,-0.86359080,-3.12467050

>  <Name>


>  <RI>
0

>  <Rbt.Current_Directory>
/home/itssahil/PROJECTS/Mol_Feturizer/New_Systems/rnas/1ei2

>  <Rbt.Executable>
rbdock ($Id: //depot/dev/client3/rdock/2013.1/src/exe/rbdock.cxx#4 $)

>  <Rbt.Library>
libRbt.so (2013.1, Build901 2013/11/27)

>  <Rbt.Parameter_File>
/export/apps/rDock/src/rDock_2013.1_src/data/scripts/dock_solv.prm

>  <Rbt.Receptor>
prm/blind_docking_60.prm

>  <SCORE>
7.56614

>  <SCORE.INTER>
9.19156

>  <SCORE.INTER.CONST>
1

>  <SCORE.INTER.POLAR>
-7.09683

>  <SCORE.INTER.ROT>
9

>  <SCORE.INTER.SOLV>
46.3788

>  <SCORE.INTER.VDW>
4.72421

>  <SCORE.INTER.norm>
0.218847

>  <SCORE.INTRA>
-11.1837

>  <SCORE.INTRA.DIHEDRAL>
4.29363

>  <SCORE.INTRA.DIHEDRAL.0>
40.8761

>  <SCORE.INTRA.POLAR>
-2.28745

>  <SCORE.INTRA.POLAR.0>
-0.0268208

>  <SCORE.INTRA.REPUL>
-0.641615

>  <SCORE.INTRA.REPUL.0>
0.641615

>  <SCORE.INTRA.SOLV>
-8.16785

>  <SCORE.INTRA.SOLV.lig_0>
-162.567

>  <SCORE.INTRA.VDW>
1.73876

>  <SCORE.INTRA.VDW.0>
-4.80338

>  <SCORE.INTRA.norm>
-0.266279

>  <SCORE.RESTR>
9.55832

>  <SCORE.RESTR.CAVITY>
9.55832

>  <SCORE.RESTR.norm>
0.227579

>  <SCORE.SYSTEM>
0

>  <SCORE.SYSTEM.CONST>
0

>  <SCORE.SYSTEM.DIHEDRAL>
0

>  <SCORE.SYSTEM.SOLV>
0

>  <SCORE.SYSTEM.norm>
0

>  <SCORE.heavy>
42

>  <SCORE.norm>
0.180146

>  <RMSD>
10.471

$$$$

 OpenBabel11021811393D
libRbt.so/2013.1/901 2013/11/27
 42 45  0  0  0  0  0  0  0  0999 V2000
   -2.7986   -2.7886   -7.9861 C   0  0  2  0  0  0  0  0  0  0  0  0
   -2.3889   -1.5412   -7.3458 O   0  0  0  0  0  0  0  0  0  0  0  0
   -2.9106   -3.9564   -6.9530 C   0  0  2  0  0  0  0  0  0  0  0  0
   -2.9252   -3.4545   -5.5598 N   0  3  0  0  0  0  0  0  0  0  0  0
   -1.7532   -4.9809   -7.1530 C   0  0  1  0  0  0  0  0  0  0  0  0
   -1.8717   -6.0460   -6.2123 O   0  0  0  0  0  0  0  0  0  0  0  0
   -1.7584   -5.5844   -8.5831 C   0  0  2  0  0  0  0  0  0  0  0  0
   -0.5313   -6.2743   -8.7923 O   0  0  0  0  0  0  0  0  0  0  0  0
   -1.9397   -4.4729   -9.6672 C   0  0  2  0  0  0  0  0  0  0  0  0
   -1.8515   -3.1477   -9.0496 O   0  0  0  0  0  0  0  0  0  0  0  0
   -3.2930   -4.5193  -10.4133 C   0  0  0  0  0  0  0  0  0  0  0  0
   -3.8605    2.5076   -7.0986 C   0  0  1  0  0  0  0  0  0  0  0  0
   -4.7456    3.6875   -6.9768 N   0  3  0  0  0  0  0  0  0  0  0  0
   -3.7825    1.7147   -5.7677 C   0  0  1  0  0  0  0  0  0  0  0  0
   -2.9796    0.3719   -5.8779 C   0  0  1  0  0  0  0  0  0  0  0  0
   -3.2507   -0.4177   -4.6888 O   0  0  0  0  0  0  0  0  0  0  0  0
   -3.3847   -0.4955   -7.1260 C   0  0  1  0  0  0  0  0  0  0  0  0
   -3.4753    0.3612   -8.4302 C   0  0  1  0  0  0  0  0  0  0  0  0
   -3.9985   -0.4185   -9.5705 N   0  3  0  0  0  0  0  0  0  0  0  0
   -4.3729    1.6045   -8.2398 C   0  0  0  0  0  0  0  0  0  0  0  0
   -3.4051    0.2497   -3.4029 C   0  0  1  0  0  0  0  0  0  0  0  0
   -4.8909    0.3303   -3.0733 C   0  0  1  0  0  0  0  0  0  0  0  0
   -5.1230   -1.0786   -2.5445 C   0  0  1  0  0  0  0  0  0  0  0  0
   -3.8569   -1.3081   -1.7070 C   0  0  2  0  0  0  0  0  0  0  0  0
   -2.8148   -0.5462   -2.3621 O   0  0  0  0  0  0  0  0  0  0  0  0
   -3.4537   -2.7910   -1.6193 C   0  0  0  0  0  0  0  0  0  0  0  0
   -9.9313   -1.7791   -0.5581 C   0  0  1  0  0  0  0  0  0  0  0  0
   -9.3297   -0.3884   -0.9034 C   0  0  1  0  0  0  0  0  0  0  0  0
   -8.6166   -0.3302   -2.2852 C   0  0  2  0  0  0  0  0  0  0  0  0
   -7.5673   -1.4793   -2.4279 C   0  0  1  0  0  0  0  0  0  0  0  0
   -6.3304   -1.1535   -1.7329 O   0  0  0  0  0  0  0  0  0  0  0  0
   -9.5404   -2.8356   -1.6357 C   0  0  1  0  0  0  0  0  0  0  0  0
   -8.1017   -2.7563   -1.9012 O   0  0  0  0  0  0  0  0  0  0  0  0
   -9.9019   -4.2811   -1.2069 C   0  0  0  0  0  0  0  0  0  0  0  0
   -4.4436   -4.8804   -9.5666 N   0  3  0  0  0  0  0  0  0  0  0  0
   -5.1082    1.3122   -2.0597 O   0  0  0  0  0  0  0  0  0  0  0  0
  -10.3847    0.5725   -0.8952 O   0  0  0  0  0  0  0  0  0  0  0  0
   -9.4404   -2.1781    0.7237 O   0  0  0  0  0  0  0  0  0  0  0  0
   -3.4422   -3.3885   -2.9045 O   0  0  0  0  0  0  0  0  0  0  0  0
   -3.1611    2.5366   -4.7799 O   0  0  0  0  0  0  0  0  0  0  0  0
   -8.9240   -4.8626   -0.2691 N   0  3  0  0  0  0  0  0  0  0  0  0
   -8.0330    1.0106   -2.5378 N   0  3  0  0  0  0  0  0  0  0  0  0
  1  2  1  1  0  0  0
  1  3  1  0  0  0  0
  1 10  1  0  0  0  0
  3  4  1  1  0  0  0
  3  5  1  0  0  0  0
  5  6  1  1  0  0  0
  5  7  1  0  0  0  0
  7  8  1  6  0  0  0
  7  9  1  0  0  0  0
  9 10  1  0  0  0  0
  9 11  1  1  0  0  0
 11 35  1  0  0  0  0
 12 13  1  1  0  0  0
 12 14  1  0  0  0  0
 12 20  1  0  0  0  0
 14 15  1  0  0  0  0
 14 40  1  1  0  0  0
 15 16  1  1  0  0  0
 15 17  1  0  0  0  0
 17  2  1  6  0  0  0
 17 18  1  0  0  0  0
 18 19  1  6  0  0  0
 18 20  1  0  0  0  0
 21 16  1  6  0  0  0
 21 22  1  0  0  0  0
 21 25  1  0  0  0  0
 22 23  1  0  0  0  0
 22 36  1  1  0  0  0
 23 24  1  0  0  0  0
 23 31  1  1  0  0  0
 24 25  1  0  0  0  0
 24 26  1  6  0  0  0
 26 39  1  0  0  0  0
 27 28  1  0  0  0  0
 27 32  1  0  0  0  0
 27 38  1  1  0  0  0
 28 29  1  0  0  0  0
 28 37  1  6  0  0  0
 29 30  1  0  0  0  0
 29 42  1  1  0  0  0
 30 31  1  1  0  0  0
 30 33  1  0  0  0  0
 32 33  1  0  0  0  0
 32 34  1  1  0  0  0
 34 41  1  0  0  0  0
M  CHG  6   4   1  13   1  19   1  35   1  41   1  42   1
M  END
>  <CHROM.1>
-104.80440575,152.04514622,152.37913713,66.99652013,-56.09461965,37.88750032
-27.48346395,-163.62537630,72.65209674,-36.71731057,102.11763657,-60.55327544
56.00735484,90.38027277,48.97398004,-60.77080945,171.23735829,57.87702269
79.31833735,-119.23641993,-79.52821555,-113.98735712,-4.86161658,-1.62671524
-4.76360314,0.16908818,-0.88628022,3.10969779

>  <Name>


>  <RI>
0

>  <Rbt.Current_Directory>
/home/itssahil/PROJECTS/Mol_Feturizer/New_Systems/rnas/1ei2

>  <Rbt.Executable>
rbdock ($Id: //depot/dev/client3/rdock/2013.1/src/exe/rbdock.cxx#4 $)

>  <Rbt.Library>
libRbt.so (2013.1, Build901 2013/11/27)

>  <Rbt.Parameter_File>
/export/apps/rDock/src/rDock_2013.1_src/data/scripts/dock_solv.prm

>  <Rbt.Receptor>
prm/blind_docking_60.prm

>  <SCORE>
13.1048

>  <SCORE.INTER>
8.04238

>  <SCORE.INTER.CONST>
1

>  <SCORE.INTER.POLAR>
-2.4921

>  <SCORE.INTER.ROT>
9

>  <SCORE.INTER.SOLV>
33.6291

>  <SCORE.INTER.VDW>
-7.14112

>  <SCORE.INTER.norm>
0.191485

>  <SCORE.INTRA>
-5.63124

>  <SCORE.INTRA.DIHEDRAL>
1.48027

>  <SCORE.INTRA.DIHEDRAL.0>
40.8761

>  <SCORE.INTRA.POLAR>
-1.83818

>  <SCORE.INTRA.POLAR.0>
-0.0268208

>  <SCORE.INTRA.REPUL>
-0.641615

>  <SCORE.INTRA.REPUL.0>
0.641615

>  <SCORE.INTRA.SOLV>
4.372

>  <SCORE.INTRA.SOLV.lig_0>
-162.567

>  <SCORE.INTRA.VDW>
0.900518

>  <SCORE.INTRA.VDW.0>
-4.80338

>  <SCORE.INTRA.norm>
-0.134077

>  <SCORE.RESTR>
10.6936

>  <SCORE.RESTR.CAVITY>
10.6936

>  <SCORE.RESTR.norm>
0.25461

>  <SCORE.SYSTEM>
0

>  <SCORE.SYSTEM.CONST>
0

>  <SCORE.SYSTEM.DIHEDRAL>
0

>  <SCORE.SYSTEM.SOLV>
0

>  <SCORE.SYSTEM.norm>
0

>  <SCORE.heavy>
42

>  <SCORE.norm>
0.312018

>  <RMSD>
10.498

$$$$

 OpenBabel11021811393D
libRbt.so/2013.1/901 2013/11/27
 42 45  0  0  0  0  0  0  0  0999 V2000
   -2.7055   -5.7947   -7.3662 C   0  0  2  0  0  0  0  0  0  0  0  0
   -3.0341   -4.3903   -7.1357 O   0  0  0  0  0  0  0  0  0  0  0  0
   -1.8293   -5.9782   -8.6478 C   0  0  2  0  0  0  0  0  0  0  0  0
   -1.2568   -4.6921   -9.1075 N   0  3  0  0  0  0  0  0  0  0  0  0
   -2.6549   -6.6476   -9.7876 C   0  0  1  0  0  0  0  0  0  0  0  0
   -1.8428   -6.8189  -10.9471 O   0  0  0  0  0  0  0  0  0  0  0  0
   -3.2046   -8.0356   -9.3623 C   0  0  2  0  0  0  0  0  0  0  0  0
   -4.1729   -8.4556  -10.3171 O   0  0  0  0  0  0  0  0  0  0  0  0
   -3.8459   -7.9796   -7.9379 C   0  0  2  0  0  0  0  0  0  0  0  0
   -3.9343   -6.5913   -7.4795 O   0  0  0  0  0  0  0  0  0  0  0  0
   -3.0625   -8.7508   -6.8509 C   0  0  0  0  0  0  0  0  0  0  0  0
   -4.0293   -3.2243   -3.1020 C   0  0  1  0  0  0  0  0  0  0  0  0
   -3.9431   -2.7423   -1.7054 N   0  3  0  0  0  0  0  0  0  0  0  0
   -3.7849   -2.0764   -4.1164 C   0  0  1  0  0  0  0  0  0  0  0  0
   -3.7150   -2.5553   -5.6083 C   0  0  1  0  0  0  0  0  0  0  0  0
   -3.1683   -1.4721   -6.4074 O   0  0  0  0  0  0  0  0  0  0  0  0
   -2.7917   -3.8116   -5.8166 C   0  0  1  0  0  0  0  0  0  0  0  0
   -3.0626   -4.9212   -4.7497 C   0  0  1  0  0  0  0  0  0  0  0  0
   -2.0981   -6.0354   -4.8513 N   0  3  0  0  0  0  0  0  0  0  0  0
   -3.0067   -4.3606   -3.3108 C   0  0  0  0  0  0  0  0  0  0  0  0
   -1.7633   -1.1130   -6.2657 C   0  0  1  0  0  0  0  0  0  0  0  0
   -1.5260    0.2107   -6.9829 C   0  0  1  0  0  0  0  0  0  0  0  0
   -2.0401    1.1809   -5.9279 C   0  0  1  0  0  0  0  0  0  0  0  0
   -1.4921    0.5550   -4.6375 C   0  0  2  0  0  0  0  0  0  0  0  0
   -1.4550   -0.8711   -4.8832 O   0  0  0  0  0  0  0  0  0  0  0  0
   -2.3624    0.8580   -3.4046 C   0  0  0  0  0  0  0  0  0  0  0  0
   -5.3029    2.7531   -5.5112 C   0  0  1  0  0  0  0  0  0  0  0  0
   -4.1993    3.0537   -4.4591 C   0  0  1  0  0  0  0  0  0  0  0  0
   -3.1037    4.0423   -4.9524 C   0  0  2  0  0  0  0  0  0  0  0  0
   -2.5052    3.5845   -6.3214 C   0  0  1  0  0  0  0  0  0  0  0  0
   -1.5225    2.5259   -6.1400 O   0  0  0  0  0  0  0  0  0  0  0  0
   -4.9585    3.4141   -6.8804 C   0  0  1  0  0  0  0  0  0  0  0  0
   -3.5698    3.1111   -7.2359 O   0  0  0  0  0  0  0  0  0  0  0  0
   -5.8937    2.9362   -8.0210 C   0  0  0  0  0  0  0  0  0  0  0  0
   -2.7655  -10.1529   -7.1930 N   0  3  0  0  0  0  0  0  0  0  0  0
   -0.1292    0.3877   -7.2203 O   0  0  0  0  0  0  0  0  0  0  0  0
   -4.8218    3.6062   -3.2999 O   0  0  0  0  0  0  0  0  0  0  0  0
   -5.4099    1.3358   -5.6616 O   0  0  0  0  0  0  0  0  0  0  0  0
   -2.2117   -0.1500   -2.4197 O   0  0  0  0  0  0  0  0  0  0  0  0
   -4.8403   -1.1233   -3.9934 O   0  0  0  0  0  0  0  0  0  0  0  0
   -5.7271    1.5060   -8.3380 N   0  3  0  0  0  0  0  0  0  0  0  0
   -2.0623    4.2576   -3.9173 N   0  3  0  0  0  0  0  0  0  0  0  0
  1  2  1  6  0  0  0
  1  3  1  0  0  0  0
  1 10  1  0  0  0  0
  3  4  1  6  0  0  0
  3  5  1  0  0  0  0
  5  6  1  6  0  0  0
  5  7  1  0  0  0  0
  7  8  1  6  0  0  0
  7  9  1  0  0  0  0
  9 10  1  0  0  0  0
  9 11  1  1  0  0  0
 11 35  1  0  0  0  0
 12 13  1  1  0  0  0
 12 14  1  0  0  0  0
 12 20  1  0  0  0  0
 14 15  1  0  0  0  0
 14 40  1  6  0  0  0
 15 16  1  6  0  0  0
 15 17  1  0  0  0  0
 17  2  1  6  0  0  0
 17 18  1  0  0  0  0
 18 19  1  1  0  0  0
 18 20  1  0  0  0  0
 21 16  1  1  0  0  0
 21 22  1  0  0  0  0
 21 25  1  0  0  0  0
 22 23  1  0  0  0  0
 22 36  1  1  0  0  0
 23 24  1  0  0  0  0
 23 31  1  6  0  0  0
 24 25  1  0  0  0  0
 24 26  1  1  0  0  0
 26 39  1  0  0  0  0
 27 28  1  0  0  0  0
 27 32  1  0  0  0  0
 27 38  1  6  0  0  0
 28 29  1  0  0  0  0
 28 37  1  1  0  0  0
 29 30  1  0  0  0  0
 29 42  1  1  0  0  0
 30 31  1  1  0  0  0
 30 33  1  0  0  0  0
 32 33  1  0  0  0  0
 32 34  1  6  0  0  0
 34 41  1  0  0  0  0
M  CHG  6   4   1  13   1  19   1  35   1  41   1  42   1
M  END
>  <CHROM.1>
-129.31197264,-156.89000402,78.21311068,73.42514158,-46.25611592,-52.87501073
80.06494204,100.12870451,-173.99870082,70.28732790,-168.43250512,-108.34031616
-43.31532054,121.95901766,153.94552418,-178.47462826,81.80189718,-174.35161428
-119.03421282,79.19186522,-66.00737209,-62.14816243,-3.10913905,-1.90675428
-6.14473761,0.30146376,1.51147992,-1.59221322

>  <Name>


>  <RI>
0

>  <Rbt.Current_Directory>
/home/itssahil/PROJECTS/Mol_Feturizer/New_Systems/rnas/1ei2

>  <Rbt.Executable>
rbdock ($Id: //depot/dev/client3/rdock/2013.1/src/exe/rbdock.cxx#4 $)

>  <Rbt.Library>
libRbt.so (2013.1, Build901 2013/11/27)

>  <Rbt.Parameter_File>
/export/apps/rDock/src/rDock_2013.1_src/data/scripts/dock_solv.prm

>  <Rbt.Receptor>
prm/blind_docking_60.prm

>  <SCORE>
-29.8703

>  <SCORE.INTER>
-33.995

>  <SCORE.INTER.CONST>
1

>  <SCORE.INTER.POLAR>
-5.37414

>  <SCORE.INTER.ROT>
9

>  <SCORE.INTER.SOLV>
42.0908

>  <SCORE.INTER.VDW>
-28.3798

>  <SCORE.INTER.norm>
-0.809404

>  <SCORE.INTRA>
-6.93309

>  <SCORE.INTRA.DIHEDRAL>
-2.14178

>  <SCORE.INTRA.DIHEDRAL.0>
40.8761

>  <SCORE.INTRA.POLAR>
-2.30634

>  <SCORE.INTRA.POLAR.0>
-0.0268208

>  <SCORE.INTRA.REPUL>
-0.433299

>  <SCORE.INTRA.REPUL.0>
0.641615

>  <SCORE.INTRA.SOLV>
0.162051

>  <SCORE.INTRA.SOLV.lig_0>
-162.567

>  <SCORE.INTRA.VDW>
4.06484

>  <SCORE.INTRA.VDW.0>
-4.80338

>  <SCORE.INTRA.norm>
-0.165074

>  <SCORE.RESTR>
11.0578

>  <SCORE.RESTR.CAVITY>
11.0578

>  <SCORE.RESTR.norm>
0.263281

>  <SCORE.SYSTEM>
0

>  <SCORE.SYSTEM.CONST>
0

>  <SCORE.SYSTEM.DIHEDRAL>
0

>  <SCORE.SYSTEM.SOLV>
0

>  <SCORE.SYSTEM.norm>
0

>  <SCORE.heavy>
42

>  <SCORE.norm>
-0.711198

>  <RMSD>
10.513

$$$$

 OpenBabel11021811393D
libRbt.so/2013.1/901 2013/11/27
 42 45  0  0  0  0  0  0  0  0999 V2000
   -2.8966   -3.6487   -6.9316 C   0  0  2  0  0  0  0  0  0  0  0  0
   -3.7776   -2.5398   -7.2894 O   0  0  0  0  0  0  0  0  0  0  0  0
   -2.3147   -4.3541   -8.1996 C   0  0  2  0  0  0  0  0  0  0  0  0
   -2.5020   -3.5320   -9.4170 N   0  3  0  0  0  0  0  0  0  0  0  0
   -2.9540   -5.7629   -8.3875 C   0  0  1  0  0  0  0  0  0  0  0  0
   -2.4084   -6.4003   -9.5405 O   0  0  0  0  0  0  0  0  0  0  0  0
   -2.7074   -6.6766   -7.1571 C   0  0  2  0  0  0  0  0  0  0  0  0
   -3.5469   -7.8211   -7.2622 O   0  0  0  0  0  0  0  0  0  0  0  0
   -2.9986   -5.9195   -5.8209 C   0  0  2  0  0  0  0  0  0  0  0  0
   -3.6180   -4.6223   -6.1016 O   0  0  0  0  0  0  0  0  0  0  0  0
   -1.7465   -5.6303   -4.9614 C   0  0  0  0  0  0  0  0  0  0  0  0
   -0.9445    0.6370   -6.5815 C   0  0  1  0  0  0  0  0  0  0  0  0
   -0.3348    1.9675   -6.3616 N   0  3  0  0  0  0  0  0  0  0  0  0
   -1.8196    0.2055   -5.3756 C   0  0  1  0  0  0  0  0  0  0  0  0
   -2.6112   -1.1274   -5.6137 C   0  0  1  0  0  0  0  0  0  0  0  0
   -3.6194   -1.2482   -4.5745 O   0  0  0  0  0  0  0  0  0  0  0  0
   -3.3516   -1.1728   -7.0007 C   0  0  1  0  0  0  0  0  0  0  0  0
   -2.4308   -0.7007   -8.1721 C   0  0  1  0  0  0  0  0  0  0  0  0
   -3.1659   -0.6006   -9.4495 N   0  3  0  0  0  0  0  0  0  0  0  0
   -1.7825    0.6705   -7.8765 C   0  0  0  0  0  0  0  0  0  0  0  0
   -3.9815   -0.0782   -3.7853 C   0  0  1  0  0  0  0  0  0  0  0  0
   -5.4899   -0.0876   -3.5676 C   0  0  1  0  0  0  0  0  0  0  0  0
   -5.5870   -1.0836   -2.4200 C   0  0  1  0  0  0  0  0  0  0  0  0
   -4.3878   -0.6752   -1.5525 C   0  0  2  0  0  0  0  0  0  0  0  0
   -3.3955   -0.1678   -2.4763 O   0  0  0  0  0  0  0  0  0  0  0  0
   -3.8060   -1.8460   -0.7400 C   0  0  0  0  0  0  0  0  0  0  0  0
   -9.9642   -2.1976    0.1604 C   0  0  1  0  0  0  0  0  0  0  0  0
   -9.9077   -0.9413   -0.7528 C   0  0  1  0  0  0  0  0  0  0  0  0
   -9.2838   -1.2022   -2.1542 C   0  0  2  0  0  0  0  0  0  0  0  0
   -7.8939   -1.9056   -2.0313 C   0  0  1  0  0  0  0  0  0  0  0  0
   -6.8465   -0.9502   -1.7004 O   0  0  0  0  0  0  0  0  0  0  0  0
   -9.2357   -3.4026   -0.5086 C   0  0  1  0  0  0  0  0  0  0  0  0
   -7.9257   -2.9710   -1.0028 O   0  0  0  0  0  0  0  0  0  0  0  0
   -9.0471   -4.5952    0.4642 C   0  0  0  0  0  0  0  0  0  0  0  0
   -1.9590   -4.6442   -3.8874 N   0  3  0  0  0  0  0  0  0  0  0  0
   -5.9288    1.2120   -3.1712 O   0  0  0  0  0  0  0  0  0  0  0  0
  -11.2374   -0.4545   -0.9305 O   0  0  0  0  0  0  0  0  0  0  0  0
   -9.3437   -1.8778    1.4076 O   0  0  0  0  0  0  0  0  0  0  0  0
   -3.0770   -2.7283   -1.5760 O   0  0  0  0  0  0  0  0  0  0  0  0
   -0.9780    0.0374   -4.2350 O   0  0  0  0  0  0  0  0  0  0  0  0
   -9.1920   -5.9043   -0.1986 N   0  3  0  0  0  0  0  0  0  0  0  0
   -9.2250    0.0417   -2.9613 N   0  3  0  0  0  0  0  0  0  0  0  0
  1  2  1  6  0  0  0
  1  3  1  0  0  0  0
  1 10  1  0  0  0  0
  3  4  1  6  0  0  0
  3  5  1  0  0  0  0
  5  6  1  6  0  0  0
  5  7  1  0  0  0  0
  7  8  1  6  0  0  0
  7  9  1  0  0  0  0
  9 10  1  0  0  0  0
  9 11  1  6  0  0  0
 11 35  1  0  0  0  0
 12 13  1  1  0  0  0
 12 14  1  0  0  0  0
 12 20  1  0  0  0  0
 14 15  1  0  0  0  0
 14 40  1  1  0  0  0
 15 16  1  1  0  0  0
 15 17  1  0  0  0  0
 17  2  1  6  0  0  0
 17 18  1  0  0  0  0
 18 19  1  6  0  0  0
 18 20  1  0  0  0  0
 21 16  1  6  0  0  0
 21 22  1  0  0  0  0
 21 25  1  0  0  0  0
 22 23  1  0  0  0  0
 22 36  1  1  0  0  0
 23 24  1  0  0  0  0
 23 31  1  1  0  0  0
 24 25  1  0  0  0  0
 24 26  1  6  0  0  0
 26 39  1  0  0  0  0
 27 28  1  0  0  0  0
 27 32  1  0  0  0  0
 27 38  1  1  0  0  0
 28 29  1  0  0  0  0
 28 37  1  6  0  0  0
 29 30  1  0  0  0  0
 29 42  1  1  0  0  0
 30 31  1  1  0  0  0
 30 33  1  0  0  0  0
 32 33  1  0  0  0  0
 32 34  1  1  0  0  0
 34 41  1  0  0  0  0
M  CHG  6   4   1  13   1  19   1  35   1  41   1  42   1
M  END
>  <CHROM.1>
-111.29353053,-38.60307934,67.24209942,63.47694774,74.51432927,165.63277406
150.38703095,34.05959557,52.70622967,16.30524307,140.07619617,80.24784371
65.05751177,99.60498566,74.02563323,179.22511082,82.31612056,81.47031411
-95.48010008,-136.96732949,143.52884471,-44.94523833,-4.74897260,-2.25751085
-4.27461383,0.30336174,-0.76359899,-2.86481224

>  <Name>


>  <RI>
0

>  <Rbt.Current_Directory>
/home/itssahil/PROJECTS/Mol_Feturizer/New_Systems/rnas/1ei2

>  <Rbt.Executable>
rbdock ($Id: //depot/dev/client3/rdock/2013.1/src/exe/rbdock.cxx#4 $)

>  <Rbt.Library>
libRbt.so (2013.1, Build901 2013/11/27)

>  <Rbt.Parameter_File>
/export/apps/rDock/src/rDock_2013.1_src/data/scripts/dock_solv.prm

>  <Rbt.Receptor>
prm/blind_docking_20.prm

>  <SCORE>
53.9315

>  <SCORE.INTER>
43.9057

>  <SCORE.INTER.CONST>
1

>  <SCORE.INTER.POLAR>
-7.67093

>  <SCORE.INTER.ROT>
9

>  <SCORE.INTER.SOLV>
57.6226

>  <SCORE.INTER.VDW>
26.0328

>  <SCORE.INTER.norm>
1.04537

>  <SCORE.INTRA>
3.0546

>  <SCORE.INTRA.DIHEDRAL>
8.41362

>  <SCORE.INTRA.DIHEDRAL.0>
40.8761

>  <SCORE.INTRA.POLAR>
0.0232359

>  <SCORE.INTRA.POLAR.0>
-0.0268208

>  <SCORE.INTRA.REPUL>
-0.594579

>  <SCORE.INTRA.REPUL.0>
0.641615

>  <SCORE.INTRA.SOLV>
-1.6642

>  <SCORE.INTRA.SOLV.lig_0>
-162.567

>  <SCORE.INTRA.VDW>
2.57378

>  <SCORE.INTRA.VDW.0>
-4.80338

>  <SCORE.INTRA.norm>
0.0727285

>  <SCORE.RESTR>
6.97112

>  <SCORE.RESTR.CAVITY>
6.97112

>  <SCORE.RESTR.norm>
0.165979

>  <SCORE.SYSTEM>
0

>  <SCORE.SYSTEM.CONST>
0

>  <SCORE.SYSTEM.DIHEDRAL>
0

>  <SCORE.SYSTEM.SOLV>
0

>  <SCORE.SYSTEM.norm>
0

>  <SCORE.heavy>
42

>  <SCORE.norm>
1.28408

>  <RMSD>
10.578

$$$$

 OpenBabel11021811393D
libRbt.so/2013.1/901 2013/11/27
 42 45  0  0  0  0  0  0  0  0999 V2000
   -2.9171   -3.6136   -7.0410 C   0  0  2  0  0  0  0  0  0  0  0  0
   -3.8205   -2.5090   -7.3531 O   0  0  0  0  0  0  0  0  0  0  0  0
   -2.3049   -4.2401   -8.3358 C   0  0  2  0  0  0  0  0  0  0  0  0
   -2.4987   -3.3621   -9.5125 N   0  3  0  0  0  0  0  0  0  0  0  0
   -2.9083   -5.6523   -8.6020 C   0  0  1  0  0  0  0  0  0  0  0  0
   -2.3352   -6.2175   -9.7791 O   0  0  0  0  0  0  0  0  0  0  0  0
   -2.6531   -6.6209   -7.4163 C   0  0  2  0  0  0  0  0  0  0  0  0
   -3.4637   -7.7780   -7.5889 O   0  0  0  0  0  0  0  0  0  0  0  0
   -2.9766   -5.9394   -6.0472 C   0  0  2  0  0  0  0  0  0  0  0  0
   -3.6238   -4.6445   -6.2697 O   0  0  0  0  0  0  0  0  0  0  0  0
   -1.7411   -5.6649   -5.1595 C   0  0  0  0  0  0  0  0  0  0  0  0
   -1.0329    0.6752   -6.5104 C   0  0  1  0  0  0  0  0  0  0  0  0
   -0.4401    2.0058   -6.2485 N   0  3  0  0  0  0  0  0  0  0  0  0
   -1.9342    0.2125   -5.3358 C   0  0  1  0  0  0  0  0  0  0  0  0
   -2.7083   -1.1216   -5.6205 C   0  0  1  0  0  0  0  0  0  0  0  0
   -3.7411   -1.2715   -4.6096 O   0  0  0  0  0  0  0  0  0  0  0  0
   -3.4134   -1.1448   -7.0264 C   0  0  1  0  0  0  0  0  0  0  0  0
   -2.4676   -0.6417   -8.1645 C   0  0  1  0  0  0  0  0  0  0  0  0
   -3.1714   -0.5215   -9.4577 N   0  3  0  0  0  0  0  0  0  0  0  0
   -1.8386    0.7284   -7.8252 C   0  0  0  0  0  0  0  0  0  0  0  0
   -4.3659   -0.0852   -4.0394 C   0  0  1  0  0  0  0  0  0  0  0  0
   -5.7701   -0.4522   -3.5745 C   0  0  1  0  0  0  0  0  0  0  0  0
   -5.4452   -1.1113   -2.2409 C   0  0  1  0  0  0  0  0  0  0  0  0
   -4.3505   -0.1834   -1.6949 C   0  0  2  0  0  0  0  0  0  0  0  0
   -3.6562    0.3247   -2.8590 O   0  0  0  0  0  0  0  0  0  0  0  0
   -3.3618   -0.9035   -0.7605 C   0  0  0  0  0  0  0  0  0  0  0  0
   -9.9047   -2.2942    0.2366 C   0  0  1  0  0  0  0  0  0  0  0  0
   -9.6341   -0.8783   -0.3443 C   0  0  1  0  0  0  0  0  0  0  0  0
   -9.0504   -0.8845   -1.7867 C   0  0  2  0  0  0  0  0  0  0  0  0
   -7.7968   -1.8122   -1.8845 C   0  0  1  0  0  0  0  0  0  0  0  0
   -6.6088   -1.1502   -1.3654 O   0  0  0  0  0  0  0  0  0  0  0  0
   -9.3798   -3.3995   -0.7293 C   0  0  1  0  0  0  0  0  0  0  0  0
   -8.0126   -3.0779   -1.1462 O   0  0  0  0  0  0  0  0  0  0  0  0
   -9.3988   -4.8088   -0.0832 C   0  0  0  0  0  0  0  0  0  0  0  0
   -1.9849   -4.7277   -4.0488 N   0  3  0  0  0  0  0  0  0  0  0  0
   -6.5455    0.7335   -3.3971 O   0  0  0  0  0  0  0  0  0  0  0  0
  -10.8635   -0.1539   -0.3542 O   0  0  0  0  0  0  0  0  0  0  0  0
   -9.2501   -2.3956    1.5032 O   0  0  0  0  0  0  0  0  0  0  0  0
   -3.6648   -2.2852   -0.6721 O   0  0  0  0  0  0  0  0  0  0  0  0
   -1.1200    0.0279   -4.1781 O   0  0  0  0  0  0  0  0  0  0  0  0
   -9.6083   -5.8876   -1.0662 N   0  3  0  0  0  0  0  0  0  0  0  0
   -8.7803    0.4932   -2.2678 N   0  3  0  0  0  0  0  0  0  0  0  0
  1  2  1  6  0  0  0
  1  3  1  0  0  0  0
  1 10  1  0  0  0  0
  3  4  1  6  0  0  0
  3  5  1  0  0  0  0
  5  6  1  6  0  0  0
  5  7  1  0  0  0  0
  7  8  1  6  0  0  0
  7  9  1  0  0  0  0
  9 10  1  0  0  0  0
  9 11  1  6  0  0  0
 11 35  1  0  0  0  0
 12 13  1  1  0  0  0
 12 14  1  0  0  0  0
 12 20  1  0  0  0  0
 14 15  1  0  0  0  0
 14 40  1  1  0  0  0
 15 16  1  1  0  0  0
 15 17  1  0  0  0  0
 17  2  1  6  0  0  0
 17 18  1  0  0  0  0
 18 19  1  6  0  0  0
 18 20  1  0  0  0  0
 21 16  1  1  0  0  0
 21 22  1  0  0  0  0
 21 25  1  0  0  0  0
 22 23  1  0  0  0  0
 22 36  1  1  0  0  0
 23 24  1  0  0  0  0
 23 31  1  1  0  0  0
 24 25  1  0  0  0  0
 24 26  1  1  0  0  0
 26 39  1  0  0  0  0
 27 28  1  0  0  0  0
 27 32  1  0  0  0  0
 27 38  1  1  0  0  0
 28 29  1  0  0  0  0
 28 37  1  6  0  0  0
 29 30  1  0  0  0  0
 29 42  1  1  0  0  0
 30 31  1  1  0  0  0
 30 33  1  0  0  0  0
 32 33  1  0  0  0  0
 32 34  1  1  0  0  0
 34 41  1  0  0  0  0
M  CHG  6   4   1  13   1  19   1  35   1  41   1  42   1
M  END
>  <CHROM.1>
-109.51893413,-40.88281246,74.65934494,69.70540512,-177.91025881,164.97410357
32.42461092,159.63675563,81.29999395,31.33438035,153.03427538,92.13991211
-48.29434087,56.79357842,2.68005766,74.62551858,168.06342391,75.58979440
46.89747450,-126.88245100,149.74335845,-33.67339375,-4.78306559,-2.20117574
-4.29192642,0.38061448,-0.76658449,-2.78593793

>  <Name>


>  <RI>
0

>  <Rbt.Current_Directory>
/home/itssahil/PROJECTS/Mol_Feturizer/New_Systems/rnas/1ei2

>  <Rbt.Executable>
rbdock ($Id: //depot/dev/client3/rdock/2013.1/src/exe/rbdock.cxx#4 $)

>  <Rbt.Library>
libRbt.so (2013.1, Build901 2013/11/27)

>  <Rbt.Parameter_File>
/export/apps/rDock/src/rDock_2013.1_src/data/scripts/dock_solv.prm

>  <Rbt.Receptor>
prm/blind_docking_60.prm

>  <SCORE>
37.704

>  <SCORE.INTER>
33.0493

>  <SCORE.INTER.CONST>
1

>  <SCORE.INTER.POLAR>
-7.86195

>  <SCORE.INTER.ROT>
9

>  <SCORE.INTER.SOLV>
56.8499

>  <SCORE.INTER.VDW>
19.6894

>  <SCORE.INTER.norm>
0.786888

>  <SCORE.INTRA>
-1.28153

>  <SCORE.INTRA.DIHEDRAL>
3.00581

>  <SCORE.INTRA.DIHEDRAL.0>
40.8761

>  <SCORE.INTRA.POLAR>
-0.656144

>  <SCORE.INTRA.POLAR.0>
-0.0268208

>  <SCORE.INTRA.REPUL>
-0.641615

>  <SCORE.INTRA.REPUL.0>
0.641615

>  <SCORE.INTRA.SOLV>
-0.982383

>  <SCORE.INTRA.SOLV.lig_0>
-162.567

>  <SCORE.INTRA.VDW>
3.14572

>  <SCORE.INTRA.VDW.0>
-4.80338

>  <SCORE.INTRA.norm>
-0.0305125

>  <SCORE.RESTR>
5.93623

>  <SCORE.RESTR.CAVITY>
5.93623

>  <SCORE.RESTR.norm>
0.141339

>  <SCORE.SYSTEM>
0

>  <SCORE.SYSTEM.CONST>
0

>  <SCORE.SYSTEM.DIHEDRAL>
0

>  <SCORE.SYSTEM.SOLV>
0

>  <SCORE.SYSTEM.norm>
0

>  <SCORE.heavy>
42

>  <SCORE.norm>
0.897714

>  <RMSD>
10.602

$$$$

 OpenBabel11021811393D
libRbt.so/2013.1/901 2013/11/27
 42 45  0  0  0  0  0  0  0  0999 V2000
   -2.9107   -3.6031   -6.9488 C   0  0  2  0  0  0  0  0  0  0  0  0
   -3.8326   -2.5097   -7.2460 O   0  0  0  0  0  0  0  0  0  0  0  0
   -2.2875   -4.2010   -8.2518 C   0  0  2  0  0  0  0  0  0  0  0  0
   -2.4957   -3.3101   -9.4163 N   0  3  0  0  0  0  0  0  0  0  0  0
   -2.8666   -5.6193   -8.5381 C   0  0  1  0  0  0  0  0  0  0  0  0
   -2.2835   -6.1583   -9.7225 O   0  0  0  0  0  0  0  0  0  0  0  0
   -2.5954   -6.6000   -7.3658 C   0  0  2  0  0  0  0  0  0  0  0  0
   -3.3862   -7.7681   -7.5551 O   0  0  0  0  0  0  0  0  0  0  0  0
   -2.9311   -5.9433   -5.9876 C   0  0  2  0  0  0  0  0  0  0  0  0
   -3.6001   -4.6565   -6.1924 O   0  0  0  0  0  0  0  0  0  0  0  0
   -1.7007   -5.6602   -5.0953 C   0  0  0  0  0  0  0  0  0  0  0  0
   -1.0883    0.7113   -6.4016 C   0  0  1  0  0  0  0  0  0  0  0  0
   -0.5145    2.0488   -6.1328 N   0  3  0  0  0  0  0  0  0  0  0  0
   -1.9691    0.2223   -5.2221 C   0  0  1  0  0  0  0  0  0  0  0  0
   -2.7244   -1.1214   -5.5117 C   0  0  1  0  0  0  0  0  0  0  0  0
   -3.7435   -1.2981   -4.4914 O   0  0  0  0  0  0  0  0  0  0  0  0
   -3.4443   -1.1423   -6.9101 C   0  0  1  0  0  0  0  0  0  0  0  0
   -2.5193   -0.6127   -8.0532 C   0  0  1  0  0  0  0  0  0  0  0  0
   -3.2390   -0.4913   -9.3375 N   0  3  0  0  0  0  0  0  0  0  0  0
   -1.9090    0.7641   -7.7070 C   0  0  0  0  0  0  0  0  0  0  0  0
   -4.3180   -0.1285   -3.8396 C   0  0  1  0  0  0  0  0  0  0  0  0
   -5.7792   -0.4203   -3.5190 C   0  0  1  0  0  0  0  0  0  0  0  0
   -5.6139   -1.2402   -2.2466 C   0  0  1  0  0  0  0  0  0  0  0  0
   -4.4978   -0.4715   -1.5251 C   0  0  2  0  0  0  0  0  0  0  0  0
   -3.6753    0.0939   -2.5737 O   0  0  0  0  0  0  0  0  0  0  0  0
   -3.6456   -1.3671   -0.6079 C   0  0  0  0  0  0  0  0  0  0  0  0
  -10.1631   -2.5566   -0.0297 C   0  0  1  0  0  0  0  0  0  0  0  0
   -9.9319   -1.1384   -0.6219 C   0  0  1  0  0  0  0  0  0  0  0  0
   -9.2672   -1.1381   -2.0288 C   0  0  2  0  0  0  0  0  0  0  0  0
   -7.9646   -2.0013   -2.0379 C   0  0  1  0  0  0  0  0  0  0  0  0
   -6.8432   -1.2702   -1.4657 O   0  0  0  0  0  0  0  0  0  0  0  0
   -9.5285   -3.6490   -0.9429 C   0  0  1  0  0  0  0  0  0  0  0  0
   -8.1577   -3.2641   -1.2884 O   0  0  0  0  0  0  0  0  0  0  0  0
   -9.5129   -5.0466   -0.2717 C   0  0  0  0  0  0  0  0  0  0  0  0
   -1.9294   -4.6539   -4.0435 N   0  3  0  0  0  0  0  0  0  0  0  0
   -6.4720    0.8025   -3.2674 O   0  0  0  0  0  0  0  0  0  0  0  0
  -11.1939   -0.4788   -0.7150 O   0  0  0  0  0  0  0  0  0  0  0  0
   -9.5777   -2.6030    1.2734 O   0  0  0  0  0  0  0  0  0  0  0  0
   -3.1631   -2.4981   -1.3126 O   0  0  0  0  0  0  0  0  0  0  0  0
   -1.1394    0.0398   -4.0750 O   0  0  0  0  0  0  0  0  0  0  0  0
   -9.7672   -6.1431   -1.2240 N   0  3  0  0  0  0  0  0  0  0  0  0
   -9.0402    0.2435   -2.5206 N   0  3  0  0  0  0  0  0  0  0  0  0
  1  2  1  6  0  0  0
  1  3  1  0  0  0  0
  1 10  1  0  0  0  0
  3  4  1  6  0  0  0
  3  5  1  0  0  0  0
  5  6  1  6  0  0  0
  5  7  1  0  0  0  0
  7  8  1  6  0  0  0
  7  9  1  0  0  0  0
  9 10  1  0  0  0  0
  9 11  1  6  0  0  0
 11 35  1  0  0  0  0
 12 13  1  1  0  0  0
 12 14  1  0  0  0  0
 12 20  1  0  0  0  0
 14 15  1  0  0  0  0
 14 40  1  1  0  0  0
 15 16  1  1  0  0  0
 15 17  1  0  0  0  0
 17  2  1  6  0  0  0
 17 18  1  0  0  0  0
 18 19  1  6  0  0  0
 18 20  1  0  0  0  0
 21 16  1  1  0  0  0
 21 22  1  0  0  0  0
 21 25  1  0  0  0  0
 22 23  1  0  0  0  0
 22 36  1  1  0  0  0
 23 24  1  0  0  0  0
 23 31  1  1  0  0  0
 24 25  1  0  0  0  0
 24 26  1  1  0  0  0
 26 39  1  0  0  0  0
 27 28  1  0  0  0  0
 27 32  1  0  0  0  0
 27 38  1  1  0  0  0
 28 29  1  0  0  0  0
 28 37  1  6  0  0  0
 29 30  1  0  0  0  0
 29 42  1  1  0  0  0
 30 31  1  1  0  0  0
 30 33  1  0  0  0  0
 32 33  1  0  0  0  0
 32 34  1  1  0  0  0
 34 41  1  0  0  0  0
M  CHG  6   4   1  13   1  19   1  35   1  41   1  42   1
M  END
>  <CHROM.1>
-109.01861169,-40.59018116,78.55530132,65.30089787,177.80701972,159.91275273
-89.50984862,159.12759198,167.89779785,27.29387912,146.34336145,-26.10848175
-43.13732506,68.31464197,52.35379598,50.68103873,72.30386046,153.66144124
-139.12434826,-129.74223527,143.08728293,-157.70602041,-4.84535492,-2.28338337
-4.30341863,0.33287960,-0.72897224,-2.79217829

>  <Name>


>  <RI>
0

>  <Rbt.Current_Directory>
/home/itssahil/PROJECTS/Mol_Feturizer/New_Systems/rnas/1ei2

>  <Rbt.Executable>
rbdock ($Id: //depot/dev/client3/rdock/2013.1/src/exe/rbdock.cxx#4 $)

>  <Rbt.Library>
libRbt.so (2013.1, Build901 2013/11/27)

>  <Rbt.Parameter_File>
/export/apps/rDock/src/rDock_2013.1_src/data/scripts/dock_solv.prm

>  <Rbt.Receptor>
prm/blind_docking_60.prm

>  <SCORE>
38.7522

>  <SCORE.INTER>
39.1254

>  <SCORE.INTER.CONST>
1

>  <SCORE.INTER.POLAR>
-7.76543

>  <SCORE.INTER.ROT>
9

>  <SCORE.INTER.SOLV>
58.826

>  <SCORE.INTER.VDW>
22.7597

>  <SCORE.INTER.norm>
0.931558

>  <SCORE.INTRA>
-5.91918

>  <SCORE.INTRA.DIHEDRAL>
4.40838

>  <SCORE.INTRA.DIHEDRAL.0>
40.8761

>  <SCORE.INTRA.POLAR>
-2.05435

>  <SCORE.INTRA.POLAR.0>
-0.0268208

>  <SCORE.INTRA.REPUL>
-0.604431

>  <SCORE.INTRA.REPUL.0>
0.641615

>  <SCORE.INTRA.SOLV>
-0.187752

>  <SCORE.INTRA.SOLV.lig_0>
-162.567

>  <SCORE.INTRA.VDW>
1.97744

>  <SCORE.INTRA.VDW.0>
-4.80338

>  <SCORE.INTRA.norm>
-0.140933

>  <SCORE.RESTR>
5.54592

>  <SCORE.RESTR.CAVITY>
5.54592

>  <SCORE.RESTR.norm>
0.132046

>  <SCORE.SYSTEM>
0

>  <SCORE.SYSTEM.CONST>
0

>  <SCORE.SYSTEM.DIHEDRAL>
0

>  <SCORE.SYSTEM.SOLV>
0

>  <SCORE.SYSTEM.norm>
0

>  <SCORE.heavy>
42

>  <SCORE.norm>
0.92267

>  <RMSD>
10.623

$$$$

 OpenBabel11021811393D
libRbt.so/2013.1/901 2013/11/27
 42 45  0  0  0  0  0  0  0  0999 V2000
   -3.0235   -3.5135   -7.1121 C   0  0  2  0  0  0  0  0  0  0  0  0
   -3.8820   -2.3670   -7.3986 O   0  0  0  0  0  0  0  0  0  0  0  0
   -2.3321   -4.0527   -8.4063 C   0  0  2  0  0  0  0  0  0  0  0  0
   -2.4254   -3.0822   -9.5210 N   0  3  0  0  0  0  0  0  0  0  0  0
   -2.9406   -5.4254   -8.8241 C   0  0  1  0  0  0  0  0  0  0  0  0
   -2.2954   -5.9117   -9.9991 O   0  0  0  0  0  0  0  0  0  0  0  0
   -2.7884   -6.4884   -7.7033 C   0  0  2  0  0  0  0  0  0  0  0  0
   -3.6056   -7.6091   -8.0224 O   0  0  0  0  0  0  0  0  0  0  0  0
   -3.1963   -5.9070   -6.3108 C   0  0  2  0  0  0  0  0  0  0  0  0
   -3.8023   -4.5837   -6.4754 O   0  0  0  0  0  0  0  0  0  0  0  0
   -2.0224   -5.7312   -5.3202 C   0  0  0  0  0  0  0  0  0  0  0  0
   -1.0091    0.6831   -6.3675 C   0  0  1  0  0  0  0  0  0  0  0  0
   -0.3781    1.9810   -6.0395 N   0  3  0  0  0  0  0  0  0  0  0  0
   -1.9530    0.2061   -5.2327 C   0  0  1  0  0  0  0  0  0  0  0  0
   -2.7648   -1.0880   -5.5876 C   0  0  1  0  0  0  0  0  0  0  0  0
   -3.8256   -1.2415   -4.6068 O   0  0  0  0  0  0  0  0  0  0  0  0
   -3.4370   -1.0316   -7.0086 C   0  0  1  0  0  0  0  0  0  0  0  0
   -2.4481   -0.5174   -8.1044 C   0  0  1  0  0  0  0  0  0  0  0  0
   -3.1167   -0.3222   -9.4071 N   0  3  0  0  0  0  0  0  0  0  0  0
   -1.7813    0.8156   -7.6967 C   0  0  0  0  0  0  0  0  0  0  0  0
   -4.1600   -0.1271   -3.7298 C   0  0  1  0  0  0  0  0  0  0  0  0
   -5.6089   -0.2796   -3.2822 C   0  0  1  0  0  0  0  0  0  0  0  0
   -5.4372   -1.3050   -2.1697 C   0  0  1  0  0  0  0  0  0  0  0  0
   -4.1570   -0.8071   -1.4839 C   0  0  2  0  0  0  0  0  0  0  0  0
   -3.3701   -0.1909   -2.5311 O   0  0  0  0  0  0  0  0  0  0  0  0
   -3.3549   -1.9369   -0.8133 C   0  0  0  0  0  0  0  0  0  0  0  0
   -9.8718   -2.6527    0.1713 C   0  0  1  0  0  0  0  0  0  0  0  0
   -9.4476   -1.1577    0.1527 C   0  0  1  0  0  0  0  0  0  0  0  0
   -8.9790   -0.6476   -1.2406 C   0  0  2  0  0  0  0  0  0  0  0  0
   -7.8798   -1.5806   -1.8430 C   0  0  1  0  0  0  0  0  0  0  0  0
   -6.5749   -1.3033   -1.2600 O   0  0  0  0  0  0  0  0  0  0  0  0
   -9.5813   -3.3286   -1.2032 C   0  0  1  0  0  0  0  0  0  0  0  0
   -8.2169   -3.0070   -1.6294 O   0  0  0  0  0  0  0  0  0  0  0  0
   -9.7512   -4.8690   -1.1537 C   0  0  0  0  0  0  0  0  0  0  0  0
   -1.5766   -6.9791   -4.6760 N   0  3  0  0  0  0  0  0  0  0  0  0
   -6.0918    0.9653   -2.7766 O   0  0  0  0  0  0  0  0  0  0  0  0
  -10.5597   -0.3696    0.5752 O   0  0  0  0  0  0  0  0  0  0  0  0
   -9.1462   -3.3155    1.2092 O   0  0  0  0  0  0  0  0  0  0  0  0
   -2.8064   -2.8121   -1.7839 O   0  0  0  0  0  0  0  0  0  0  0  0
   -1.1730   -0.0518   -4.0654 O   0  0  0  0  0  0  0  0  0  0  0  0
   -8.9097   -5.5060   -0.1242 N   0  3  0  0  0  0  0  0  0  0  0  0
   -8.5533    0.7729   -1.1825 N   0  3  0  0  0  0  0  0  0  0  0  0
  1  2  1  6  0  0  0
  1  3  1  0  0  0  0
  1 10  1  0  0  0  0
  3  4  1  6  0  0  0
  3  5  1  0  0  0  0
  5  6  1  6  0  0  0
  5  7  1  0  0  0  0
  7  8  1  6  0  0  0
  7  9  1  0  0  0  0
  9 10  1  0  0  0  0
  9 11  1  1  0  0  0
 11 35  1  0  0  0  0
 12 13  1  1  0  0  0
 12 14  1  0  0  0  0
 12 20  1  0  0  0  0
 14 15  1  0  0  0  0
 14 40  1  1  0  0  0
 15 16  1  1  0  0  0
 15 17  1  0  0  0  0
 17  2  1  6  0  0  0
 17 18  1  0  0  0  0
 18 19  1  6  0  0  0
 18 20  1  0  0  0  0
 21 16  1  6  0  0  0
 21 22  1  0  0  0  0
 21 25  1  0  0  0  0
 22 23  1  0  0  0  0
 22 36  1  1  0  0  0
 23 24  1  0  0  0  0
 23 31  1  1  0  0  0
 24 25  1  0  0  0  0
 24 26  1  6  0  0  0
 26 39  1  0  0  0  0
 27 28  1  0  0  0  0
 27 32  1  0  0  0  0
 27 38  1  1  0  0  0
 28 29  1  0  0  0  0
 28 37  1  6  0  0  0
 29 30  1  0  0  0  0
 29 42  1  1  0  0  0
 30 31  1  1  0  0  0
 30 33  1  0  0  0  0
 32 33  1  0  0  0  0
 32 34  1  1  0  0  0
 34 41  1  0  0  0  0
M  CHG  6   4   1  13   1  19   1  35   1  41   1  42   1
M  END
>  <CHROM.1>
-105.90068740,-40.94008533,-156.70477047,-158.65937754,-41.07962856,-77.72627541
148.24301792,49.41802698,172.22961377,13.81425021,154.75370876,-5.65882358
-37.47763559,58.77383777,67.93863354,-168.43621252,138.77595887,171.52553736
-79.38636090,-138.95806161,-56.44721972,130.07817559,-4.71855523,-2.29282788
-4.27220624,0.39165052,-0.79074334,-2.78217827

>  <Name>


>  <RI>
0

>  <Rbt.Current_Directory>
/home/itssahil/PROJECTS/Mol_Feturizer/New_Systems/rnas/1ei2

>  <Rbt.Executable>
rbdock ($Id: //depot/dev/client3/rdock/2013.1/src/exe/rbdock.cxx#4 $)

>  <Rbt.Library>
libRbt.so (2013.1, Build901 2013/11/27)

>  <Rbt.Parameter_File>
/export/apps/rDock/src/rDock_2013.1_src/data/scripts/dock_solv.prm

>  <Rbt.Receptor>
prm/blind_docking_80.prm

>  <SCORE>
51.4524

>  <SCORE.INTER>
46.2187

>  <SCORE.INTER.CONST>
1

>  <SCORE.INTER.POLAR>
-5.78487

>  <SCORE.INTER.ROT>
9

>  <SCORE.INTER.SOLV>
56.3048

>  <SCORE.INTER.VDW>
21.7271

>  <SCORE.INTER.norm>
1.10044

>  <SCORE.INTRA>
-2.58983

>  <SCORE.INTRA.DIHEDRAL>
7.06294

>  <SCORE.INTRA.DIHEDRAL.0>
40.8761

>  <SCORE.INTRA.POLAR>
-2.63509

>  <SCORE.INTRA.POLAR.0>
-0.0268208

>  <SCORE.INTRA.REPUL>
-0.641615

>  <SCORE.INTRA.REPUL.0>
0.641615

>  <SCORE.INTRA.SOLV>
1.3185

>  <SCORE.INTRA.SOLV.lig_0>
-162.567

>  <SCORE.INTRA.VDW>
5.38681

>  <SCORE.INTRA.VDW.0>
-4.80338

>  <SCORE.INTRA.norm>
-0.0616625

>  <SCORE.RESTR>
7.82358

>  <SCORE.RESTR.CAVITY>
7.82358

>  <SCORE.RESTR.norm>
0.186276

>  <SCORE.SYSTEM>
0

>  <SCORE.SYSTEM.CONST>
0

>  <SCORE.SYSTEM.DIHEDRAL>
0

>  <SCORE.SYSTEM.SOLV>
0

>  <SCORE.SYSTEM.norm>
0

>  <SCORE.heavy>
42

>  <SCORE.norm>
1.22506

>  <RMSD>
10.674

$$$$

 OpenBabel11021811393D
libRbt.so/2013.1/901 2013/11/27
 42 45  0  0  0  0  0  0  0  0999 V2000
   -2.9309   -3.6413   -7.1664 C   0  0  2  0  0  0  0  0  0  0  0  0
   -3.8266   -2.5614   -7.5725 O   0  0  0  0  0  0  0  0  0  0  0  0
   -2.3186   -4.3770   -8.4024 C   0  0  2  0  0  0  0  0  0  0  0  0
   -2.5035   -3.5988   -9.6488 N   0  3  0  0  0  0  0  0  0  0  0  0
   -2.9296   -5.8029   -8.5523 C   0  0  1  0  0  0  0  0  0  0  0  0
   -2.3564   -6.4674   -9.6762 O   0  0  0  0  0  0  0  0  0  0  0  0
   -2.6839   -6.6710   -7.2892 C   0  0  2  0  0  0  0  0  0  0  0  0
   -3.5009   -7.8337   -7.3678 O   0  0  0  0  0  0  0  0  0  0  0  0
   -3.0075   -5.8761   -5.9828 C   0  0  2  0  0  0  0  0  0  0  0  0
   -3.6462   -4.6004   -6.3145 O   0  0  0  0  0  0  0  0  0  0  0  0
   -1.7730   -5.5357   -5.1166 C   0  0  0  0  0  0  0  0  0  0  0  0
   -1.2136    0.6994   -6.4958 C   0  0  1  0  0  0  0  0  0  0  0  0
   -0.6831    2.0462   -6.1872 N   0  3  0  0  0  0  0  0  0  0  0  0
   -2.2042    0.2142   -5.4051 C   0  0  1  0  0  0  0  0  0  0  0  0
   -2.9131   -1.1410   -5.7527 C   0  0  1  0  0  0  0  0  0  0  0  0
   -4.0283   -1.3173   -4.8383 O   0  0  0  0  0  0  0  0  0  0  0  0
   -3.4878   -1.1859   -7.2162 C   0  0  1  0  0  0  0  0  0  0  0  0
   -2.4573   -0.6592   -8.2667 C   0  0  1  0  0  0  0  0  0  0  0  0
   -3.0447   -0.5606   -9.6185 N   0  3  0  0  0  0  0  0  0  0  0  0
   -1.8987    0.7281   -7.8779 C   0  0  0  0  0  0  0  0  0  0  0  0
   -4.5258   -0.1748   -4.0832 C   0  0  1  0  0  0  0  0  0  0  0  0
   -5.9005   -0.5234   -3.5251 C   0  0  1  0  0  0  0  0  0  0  0  0
   -5.4937   -1.3459   -2.3100 C   0  0  1  0  0  0  0  0  0  0  0  0
   -4.2999   -0.5413   -1.7764 C   0  0  2  0  0  0  0  0  0  0  0  0
   -3.6870    0.0621   -2.9408 O   0  0  0  0  0  0  0  0  0  0  0  0
   -3.2739   -1.4111   -1.0281 C   0  0  0  0  0  0  0  0  0  0  0  0
   -9.7903   -2.8376    0.2127 C   0  0  1  0  0  0  0  0  0  0  0  0
   -9.3578   -1.3452    0.2475 C   0  0  1  0  0  0  0  0  0  0  0  0
   -8.9663   -0.7648   -1.1421 C   0  0  2  0  0  0  0  0  0  0  0  0
   -7.9096   -1.6692   -1.8543 C   0  0  1  0  0  0  0  0  0  0  0  0
   -6.5718   -1.4276   -1.3337 O   0  0  0  0  0  0  0  0  0  0  0  0
   -9.5834   -3.4419   -1.2093 C   0  0  1  0  0  0  0  0  0  0  0  0
   -8.2435   -3.1035   -1.6960 O   0  0  0  0  0  0  0  0  0  0  0  0
   -9.7606   -4.9821   -1.2302 C   0  0  0  0  0  0  0  0  0  0  0  0
   -2.0563   -4.6508   -3.9729 N   0  3  0  0  0  0  0  0  0  0  0  0
   -6.5840    0.6708   -3.1439 O   0  0  0  0  0  0  0  0  0  0  0  0
  -10.4387   -0.5761    0.7735 O   0  0  0  0  0  0  0  0  0  0  0  0
   -9.0110   -3.5563    1.1714 O   0  0  0  0  0  0  0  0  0  0  0  0
   -3.9036   -2.5268   -0.4219 O   0  0  0  0  0  0  0  0  0  0  0  0
   -1.4929    0.0541   -4.1780 O   0  0  0  0  0  0  0  0  0  0  0  0
   -8.9854   -5.6629   -0.1768 N   0  3  0  0  0  0  0  0  0  0  0  0
   -8.5285    0.6490   -1.0350 N   0  3  0  0  0  0  0  0  0  0  0  0
  1  2  1  6  0  0  0
  1  3  1  0  0  0  0
  1 10  1  0  0  0  0
  3  4  1  6  0  0  0
  3  5  1  0  0  0  0
  5  6  1  6  0  0  0
  5  7  1  0  0  0  0
  7  8  1  6  0  0  0
  7  9  1  0  0  0  0
  9 10  1  0  0  0  0
  9 11  1  6  0  0  0
 11 35  1  0  0  0  0
 12 13  1  1  0  0  0
 12 14  1  0  0  0  0
 12 20  1  0  0  0  0
 14 15  1  0  0  0  0
 14 40  1  1  0  0  0
 15 16  1  1  0  0  0
 15 17  1  0  0  0  0
 17  2  1  6  0  0  0
 17 18  1  0  0  0  0
 18 19  1  6  0  0  0
 18 20  1  0  0  0  0
 21 16  1  1  0  0  0
 21 22  1  0  0  0  0
 21 25  1  0  0  0  0
 22 23  1  0  0  0  0
 22 36  1  1  0  0  0
 23 24  1  0  0  0  0
 23 31  1  1  0  0  0
 24 25  1  0  0  0  0
 24 26  1  6  0  0  0
 26 39  1  0  0  0  0
 27 28  1  0  0  0  0
 27 32  1  0  0  0  0
 27 38  1  1  0  0  0
 28 29  1  0  0  0  0
 28 37  1  6  0  0  0
 29 30  1  0  0  0  0
 29 42  1  1  0  0  0
 30 31  1  1  0  0  0
 30 33  1  0  0  0  0
 32 33  1  0  0  0  0
 32 34  1  1  0  0  0
 34 41  1  0  0  0  0
M  CHG  6   4   1  13   1  19   1  35   1  41   1  42   1
M  END
>  <CHROM.1>
-116.78085723,-40.39731746,-159.79683575,71.76781670,178.25678150,173.02930451
23.84039732,-78.39311785,68.18286894,16.59675025,164.20376461,-6.30141970
74.13277311,43.09849721,-29.44154650,-29.14613300,132.83312729,62.56517798
33.77832834,-137.16309527,-49.61717075,115.48190540,-4.80945787,-2.32163016
-4.24774252,0.35383675,-0.81261733,-2.80515781

>  <Name>


>  <RI>
0

>  <Rbt.Current_Directory>
/home/itssahil/PROJECTS/Mol_Feturizer/New_Systems/rnas/1ei2

>  <Rbt.Executable>
rbdock ($Id: //depot/dev/client3/rdock/2013.1/src/exe/rbdock.cxx#4 $)

>  <Rbt.Library>
libRbt.so (2013.1, Build901 2013/11/27)

>  <Rbt.Parameter_File>
/export/apps/rDock/src/rDock_2013.1_src/data/scripts/dock_solv.prm

>  <Rbt.Receptor>
prm/blind_docking_100.prm

>  <SCORE>
46.7357

>  <SCORE.INTER>
40.9272

>  <SCORE.INTER.CONST>
1

>  <SCORE.INTER.POLAR>
-5.85851

>  <SCORE.INTER.ROT>
9

>  <SCORE.INTER.SOLV>
52.0596

>  <SCORE.INTER.VDW>
19.86

>  <SCORE.INTER.norm>
0.974458

>  <SCORE.INTRA>
0.568716

>  <SCORE.INTRA.DIHEDRAL>
10.5556

>  <SCORE.INTRA.DIHEDRAL.0>
40.8761

>  <SCORE.INTRA.POLAR>
-2.22663

>  <SCORE.INTRA.POLAR.0>
-0.0268208

>  <SCORE.INTRA.REPUL>
-0.641615

>  <SCORE.INTRA.REPUL.0>
0.641615

>  <SCORE.INTRA.SOLV>
0.897043

>  <SCORE.INTRA.SOLV.lig_0>
-162.567

>  <SCORE.INTRA.VDW>
5.621

>  <SCORE.INTRA.VDW.0>
-4.80338

>  <SCORE.INTRA.norm>
0.0135409

>  <SCORE.RESTR>
5.23972

>  <SCORE.RESTR.CAVITY>
5.23972

>  <SCORE.RESTR.norm>
0.124755

>  <SCORE.SYSTEM>
0

>  <SCORE.SYSTEM.CONST>
0

>  <SCORE.SYSTEM.DIHEDRAL>
0

>  <SCORE.SYSTEM.SOLV>
0

>  <SCORE.SYSTEM.norm>
0

>  <SCORE.heavy>
42

>  <SCORE.norm>
1.11275

>  <RMSD>
10.688

$$$$

 OpenBabel11021811393D
libRbt.so/2013.1/901 2013/11/27
 42 45  0  0  0  0  0  0  0  0999 V2000
   -2.9668   -3.6790   -7.3174 C   0  0  2  0  0  0  0  0  0  0  0  0
   -3.8462   -2.5369   -7.5541 O   0  0  0  0  0  0  0  0  0  0  0  0
   -2.3970   -4.2538   -8.6548 C   0  0  2  0  0  0  0  0  0  0  0  0
   -2.5901   -3.3118   -9.7811 N   0  3  0  0  0  0  0  0  0  0  0  0
   -3.0429   -5.6344   -8.9798 C   0  0  1  0  0  0  0  0  0  0  0  0
   -2.5082   -6.1530  -10.1958 O   0  0  0  0  0  0  0  0  0  0  0  0
   -2.7907   -6.6689   -7.8504 C   0  0  2  0  0  0  0  0  0  0  0  0
   -3.6352   -7.7943   -8.0647 O   0  0  0  0  0  0  0  0  0  0  0  0
   -3.0692   -6.0505   -6.4421 C   0  0  2  0  0  0  0  0  0  0  0  0
   -3.6857   -4.7296   -6.5849 O   0  0  0  0  0  0  0  0  0  0  0  0
   -1.8097   -5.8538   -5.5674 C   0  0  0  0  0  0  0  0  0  0  0  0
   -0.9214    0.5102   -6.6704 C   0  0  1  0  0  0  0  0  0  0  0  0
   -0.2712    1.8094   -6.3882 N   0  3  0  0  0  0  0  0  0  0  0  0
   -1.8361    0.0652   -5.4993 C   0  0  1  0  0  0  0  0  0  0  0  0
   -2.6677   -1.2294   -5.8033 C   0  0  1  0  0  0  0  0  0  0  0  0
   -3.7012   -1.3533   -4.7896 O   0  0  0  0  0  0  0  0  0  0  0  0
   -3.3798   -1.1973   -7.2055 C   0  0  1  0  0  0  0  0  0  0  0  0
   -2.4188   -0.7146   -8.3397 C   0  0  1  0  0  0  0  0  0  0  0  0
   -3.1229   -0.5414   -9.6266 N   0  3  0  0  0  0  0  0  0  0  0  0
   -1.7303    0.6211   -7.9796 C   0  0  0  0  0  0  0  0  0  0  0  0
   -3.9583   -0.2397   -3.8859 C   0  0  1  0  0  0  0  0  0  0  0  0
   -5.4570   -0.1684   -3.6178 C   0  0  1  0  0  0  0  0  0  0  0  0
   -5.5906   -1.2576   -2.5622 C   0  0  1  0  0  0  0  0  0  0  0  0
   -4.3418   -1.0122   -1.7034 C   0  0  2  0  0  0  0  0  0  0  0  0
   -3.3431   -0.4890   -2.6114 O   0  0  0  0  0  0  0  0  0  0  0  0
   -3.8202   -2.2893   -1.0206 C   0  0  0  0  0  0  0  0  0  0  0  0
   -9.9481   -2.1058    0.1939 C   0  0  1  0  0  0  0  0  0  0  0  0
   -9.8968   -1.0133   -0.9103 C   0  0  1  0  0  0  0  0  0  0  0  0
   -9.2390   -1.4840   -2.2395 C   0  0  2  0  0  0  0  0  0  0  0  0
   -7.8387   -2.1269   -1.9797 C   0  0  1  0  0  0  0  0  0  0  0  0
   -6.8169   -1.1074   -1.7904 O   0  0  0  0  0  0  0  0  0  0  0  0
   -9.1829   -3.3867   -0.2575 C   0  0  1  0  0  0  0  0  0  0  0  0
   -7.8714   -3.0118   -0.7924 O   0  0  0  0  0  0  0  0  0  0  0  0
   -8.9917   -4.4013    0.8993 C   0  0  0  0  0  0  0  0  0  0  0  0
   -1.5334   -6.9637   -4.6385 N   0  3  0  0  0  0  0  0  0  0  0  0
   -5.7928    1.1153   -3.0907 O   0  0  0  0  0  0  0  0  0  0  0  0
  -11.2315   -0.5915   -1.1878 O   0  0  0  0  0  0  0  0  0  0  0  0
   -9.3600   -1.5741    1.3832 O   0  0  0  0  0  0  0  0  0  0  0  0
   -2.9344   -2.9930   -1.8743 O   0  0  0  0  0  0  0  0  0  0  0  0
   -1.0251   -0.1746   -4.3494 O   0  0  0  0  0  0  0  0  0  0  0  0
   -8.1063   -5.5234    0.5376 N   0  3  0  0  0  0  0  0  0  0  0  0
   -9.1872   -0.3864   -3.2369 N   0  3  0  0  0  0  0  0  0  0  0  0
  1  2  1  6  0  0  0
  1  3  1  0  0  0  0
  1 10  1  0  0  0  0
  3  4  1  6  0  0  0
  3  5  1  0  0  0  0
  5  6  1  6  0  0  0
  5  7  1  0  0  0  0
  7  8  1  6  0  0  0
  7  9  1  0  0  0  0
  9 10  1  0  0  0  0
  9 11  1  6  0  0  0
 11 35  1  0  0  0  0
 12 13  1  1  0  0  0
 12 14  1  0  0  0  0
 12 20  1  0  0  0  0
 14 15  1  0  0  0  0
 14 40  1  1  0  0  0
 15 16  1  1  0  0  0
 15 17  1  0  0  0  0
 17  2  1  6  0  0  0
 17 18  1  0  0  0  0
 18 19  1  6  0  0  0
 18 20  1  0  0  0  0
 21 16  1  6  0  0  0
 21 22  1  0  0  0  0
 21 25  1  0  0  0  0
 22 23  1  0  0  0  0
 22 36  1  1  0  0  0
 23 24  1  0  0  0  0
 23 31  1  1  0  0  0
 24 25  1  0  0  0  0
 24 26  1  6  0  0  0
 26 39  1  0  0  0  0
 27 28  1  0  0  0  0
 27 32  1  0  0  0  0
 27 38  1  1  0  0  0
 28 29  1  0  0  0  0
 28 37  1  6  0  0  0
 29 30  1  0  0  0  0
 29 42  1  6  0  0  0
 30 31  1  1  0  0  0
 30 33  1  0  0  0  0
 32 33  1  0  0  0  0
 32 34  1  1  0  0  0
 34 41  1  0  0  0  0
M  CHG  6   4   1  13   1  19   1  35   1  41   1  42   1
M  END
>  <CHROM.1>
-107.62309970,-43.39033176,-44.95980778,-173.09176953,-54.73233632,-94.50052009
135.49172708,37.45310664,80.67252845,10.92372951,143.28943293,-22.30996923
77.24575412,111.70095957,86.84463642,-176.29621166,77.64899365,-67.08207742
179.54629747,-130.96333648,-171.75511613,103.51698283,-4.71425638,-2.38943591
-4.47537648,0.32356019,-0.81473819,-2.88529528

>  <Name>


>  <RI>
0

>  <Rbt.Current_Directory>
/home/itssahil/PROJECTS/Mol_Feturizer/New_Systems/rnas/1ei2

>  <Rbt.Executable>
rbdock ($Id: //depot/dev/client3/rdock/2013.1/src/exe/rbdock.cxx#4 $)

>  <Rbt.Library>
libRbt.so (2013.1, Build901 2013/11/27)

>  <Rbt.Parameter_File>
/export/apps/rDock/src/rDock_2013.1_src/data/scripts/dock_solv.prm

>  <Rbt.Receptor>
prm/blind_docking_20.prm

>  <SCORE>
67.2352

>  <SCORE.INTER>
53.3118

>  <SCORE.INTER.CONST>
1

>  <SCORE.INTER.POLAR>
-9.01637

>  <SCORE.INTER.ROT>
9

>  <SCORE.INTER.SOLV>
65.3344

>  <SCORE.INTER.VDW>
34.2177

>  <SCORE.INTER.norm>
1.26933

>  <SCORE.INTRA>
4.40682

>  <SCORE.INTRA.DIHEDRAL>
13.326

>  <SCORE.INTRA.DIHEDRAL.0>
40.8761

>  <SCORE.INTRA.POLAR>
-0.0341576

>  <SCORE.INTRA.POLAR.0>
-0.0268208

>  <SCORE.INTRA.REPUL>
-0.604855

>  <SCORE.INTRA.REPUL.0>
0.641615

>  <SCORE.INTRA.SOLV>
-4.76151

>  <SCORE.INTRA.SOLV.lig_0>
-162.567

>  <SCORE.INTRA.VDW>
3.26496

>  <SCORE.INTRA.VDW.0>
-4.80338

>  <SCORE.INTRA.norm>
0.104924

>  <SCORE.RESTR>
9.51661

>  <SCORE.RESTR.CAVITY>
9.51661

>  <SCORE.RESTR.norm>
0.226586

>  <SCORE.SYSTEM>
0

>  <SCORE.SYSTEM.CONST>
0

>  <SCORE.SYSTEM.DIHEDRAL>
0

>  <SCORE.SYSTEM.SOLV>
0

>  <SCORE.SYSTEM.norm>
0

>  <SCORE.heavy>
42

>  <SCORE.norm>
1.60084

>  <RMSD>
10.764

$$$$

 OpenBabel11021811393D
libRbt.so/2013.1/901 2013/11/27
 42 45  0  0  0  0  0  0  0  0999 V2000
   -3.4209   -7.5703   -7.1571 C   0  0  2  0  0  0  0  0  0  0  0  0
   -2.6916   -6.4244   -6.6198 O   0  0  0  0  0  0  0  0  0  0  0  0
   -2.9352   -8.9124   -6.5193 C   0  0  2  0  0  0  0  0  0  0  0  0
   -2.1291   -8.6778   -5.2993 N   0  3  0  0  0  0  0  0  0  0  0  0
   -2.1287   -9.7533   -7.5543 C   0  0  1  0  0  0  0  0  0  0  0  0
   -1.7001  -10.9788   -6.9644 O   0  0  0  0  0  0  0  0  0  0  0  0
   -2.9743  -10.0826   -8.8136 C   0  0  2  0  0  0  0  0  0  0  0  0
   -2.1099  -10.5875   -9.8253 O   0  0  0  0  0  0  0  0  0  0  0  0
   -3.7294   -8.8177   -9.3365 C   0  0  2  0  0  0  0  0  0  0  0  0
   -3.2736   -7.6259   -8.6174 O   0  0  0  0  0  0  0  0  0  0  0  0
   -5.2651   -8.8714   -9.1664 C   0  0  0  0  0  0  0  0  0  0  0  0
   -2.0857   -2.2554   -7.5539 C   0  0  1  0  0  0  0  0  0  0  0  0
   -2.2917   -0.8610   -8.0052 N   0  3  0  0  0  0  0  0  0  0  0  0
   -2.9102   -2.5684   -6.2778 C   0  0  1  0  0  0  0  0  0  0  0  0
   -2.8496   -4.0730   -5.8391 C   0  0  1  0  0  0  0  0  0  0  0  0
   -3.8950   -4.3015   -4.8564 O   0  0  0  0  0  0  0  0  0  0  0  0
   -3.0860   -5.0779   -7.0259 C   0  0  1  0  0  0  0  0  0  0  0  0
   -2.2524   -4.6961   -8.2917 C   0  0  1  0  0  0  0  0  0  0  0  0
   -2.5844   -5.5479   -9.4519 N   0  3  0  0  0  0  0  0  0  0  0  0
   -2.4658   -3.2201   -8.6965 C   0  0  0  0  0  0  0  0  0  0  0  0
   -3.5574   -4.3197   -3.4392 C   0  0  1  0  0  0  0  0  0  0  0  0
   -2.5421   -3.2158   -3.1680 C   0  0  1  0  0  0  0  0  0  0  0  0
   -3.4719   -2.0125   -3.0895 C   0  0  1  0  0  0  0  0  0  0  0  0
   -4.6571   -2.5872   -2.3007 C   0  0  2  0  0  0  0  0  0  0  0  0
   -4.7148   -3.9899   -2.6540 O   0  0  0  0  0  0  0  0  0  0  0  0
   -5.9933   -1.9007   -2.6363 C   0  0  0  0  0  0  0  0  0  0  0  0
   -3.4787    2.6087   -3.8220 C   0  0  1  0  0  0  0  0  0  0  0  0
   -2.9071    2.3066   -2.4087 C   0  0  1  0  0  0  0  0  0  0  0  0
   -1.7055    1.3181   -2.4076 C   0  0  2  0  0  0  0  0  0  0  0  0
   -2.0466    0.0137   -3.1976 C   0  0  1  0  0  0  0  0  0  0  0  0
   -2.8464   -0.8973   -2.3916 O   0  0  0  0  0  0  0  0  0  0  0  0
   -2.7898    1.7187   -4.9007 C   0  0  1  0  0  0  0  0  0  0  0  0
   -2.7741    0.3249   -4.4497 O   0  0  0  0  0  0  0  0  0  0  0  0
   -3.4974    1.8022   -6.2777 C   0  0  0  0  0  0  0  0  0  0  0  0
   -5.9443   -7.5769   -9.3514 N   0  3  0  0  0  0  0  0  0  0  0  0
   -1.8897   -3.4554   -1.9207 O   0  0  0  0  0  0  0  0  0  0  0  0
   -2.4844    3.5370   -1.8223 O   0  0  0  0  0  0  0  0  0  0  0  0
   -4.8860    2.3591   -3.8030 O   0  0  0  0  0  0  0  0  0  0  0  0
   -6.9748   -2.2000   -1.6586 O   0  0  0  0  0  0  0  0  0  0  0  0
   -2.4211   -1.7619   -5.2065 O   0  0  0  0  0  0  0  0  0  0  0  0
   -3.3775    3.1313   -6.9046 N   0  3  0  0  0  0  0  0  0  0  0  0
   -1.2314    1.0429   -1.0285 N   0  3  0  0  0  0  0  0  0  0  0  0
  1  2  1  1  0  0  0
  1  3  1  0  0  0  0
  1 10  1  0  0  0  0
  3  4  1  1  0  0  0
  3  5  1  0  0  0  0
  5  6  1  1  0  0  0
  5  7  1  0  0  0  0
  7  8  1  6  0  0  0
  7  9  1  0  0  0  0
  9 10  1  0  0  0  0
  9 11  1  1  0  0  0
 11 35  1  0  0  0  0
 12 13  1  6  0  0  0
 12 14  1  0  0  0  0
 12 20  1  0  0  0  0
 14 15  1  0  0  0  0
 14 40  1  1  0  0  0
 15 16  1  1  0  0  0
 15 17  1  0  0  0  0
 17  2  1  1  0  0  0
 17 18  1  0  0  0  0
 18 19  1  6  0  0  0
 18 20  1  0  0  0  0
 21 16  1  6  0  0  0
 21 22  1  0  0  0  0
 21 25  1  0  0  0  0
 22 23  1  0  0  0  0
 22 36  1  1  0  0  0
 23 24  1  0  0  0  0
 23 31  1  1  0  0  0
 24 25  1  0  0  0  0
 24 26  1  6  0  0  0
 26 39  1  0  0  0  0
 27 28  1  0  0  0  0
 27 32  1  0  0  0  0
 27 38  1  1  0  0  0
 28 29  1  0  0  0  0
 28 37  1  6  0  0  0
 29 30  1  0  0  0  0
 29 42  1  1  0  0  0
 30 31  1  1  0  0  0
 30 33  1  0  0  0  0
 32 33  1  0  0  0  0
 32 34  1  6  0  0  0
 34 41  1  0  0  0  0
M  CHG  6   4   1  13   1  19   1  35   1  41   1  42   1
M  END
>  <CHROM.1>
-175.25601574,146.94337202,-179.02712494,-174.41409366,70.99536957,166.03790558
-32.58451599,-51.99447007,65.67496823,-99.68247921,40.19579007,-174.62913663
65.17973233,87.60599583,-164.50213528,171.93241756,59.83518492,-56.38899861
-99.06910129,167.27426207,66.96191206,2.70302597,-3.17086759,-3.42780393
-5.48517883,1.48919905,-1.47320407,-2.76398221

>  <Name>


>  <RI>
0

>  <Rbt.Current_Directory>
/home/itssahil/PROJECTS/Mol_Feturizer/New_Systems/rnas/1ei2

>  <Rbt.Executable>
rbdock ($Id: //depot/dev/client3/rdock/2013.1/src/exe/rbdock.cxx#4 $)

>  <Rbt.Library>
libRbt.so (2013.1, Build901 2013/11/27)

>  <Rbt.Parameter_File>
/export/apps/rDock/src/rDock_2013.1_src/data/scripts/dock_solv.prm

>  <Rbt.Receptor>
prm/blind_docking_60.prm

>  <SCORE>
17.7229

>  <SCORE.INTER>
6.47143

>  <SCORE.INTER.CONST>
1

>  <SCORE.INTER.POLAR>
-5.92869

>  <SCORE.INTER.ROT>
9

>  <SCORE.INTER.SOLV>
41.0413

>  <SCORE.INTER.VDW>
0.79616

>  <SCORE.INTER.norm>
0.154082

>  <SCORE.INTRA>
-3.81415

>  <SCORE.INTRA.DIHEDRAL>
-13.8007

>  <SCORE.INTRA.DIHEDRAL.0>
40.8761

>  <SCORE.INTRA.POLAR>
-0.768104

>  <SCORE.INTRA.POLAR.0>
-0.0268208

>  <SCORE.INTRA.REPUL>
-0.624872

>  <SCORE.INTRA.REPUL.0>
0.641615

>  <SCORE.INTRA.SOLV>
-3.39888

>  <SCORE.INTRA.SOLV.lig_0>
-162.567

>  <SCORE.INTRA.VDW>
10.5216

>  <SCORE.INTRA.VDW.0>
-4.80338

>  <SCORE.INTRA.norm>
-0.0908131

>  <SCORE.RESTR>
15.0656

>  <SCORE.RESTR.CAVITY>
15.0656

>  <SCORE.RESTR.norm>
0.358705

>  <SCORE.SYSTEM>
0

>  <SCORE.SYSTEM.CONST>
0

>  <SCORE.SYSTEM.DIHEDRAL>
0

>  <SCORE.SYSTEM.SOLV>
0

>  <SCORE.SYSTEM.norm>
0

>  <SCORE.heavy>
42

>  <SCORE.norm>
0.421973

>  <RMSD>
11.597

$$$$
