lig.pdb
 OpenBabel11021811453D
libRbt.so/2013.1/901 2013/11/27
 24 24  0  0  0  0  0  0  0  0999 V2000
    6.0677   -1.0328   -2.0073 C   0  0  0  0  0  0  0  0  0  0  0  0
    5.7575   -0.4875   -0.7160 C   0  0  0  0  0  0  0  0  0  0  0  0
    4.8570    0.5398   -0.5617 C   0  0  0  0  0  0  0  0  0  0  0  0
    4.1721    1.1147   -1.6797 C   0  0  0  0  0  0  0  0  0  0  0  0
    4.5079    0.5920   -2.9719 C   0  0  0  0  0  0  0  0  0  0  0  0
    5.4129   -0.4281   -3.1278 C   0  0  0  0  0  0  0  0  0  0  0  0
    6.9364   -2.0741   -2.1683 C   0  0  0  0  0  0  0  0  0  0  0  0
    7.1985   -2.6278   -3.3716 N   0  0  0  0  0  0  0  0  0  0  0  0
    2.5756    2.6535   -2.5694 N   0  0  0  0  0  0  0  0  0  0  0  0
    3.2502    2.1090   -1.5347 C   0  0  0  0  0  0  0  0  0  0  0  0
    7.6064   -2.6294   -1.1282 N   0  0  0  0  0  0  0  0  0  0  0  0
    2.9331    2.6389   -0.3294 N   0  0  0  0  0  0  0  0  0  0  0  0
    8.9680   -3.1603   -1.1501 C   0  0  0  0  0  0  0  0  0  0  0  0
    1.7029    3.3514    0.0013 C   0  0  0  0  0  0  0  0  0  0  0  0
    9.8124   -2.3430   -0.1591 C   0  0  0  0  0  0  0  0  0  0  0  0
    0.5253    2.3786   -0.1954 C   0  0  0  0  0  0  0  0  0  0  0  0
   11.2313   -2.1203   -0.7004 C   0  0  0  0  0  0  0  0  0  0  0  0
   -0.1363    1.9708    1.1335 C   0  0  0  0  0  0  0  0  0  0  0  0
   12.0364   -1.3506    0.3150 N   0  0  0  0  0  0  0  0  0  0  0  0
   -0.4960    3.1758    1.9654 N   0  0  0  0  0  0  0  0  0  0  0  0
   11.4420    0.0175    0.5110 C   0  0  0  0  0  0  0  0  0  0  0  0
    0.5706    3.3830    3.0069 C   0  0  0  0  0  0  0  0  0  0  0  0
   13.4734   -1.2194   -0.1254 C   0  0  0  0  0  0  0  0  0  0  0  0
   -1.8240    3.0164    2.6517 C   0  0  0  0  0  0  0  0  0  0  0  0
  1  6  2  0  0  0  0
  2  3  2  0  0  0  0
  2  1  1  0  0  0  0
  3  4  1  0  0  0  0
  4 10  1  0  0  0  0
  4  5  2  0  0  0  0
  6  5  1  0  0  0  0
  7  1  1  0  0  0  0
  7 11  1  0  0  0  0
  8  7  2  0  0  0  0
  9 10  2  0  0  0  0
 10 12  1  0  0  0  0
 12 14  1  0  0  0  0
 13 11  1  0  0  0  0
 13 15  1  0  0  0  0
 14 16  1  0  0  0  0
 16 18  1  0  0  0  0
 17 15  1  0  0  0  0
 17 19  1  0  0  0  0
 18 20  1  0  0  0  0
 19 23  1  0  0  0  0
 20 22  1  0  0  0  0
 20 24  1  0  0  0  0
 21 19  1  0  0  0  0
M  END
>  <CHROM.1>
-178.92935481,177.48527984,61.80720212,118.47019570,-142.35177584,110.67666307
51.48456917,-178.42311363,-63.78595397,-99.00467683,5.36864832,0.33156687
-0.56931595,0.31438790,0.33334389,-2.01756923

>  <Name>
lig.pdb

>  <RI>
1.56215e+07

>  <Rbt.Current_Directory>
/home/itssahil/PROJECTS/Mol_Feturizer/New_Systems/rnas/2l94

>  <Rbt.Executable>
rbdock ($Id: //depot/dev/client3/rdock/2013.1/src/exe/rbdock.cxx#4 $)

>  <Rbt.Library>
libRbt.so (2013.1, Build901 2013/11/27)

>  <Rbt.Parameter_File>
/export/apps/rDock/src/rDock_2013.1_src/data/scripts/dock_solv.prm

>  <Rbt.Receptor>
prm/pocket_docking_2.prm

>  <SCORE>
-14.4633

>  <SCORE.INTER>
-18.4783

>  <SCORE.INTER.CONST>
1

>  <SCORE.INTER.POLAR>
-2.70899

>  <SCORE.INTER.ROT>
10

>  <SCORE.INTER.SOLV>
6.99726

>  <SCORE.INTER.VDW>
-15.888

>  <SCORE.INTER.norm>
-0.769927

>  <SCORE.INTRA>
4.01495

>  <SCORE.INTRA.DIHEDRAL>
9.34729

>  <SCORE.INTRA.DIHEDRAL.0>
7.52971

>  <SCORE.INTRA.POLAR>
0

>  <SCORE.INTRA.POLAR.0>
0

>  <SCORE.INTRA.REPUL>
0

>  <SCORE.INTRA.REPUL.0>
0

>  <SCORE.INTRA.SOLV>
0.218448

>  <SCORE.INTRA.SOLV.lig_0>
-22.1084

>  <SCORE.INTRA.VDW>
-0.767917

>  <SCORE.INTRA.VDW.0>
2.4256

>  <SCORE.INTRA.norm>
0.16729

>  <SCORE.RESTR>
0

>  <SCORE.RESTR.CAVITY>
0

>  <SCORE.RESTR.norm>
0

>  <SCORE.SYSTEM>
0

>  <SCORE.SYSTEM.CONST>
0

>  <SCORE.SYSTEM.DIHEDRAL>
0

>  <SCORE.SYSTEM.SOLV>
0

>  <SCORE.SYSTEM.norm>
0

>  <SCORE.heavy>
24

>  <SCORE.norm>
-0.602638

>  <RMSD>
0.591

$$$$
lig.pdb
 OpenBabel11021811453D
libRbt.so/2013.1/901 2013/11/27
 24 24  0  0  0  0  0  0  0  0999 V2000
    5.8645   -1.2965   -1.8958 C   0  0  0  0  0  0  0  0  0  0  0  0
    5.1649   -0.6889   -2.9923 C   0  0  0  0  0  0  0  0  0  0  0  0
    4.2456    0.3145   -2.7969 C   0  0  0  0  0  0  0  0  0  0  0  0
    3.9434    0.8147   -1.4900 C   0  0  0  0  0  0  0  0  0  0  0  0
    4.6179    0.1839   -0.3933 C   0  0  0  0  0  0  0  0  0  0  0  0
    5.5299   -0.8234   -0.5865 C   0  0  0  0  0  0  0  0  0  0  0  0
    6.8026   -2.2714   -2.0814 C   0  0  0  0  0  0  0  0  0  0  0  0
    7.1923   -2.6872   -3.3054 N   0  0  0  0  0  0  0  0  0  0  0  0
    2.4105    2.4637   -2.2893 N   0  0  0  0  0  0  0  0  0  0  0  0
    3.0605    1.8341   -1.2878 C   0  0  0  0  0  0  0  0  0  0  0  0
    7.4182   -2.8944   -1.0460 N   0  0  0  0  0  0  0  0  0  0  0  0
    2.7610    2.3049   -0.0538 N   0  0  0  0  0  0  0  0  0  0  0  0
    8.8058   -3.3515   -1.0021 C   0  0  0  0  0  0  0  0  0  0  0  0
    1.5586    3.0444    0.3173 C   0  0  0  0  0  0  0  0  0  0  0  0
    9.7015   -2.1273   -0.7536 C   0  0  0  0  0  0  0  0  0  0  0  0
    0.3913    2.0427    0.3920 C   0  0  0  0  0  0  0  0  0  0  0  0
   11.1834   -2.5266   -0.7327 C   0  0  0  0  0  0  0  0  0  0  0  0
   -0.8951    2.6710    0.9580 C   0  0  0  0  0  0  0  0  0  0  0  0
   12.0270   -1.2981   -0.5065 N   0  0  0  0  0  0  0  0  0  0  0  0
   -0.7401    3.0333    2.4134 N   0  0  0  0  0  0  0  0  0  0  0  0
   13.4473   -1.5669   -0.9236 C   0  0  0  0  0  0  0  0  0  0  0  0
   -0.5600    1.7702    3.2119 C   0  0  0  0  0  0  0  0  0  0  0  0
   11.9955   -0.8837    0.9438 C   0  0  0  0  0  0  0  0  0  0  0  0
   -1.9326    3.7798    2.9431 C   0  0  0  0  0  0  0  0  0  0  0  0
  1  6  2  0  0  0  0
  2  3  2  0  0  0  0
  2  1  1  0  0  0  0
  3  4  1  0  0  0  0
  4 10  1  0  0  0  0
  4  5  2  0  0  0  0
  6  5  1  0  0  0  0
  7  1  1  0  0  0  0
  7 11  1  0  0  0  0
  8  7  2  0  0  0  0
  9 10  2  0  0  0  0
 10 12  1  0  0  0  0
 12 14  1  0  0  0  0
 13 11  1  0  0  0  0
 13 15  1  0  0  0  0
 14 16  1  0  0  0  0
 16 18  1  0  0  0  0
 17 15  1  0  0  0  0
 17 19  1  0  0  0  0
 18 20  1  0  0  0  0
 19 23  1  0  0  0  0
 20 22  1  0  0  0  0
 20 24  1  0  0  0  0
 21 19  1  0  0  0  0
M  END
>  <CHROM.1>
-0.66463962,3.53247170,75.25585747,77.69621983,-178.46930626,172.33490949
-67.45989862,179.20760538,-161.51138602,-65.44365069,5.18169975,0.10019542
-0.49351109,0.33793913,0.31771195,-1.98062456

>  <Name>
lig.pdb

>  <RI>
1.56215e+07

>  <Rbt.Current_Directory>
/home/itssahil/PROJECTS/Mol_Feturizer/New_Systems/rnas/2l94

>  <Rbt.Executable>
rbdock ($Id: //depot/dev/client3/rdock/2013.1/src/exe/rbdock.cxx#4 $)

>  <Rbt.Library>
libRbt.so (2013.1, Build901 2013/11/27)

>  <Rbt.Parameter_File>
/export/apps/rDock/src/rDock_2013.1_src/data/scripts/dock_solv.prm

>  <Rbt.Receptor>
prm/pocket_docking_2.prm

>  <SCORE>
-14.4652

>  <SCORE.INTER>
-12.1442

>  <SCORE.INTER.CONST>
1

>  <SCORE.INTER.POLAR>
-1.59922

>  <SCORE.INTER.ROT>
10

>  <SCORE.INTER.SOLV>
6.45245

>  <SCORE.INTER.VDW>
-15.1829

>  <SCORE.INTER.norm>
-0.50601

>  <SCORE.INTRA>
-2.32099

>  <SCORE.INTRA.DIHEDRAL>
-1.39899

>  <SCORE.INTRA.DIHEDRAL.0>
7.52971

>  <SCORE.INTRA.POLAR>
0

>  <SCORE.INTRA.POLAR.0>
0

>  <SCORE.INTRA.REPUL>
0

>  <SCORE.INTRA.REPUL.0>
0

>  <SCORE.INTRA.SOLV>
0.0166321

>  <SCORE.INTRA.SOLV.lig_0>
-22.1084

>  <SCORE.INTRA.VDW>
-1.62981

>  <SCORE.INTRA.VDW.0>
2.4256

>  <SCORE.INTRA.norm>
-0.0967079

>  <SCORE.RESTR>
0

>  <SCORE.RESTR.CAVITY>
0

>  <SCORE.RESTR.norm>
0

>  <SCORE.SYSTEM>
0

>  <SCORE.SYSTEM.CONST>
0

>  <SCORE.SYSTEM.DIHEDRAL>
0

>  <SCORE.SYSTEM.SOLV>
0

>  <SCORE.SYSTEM.norm>
0

>  <SCORE.heavy>
24

>  <SCORE.norm>
-0.602717

>  <RMSD>
0.658

$$$$
lig.pdb
 OpenBabel11021811453D
libRbt.so/2013.1/901 2013/11/27
 24 24  0  0  0  0  0  0  0  0999 V2000
    6.1587   -1.2495   -2.0265 C   0  0  0  0  0  0  0  0  0  0  0  0
    5.7089   -0.9320   -0.7007 C   0  0  0  0  0  0  0  0  0  0  0  0
    4.6954   -0.0303   -0.4770 C   0  0  0  0  0  0  0  0  0  0  0  0
    4.0269    0.6334   -1.5549 C   0  0  0  0  0  0  0  0  0  0  0  0
    4.4998    0.3407   -2.8765 C   0  0  0  0  0  0  0  0  0  0  0  0
    5.5169   -0.5532   -3.1005 C   0  0  0  0  0  0  0  0  0  0  0  0
    7.1425   -2.1670   -2.2614 C   0  0  0  0  0  0  0  0  0  0  0  0
    7.6074   -2.4394   -3.4994 N   0  0  0  0  0  0  0  0  0  0  0  0
    2.3083    2.0920   -2.3470 N   0  0  0  0  0  0  0  0  0  0  0  0
    2.9964    1.5019   -1.3467 C   0  0  0  0  0  0  0  0  0  0  0  0
    7.7312   -2.8730   -1.2644 N   0  0  0  0  0  0  0  0  0  0  0  0
    2.5748    1.8490   -0.1074 N   0  0  0  0  0  0  0  0  0  0  0  0
    9.1320   -3.2844   -1.1948 C   0  0  0  0  0  0  0  0  0  0  0  0
    1.2616    2.3850    0.2368 C   0  0  0  0  0  0  0  0  0  0  0  0
    9.9615   -2.0709   -0.7451 C   0  0  0  0  0  0  0  0  0  0  0  0
    1.4657    3.5128    1.2655 C   0  0  0  0  0  0  0  0  0  0  0  0
   11.4621   -2.3930   -0.7679 C   0  0  0  0  0  0  0  0  0  0  0  0
    0.6069    3.3262    2.5294 C   0  0  0  0  0  0  0  0  0  0  0  0
   12.2434   -1.1503   -0.4258 N   0  0  0  0  0  0  0  0  0  0  0  0
   -0.8532    3.1680    2.1881 N   0  0  0  0  0  0  0  0  0  0  0  0
   13.6802   -1.3173   -0.8392 C   0  0  0  0  0  0  0  0  0  0  0  0
   -1.6786    3.6279    3.3597 C   0  0  0  0  0  0  0  0  0  0  0  0
   12.1729   -0.8608    1.0531 C   0  0  0  0  0  0  0  0  0  0  0  0
   -1.2107    1.7433    1.8684 C   0  0  0  0  0  0  0  0  0  0  0  0
  1  6  2  0  0  0  0
  2  3  2  0  0  0  0
  2  1  1  0  0  0  0
  3  4  1  0  0  0  0
  4 10  1  0  0  0  0
  4  5  2  0  0  0  0
  6  5  1  0  0  0  0
  7  1  1  0  0  0  0
  7 11  1  0  0  0  0
  8  7  2  0  0  0  0
  9 10  2  0  0  0  0
 10 12  1  0  0  0  0
 12 14  1  0  0  0  0
 13 11  1  0  0  0  0
 13 15  1  0  0  0  0
 14 16  1  0  0  0  0
 16 18  1  0  0  0  0
 17 15  1  0  0  0  0
 17 19  1  0  0  0  0
 18 20  1  0  0  0  0
 19 23  1  0  0  0  0
 20 22  1  0  0  0  0
 20 24  1  0  0  0  0
 21 19  1  0  0  0  0
M  END
>  <CHROM.1>
-176.76498767,-177.55996521,-138.60860462,78.94464955,-175.01072948,-127.34160996
-54.52829776,175.62293676,-162.97771609,-153.73856019,5.39188160,0.14454596
-0.50060347,0.36905556,0.28373512,-2.04818364

>  <Name>
lig.pdb

>  <RI>
1.56215e+07

>  <Rbt.Current_Directory>
/home/itssahil/PROJECTS/Mol_Feturizer/New_Systems/rnas/2l94

>  <Rbt.Executable>
rbdock ($Id: //depot/dev/client3/rdock/2013.1/src/exe/rbdock.cxx#4 $)

>  <Rbt.Library>
libRbt.so (2013.1, Build901 2013/11/27)

>  <Rbt.Parameter_File>
/export/apps/rDock/src/rDock_2013.1_src/data/scripts/dock_solv.prm

>  <Rbt.Receptor>
prm/pocket_docking_2.prm

>  <SCORE>
-14.7044

>  <SCORE.INTER>
-16.1715

>  <SCORE.INTER.CONST>
1

>  <SCORE.INTER.POLAR>
-2.69108

>  <SCORE.INTER.ROT>
10

>  <SCORE.INTER.SOLV>
7.05413

>  <SCORE.INTER.VDW>
-14.4288

>  <SCORE.INTER.norm>
-0.673812

>  <SCORE.INTRA>
1.46015

>  <SCORE.INTRA.DIHEDRAL>
4.96784

>  <SCORE.INTRA.DIHEDRAL.0>
7.52971

>  <SCORE.INTRA.POLAR>
0

>  <SCORE.INTRA.POLAR.0>
0

>  <SCORE.INTRA.REPUL>
0

>  <SCORE.INTRA.REPUL.0>
0

>  <SCORE.INTRA.SOLV>
0.000689095

>  <SCORE.INTRA.SOLV.lig_0>
-22.1084

>  <SCORE.INTRA.VDW>
-1.02411

>  <SCORE.INTRA.VDW.0>
2.4256

>  <SCORE.INTRA.norm>
0.0608398

>  <SCORE.RESTR>
0.00693331

>  <SCORE.RESTR.CAVITY>
0.00693331

>  <SCORE.RESTR.norm>
0.000288888

>  <SCORE.SYSTEM>
0

>  <SCORE.SYSTEM.CONST>
0

>  <SCORE.SYSTEM.DIHEDRAL>
0

>  <SCORE.SYSTEM.SOLV>
0

>  <SCORE.SYSTEM.norm>
0

>  <SCORE.heavy>
24

>  <SCORE.norm>
-0.612684

>  <RMSD>
0.924

$$$$
lig.pdb
 OpenBabel11021811453D
libRbt.so/2013.1/901 2013/11/27
 24 24  0  0  0  0  0  0  0  0999 V2000
    6.2327   -1.3388   -1.8518 C   0  0  0  0  0  0  0  0  0  0  0  0
    6.3619   -0.3634   -0.8064 C   0  0  0  0  0  0  0  0  0  0  0  0
    5.3790    0.5652   -0.5578 C   0  0  0  0  0  0  0  0  0  0  0  0
    4.1689    0.6035   -1.3218 C   0  0  0  0  0  0  0  0  0  0  0  0
    4.0560   -0.3495   -2.3871 C   0  0  0  0  0  0  0  0  0  0  0  0
    5.0401   -1.2718   -2.6414 C   0  0  0  0  0  0  0  0  0  0  0  0
    7.1884   -2.2856   -2.0863 C   0  0  0  0  0  0  0  0  0  0  0  0
    7.4000   -2.8239   -3.3064 N   0  0  0  0  0  0  0  0  0  0  0  0
    3.3931    2.7344   -0.5697 N   0  0  0  0  0  0  0  0  0  0  0  0
    3.1720    1.4965   -1.0605 C   0  0  0  0  0  0  0  0  0  0  0  0
    8.0023   -2.7548   -1.1084 N   0  0  0  0  0  0  0  0  0  0  0  0
    1.8650    1.2122   -1.2722 N   0  0  0  0  0  0  0  0  0  0  0  0
    9.4049   -3.1409   -1.2498 C   0  0  0  0  0  0  0  0  0  0  0  0
    0.7910    2.1837   -1.4546 C   0  0  0  0  0  0  0  0  0  0  0  0
   10.2712   -1.9213   -0.8960 C   0  0  0  0  0  0  0  0  0  0  0  0
   -0.1197    2.1206   -0.2143 C   0  0  0  0  0  0  0  0  0  0  0  0
   11.7611   -2.2900   -0.8881 C   0  0  0  0  0  0  0  0  0  0  0  0
    0.5427    2.7189    1.0398 C   0  0  0  0  0  0  0  0  0  0  0  0
   12.5670   -1.0968   -0.4427 N   0  0  0  0  0  0  0  0  0  0  0  0
   -0.2780    2.4575    2.2774 N   0  0  0  0  0  0  0  0  0  0  0  0
   14.0087   -1.2763   -0.8335 C   0  0  0  0  0  0  0  0  0  0  0  0
   -1.4773    3.3670    2.2660 C   0  0  0  0  0  0  0  0  0  0  0  0
   12.4675   -0.9076    1.0507 C   0  0  0  0  0  0  0  0  0  0  0  0
    0.5041    2.6967    3.5388 C   0  0  0  0  0  0  0  0  0  0  0  0
  1  6  2  0  0  0  0
  2  3  2  0  0  0  0
  2  1  1  0  0  0  0
  3  4  1  0  0  0  0
  4 10  1  0  0  0  0
  4  5  2  0  0  0  0
  6  5  1  0  0  0  0
  7  1  1  0  0  0  0
  7 11  1  0  0  0  0
  8  7  2  0  0  0  0
  9 10  2  0  0  0  0
 10 12  1  0  0  0  0
 12 14  1  0  0  0  0
 13 11  1  0  0  0  0
 13 15  1  0  0  0  0
 14 16  1  0  0  0  0
 16 18  1  0  0  0  0
 17 15  1  0  0  0  0
 17 19  1  0  0  0  0
 18 20  1  0  0  0  0
 19 23  1  0  0  0  0
 20 22  1  0  0  0  0
 20 24  1  0  0  0  0
 21 19  1  0  0  0  0
M  END
>  <CHROM.1>
31.60861719,-151.67293897,-110.74836595,93.39047824,174.42162743,71.52316845
-171.33852703,-176.01291642,-162.21657227,-74.67910131,5.54684863,0.03597242
-0.56592809,0.33812787,0.23944783,-2.15842264

>  <Name>
lig.pdb

>  <RI>
1.56215e+07

>  <Rbt.Current_Directory>
/home/itssahil/PROJECTS/Mol_Feturizer/New_Systems/rnas/2l94

>  <Rbt.Executable>
rbdock ($Id: //depot/dev/client3/rdock/2013.1/src/exe/rbdock.cxx#4 $)

>  <Rbt.Library>
libRbt.so (2013.1, Build901 2013/11/27)

>  <Rbt.Parameter_File>
/export/apps/rDock/src/rDock_2013.1_src/data/scripts/dock_solv.prm

>  <Rbt.Receptor>
prm/pocket_docking_2.prm

>  <SCORE>
-7.84326

>  <SCORE.INTER>
-7.89647

>  <SCORE.INTER.CONST>
1

>  <SCORE.INTER.POLAR>
-0.824621

>  <SCORE.INTER.ROT>
10

>  <SCORE.INTER.SOLV>
5.42999

>  <SCORE.INTER.VDW>
-14.5922

>  <SCORE.INTER.norm>
-0.32902

>  <SCORE.INTRA>
0.053206

>  <SCORE.INTRA.DIHEDRAL>
5.867

>  <SCORE.INTRA.DIHEDRAL.0>
7.52971

>  <SCORE.INTRA.POLAR>
0

>  <SCORE.INTRA.POLAR.0>
0

>  <SCORE.INTRA.REPUL>
0

>  <SCORE.INTRA.REPUL.0>
0

>  <SCORE.INTRA.SOLV>
0.281181

>  <SCORE.INTRA.SOLV.lig_0>
-22.1084

>  <SCORE.INTRA.VDW>
-3.02088

>  <SCORE.INTRA.VDW.0>
2.4256

>  <SCORE.INTRA.norm>
0.00221692

>  <SCORE.RESTR>
0

>  <SCORE.RESTR.CAVITY>
0

>  <SCORE.RESTR.norm>
0

>  <SCORE.SYSTEM>
0

>  <SCORE.SYSTEM.CONST>
0

>  <SCORE.SYSTEM.DIHEDRAL>
0

>  <SCORE.SYSTEM.SOLV>
0

>  <SCORE.SYSTEM.norm>
0

>  <SCORE.heavy>
24

>  <SCORE.norm>
-0.326803

>  <RMSD>
0.928

$$$$
lig.pdb
 OpenBabel11021811453D
libRbt.so/2013.1/901 2013/11/27
 24 24  0  0  0  0  0  0  0  0999 V2000
    6.1712   -0.8651   -2.0835 C   0  0  0  0  0  0  0  0  0  0  0  0
    5.9695   -0.3667   -0.7523 C   0  0  0  0  0  0  0  0  0  0  0  0
    5.0148    0.5820   -0.4719 C   0  0  0  0  0  0  0  0  0  0  0  0
    4.1631    1.1170   -1.4906 C   0  0  0  0  0  0  0  0  0  0  0  0
    4.3883    0.6432   -2.8250 C   0  0  0  0  0  0  0  0  0  0  0  0
    5.3466   -0.2979   -3.1074 C   0  0  0  0  0  0  0  0  0  0  0  0
    7.0946   -1.8302   -2.3675 C   0  0  0  0  0  0  0  0  0  0  0  0
    7.3974   -2.2034   -3.6293 N   0  0  0  0  0  0  0  0  0  0  0  0
    2.2359    2.3887   -2.1045 N   0  0  0  0  0  0  0  0  0  0  0  0
    3.1888    2.0312   -1.2177 C   0  0  0  0  0  0  0  0  0  0  0  0
    7.7823   -2.4856   -1.3997 N   0  0  0  0  0  0  0  0  0  0  0  0
    3.0964    2.6635   -0.0237 N   0  0  0  0  0  0  0  0  0  0  0  0
    9.1699   -2.9395   -1.4692 C   0  0  0  0  0  0  0  0  0  0  0  0
    1.8998    3.2916    0.5279 C   0  0  0  0  0  0  0  0  0  0  0  0
   10.0610   -1.8351   -0.8781 C   0  0  0  0  0  0  0  0  0  0  0  0
    1.7894    2.8808    2.0080 C   0  0  0  0  0  0  0  0  0  0  0  0
   11.5363   -2.2587   -0.8835 C   0  0  0  0  0  0  0  0  0  0  0  0
    0.6304    3.5863    2.7352 C   0  0  0  0  0  0  0  0  0  0  0  0
   12.3894   -1.0971   -0.4422 N   0  0  0  0  0  0  0  0  0  0  0  0
   -0.6931    3.3062    2.0693 N   0  0  0  0  0  0  0  0  0  0  0  0
   13.8248   -1.3416   -0.8204 C   0  0  0  0  0  0  0  0  0  0  0  0
   -1.8010    3.7700    2.9763 C   0  0  0  0  0  0  0  0  0  0  0  0
   12.2872   -0.8906    1.0488 C   0  0  0  0  0  0  0  0  0  0  0  0
   -0.8828    1.8443    1.7751 C   0  0  0  0  0  0  0  0  0  0  0  0
  1  6  2  0  0  0  0
  2  3  2  0  0  0  0
  2  1  1  0  0  0  0
  3  4  1  0  0  0  0
  4 10  1  0  0  0  0
  4  5  2  0  0  0  0
  6  5  1  0  0  0  0
  7  1  1  0  0  0  0
  7 11  1  0  0  0  0
  8  7  2  0  0  0  0
  9 10  2  0  0  0  0
 10 12  1  0  0  0  0
 12 14  1  0  0  0  0
 13 11  1  0  0  0  0
 13 15  1  0  0  0  0
 14 16  1  0  0  0  0
 16 18  1  0  0  0  0
 17 15  1  0  0  0  0
 17 19  1  0  0  0  0
 18 20  1  0  0  0  0
 19 23  1  0  0  0  0
 20 22  1  0  0  0  0
 20 24  1  0  0  0  0
 21 19  1  0  0  0  0
M  END
>  <CHROM.1>
-168.83343287,-172.55704947,135.33583478,92.74368752,178.49122016,174.81642437
58.09448802,173.74916792,-163.36779973,168.14434641,5.51085921,0.42157418
-0.49357320,0.37281599,0.29484918,-2.02948186

>  <Name>
lig.pdb

>  <RI>
1.09765e+07

>  <Rbt.Current_Directory>
/home/itssahil/PROJECTS/Mol_Feturizer/New_Systems/rnas/2l94

>  <Rbt.Executable>
rbdock ($Id: //depot/dev/client3/rdock/2013.1/src/exe/rbdock.cxx#4 $)

>  <Rbt.Library>
libRbt.so (2013.1, Build901 2013/11/27)

>  <Rbt.Parameter_File>
/export/apps/rDock/src/rDock_2013.1_src/data/scripts/dock_solv.prm

>  <Rbt.Receptor>
prm/pocket_docking_3.prm

>  <SCORE>
-17.9757

>  <SCORE.INTER>
-17.4672

>  <SCORE.INTER.CONST>
1

>  <SCORE.INTER.POLAR>
-2.65598

>  <SCORE.INTER.ROT>
10

>  <SCORE.INTER.SOLV>
6.62161

>  <SCORE.INTER.VDW>
-15.2654

>  <SCORE.INTER.norm>
-0.727801

>  <SCORE.INTRA>
-0.508525

>  <SCORE.INTRA.DIHEDRAL>
-0.783821

>  <SCORE.INTRA.DIHEDRAL.0>
7.52971

>  <SCORE.INTRA.POLAR>
0

>  <SCORE.INTRA.POLAR.0>
0

>  <SCORE.INTRA.REPUL>
0

>  <SCORE.INTRA.REPUL.0>
0

>  <SCORE.INTRA.SOLV>
-0.177113

>  <SCORE.INTRA.SOLV.lig_0>
-22.1084

>  <SCORE.INTRA.VDW>
-0.0280576

>  <SCORE.INTRA.VDW.0>
2.4256

>  <SCORE.INTRA.norm>
-0.0211885

>  <SCORE.RESTR>
0

>  <SCORE.RESTR.CAVITY>
0

>  <SCORE.RESTR.norm>
0

>  <SCORE.SYSTEM>
0

>  <SCORE.SYSTEM.CONST>
0

>  <SCORE.SYSTEM.DIHEDRAL>
0

>  <SCORE.SYSTEM.SOLV>
0

>  <SCORE.SYSTEM.norm>
0

>  <SCORE.heavy>
24

>  <SCORE.norm>
-0.748989

>  <RMSD>
0.970

$$$$
lig.pdb
 OpenBabel11021811453D
libRbt.so/2013.1/901 2013/11/27
 24 24  0  0  0  0  0  0  0  0999 V2000
    6.2551   -0.8883   -2.3619 C   0  0  0  0  0  0  0  0  0  0  0  0
    6.2450   -0.1360   -1.1392 C   0  0  0  0  0  0  0  0  0  0  0  0
    5.3515    0.8869   -0.9265 C   0  0  0  0  0  0  0  0  0  0  0  0
    4.3759    1.2508   -1.9089 C   0  0  0  0  0  0  0  0  0  0  0  0
    4.4092    0.5210   -3.1426 C   0  0  0  0  0  0  0  0  0  0  0  0
    5.3061   -0.4951   -3.3593 C   0  0  0  0  0  0  0  0  0  0  0  0
    7.1170   -1.9267   -2.5707 C   0  0  0  0  0  0  0  0  0  0  0  0
    6.9980   -2.7771   -3.6127 N   0  0  0  0  0  0  0  0  0  0  0  0
    2.6721    2.7451   -2.6655 N   0  0  0  0  0  0  0  0  0  0  0  0
    3.4613    2.2392   -1.6942 C   0  0  0  0  0  0  0  0  0  0  0  0
    8.1634   -2.1800   -1.7462 N   0  0  0  0  0  0  0  0  0  0  0  0
    3.2683    2.8019   -0.4776 N   0  0  0  0  0  0  0  0  0  0  0  0
    9.4790   -2.6848   -2.1344 C   0  0  0  0  0  0  0  0  0  0  0  0
    2.0711    3.5111   -0.0369 C   0  0  0  0  0  0  0  0  0  0  0  0
   10.5429   -1.7692   -1.5076 C   0  0  0  0  0  0  0  0  0  0  0  0
    1.7192    3.0123    1.3770 C   0  0  0  0  0  0  0  0  0  0  0  0
   10.9852   -2.3000   -0.1369 C   0  0  0  0  0  0  0  0  0  0  0  0
    0.2291    3.1949    1.7173 C   0  0  0  0  0  0  0  0  0  0  0  0
   12.0483   -1.3934    0.4286 N   0  0  0  0  0  0  0  0  0  0  0  0
   -0.0446    2.9138    3.1733 N   0  0  0  0  0  0  0  0  0  0  0  0
   11.5038    0.0002    0.5860 C   0  0  0  0  0  0  0  0  0  0  0  0
    0.0350    1.4287    3.4046 C   0  0  0  0  0  0  0  0  0  0  0  0
   13.2622   -1.3641   -0.4668 C   0  0  0  0  0  0  0  0  0  0  0  0
   -1.4003    3.4026    3.6011 C   0  0  0  0  0  0  0  0  0  0  0  0
  1  6  2  0  0  0  0
  2  3  2  0  0  0  0
  2  1  1  0  0  0  0
  3  4  1  0  0  0  0
  4 10  1  0  0  0  0
  4  5  2  0  0  0  0
  6  5  1  0  0  0  0
  7  1  1  0  0  0  0
  7 11  1  0  0  0  0
  8  7  2  0  0  0  0
  9 10  2  0  0  0  0
 10 12  1  0  0  0  0
 12 14  1  0  0  0  0
 13 11  1  0  0  0  0
 13 15  1  0  0  0  0
 14 16  1  0  0  0  0
 16 18  1  0  0  0  0
 17 15  1  0  0  0  0
 17 19  1  0  0  0  0
 18 20  1  0  0  0  0
 19 23  1  0  0  0  0
 20 22  1  0  0  0  0
 20 24  1  0  0  0  0
 21 19  1  0  0  0  0
M  END
>  <CHROM.1>
169.29268918,168.91536621,134.81088994,129.60040827,92.01123215,-155.64652326
-170.61527614,178.74222078,59.98324900,-73.32288963,5.59563786,0.42654248
-0.58044727,0.35404413,0.35860519,-1.85170296

>  <Name>
lig.pdb

>  <RI>
1.56215e+07

>  <Rbt.Current_Directory>
/home/itssahil/PROJECTS/Mol_Feturizer/New_Systems/rnas/2l94

>  <Rbt.Executable>
rbdock ($Id: //depot/dev/client3/rdock/2013.1/src/exe/rbdock.cxx#4 $)

>  <Rbt.Library>
libRbt.so (2013.1, Build901 2013/11/27)

>  <Rbt.Parameter_File>
/export/apps/rDock/src/rDock_2013.1_src/data/scripts/dock_solv.prm

>  <Rbt.Receptor>
prm/pocket_docking_2.prm

>  <SCORE>
-6.42371

>  <SCORE.INTER>
-9.9099

>  <SCORE.INTER.CONST>
1

>  <SCORE.INTER.POLAR>
-1.59922

>  <SCORE.INTER.ROT>
10

>  <SCORE.INTER.SOLV>
7.24517

>  <SCORE.INTER.VDW>
-13.9576

>  <SCORE.INTER.norm>
-0.412912

>  <SCORE.INTRA>
3.48504

>  <SCORE.INTRA.DIHEDRAL>
3.95305

>  <SCORE.INTRA.DIHEDRAL.0>
7.52971

>  <SCORE.INTRA.POLAR>
0

>  <SCORE.INTRA.POLAR.0>
0

>  <SCORE.INTRA.REPUL>
0

>  <SCORE.INTRA.REPUL.0>
0

>  <SCORE.INTRA.SOLV>
-0.216756

>  <SCORE.INTRA.SOLV.lig_0>
-22.1084

>  <SCORE.INTRA.VDW>
1.6169

>  <SCORE.INTRA.VDW.0>
2.4256

>  <SCORE.INTRA.norm>
0.14521

>  <SCORE.RESTR>
0.00114812

>  <SCORE.RESTR.CAVITY>
0.00114812

>  <SCORE.RESTR.norm>
4.78383e-05

>  <SCORE.SYSTEM>
0

>  <SCORE.SYSTEM.CONST>
0

>  <SCORE.SYSTEM.DIHEDRAL>
0

>  <SCORE.SYSTEM.SOLV>
0

>  <SCORE.SYSTEM.norm>
0

>  <SCORE.heavy>
24

>  <SCORE.norm>
-0.267654

>  <RMSD>
1.020

$$$$
lig.pdb
 OpenBabel11021811453D
libRbt.so/2013.1/901 2013/11/27
 24 24  0  0  0  0  0  0  0  0999 V2000
    5.6198   -1.5395   -2.0834 C   0  0  0  0  0  0  0  0  0  0  0  0
    5.0273   -0.8870   -3.2167 C   0  0  0  0  0  0  0  0  0  0  0  0
    4.0652    0.0842   -3.0710 C   0  0  0  0  0  0  0  0  0  0  0  0
    3.6091    0.5045   -1.7808 C   0  0  0  0  0  0  0  0  0  0  0  0
    4.1772   -0.1717   -0.6512 C   0  0  0  0  0  0  0  0  0  0  0  0
    5.1319   -1.1471   -0.7958 C   0  0  0  0  0  0  0  0  0  0  0  0
    6.5987   -2.4824   -2.2157 C   0  0  0  0  0  0  0  0  0  0  0  0
    7.0636   -2.8898   -3.4161 N   0  0  0  0  0  0  0  0  0  0  0  0
    2.2048    2.2330   -2.6459 N   0  0  0  0  0  0  0  0  0  0  0  0
    2.6820    1.4921   -1.6234 C   0  0  0  0  0  0  0  0  0  0  0  0
    7.1821   -3.0795   -1.1470 N   0  0  0  0  0  0  0  0  0  0  0  0
    2.1594    1.8156   -0.4167 N   0  0  0  0  0  0  0  0  0  0  0  0
    8.5805   -3.4886   -1.0307 C   0  0  0  0  0  0  0  0  0  0  0  0
    0.8942    2.5051   -0.1831 C   0  0  0  0  0  0  0  0  0  0  0  0
    9.4288   -2.2246   -0.8166 C   0  0  0  0  0  0  0  0  0  0  0  0
    1.0447    3.3491    1.0963 C   0  0  0  0  0  0  0  0  0  0  0  0
   10.9129   -2.5808   -0.6539 C   0  0  0  0  0  0  0  0  0  0  0  0
    0.7232    2.5530    2.3741 C   0  0  0  0  0  0  0  0  0  0  0  0
   11.7286   -1.3137   -0.6235 N   0  0  0  0  0  0  0  0  0  0  0  0
   -0.3053    3.2585    3.2215 N   0  0  0  0  0  0  0  0  0  0  0  0
   13.1524   -1.6105   -1.0085 C   0  0  0  0  0  0  0  0  0  0  0  0
   -0.4891    2.4899    4.5026 C   0  0  0  0  0  0  0  0  0  0  0  0
   11.6957   -0.6856    0.7478 C   0  0  0  0  0  0  0  0  0  0  0  0
   -1.6331    3.3725    2.5260 C   0  0  0  0  0  0  0  0  0  0  0  0
  1  6  2  0  0  0  0
  2  3  2  0  0  0  0
  2  1  1  0  0  0  0
  3  4  1  0  0  0  0
  4 10  1  0  0  0  0
  4  5  2  0  0  0  0
  6  5  1  0  0  0  0
  7  1  1  0  0  0  0
  7 11  1  0  0  0  0
  8  7  2  0  0  0  0
  9 10  2  0  0  0  0
 10 12  1  0  0  0  0
 12 14  1  0  0  0  0
 13 11  1  0  0  0  0
 13 15  1  0  0  0  0
 14 16  1  0  0  0  0
 16 18  1  0  0  0  0
 17 15  1  0  0  0  0
 17 19  1  0  0  0  0
 18 20  1  0  0  0  0
 19 23  1  0  0  0  0
 20 22  1  0  0  0  0
 20 24  1  0  0  0  0
 21 19  1  0  0  0  0
M  END
>  <CHROM.1>
-6.00004443,-1.31213042,-148.08466813,74.84194673,178.74231852,-86.81076367
-126.88098218,172.82403101,-157.72423907,-175.35594757,5.07172792,0.01314296
-0.48318240,0.39664692,0.33572754,-1.96322319

>  <Name>
lig.pdb

>  <RI>
1.56215e+07

>  <Rbt.Current_Directory>
/home/itssahil/PROJECTS/Mol_Feturizer/New_Systems/rnas/2l94

>  <Rbt.Executable>
rbdock ($Id: //depot/dev/client3/rdock/2013.1/src/exe/rbdock.cxx#4 $)

>  <Rbt.Library>
libRbt.so (2013.1, Build901 2013/11/27)

>  <Rbt.Parameter_File>
/export/apps/rDock/src/rDock_2013.1_src/data/scripts/dock_solv.prm

>  <Rbt.Receptor>
prm/pocket_docking_2.prm

>  <SCORE>
-9.73468

>  <SCORE.INTER>
-11.5907

>  <SCORE.INTER.CONST>
1

>  <SCORE.INTER.POLAR>
-1.51441

>  <SCORE.INTER.ROT>
10

>  <SCORE.INTER.SOLV>
7.32401

>  <SCORE.INTER.VDW>
-15.3871

>  <SCORE.INTER.norm>
-0.482946

>  <SCORE.INTRA>
1.44477

>  <SCORE.INTRA.DIHEDRAL>
6.34874

>  <SCORE.INTRA.DIHEDRAL.0>
7.52971

>  <SCORE.INTRA.POLAR>
0

>  <SCORE.INTRA.POLAR.0>
0

>  <SCORE.INTRA.REPUL>
0

>  <SCORE.INTRA.REPUL.0>
0

>  <SCORE.INTRA.SOLV>
-0.0377893

>  <SCORE.INTRA.SOLV.lig_0>
-22.1084

>  <SCORE.INTRA.VDW>
-1.7107

>  <SCORE.INTRA.VDW.0>
2.4256

>  <SCORE.INTRA.norm>
0.0601989

>  <SCORE.RESTR>
0.411245

>  <SCORE.RESTR.CAVITY>
0.411245

>  <SCORE.RESTR.norm>
0.0171352

>  <SCORE.SYSTEM>
0

>  <SCORE.SYSTEM.CONST>
0

>  <SCORE.SYSTEM.DIHEDRAL>
0

>  <SCORE.SYSTEM.SOLV>
0

>  <SCORE.SYSTEM.norm>
0

>  <SCORE.heavy>
24

>  <SCORE.norm>
-0.405612

>  <RMSD>
1.023

$$$$
lig.pdb
 OpenBabel11021811453D
libRbt.so/2013.1/901 2013/11/27
 24 24  0  0  0  0  0  0  0  0999 V2000
    3.3013    0.2697   -1.7679 C   0  0  0  0  0  0  0  0  0  0  0  0
    3.6669   -0.2483   -3.0560 C   0  0  0  0  0  0  0  0  0  0  0  0
    4.7839   -1.0306   -3.2307 C   0  0  0  0  0  0  0  0  0  0  0  0
    5.6376   -1.3792   -2.1357 C   0  0  0  0  0  0  0  0  0  0  0  0
    5.2901   -0.8334   -0.8562 C   0  0  0  0  0  0  0  0  0  0  0  0
    4.1797   -0.0457   -0.6821 C   0  0  0  0  0  0  0  0  0  0  0  0
    2.1769    1.0209   -1.5777 C   0  0  0  0  0  0  0  0  0  0  0  0
    1.4173    1.4713   -2.5991 N   0  0  0  0  0  0  0  0  0  0  0  0
    7.1558   -2.6316   -3.4903 N   0  0  0  0  0  0  0  0  0  0  0  0
    6.7274   -2.1841   -2.2909 C   0  0  0  0  0  0  0  0  0  0  0  0
    1.7352    1.3687   -0.3436 N   0  0  0  0  0  0  0  0  0  0  0  0
    7.4764   -2.6066   -1.2448 N   0  0  0  0  0  0  0  0  0  0  0  0
    0.3426    1.4915    0.0831 C   0  0  0  0  0  0  0  0  0  0  0  0
    8.8583   -3.0724   -1.3075 C   0  0  0  0  0  0  0  0  0  0  0  0
    0.2688    2.5944    1.1514 C   0  0  0  0  0  0  0  0  0  0  0  0
    9.7527   -1.9854   -0.6827 C   0  0  0  0  0  0  0  0  0  0  0  0
   -1.1437    2.6902    1.7445 C   0  0  0  0  0  0  0  0  0  0  0  0
   11.2476   -2.3506   -0.7236 C   0  0  0  0  0  0  0  0  0  0  0  0
   -1.0809    3.4136    3.0654 N   0  0  0  0  0  0  0  0  0  0  0  0
   12.1164   -1.1647   -0.3884 N   0  0  0  0  0  0  0  0  0  0  0  0
   -0.5270    2.5002    4.1249 C   0  0  0  0  0  0  0  0  0  0  0  0
   13.5310   -1.4655   -0.8056 C   0  0  0  0  0  0  0  0  0  0  0  0
   -2.4487    3.8974    3.4791 C   0  0  0  0  0  0  0  0  0  0  0  0
   12.0983   -0.8441    1.0802 C   0  0  0  0  0  0  0  0  0  0  0  0
  1  6  2  0  0  0  0
  2  3  2  0  0  0  0
  2  1  1  0  0  0  0
  3  4  1  0  0  0  0
  4 10  1  0  0  0  0
  4  5  2  0  0  0  0
  6  5  1  0  0  0  0
  7  1  1  0  0  0  0
  7 11  1  0  0  0  0
  8  7  2  0  0  0  0
  9 10  2  0  0  0  0
 10 12  1  0  0  0  0
 12 14  1  0  0  0  0
 13 11  1  0  0  0  0
 13 15  1  0  0  0  0
 14 16  1  0  0  0  0
 16 18  1  0  0  0  0
 17 15  1  0  0  0  0
 17 19  1  0  0  0  0
 18 20  1  0  0  0  0
 19 23  1  0  0  0  0
 20 22  1  0  0  0  0
 20 24  1  0  0  0  0
 21 19  1  0  0  0  0
M  END
>  <CHROM.1>
5.42457676,-8.40716792,107.65929816,-148.10564817,-174.63174644,-178.57416515
167.64500461,160.95369817,-75.82748643,-164.63300629,4.87708337,-0.01295025
-0.46061374,2.78231053,-0.26476053,1.13984748

>  <Name>
lig.pdb

>  <RI>
1.56215e+07

>  <Rbt.Current_Directory>
/home/itssahil/PROJECTS/Mol_Feturizer/New_Systems/rnas/2l94

>  <Rbt.Executable>
rbdock ($Id: //depot/dev/client3/rdock/2013.1/src/exe/rbdock.cxx#4 $)

>  <Rbt.Library>
libRbt.so (2013.1, Build901 2013/11/27)

>  <Rbt.Parameter_File>
/export/apps/rDock/src/rDock_2013.1_src/data/scripts/dock_solv.prm

>  <Rbt.Receptor>
prm/pocket_docking_2.prm

>  <SCORE>
-15.0288

>  <SCORE.INTER>
-13.5294

>  <SCORE.INTER.CONST>
1

>  <SCORE.INTER.POLAR>
-1.59922

>  <SCORE.INTER.ROT>
10

>  <SCORE.INTER.SOLV>
7.40074

>  <SCORE.INTER.VDW>
-16.4225

>  <SCORE.INTER.norm>
-0.563726

>  <SCORE.INTRA>
-1.55609

>  <SCORE.INTRA.DIHEDRAL>
0.80162

>  <SCORE.INTRA.DIHEDRAL.0>
7.52971

>  <SCORE.INTRA.POLAR>
0

>  <SCORE.INTRA.POLAR.0>
0

>  <SCORE.INTRA.REPUL>
0

>  <SCORE.INTRA.REPUL.0>
0

>  <SCORE.INTRA.SOLV>
-0.283088

>  <SCORE.INTRA.SOLV.lig_0>
-22.1084

>  <SCORE.INTRA.VDW>
-1.81536

>  <SCORE.INTRA.VDW.0>
2.4256

>  <SCORE.INTRA.norm>
-0.064837

>  <SCORE.RESTR>
0.0567272

>  <SCORE.RESTR.CAVITY>
0.0567272

>  <SCORE.RESTR.norm>
0.00236363

>  <SCORE.SYSTEM>
0

>  <SCORE.SYSTEM.CONST>
0

>  <SCORE.SYSTEM.DIHEDRAL>
0

>  <SCORE.SYSTEM.SOLV>
0

>  <SCORE.SYSTEM.norm>
0

>  <SCORE.heavy>
24

>  <SCORE.norm>
-0.6262

>  <RMSD>
1.044

$$$$
lig.pdb
 OpenBabel11021811453D
libRbt.so/2013.1/901 2013/11/27
 24 24  0  0  0  0  0  0  0  0999 V2000
    5.9021   -1.2899   -2.3622 C   0  0  0  0  0  0  0  0  0  0  0  0
    5.2583   -0.5872   -3.4358 C   0  0  0  0  0  0  0  0  0  0  0  0
    4.4650    0.5123   -3.2079 C   0  0  0  0  0  0  0  0  0  0  0  0
    4.2461    1.0220   -1.8882 C   0  0  0  0  0  0  0  0  0  0  0  0
    4.8623    0.2992   -0.8142 C   0  0  0  0  0  0  0  0  0  0  0  0
    5.6479   -0.8034   -1.0398 C   0  0  0  0  0  0  0  0  0  0  0  0
    6.7175   -2.3635   -2.5803 C   0  0  0  0  0  0  0  0  0  0  0  0
    7.1354   -2.7256   -3.8120 N   0  0  0  0  0  0  0  0  0  0  0  0
    2.8437    2.8102   -2.6259 N   0  0  0  0  0  0  0  0  0  0  0  0
    3.4910    2.1331   -1.6539 C   0  0  0  0  0  0  0  0  0  0  0  0
    7.1735   -3.1468   -1.5715 N   0  0  0  0  0  0  0  0  0  0  0  0
    3.3276    2.6554   -0.4151 N   0  0  0  0  0  0  0  0  0  0  0  0
    8.4840   -3.7884   -1.4880 C   0  0  0  0  0  0  0  0  0  0  0  0
    2.2376    3.5253    0.0158 C   0  0  0  0  0  0  0  0  0  0  0  0
    9.3075   -3.0493   -0.4210 C   0  0  0  0  0  0  0  0  0  0  0  0
    1.4342    2.7773    1.0959 C   0  0  0  0  0  0  0  0  0  0  0  0
   10.3588   -2.1397   -1.0717 C   0  0  0  0  0  0  0  0  0  0  0  0
   -0.0870    2.8823    0.8838 C   0  0  0  0  0  0  0  0  0  0  0  0
   11.2895   -1.6146   -0.0087 N   0  0  0  0  0  0  0  0  0  0  0  0
   -0.8487    2.4174    2.0992 N   0  0  0  0  0  0  0  0  0  0  0  0
   10.6439   -0.4654    0.7166 C   0  0  0  0  0  0  0  0  0  0  0  0
   -0.5063    3.3134    3.2591 C   0  0  0  0  0  0  0  0  0  0  0  0
   12.5955   -1.1618   -0.6131 C   0  0  0  0  0  0  0  0  0  0  0  0
   -0.5206    0.9970    2.4662 C   0  0  0  0  0  0  0  0  0  0  0  0
  1  6  2  0  0  0  0
  2  3  2  0  0  0  0
  2  1  1  0  0  0  0
  3  4  1  0  0  0  0
  4 10  1  0  0  0  0
  4  5  2  0  0  0  0
  6  5  1  0  0  0  0
  7  1  1  0  0  0  0
  7 11  1  0  0  0  0
  8  7  2  0  0  0  0
  9 10  2  0  0  0  0
 10 12  1  0  0  0  0
 12 14  1  0  0  0  0
 13 11  1  0  0  0  0
 13 15  1  0  0  0  0
 14 16  1  0  0  0  0
 16 18  1  0  0  0  0
 17 15  1  0  0  0  0
 17 19  1  0  0  0  0
 18 20  1  0  0  0  0
 19 23  1  0  0  0  0
 20 22  1  0  0  0  0
 20 24  1  0  0  0  0
 21 19  1  0  0  0  0
M  END
>  <CHROM.1>
2.89688001,9.89408043,115.92667955,107.87798166,-104.29583121,-134.86298389
-167.25504147,-170.63193050,-79.72159933,62.33468294,5.23113959,0.10380942
-0.71330225,0.36158430,0.38979029,-1.91388644

>  <Name>
lig.pdb

>  <RI>
1.56215e+07

>  <Rbt.Current_Directory>
/home/itssahil/PROJECTS/Mol_Feturizer/New_Systems/rnas/2l94

>  <Rbt.Executable>
rbdock ($Id: //depot/dev/client3/rdock/2013.1/src/exe/rbdock.cxx#4 $)

>  <Rbt.Library>
libRbt.so (2013.1, Build901 2013/11/27)

>  <Rbt.Parameter_File>
/export/apps/rDock/src/rDock_2013.1_src/data/scripts/dock_solv.prm

>  <Rbt.Receptor>
prm/pocket_docking_2.prm

>  <SCORE>
-7.06712

>  <SCORE.INTER>
-11.6035

>  <SCORE.INTER.CONST>
1

>  <SCORE.INTER.POLAR>
-1.59922

>  <SCORE.INTER.ROT>
10

>  <SCORE.INTER.SOLV>
7.63176

>  <SCORE.INTER.VDW>
-15.2155

>  <SCORE.INTER.norm>
-0.48348

>  <SCORE.INTRA>
4.5364

>  <SCORE.INTRA.DIHEDRAL>
8.94798

>  <SCORE.INTRA.DIHEDRAL.0>
7.52971

>  <SCORE.INTRA.POLAR>
0

>  <SCORE.INTRA.POLAR.0>
0

>  <SCORE.INTRA.REPUL>
0

>  <SCORE.INTRA.REPUL.0>
0

>  <SCORE.INTRA.SOLV>
-0.0218359

>  <SCORE.INTRA.SOLV.lig_0>
-22.1084

>  <SCORE.INTRA.VDW>
0.0733321

>  <SCORE.INTRA.VDW.0>
2.4256

>  <SCORE.INTRA.norm>
0.189017

>  <SCORE.RESTR>
0

>  <SCORE.RESTR.CAVITY>
0

>  <SCORE.RESTR.norm>
0

>  <SCORE.SYSTEM>
0

>  <SCORE.SYSTEM.CONST>
0

>  <SCORE.SYSTEM.DIHEDRAL>
0

>  <SCORE.SYSTEM.SOLV>
0

>  <SCORE.SYSTEM.norm>
0

>  <SCORE.heavy>
24

>  <SCORE.norm>
-0.294463

>  <RMSD>
1.072

$$$$
lig.pdb
 OpenBabel11021811453D
libRbt.so/2013.1/901 2013/11/27
 24 24  0  0  0  0  0  0  0  0999 V2000
    5.5036   -1.8828   -1.9014 C   0  0  0  0  0  0  0  0  0  0  0  0
    5.4009   -1.0367   -0.7461 C   0  0  0  0  0  0  0  0  0  0  0  0
    4.3199   -0.2106   -0.5482 C   0  0  0  0  0  0  0  0  0  0  0  0
    3.2333   -0.1567   -1.4787 C   0  0  0  0  0  0  0  0  0  0  0  0
    3.3532   -0.9769   -2.6486 C   0  0  0  0  0  0  0  0  0  0  0  0
    4.4357   -1.7960   -2.8512 C   0  0  0  0  0  0  0  0  0  0  0  0
    6.5573   -2.7303   -2.0918 C   0  0  0  0  0  0  0  0  0  0  0  0
    6.9281   -3.1728   -3.3124 N   0  0  0  0  0  0  0  0  0  0  0  0
    0.9143    0.3434   -1.7621 N   0  0  0  0  0  0  0  0  0  0  0  0
    2.1396    0.6317   -1.2744 C   0  0  0  0  0  0  0  0  0  0  0  0
    7.3156   -3.1894   -1.0655 N   0  0  0  0  0  0  0  0  0  0  0  0
    2.1927    1.7810   -0.5600 N   0  0  0  0  0  0  0  0  0  0  0  0
    8.7539   -3.4478   -1.0897 C   0  0  0  0  0  0  0  0  0  0  0  0
    1.0650    2.4478    0.0836 C   0  0  0  0  0  0  0  0  0  0  0  0
    9.4768   -2.1455   -0.7095 C   0  0  0  0  0  0  0  0  0  0  0  0
    0.4774    1.4810    1.1285 C   0  0  0  0  0  0  0  0  0  0  0  0
   10.9907   -2.3715   -0.5948 C   0  0  0  0  0  0  0  0  0  0  0  0
   -0.8525    1.9825    1.7199 C   0  0  0  0  0  0  0  0  0  0  0  0
   11.6832   -1.0406   -0.4500 N   0  0  0  0  0  0  0  0  0  0  0  0
   -0.6922    3.3291    2.3792 N   0  0  0  0  0  0  0  0  0  0  0  0
   13.1571   -1.1983   -0.7072 C   0  0  0  0  0  0  0  0  0  0  0  0
    0.3493    3.2197    3.4603 C   0  0  0  0  0  0  0  0  0  0  0  0
   11.4687   -0.4700    0.9301 C   0  0  0  0  0  0  0  0  0  0  0  0
   -1.9764    3.8207    2.9866 C   0  0  0  0  0  0  0  0  0  0  0  0
  1  6  2  0  0  0  0
  2  3  2  0  0  0  0
  2  1  1  0  0  0  0
  3  4  1  0  0  0  0
  4 10  1  0  0  0  0
  4  5  2  0  0  0  0
  6  5  1  0  0  0  0
  7  1  1  0  0  0  0
  7 11  1  0  0  0  0
  8  7  2  0  0  0  0
  9 10  2  0  0  0  0
 10 12  1  0  0  0  0
 12 14  1  0  0  0  0
 13 11  1  0  0  0  0
 13 15  1  0  0  0  0
 14 16  1  0  0  0  0
 16 18  1  0  0  0  0
 17 15  1  0  0  0  0
 17 19  1  0  0  0  0
 18 20  1  0  0  0  0
 19 23  1  0  0  0  0
 20 22  1  0  0  0  0
 20 24  1  0  0  0  0
 21 19  1  0  0  0  0
M  END
>  <CHROM.1>
-151.75766158,-156.36243473,61.12951593,88.40101166,175.07554881,-170.97984791
-58.68196814,170.64432945,-164.79807400,-58.19428160,4.86098798,-0.24110396
-0.41650661,0.41693551,0.18679359,-2.26816650

>  <Name>
lig.pdb

>  <RI>
1.09765e+07

>  <Rbt.Current_Directory>
/home/itssahil/PROJECTS/Mol_Feturizer/New_Systems/rnas/2l94

>  <Rbt.Executable>
rbdock ($Id: //depot/dev/client3/rdock/2013.1/src/exe/rbdock.cxx#4 $)

>  <Rbt.Library>
libRbt.so (2013.1, Build901 2013/11/27)

>  <Rbt.Parameter_File>
/export/apps/rDock/src/rDock_2013.1_src/data/scripts/dock_solv.prm

>  <Rbt.Receptor>
prm/pocket_docking_3.prm

>  <SCORE>
-16.3055

>  <SCORE.INTER>
-17.0025

>  <SCORE.INTER.CONST>
1

>  <SCORE.INTER.POLAR>
-2.38019

>  <SCORE.INTER.ROT>
10

>  <SCORE.INTER.SOLV>
8.16501

>  <SCORE.INTER.VDW>
-16.3894

>  <SCORE.INTER.norm>
-0.708439

>  <SCORE.INTRA>
0.684136

>  <SCORE.INTRA.DIHEDRAL>
3.45805

>  <SCORE.INTRA.DIHEDRAL.0>
7.52971

>  <SCORE.INTRA.POLAR>
0

>  <SCORE.INTRA.POLAR.0>
0

>  <SCORE.INTRA.REPUL>
0

>  <SCORE.INTRA.REPUL.0>
0

>  <SCORE.INTRA.SOLV>
0.079434

>  <SCORE.INTRA.SOLV.lig_0>
-22.1084

>  <SCORE.INTRA.VDW>
-1.0846

>  <SCORE.INTRA.VDW.0>
2.4256

>  <SCORE.INTRA.norm>
0.0285057

>  <SCORE.RESTR>
0.0129049

>  <SCORE.RESTR.CAVITY>
0.0129049

>  <SCORE.RESTR.norm>
0.000537703

>  <SCORE.SYSTEM>
0

>  <SCORE.SYSTEM.CONST>
0

>  <SCORE.SYSTEM.DIHEDRAL>
0

>  <SCORE.SYSTEM.SOLV>
0

>  <SCORE.SYSTEM.norm>
0

>  <SCORE.heavy>
24

>  <SCORE.norm>
-0.679395

>  <RMSD>
1.076

$$$$
lig.pdb
 OpenBabel11021811453D
libRbt.so/2013.1/901 2013/11/27
 24 24  0  0  0  0  0  0  0  0999 V2000
    4.3181    1.3090   -1.8308 C   0  0  0  0  0  0  0  0  0  0  0  0
    5.1695    0.8777   -0.7584 C   0  0  0  0  0  0  0  0  0  0  0  0
    6.0456   -0.1713   -0.9074 C   0  0  0  0  0  0  0  0  0  0  0  0
    6.1635   -0.8840   -2.1433 C   0  0  0  0  0  0  0  0  0  0  0  0
    5.2887   -0.4740   -3.2027 C   0  0  0  0  0  0  0  0  0  0  0  0
    4.4079    0.5678   -3.0526 C   0  0  0  0  0  0  0  0  0  0  0  0
    3.4675    2.3697   -1.7036 C   0  0  0  0  0  0  0  0  0  0  0  0
    2.6978    2.8153   -2.7195 N   0  0  0  0  0  0  0  0  0  0  0  0
    7.2235   -2.5540   -3.4833 N   0  0  0  0  0  0  0  0  0  0  0  0
    7.0546   -1.9021   -2.3135 C   0  0  0  0  0  0  0  0  0  0  0  0
    3.3287    3.0549   -0.5415 N   0  0  0  0  0  0  0  0  0  0  0  0
    7.8505   -2.3490   -1.3130 N   0  0  0  0  0  0  0  0  0  0  0  0
    2.0987    3.6453   -0.0173 C   0  0  0  0  0  0  0  0  0  0  0  0
    9.1010   -3.0849   -1.4708 C   0  0  0  0  0  0  0  0  0  0  0  0
    1.6355    2.7955    1.1770 C   0  0  0  0  0  0  0  0  0  0  0  0
   10.2573   -2.0689   -1.4218 C   0  0  0  0  0  0  0  0  0  0  0  0
    0.5531    3.5262    1.9835 C   0  0  0  0  0  0  0  0  0  0  0  0
   11.6244   -2.7101   -1.7216 C   0  0  0  0  0  0  0  0  0  0  0  0
   -0.4926    2.5348    2.4258 N   0  0  0  0  0  0  0  0  0  0  0  0
   12.7429   -1.7047   -1.6136 N   0  0  0  0  0  0  0  0  0  0  0  0
   -1.7526    3.2580    2.8167 C   0  0  0  0  0  0  0  0  0  0  0  0
   12.8490   -1.2478   -0.1834 C   0  0  0  0  0  0  0  0  0  0  0  0
    0.0025    1.7149    3.5914 C   0  0  0  0  0  0  0  0  0  0  0  0
   12.5168   -0.5068   -2.4933 C   0  0  0  0  0  0  0  0  0  0  0  0
  1  6  2  0  0  0  0
  2  3  2  0  0  0  0
  2  1  1  0  0  0  0
  3  4  1  0  0  0  0
  4 10  1  0  0  0  0
  4  5  2  0  0  0  0
  6  5  1  0  0  0  0
  7  1  1  0  0  0  0
  7 11  1  0  0  0  0
  8  7  2  0  0  0  0
  9 10  2  0  0  0  0
 10 12  1  0  0  0  0
 12 14  1  0  0  0  0
 13 11  1  0  0  0  0
 13 15  1  0  0  0  0
 14 16  1  0  0  0  0
 16 18  1  0  0  0  0
 17 15  1  0  0  0  0
 17 19  1  0  0  0  0
 18 20  1  0  0  0  0
 19 23  1  0  0  0  0
 20 22  1  0  0  0  0
 20 24  1  0  0  0  0
 21 19  1  0  0  0  0
M  END
>  <CHROM.1>
-177.23522558,177.50897531,94.91410388,107.76052519,166.51893596,-174.14786417
-177.76444999,140.73904053,-161.88305462,65.33955194,5.60382158,0.37237834
-0.83182268,2.82273646,-0.40328898,1.45588048

>  <Name>
lig.pdb

>  <RI>
1.56215e+07

>  <Rbt.Current_Directory>
/home/itssahil/PROJECTS/Mol_Feturizer/New_Systems/rnas/2l94

>  <Rbt.Executable>
rbdock ($Id: //depot/dev/client3/rdock/2013.1/src/exe/rbdock.cxx#4 $)

>  <Rbt.Library>
libRbt.so (2013.1, Build901 2013/11/27)

>  <Rbt.Parameter_File>
/export/apps/rDock/src/rDock_2013.1_src/data/scripts/dock_solv.prm

>  <Rbt.Receptor>
prm/pocket_docking_2.prm

>  <SCORE>
-13.1686

>  <SCORE.INTER>
-15.8735

>  <SCORE.INTER.CONST>
1

>  <SCORE.INTER.POLAR>
-2.66038

>  <SCORE.INTER.ROT>
10

>  <SCORE.INTER.SOLV>
7.37565

>  <SCORE.INTER.VDW>
-14.4396

>  <SCORE.INTER.norm>
-0.661394

>  <SCORE.INTRA>
1.69401

>  <SCORE.INTRA.DIHEDRAL>
2.95431

>  <SCORE.INTRA.DIHEDRAL.0>
7.52971

>  <SCORE.INTRA.POLAR>
0

>  <SCORE.INTRA.POLAR.0>
0

>  <SCORE.INTRA.REPUL>
0

>  <SCORE.INTRA.REPUL.0>
0

>  <SCORE.INTRA.SOLV>
-0.228151

>  <SCORE.INTRA.SOLV.lig_0>
-22.1084

>  <SCORE.INTRA.VDW>
0.330932

>  <SCORE.INTRA.VDW.0>
2.4256

>  <SCORE.INTRA.norm>
0.0705838

>  <SCORE.RESTR>
1.01087

>  <SCORE.RESTR.CAVITY>
1.01087

>  <SCORE.RESTR.norm>
0.0421195

>  <SCORE.SYSTEM>
0

>  <SCORE.SYSTEM.CONST>
0

>  <SCORE.SYSTEM.DIHEDRAL>
0

>  <SCORE.SYSTEM.SOLV>
0

>  <SCORE.SYSTEM.norm>
0

>  <SCORE.heavy>
24

>  <SCORE.norm>
-0.548691

>  <RMSD>
1.138

$$$$
lig.pdb
 OpenBabel11021811453D
libRbt.so/2013.1/901 2013/11/27
 24 24  0  0  0  0  0  0  0  0999 V2000
    5.5586   -1.4982   -2.0636 C   0  0  0  0  0  0  0  0  0  0  0  0
    4.9721   -0.8323   -3.1922 C   0  0  0  0  0  0  0  0  0  0  0  0
    4.0525    0.1780   -3.0384 C   0  0  0  0  0  0  0  0  0  0  0  0
    3.6373    0.6276   -1.7442 C   0  0  0  0  0  0  0  0  0  0  0  0
    4.1985   -0.0609   -0.6187 C   0  0  0  0  0  0  0  0  0  0  0  0
    5.1106   -1.0752   -0.7712 C   0  0  0  0  0  0  0  0  0  0  0  0
    6.4964   -2.4808   -2.2046 C   0  0  0  0  0  0  0  0  0  0  0  0
    7.1077   -2.7446   -3.3792 N   0  0  0  0  0  0  0  0  0  0  0  0
    1.9588    2.1149   -2.5682 N   0  0  0  0  0  0  0  0  0  0  0  0
    2.7535    1.6530   -1.5796 C   0  0  0  0  0  0  0  0  0  0  0  0
    6.8883   -3.2655   -1.1703 N   0  0  0  0  0  0  0  0  0  0  0  0
    2.5995    2.3002   -0.4001 N   0  0  0  0  0  0  0  0  0  0  0  0
    8.2323   -3.7872   -0.9301 C   0  0  0  0  0  0  0  0  0  0  0  0
    1.4304    3.0698    0.0137 C   0  0  0  0  0  0  0  0  0  0  0  0
    9.1884   -2.5913   -0.7928 C   0  0  0  0  0  0  0  0  0  0  0  0
    0.9108    2.4686    1.3329 C   0  0  0  0  0  0  0  0  0  0  0  0
   10.6009   -3.0585   -0.4151 C   0  0  0  0  0  0  0  0  0  0  0  0
   -0.4697    3.0195    1.7336 C   0  0  0  0  0  0  0  0  0  0  0  0
   11.5759   -1.9323   -0.6450 N   0  0  0  0  0  0  0  0  0  0  0  0
   -0.7293    2.8428    3.2083 N   0  0  0  0  0  0  0  0  0  0  0  0
   11.2616   -0.7852    0.2764 C   0  0  0  0  0  0  0  0  0  0  0  0
   -1.0031    1.3884    3.4825 C   0  0  0  0  0  0  0  0  0  0  0  0
   11.5239   -1.4599   -2.0769 C   0  0  0  0  0  0  0  0  0  0  0  0
   -1.9012    3.6575    3.6805 C   0  0  0  0  0  0  0  0  0  0  0  0
  1  6  2  0  0  0  0
  2  3  2  0  0  0  0
  2  1  1  0  0  0  0
  3  4  1  0  0  0  0
  4 10  1  0  0  0  0
  4  5  2  0  0  0  0
  6  5  1  0  0  0  0
  7  1  1  0  0  0  0
  7 11  1  0  0  0  0
  8  7  2  0  0  0  0
  9 10  2  0  0  0  0
 10 12  1  0  0  0  0
 12 14  1  0  0  0  0
 13 11  1  0  0  0  0
 13 15  1  0  0  0  0
 14 16  1  0  0  0  0
 16 18  1  0  0  0  0
 17 15  1  0  0  0  0
 17 19  1  0  0  0  0
 18 20  1  0  0  0  0
 19 23  1  0  0  0  0
 20 22  1  0  0  0  0
 20 24  1  0  0  0  0
 21 19  1  0  0  0  0
M  END
>  <CHROM.1>
16.44880718,11.57494372,122.83876733,59.51302221,174.98550821,-169.15145224
-158.79092951,165.10524407,64.19744992,-73.24837398,4.84591547,-0.07438109
-0.52454589,0.35654223,0.41832253,-1.76721698

>  <Name>
lig.pdb

>  <RI>
1.56215e+07

>  <Rbt.Current_Directory>
/home/itssahil/PROJECTS/Mol_Feturizer/New_Systems/rnas/2l94

>  <Rbt.Executable>
rbdock ($Id: //depot/dev/client3/rdock/2013.1/src/exe/rbdock.cxx#4 $)

>  <Rbt.Library>
libRbt.so (2013.1, Build901 2013/11/27)

>  <Rbt.Parameter_File>
/export/apps/rDock/src/rDock_2013.1_src/data/scripts/dock_solv.prm

>  <Rbt.Receptor>
prm/pocket_docking_2.prm

>  <SCORE>
-8.30668

>  <SCORE.INTER>
-10.5472

>  <SCORE.INTER.CONST>
1

>  <SCORE.INTER.POLAR>
-1.59587

>  <SCORE.INTER.ROT>
10

>  <SCORE.INTER.SOLV>
7.27132

>  <SCORE.INTER.VDW>
-14.4023

>  <SCORE.INTER.norm>
-0.439466

>  <SCORE.INTRA>
2.19206

>  <SCORE.INTRA.DIHEDRAL>
2.16756

>  <SCORE.INTRA.DIHEDRAL.0>
7.52971

>  <SCORE.INTRA.POLAR>
0

>  <SCORE.INTRA.POLAR.0>
0

>  <SCORE.INTRA.REPUL>
0

>  <SCORE.INTRA.REPUL.0>
0

>  <SCORE.INTRA.SOLV>
-0.151721

>  <SCORE.INTRA.SOLV.lig_0>
-22.1084

>  <SCORE.INTRA.VDW>
1.18414

>  <SCORE.INTRA.VDW.0>
2.4256

>  <SCORE.INTRA.norm>
0.0913356

>  <SCORE.RESTR>
0.048452

>  <SCORE.RESTR.CAVITY>
0.048452

>  <SCORE.RESTR.norm>
0.00201883

>  <SCORE.SYSTEM>
0

>  <SCORE.SYSTEM.CONST>
0

>  <SCORE.SYSTEM.DIHEDRAL>
0

>  <SCORE.SYSTEM.SOLV>
0

>  <SCORE.SYSTEM.norm>
0

>  <SCORE.heavy>
24

>  <SCORE.norm>
-0.346112

>  <RMSD>
1.220

$$$$
lig.pdb
 OpenBabel11021811453D
libRbt.so/2013.1/901 2013/11/27
 24 24  0  0  0  0  0  0  0  0999 V2000
    5.4769   -1.7394   -2.2483 C   0  0  0  0  0  0  0  0  0  0  0  0
    4.6558   -1.2614   -3.3245 C   0  0  0  0  0  0  0  0  0  0  0  0
    3.5809   -0.4337   -3.1019 C   0  0  0  0  0  0  0  0  0  0  0  0
    3.2282    0.0045   -1.7855 C   0  0  0  0  0  0  0  0  0  0  0  0
    4.0286   -0.5006   -0.7085 C   0  0  0  0  0  0  0  0  0  0  0  0
    5.0970   -1.3335   -0.9288 C   0  0  0  0  0  0  0  0  0  0  0  0
    6.5655   -2.5358   -2.4614 C   0  0  0  0  0  0  0  0  0  0  0  0
    6.8667   -3.0536   -3.6715 N   0  0  0  0  0  0  0  0  0  0  0  0
    1.6624    1.6595   -2.5051 N   0  0  0  0  0  0  0  0  0  0  0  0
    2.1865    0.8544   -1.5568 C   0  0  0  0  0  0  0  0  0  0  0  0
    7.4311   -2.8643   -1.4705 N   0  0  0  0  0  0  0  0  0  0  0  0
    1.5868    0.9633   -0.3475 N   0  0  0  0  0  0  0  0  0  0  0  0
    8.8769   -3.0382   -1.5958 C   0  0  0  0  0  0  0  0  0  0  0  0
    0.2419    1.4718   -0.0959 C   0  0  0  0  0  0  0  0  0  0  0  0
    9.5595   -2.0334   -0.6538 C   0  0  0  0  0  0  0  0  0  0  0  0
    0.3735    2.8991    0.4675 C   0  0  0  0  0  0  0  0  0  0  0  0
   10.9850   -1.7178   -1.1277 C   0  0  0  0  0  0  0  0  0  0  0  0
    0.3024    2.9396    2.0048 C   0  0  0  0  0  0  0  0  0  0  0  0
   11.8243   -1.3098    0.0559 N   0  0  0  0  0  0  0  0  0  0  0  0
   -1.0527    2.5100    2.5076 N   0  0  0  0  0  0  0  0  0  0  0  0
   11.4301    0.0679    0.5141 C   0  0  0  0  0  0  0  0  0  0  0  0
   -1.7809    3.7177    3.0335 C   0  0  0  0  0  0  0  0  0  0  0  0
   13.2917   -1.3259   -0.2943 C   0  0  0  0  0  0  0  0  0  0  0  0
   -0.9535    1.4848    3.6025 C   0  0  0  0  0  0  0  0  0  0  0  0
  1  6  2  0  0  0  0
  2  3  2  0  0  0  0
  2  1  1  0  0  0  0
  3  4  1  0  0  0  0
  4 10  1  0  0  0  0
  4  5  2  0  0  0  0
  6  5  1  0  0  0  0
  7  1  1  0  0  0  0
  7 11  1  0  0  0  0
  8  7  2  0  0  0  0
  9 10  2  0  0  0  0
 10 12  1  0  0  0  0
 12 14  1  0  0  0  0
 13 11  1  0  0  0  0
 13 15  1  0  0  0  0
 14 16  1  0  0  0  0
 16 18  1  0  0  0  0
 17 15  1  0  0  0  0
 17 19  1  0  0  0  0
 18 20  1  0  0  0  0
 19 23  1  0  0  0  0
 20 22  1  0  0  0  0
 20 24  1  0  0  0  0
 21 19  1  0  0  0  0
M  END
>  <CHROM.1>
-20.57226250,-7.52423401,-103.71128127,120.60919259,-155.79914790,-96.89585045
-65.16539549,-153.27607910,-72.83796589,-108.12827586,4.82843123,-0.16196243
-0.59542997,0.36365814,0.22367699,-2.09383554

>  <Name>
lig.pdb

>  <RI>
1.56215e+07

>  <Rbt.Current_Directory>
/home/itssahil/PROJECTS/Mol_Feturizer/New_Systems/rnas/2l94

>  <Rbt.Executable>
rbdock ($Id: //depot/dev/client3/rdock/2013.1/src/exe/rbdock.cxx#4 $)

>  <Rbt.Library>
libRbt.so (2013.1, Build901 2013/11/27)

>  <Rbt.Parameter_File>
/export/apps/rDock/src/rDock_2013.1_src/data/scripts/dock_solv.prm

>  <Rbt.Receptor>
prm/pocket_docking_2.prm

>  <SCORE>
-8.45482

>  <SCORE.INTER>
-11.6071

>  <SCORE.INTER.CONST>
1

>  <SCORE.INTER.POLAR>
-1.59922

>  <SCORE.INTER.ROT>
10

>  <SCORE.INTER.SOLV>
7.15807

>  <SCORE.INTER.VDW>
-15.06

>  <SCORE.INTER.norm>
-0.483628

>  <SCORE.INTRA>
3.05845

>  <SCORE.INTRA.DIHEDRAL>
10.8451

>  <SCORE.INTRA.DIHEDRAL.0>
7.52971

>  <SCORE.INTRA.POLAR>
0

>  <SCORE.INTRA.POLAR.0>
0

>  <SCORE.INTRA.REPUL>
0

>  <SCORE.INTRA.REPUL.0>
0

>  <SCORE.INTRA.SOLV>
0.0155141

>  <SCORE.INTRA.SOLV.lig_0>
-22.1084

>  <SCORE.INTRA.VDW>
-2.37183

>  <SCORE.INTRA.VDW.0>
2.4256

>  <SCORE.INTRA.norm>
0.127435

>  <SCORE.RESTR>
0.0938071

>  <SCORE.RESTR.CAVITY>
0.0938071

>  <SCORE.RESTR.norm>
0.00390863

>  <SCORE.SYSTEM>
0

>  <SCORE.SYSTEM.CONST>
0

>  <SCORE.SYSTEM.DIHEDRAL>
0

>  <SCORE.SYSTEM.SOLV>
0

>  <SCORE.SYSTEM.norm>
0

>  <SCORE.heavy>
24

>  <SCORE.norm>
-0.352284

>  <RMSD>
1.241

$$$$
lig.pdb
 OpenBabel11021811453D
libRbt.so/2013.1/901 2013/11/27
 24 24  0  0  0  0  0  0  0  0999 V2000
    5.6945   -1.1632   -2.3047 C   0  0  0  0  0  0  0  0  0  0  0  0
    5.5010   -0.5766   -1.0088 C   0  0  0  0  0  0  0  0  0  0  0  0
    4.6075    0.4482   -0.8047 C   0  0  0  0  0  0  0  0  0  0  0  0
    3.8144    0.9792   -1.8717 C   0  0  0  0  0  0  0  0  0  0  0  0
    4.0332    0.4153   -3.1716 C   0  0  0  0  0  0  0  0  0  0  0  0
    4.9307   -0.6024   -3.3781 C   0  0  0  0  0  0  0  0  0  0  0  0
    6.5558   -2.2025   -2.5122 C   0  0  0  0  0  0  0  0  0  0  0  0
    7.0657   -2.4978   -3.7270 N   0  0  0  0  0  0  0  0  0  0  0  0
    1.9780    2.3261   -2.5940 N   0  0  0  0  0  0  0  0  0  0  0  0
    2.8992    1.9705   -1.6736 C   0  0  0  0  0  0  0  0  0  0  0  0
    6.9680   -3.0164   -1.5089 N   0  0  0  0  0  0  0  0  0  0  0  0
    2.8391    2.6885   -0.5269 N   0  0  0  0  0  0  0  0  0  0  0  0
    8.2895   -3.6237   -1.3639 C   0  0  0  0  0  0  0  0  0  0  0  0
    1.6816    3.4285   -0.0339 C   0  0  0  0  0  0  0  0  0  0  0  0
    8.9165   -3.0922   -0.0650 C   0  0  0  0  0  0  0  0  0  0  0  0
    1.2568    2.8032    1.3079 C   0  0  0  0  0  0  0  0  0  0  0  0
   10.4471   -3.1980   -0.1109 C   0  0  0  0  0  0  0  0  0  0  0  0
   -0.1846    3.1707    1.7044 C   0  0  0  0  0  0  0  0  0  0  0  0
   11.0017   -2.0487   -0.9131 N   0  0  0  0  0  0  0  0  0  0  0  0
   -0.4378    2.9156    3.1688 N   0  0  0  0  0  0  0  0  0  0  0  0
   11.8007   -2.5724   -2.0753 C   0  0  0  0  0  0  0  0  0  0  0  0
   -0.5236    1.4300    3.3953 C   0  0  0  0  0  0  0  0  0  0  0  0
   11.8746   -1.1662   -0.0557 C   0  0  0  0  0  0  0  0  0  0  0  0
   -1.7117    3.5563    3.6450 C   0  0  0  0  0  0  0  0  0  0  0  0
  1  6  2  0  0  0  0
  2  3  2  0  0  0  0
  2  1  1  0  0  0  0
  3  4  1  0  0  0  0
  4 10  1  0  0  0  0
  4  5  2  0  0  0  0
  6  5  1  0  0  0  0
  7  1  1  0  0  0  0
  7 11  1  0  0  0  0
  8  7  2  0  0  0  0
  9 10  2  0  0  0  0
 10 12  1  0  0  0  0
 12 14  1  0  0  0  0
 13 11  1  0  0  0  0
 13 15  1  0  0  0  0
 14 16  1  0  0  0  0
 16 18  1  0  0  0  0
 17 15  1  0  0  0  0
 17 19  1  0  0  0  0
 18 20  1  0  0  0  0
 19 23  1  0  0  0  0
 20 22  1  0  0  0  0
 20 24  1  0  0  0  0
 21 19  1  0  0  0  0
M  END
>  <CHROM.1>
-167.84513910,-158.94404375,117.39026993,117.91807433,-156.87082886,-161.38080608
-162.74201279,79.93034481,-121.53457132,-72.69186342,4.97898191,0.02567377
-0.63434679,0.30758077,0.49586465,-1.64687369

>  <Name>
lig.pdb

>  <RI>
1.56215e+07

>  <Rbt.Current_Directory>
/home/itssahil/PROJECTS/Mol_Feturizer/New_Systems/rnas/2l94

>  <Rbt.Executable>
rbdock ($Id: //depot/dev/client3/rdock/2013.1/src/exe/rbdock.cxx#4 $)

>  <Rbt.Library>
libRbt.so (2013.1, Build901 2013/11/27)

>  <Rbt.Parameter_File>
/export/apps/rDock/src/rDock_2013.1_src/data/scripts/dock_solv.prm

>  <Rbt.Receptor>
prm/pocket_docking_2.prm

>  <SCORE>
-9.38781

>  <SCORE.INTER>
-11.1313

>  <SCORE.INTER.CONST>
1

>  <SCORE.INTER.POLAR>
-1.59922

>  <SCORE.INTER.ROT>
10

>  <SCORE.INTER.SOLV>
7.95429

>  <SCORE.INTER.VDW>
-15.0083

>  <SCORE.INTER.norm>
-0.463805

>  <SCORE.INTRA>
1.74352

>  <SCORE.INTRA.DIHEDRAL>
8.93495

>  <SCORE.INTRA.DIHEDRAL.0>
7.52971

>  <SCORE.INTRA.POLAR>
0

>  <SCORE.INTRA.POLAR.0>
0

>  <SCORE.INTRA.REPUL>
0

>  <SCORE.INTRA.REPUL.0>
0

>  <SCORE.INTRA.SOLV>
-0.177736

>  <SCORE.INTRA.SOLV.lig_0>
-22.1084

>  <SCORE.INTRA.VDW>
-2.63509

>  <SCORE.INTRA.VDW.0>
2.4256

>  <SCORE.INTRA.norm>
0.0726466

>  <SCORE.RESTR>
0

>  <SCORE.RESTR.CAVITY>
0

>  <SCORE.RESTR.norm>
0

>  <SCORE.SYSTEM>
0

>  <SCORE.SYSTEM.CONST>
0

>  <SCORE.SYSTEM.DIHEDRAL>
0

>  <SCORE.SYSTEM.SOLV>
0

>  <SCORE.SYSTEM.norm>
0

>  <SCORE.heavy>
24

>  <SCORE.norm>
-0.391159

>  <RMSD>
1.266

$$$$
lig.pdb
 OpenBabel11021811453D
libRbt.so/2013.1/901 2013/11/27
 24 24  0  0  0  0  0  0  0  0999 V2000
    5.5338   -1.4221   -2.3454 C   0  0  0  0  0  0  0  0  0  0  0  0
    4.3749   -1.3893   -3.1922 C   0  0  0  0  0  0  0  0  0  0  0  0
    3.4257   -0.4010   -3.0815 C   0  0  0  0  0  0  0  0  0  0  0  0
    3.5466    0.6549   -2.1224 C   0  0  0  0  0  0  0  0  0  0  0  0
    4.6870    0.6021   -1.2550 C   0  0  0  0  0  0  0  0  0  0  0  0
    5.6311   -0.3886   -1.3591 C   0  0  0  0  0  0  0  0  0  0  0  0
    6.4984   -2.3808   -2.4682 C   0  0  0  0  0  0  0  0  0  0  0  0
    6.8337   -2.9327   -3.6540 N   0  0  0  0  0  0  0  0  0  0  0  0
    1.3985    1.5967   -2.5774 N   0  0  0  0  0  0  0  0  0  0  0  0
    2.6300    1.6602   -2.0283 C   0  0  0  0  0  0  0  0  0  0  0  0
    7.1973   -2.8493   -1.4046 N   0  0  0  0  0  0  0  0  0  0  0  0
    2.8822    2.8173   -1.3714 N   0  0  0  0  0  0  0  0  0  0  0  0
    8.6025   -3.2511   -1.3914 C   0  0  0  0  0  0  0  0  0  0  0  0
    1.8847    3.7383   -0.8354 C   0  0  0  0  0  0  0  0  0  0  0  0
    9.2012   -2.8404   -0.0364 C   0  0  0  0  0  0  0  0  0  0  0  0
    1.6758    3.3965    0.6516 C   0  0  0  0  0  0  0  0  0  0  0  0
   10.7351   -2.8692   -0.0828 C   0  0  0  0  0  0  0  0  0  0  0  0
    0.7347    2.1959    0.8584 C   0  0  0  0  0  0  0  0  0  0  0  0
   11.2349   -1.6392   -0.7963 N   0  0  0  0  0  0  0  0  0  0  0  0
    0.1071    2.2144    2.2293 N   0  0  0  0  0  0  0  0  0  0  0  0
   12.6291   -1.8748   -1.3101 C   0  0  0  0  0  0  0  0  0  0  0  0
   -0.4998    0.8646    2.5039 C   0  0  0  0  0  0  0  0  0  0  0  0
   11.2303   -0.4441    0.1245 C   0  0  0  0  0  0  0  0  0  0  0  0
   -0.9622    3.2641    2.3504 C   0  0  0  0  0  0  0  0  0  0  0  0
  1  6  2  0  0  0  0
  2  3  2  0  0  0  0
  2  1  1  0  0  0  0
  3  4  1  0  0  0  0
  4 10  1  0  0  0  0
  4  5  2  0  0  0  0
  6  5  1  0  0  0  0
  7  1  1  0  0  0  0
  7 11  1  0  0  0  0
  8  7  2  0  0  0  0
  9 10  2  0  0  0  0
 10 12  1  0  0  0  0
 12 14  1  0  0  0  0
 13 11  1  0  0  0  0
 13 15  1  0  0  0  0
 14 16  1  0  0  0  0
 16 18  1  0  0  0  0
 17 15  1  0  0  0  0
 17 19  1  0  0  0  0
 18 20  1  0  0  0  0
 19 23  1  0  0  0  0
 20 22  1  0  0  0  0
 20 24  1  0  0  0  0
 21 19  1  0  0  0  0
M  END
>  <CHROM.1>
16.33791799,32.95528641,95.39423457,143.76390338,-164.33817738,-80.59364177
-157.00345193,77.67125980,-158.71444351,-165.37473547,5.06746257,-0.05693811
-0.89261842,0.34481962,0.35638656,-2.02507763

>  <Name>
lig.pdb

>  <RI>
1.56215e+07

>  <Rbt.Current_Directory>
/home/itssahil/PROJECTS/Mol_Feturizer/New_Systems/rnas/2l94

>  <Rbt.Executable>
rbdock ($Id: //depot/dev/client3/rdock/2013.1/src/exe/rbdock.cxx#4 $)

>  <Rbt.Library>
libRbt.so (2013.1, Build901 2013/11/27)

>  <Rbt.Parameter_File>
/export/apps/rDock/src/rDock_2013.1_src/data/scripts/dock_solv.prm

>  <Rbt.Receptor>
prm/pocket_docking_2.prm

>  <SCORE>
-5.93216

>  <SCORE.INTER>
-7.26418

>  <SCORE.INTER.CONST>
1

>  <SCORE.INTER.POLAR>
-0.801919

>  <SCORE.INTER.ROT>
10

>  <SCORE.INTER.SOLV>
7.87436

>  <SCORE.INTER.VDW>
-15.0612

>  <SCORE.INTER.norm>
-0.302674

>  <SCORE.INTRA>
1.29173

>  <SCORE.INTRA.DIHEDRAL>
8.65784

>  <SCORE.INTRA.DIHEDRAL.0>
7.52971

>  <SCORE.INTRA.POLAR>
0

>  <SCORE.INTRA.POLAR.0>
0

>  <SCORE.INTRA.REPUL>
0

>  <SCORE.INTRA.REPUL.0>
0

>  <SCORE.INTRA.SOLV>
0.191495

>  <SCORE.INTRA.SOLV.lig_0>
-22.1084

>  <SCORE.INTRA.VDW>
-3.13294

>  <SCORE.INTRA.VDW.0>
2.4256

>  <SCORE.INTRA.norm>
0.0538219

>  <SCORE.RESTR>
0.0402985

>  <SCORE.RESTR.CAVITY>
0.0402985

>  <SCORE.RESTR.norm>
0.0016791

>  <SCORE.SYSTEM>
0

>  <SCORE.SYSTEM.CONST>
0

>  <SCORE.SYSTEM.DIHEDRAL>
0

>  <SCORE.SYSTEM.SOLV>
0

>  <SCORE.SYSTEM.norm>
0

>  <SCORE.heavy>
24

>  <SCORE.norm>
-0.247173

>  <RMSD>
1.283

$$$$
lig.pdb
 OpenBabel11021811453D
libRbt.so/2013.1/901 2013/11/27
 24 24  0  0  0  0  0  0  0  0999 V2000
    5.6553   -1.8214   -2.1744 C   0  0  0  0  0  0  0  0  0  0  0  0
    5.6814   -0.7637   -1.2040 C   0  0  0  0  0  0  0  0  0  0  0  0
    4.6313    0.1119   -1.0598 C   0  0  0  0  0  0  0  0  0  0  0  0
    3.4507    0.0103   -1.8629 C   0  0  0  0  0  0  0  0  0  0  0  0
    3.4401   -1.0254   -2.8544 C   0  0  0  0  0  0  0  0  0  0  0  0
    4.4911   -1.8951   -3.0048 C   0  0  0  0  0  0  0  0  0  0  0  0
    6.6789   -2.7159   -2.3041 C   0  0  0  0  0  0  0  0  0  0  0  0
    7.1337   -3.1373   -3.5036 N   0  0  0  0  0  0  0  0  0  0  0  0
    1.1053    0.4315   -1.6892 N   0  0  0  0  0  0  0  0  0  0  0  0
    2.3885    0.8505   -1.7038 C   0  0  0  0  0  0  0  0  0  0  0  0
    7.3205   -3.2468   -1.2338 N   0  0  0  0  0  0  0  0  0  0  0  0
    2.5340    2.1878   -1.5474 N   0  0  0  0  0  0  0  0  0  0  0  0
    8.7410   -3.5785   -1.1432 C   0  0  0  0  0  0  0  0  0  0  0  0
    1.5621    3.0952   -0.9452 C   0  0  0  0  0  0  0  0  0  0  0  0
    9.5177   -2.2761   -0.8913 C   0  0  0  0  0  0  0  0  0  0  0  0
    2.1882    3.6763    0.3363 C   0  0  0  0  0  0  0  0  0  0  0  0
   11.0264   -2.5449   -0.8042 C   0  0  0  0  0  0  0  0  0  0  0  0
    1.7200    2.9476    1.6090 C   0  0  0  0  0  0  0  0  0  0  0  0
   11.7555   -1.2380   -0.6245 N   0  0  0  0  0  0  0  0  0  0  0  0
    0.2367    3.1097    1.8256 N   0  0  0  0  0  0  0  0  0  0  0  0
   13.1702   -1.3672   -1.1197 C   0  0  0  0  0  0  0  0  0  0  0  0
   -0.0201    3.3166    3.2942 C   0  0  0  0  0  0  0  0  0  0  0  0
   11.7631   -0.8213    0.8255 C   0  0  0  0  0  0  0  0  0  0  0  0
   -0.5400    1.9103    1.3585 C   0  0  0  0  0  0  0  0  0  0  0  0
  1  6  2  0  0  0  0
  2  3  2  0  0  0  0
  2  1  1  0  0  0  0
  3  4  1  0  0  0  0
  4 10  1  0  0  0  0
  4  5  2  0  0  0  0
  6  5  1  0  0  0  0
  7  1  1  0  0  0  0
  7 11  1  0  0  0  0
  8  7  2  0  0  0  0
  9 10  2  0  0  0  0
 10 12  1  0  0  0  0
 12 14  1  0  0  0  0
 13 11  1  0  0  0  0
 13 15  1  0  0  0  0
 14 16  1  0  0  0  0
 16 18  1  0  0  0  0
 17 15  1  0  0  0  0
 17 19  1  0  0  0  0
 18 20  1  0  0  0  0
 19 23  1  0  0  0  0
 20 22  1  0  0  0  0
 20 24  1  0  0  0  0
 21 19  1  0  0  0  0
M  END
>  <CHROM.1>
-135.80887806,-138.85693903,115.52769427,78.81731766,-179.19038381,-98.56659799
-63.61305709,177.26221228,-155.59589374,-140.05659256,5.25556961,-0.16776894
-0.80552633,0.42833565,0.22978852,-2.33012542

>  <Name>
lig.pdb

>  <RI>
1.56215e+07

>  <Rbt.Current_Directory>
/home/itssahil/PROJECTS/Mol_Feturizer/New_Systems/rnas/2l94

>  <Rbt.Executable>
rbdock ($Id: //depot/dev/client3/rdock/2013.1/src/exe/rbdock.cxx#4 $)

>  <Rbt.Library>
libRbt.so (2013.1, Build901 2013/11/27)

>  <Rbt.Parameter_File>
/export/apps/rDock/src/rDock_2013.1_src/data/scripts/dock_solv.prm

>  <Rbt.Receptor>
prm/pocket_docking_2.prm

>  <SCORE>
-13.724

>  <SCORE.INTER>
-18.7292

>  <SCORE.INTER.CONST>
1

>  <SCORE.INTER.POLAR>
-2.64786

>  <SCORE.INTER.ROT>
10

>  <SCORE.INTER.SOLV>
8.48565

>  <SCORE.INTER.VDW>
-16.7551

>  <SCORE.INTER.norm>
-0.780381

>  <SCORE.INTRA>
4.21623

>  <SCORE.INTRA.DIHEDRAL>
16.9591

>  <SCORE.INTRA.DIHEDRAL.0>
7.52971

>  <SCORE.INTRA.POLAR>
0

>  <SCORE.INTRA.POLAR.0>
0

>  <SCORE.INTRA.REPUL>
0

>  <SCORE.INTRA.REPUL.0>
0

>  <SCORE.INTRA.SOLV>
0.313959

>  <SCORE.INTRA.SOLV.lig_0>
-22.1084

>  <SCORE.INTRA.VDW>
-4.4203

>  <SCORE.INTRA.VDW.0>
2.4256

>  <SCORE.INTRA.norm>
0.175676

>  <SCORE.RESTR>
0.788928

>  <SCORE.RESTR.CAVITY>
0.788928

>  <SCORE.RESTR.norm>
0.032872

>  <SCORE.SYSTEM>
0

>  <SCORE.SYSTEM.CONST>
0

>  <SCORE.SYSTEM.DIHEDRAL>
0

>  <SCORE.SYSTEM.SOLV>
0

>  <SCORE.SYSTEM.norm>
0

>  <SCORE.heavy>
24

>  <SCORE.norm>
-0.571833

>  <RMSD>
1.292

$$$$
lig.pdb
 OpenBabel11021811453D
libRbt.so/2013.1/901 2013/11/27
 24 24  0  0  0  0  0  0  0  0999 V2000
    5.3649   -1.8313   -2.0751 C   0  0  0  0  0  0  0  0  0  0  0  0
    4.9389   -0.9810   -3.1505 C   0  0  0  0  0  0  0  0  0  0  0  0
    3.8855   -0.1089   -3.0094 C   0  0  0  0  0  0  0  0  0  0  0  0
    3.1625    0.0056   -1.7791 C   0  0  0  0  0  0  0  0  0  0  0  0
    3.5675   -0.8682   -0.7169 C   0  0  0  0  0  0  0  0  0  0  0  0
    4.6138   -1.7449   -0.8592 C   0  0  0  0  0  0  0  0  0  0  0  0
    6.4298   -2.6778   -2.1944 C   0  0  0  0  0  0  0  0  0  0  0  0
    7.1243   -2.8213   -3.3433 N   0  0  0  0  0  0  0  0  0  0  0  0
    1.7676    1.7794   -2.5640 N   0  0  0  0  0  0  0  0  0  0  0  0
    2.1398    0.8928   -1.6165 C   0  0  0  0  0  0  0  0  0  0  0  0
    6.8737   -3.4376   -1.1625 N   0  0  0  0  0  0  0  0  0  0  0  0
    1.4067    0.9598   -0.4798 N   0  0  0  0  0  0  0  0  0  0  0  0
    8.2623   -3.7866   -0.8689 C   0  0  0  0  0  0  0  0  0  0  0  0
    0.0654    1.5210   -0.3519 C   0  0  0  0  0  0  0  0  0  0  0  0
    9.0642   -2.4809   -0.7456 C   0  0  0  0  0  0  0  0  0  0  0  0
   -0.1821    1.8201    1.1384 C   0  0  0  0  0  0  0  0  0  0  0  0
   10.5592   -2.7711   -0.5534 C   0  0  0  0  0  0  0  0  0  0  0  0
    0.4864    3.1274    1.6007 C   0  0  0  0  0  0  0  0  0  0  0  0
   11.3352   -1.4843   -0.6708 N   0  0  0  0  0  0  0  0  0  0  0  0
    0.0616    3.5022    2.9981 N   0  0  0  0  0  0  0  0  0  0  0  0
   12.7623   -1.7780   -1.0458 C   0  0  0  0  0  0  0  0  0  0  0  0
    0.5101    2.4240    3.9477 C   0  0  0  0  0  0  0  0  0  0  0  0
   11.3011   -0.7153    0.6267 C   0  0  0  0  0  0  0  0  0  0  0  0
   -1.4282    3.6662    3.1142 C   0  0  0  0  0  0  0  0  0  0  0  0
  1  6  2  0  0  0  0
  2  3  2  0  0  0  0
  2  1  1  0  0  0  0
  3  4  1  0  0  0  0
  4 10  1  0  0  0  0
  4  5  2  0  0  0  0
  6  5  1  0  0  0  0
  7  1  1  0  0  0  0
  7 11  1  0  0  0  0
  8  7  2  0  0  0  0
  9 10  2  0  0  0  0
 10 12  1  0  0  0  0
 12 14  1  0  0  0  0
 13 11  1  0  0  0  0
 13 15  1  0  0  0  0
 14 16  1  0  0  0  0
 16 18  1  0  0  0  0
 17 15  1  0  0  0  0
 17 19  1  0  0  0  0
 18 20  1  0  0  0  0
 19 23  1  0  0  0  0
 20 22  1  0  0  0  0
 20 24  1  0  0  0  0
 21 19  1  0  0  0  0
M  END
>  <CHROM.1>
-3.55668945,-2.89354379,-161.26179050,55.79957530,-175.25002744,79.18600946
171.49864712,170.48983659,-157.02455475,62.39959516,4.78119722,-0.28472968
-0.51947408,0.41960702,0.29557873,-2.08035770

>  <Name>
lig.pdb

>  <RI>
1.56215e+07

>  <Rbt.Current_Directory>
/home/itssahil/PROJECTS/Mol_Feturizer/New_Systems/rnas/2l94

>  <Rbt.Executable>
rbdock ($Id: //depot/dev/client3/rdock/2013.1/src/exe/rbdock.cxx#4 $)

>  <Rbt.Library>
libRbt.so (2013.1, Build901 2013/11/27)

>  <Rbt.Parameter_File>
/export/apps/rDock/src/rDock_2013.1_src/data/scripts/dock_solv.prm

>  <Rbt.Receptor>
prm/pocket_docking_2.prm

>  <SCORE>
-11.6729

>  <SCORE.INTER>
-13.2104

>  <SCORE.INTER.CONST>
1

>  <SCORE.INTER.POLAR>
-1.50265

>  <SCORE.INTER.ROT>
10

>  <SCORE.INTER.SOLV>
8.01268

>  <SCORE.INTER.VDW>
-16.7357

>  <SCORE.INTER.norm>
-0.550435

>  <SCORE.INTRA>
1.14181

>  <SCORE.INTRA.DIHEDRAL>
0.406919

>  <SCORE.INTRA.DIHEDRAL.0>
7.52971

>  <SCORE.INTRA.POLAR>
0

>  <SCORE.INTRA.POLAR.0>
0

>  <SCORE.INTRA.REPUL>
0

>  <SCORE.INTRA.REPUL.0>
0

>  <SCORE.INTRA.SOLV>
0.0896362

>  <SCORE.INTRA.SOLV.lig_0>
-22.1084

>  <SCORE.INTRA.VDW>
0.893529

>  <SCORE.INTRA.VDW.0>
2.4256

>  <SCORE.INTRA.norm>
0.0475753

>  <SCORE.RESTR>
0.395768

>  <SCORE.RESTR.CAVITY>
0.395768

>  <SCORE.RESTR.norm>
0.0164903

>  <SCORE.SYSTEM>
0

>  <SCORE.SYSTEM.CONST>
0

>  <SCORE.SYSTEM.DIHEDRAL>
0

>  <SCORE.SYSTEM.SOLV>
0

>  <SCORE.SYSTEM.norm>
0

>  <SCORE.heavy>
24

>  <SCORE.norm>
-0.48637

>  <RMSD>
1.324

$$$$
lig.pdb
 OpenBabel11021811453D
libRbt.so/2013.1/901 2013/11/27
 24 24  0  0  0  0  0  0  0  0999 V2000
    5.8284   -1.6485   -2.4816 C   0  0  0  0  0  0  0  0  0  0  0  0
    5.7095   -0.6100   -3.4657 C   0  0  0  0  0  0  0  0  0  0  0  0
    4.9222    0.4977   -3.2572 C   0  0  0  0  0  0  0  0  0  0  0  0
    4.1860    0.6802   -2.0431 C   0  0  0  0  0  0  0  0  0  0  0  0
    4.2791   -0.3736   -1.0754 C   0  0  0  0  0  0  0  0  0  0  0  0
    5.0583   -1.4837   -1.2858 C   0  0  0  0  0  0  0  0  0  0  0  0
    6.6323   -2.7370   -2.6652 C   0  0  0  0  0  0  0  0  0  0  0  0
    7.2527   -2.9983   -3.8357 N   0  0  0  0  0  0  0  0  0  0  0  0
    3.6076    2.9599   -2.4639 N   0  0  0  0  0  0  0  0  0  0  0  0
    3.4310    1.7918   -1.8107 C   0  0  0  0  0  0  0  0  0  0  0  0
    6.8717   -3.6382   -1.6806 N   0  0  0  0  0  0  0  0  0  0  0  0
    2.4331    1.8168   -0.8956 N   0  0  0  0  0  0  0  0  0  0  0  0
    8.1229   -4.3531   -1.4364 C   0  0  0  0  0  0  0  0  0  0  0  0
    1.3113    2.7504   -0.8700 C   0  0  0  0  0  0  0  0  0  0  0  0
    9.2764   -3.4866   -1.9669 C   0  0  0  0  0  0  0  0  0  0  0  0
    0.2390    2.1756    0.0742 C   0  0  0  0  0  0  0  0  0  0  0  0
    9.6798   -2.4205   -0.9389 C   0  0  0  0  0  0  0  0  0  0  0  0
    0.2969    2.7918    1.4837 C   0  0  0  0  0  0  0  0  0  0  0  0
   11.1776   -2.4327   -0.7706 N   0  0  0  0  0  0  0  0  0  0  0  0
   -0.8675    2.3453    2.3313 N   0  0  0  0  0  0  0  0  0  0  0  0
   11.5747   -1.5194    0.3570 C   0  0  0  0  0  0  0  0  0  0  0  0
   -1.6985    3.5486    2.6877 C   0  0  0  0  0  0  0  0  0  0  0  0
   11.8651   -1.9967   -2.0408 C   0  0  0  0  0  0  0  0  0  0  0  0
   -0.4219    1.6675    3.5970 C   0  0  0  0  0  0  0  0  0  0  0  0
  1  6  2  0  0  0  0
  2  3  2  0  0  0  0
  2  1  1  0  0  0  0
  3  4  1  0  0  0  0
  4 10  1  0  0  0  0
  4  5  2  0  0  0  0
  6  5  1  0  0  0  0
  7  1  1  0  0  0  0
  7 11  1  0  0  0  0
  8  7  2  0  0  0  0
  9 10  2  0  0  0  0
 10 12  1  0  0  0  0
 12 14  1  0  0  0  0
 13 11  1  0  0  0  0
 13 15  1  0  0  0  0
 14 16  1  0  0  0  0
 16 18  1  0  0  0  0
 17 15  1  0  0  0  0
 17 19  1  0  0  0  0
 18 20  1  0  0  0  0
 19 23  1  0  0  0  0
 20 22  1  0  0  0  0
 20 24  1  0  0  0  0
 21 19  1  0  0  0  0
M  END
>  <CHROM.1>
-20.67839953,-7.78959348,164.18104525,27.34913785,82.67169507,98.16338318
172.70251952,131.53331710,-172.82716612,-116.84436560,5.03834791,-0.26690340
-0.96572200,0.25652083,0.51054507,-1.56180720

>  <Name>
lig.pdb

>  <RI>
1.56215e+07

>  <Rbt.Current_Directory>
/home/itssahil/PROJECTS/Mol_Feturizer/New_Systems/rnas/2l94

>  <Rbt.Executable>
rbdock ($Id: //depot/dev/client3/rdock/2013.1/src/exe/rbdock.cxx#4 $)

>  <Rbt.Library>
libRbt.so (2013.1, Build901 2013/11/27)

>  <Rbt.Parameter_File>
/export/apps/rDock/src/rDock_2013.1_src/data/scripts/dock_solv.prm

>  <Rbt.Receptor>
prm/pocket_docking_2.prm

>  <SCORE>
-6.02737

>  <SCORE.INTER>
-13.2313

>  <SCORE.INTER.CONST>
1

>  <SCORE.INTER.POLAR>
-1.86615

>  <SCORE.INTER.ROT>
10

>  <SCORE.INTER.SOLV>
8.07732

>  <SCORE.INTER.VDW>
-15.5594

>  <SCORE.INTER.norm>
-0.551303

>  <SCORE.INTRA>
7.20278

>  <SCORE.INTRA.DIHEDRAL>
13.5809

>  <SCORE.INTRA.DIHEDRAL.0>
7.52971

>  <SCORE.INTRA.POLAR>
0

>  <SCORE.INTRA.POLAR.0>
0

>  <SCORE.INTRA.REPUL>
0

>  <SCORE.INTRA.REPUL.0>
0

>  <SCORE.INTRA.SOLV>
0.404372

>  <SCORE.INTRA.SOLV.lig_0>
-22.1084

>  <SCORE.INTRA.VDW>
0.210172

>  <SCORE.INTRA.VDW.0>
2.4256

>  <SCORE.INTRA.norm>
0.300116

>  <SCORE.RESTR>
0.00110371

>  <SCORE.RESTR.CAVITY>
0.00110371

>  <SCORE.RESTR.norm>
4.59879e-05

>  <SCORE.SYSTEM>
0

>  <SCORE.SYSTEM.CONST>
0

>  <SCORE.SYSTEM.DIHEDRAL>
0

>  <SCORE.SYSTEM.SOLV>
0

>  <SCORE.SYSTEM.norm>
0

>  <SCORE.heavy>
24

>  <SCORE.norm>
-0.251141

>  <RMSD>
1.329

$$$$
lig.pdb
 OpenBabel11021811453D
libRbt.so/2013.1/901 2013/11/27
 24 24  0  0  0  0  0  0  0  0999 V2000
    5.7381   -1.4842   -2.2255 C   0  0  0  0  0  0  0  0  0  0  0  0
    5.2747   -0.6107   -3.2663 C   0  0  0  0  0  0  0  0  0  0  0  0
    4.5453    0.5213   -2.9895 C   0  0  0  0  0  0  0  0  0  0  0  0
    4.2168    0.8957   -1.6474 C   0  0  0  0  0  0  0  0  0  0  0  0
    4.6512    0.0047   -0.6114 C   0  0  0  0  0  0  0  0  0  0  0  0
    5.3725   -1.1299   -0.8872 C   0  0  0  0  0  0  0  0  0  0  0  0
    6.4902   -2.5935   -2.4870 C   0  0  0  0  0  0  0  0  0  0  0  0
    7.1209   -2.7879   -3.6650 N   0  0  0  0  0  0  0  0  0  0  0  0
    2.7712    2.6956   -2.2629 N   0  0  0  0  0  0  0  0  0  0  0  0
    3.5253    2.0352   -1.3589 C   0  0  0  0  0  0  0  0  0  0  0  0
    6.6638   -3.5850   -1.5782 N   0  0  0  0  0  0  0  0  0  0  0  0
    3.5393    2.6049   -0.1304 N   0  0  0  0  0  0  0  0  0  0  0  0
    7.8724   -4.3813   -1.3746 C   0  0  0  0  0  0  0  0  0  0  0  0
    2.5364    3.5197    0.4060 C   0  0  0  0  0  0  0  0  0  0  0  0
    8.8745   -3.5289   -0.5795 C   0  0  0  0  0  0  0  0  0  0  0  0
    1.2415    2.7189    0.6380 C   0  0  0  0  0  0  0  0  0  0  0  0
    9.7091   -2.6457   -1.5173 C   0  0  0  0  0  0  0  0  0  0  0  0
    0.3544    3.3300    1.7377 C   0  0  0  0  0  0  0  0  0  0  0  0
   11.1157   -2.5447   -0.9852 N   0  0  0  0  0  0  0  0  0  0  0  0
   -0.9183    2.5429    1.9232 N   0  0  0  0  0  0  0  0  0  0  0  0
   11.1670   -1.5532    0.1451 C   0  0  0  0  0  0  0  0  0  0  0  0
   -1.8707    3.3503    2.7637 C   0  0  0  0  0  0  0  0  0  0  0  0
   12.0729   -2.1226   -2.0722 C   0  0  0  0  0  0  0  0  0  0  0  0
   -0.6754    1.2202    2.5949 C   0  0  0  0  0  0  0  0  0  0  0  0
  1  6  2  0  0  0  0
  2  3  2  0  0  0  0
  2  1  1  0  0  0  0
  3  4  1  0  0  0  0
  4 10  1  0  0  0  0
  4  5  2  0  0  0  0
  6  5  1  0  0  0  0
  7  1  1  0  0  0  0
  7 11  1  0  0  0  0
  8  7  2  0  0  0  0
  9 10  2  0  0  0  0
 10 12  1  0  0  0  0
 12 14  1  0  0  0  0
 13 11  1  0  0  0  0
 13 15  1  0  0  0  0
 14 16  1  0  0  0  0
 16 18  1  0  0  0  0
 17 15  1  0  0  0  0
 17 19  1  0  0  0  0
 18 20  1  0  0  0  0
 19 23  1  0  0  0  0
 20 22  1  0  0  0  0
 20 24  1  0  0  0  0
 21 19  1  0  0  0  0
M  END
>  <CHROM.1>
19.64689991,16.29359143,69.26419345,77.89563022,-86.16185730,153.95344615
178.80983354,-143.65128831,-78.69456918,-167.06076056,5.06040254,-0.14078471
-0.77040381,0.28853014,0.52716908,-1.62779805

>  <Name>
lig.pdb

>  <RI>
1.56215e+07

>  <Rbt.Current_Directory>
/home/itssahil/PROJECTS/Mol_Feturizer/New_Systems/rnas/2l94

>  <Rbt.Executable>
rbdock ($Id: //depot/dev/client3/rdock/2013.1/src/exe/rbdock.cxx#4 $)

>  <Rbt.Library>
libRbt.so (2013.1, Build901 2013/11/27)

>  <Rbt.Parameter_File>
/export/apps/rDock/src/rDock_2013.1_src/data/scripts/dock_solv.prm

>  <Rbt.Receptor>
prm/pocket_docking_2.prm

>  <SCORE>
-17.3017

>  <SCORE.INTER>
-18.9833

>  <SCORE.INTER.CONST>
1

>  <SCORE.INTER.POLAR>
-2.71277

>  <SCORE.INTER.ROT>
10

>  <SCORE.INTER.SOLV>
8.28146

>  <SCORE.INTER.VDW>
-16.6401

>  <SCORE.INTER.norm>
-0.790973

>  <SCORE.INTRA>
1.5873

>  <SCORE.INTRA.DIHEDRAL>
9.07142

>  <SCORE.INTRA.DIHEDRAL.0>
7.52971

>  <SCORE.INTRA.POLAR>
0

>  <SCORE.INTRA.POLAR.0>
0

>  <SCORE.INTRA.REPUL>
0

>  <SCORE.INTRA.REPUL.0>
0

>  <SCORE.INTRA.SOLV>
0.419805

>  <SCORE.INTRA.SOLV.lig_0>
-22.1084

>  <SCORE.INTRA.VDW>
-3.15831

>  <SCORE.INTRA.VDW.0>
2.4256

>  <SCORE.INTRA.norm>
0.0661375

>  <SCORE.RESTR>
0.0943283

>  <SCORE.RESTR.CAVITY>
0.0943283

>  <SCORE.RESTR.norm>
0.00393034

>  <SCORE.SYSTEM>
0

>  <SCORE.SYSTEM.CONST>
0

>  <SCORE.SYSTEM.DIHEDRAL>
0

>  <SCORE.SYSTEM.SOLV>
0

>  <SCORE.SYSTEM.norm>
0

>  <SCORE.heavy>
24

>  <SCORE.norm>
-0.720905

>  <RMSD>
1.345

$$$$
lig.pdb
 OpenBabel11021811453D
libRbt.so/2013.1/901 2013/11/27
 24 24  0  0  0  0  0  0  0  0999 V2000
    3.9149    0.9313   -1.6459 C   0  0  0  0  0  0  0  0  0  0  0  0
    3.7061    0.0233   -2.7381 C   0  0  0  0  0  0  0  0  0  0  0  0
    4.4005   -1.1589   -2.8391 C   0  0  0  0  0  0  0  0  0  0  0  0
    5.3625   -1.5533   -1.8550 C   0  0  0  0  0  0  0  0  0  0  0  0
    5.5944   -0.6300   -0.7828 C   0  0  0  0  0  0  0  0  0  0  0  0
    4.9076    0.5542   -0.6853 C   0  0  0  0  0  0  0  0  0  0  0  0
    3.2079    2.0927   -1.5191 C   0  0  0  0  0  0  0  0  0  0  0  0
    2.3363    2.5237   -2.4559 N   0  0  0  0  0  0  0  0  0  0  0  0
    5.9087   -3.6008   -2.9586 N   0  0  0  0  0  0  0  0  0  0  0  0
    6.0305   -2.7401   -1.9259 C   0  0  0  0  0  0  0  0  0  0  0  0
    3.3257    2.9010   -0.4366 N   0  0  0  0  0  0  0  0  0  0  0  0
    6.8782   -3.1583   -0.9561 N   0  0  0  0  0  0  0  0  0  0  0  0
    2.2611    3.6820    0.1903 C   0  0  0  0  0  0  0  0  0  0  0  0
    7.9464   -4.1409   -1.1111 C   0  0  0  0  0  0  0  0  0  0  0  0
    1.3649    2.7147    0.9804 C   0  0  0  0  0  0  0  0  0  0  0  0
    9.2832   -3.4378   -0.8102 C   0  0  0  0  0  0  0  0  0  0  0  0
    0.4232    3.4817    1.9190 C   0  0  0  0  0  0  0  0  0  0  0  0
    9.5859   -2.2922   -1.7930 C   0  0  0  0  0  0  0  0  0  0  0  0
   -0.6988    2.5725    2.3505 N   0  0  0  0  0  0  0  0  0  0  0  0
   10.8739   -1.5899   -1.4444 N   0  0  0  0  0  0  0  0  0  0  0  0
   -1.8612    3.3903    2.8439 C   0  0  0  0  0  0  0  0  0  0  0  0
   12.0221   -2.5325   -1.6865 C   0  0  0  0  0  0  0  0  0  0  0  0
   -0.2420    1.6339    3.4397 C   0  0  0  0  0  0  0  0  0  0  0  0
   10.9055   -1.1401   -0.0103 C   0  0  0  0  0  0  0  0  0  0  0  0
  1  6  2  0  0  0  0
  2  3  2  0  0  0  0
  2  1  1  0  0  0  0
  3  4  1  0  0  0  0
  4 10  1  0  0  0  0
  4  5  2  0  0  0  0
  6  5  1  0  0  0  0
  7  1  1  0  0  0  0
  7 11  1  0  0  0  0
  8  7  2  0  0  0  0
  9 10  2  0  0  0  0
 10 12  1  0  0  0  0
 12 14  1  0  0  0  0
 13 11  1  0  0  0  0
 13 15  1  0  0  0  0
 14 16  1  0  0  0  0
 16 18  1  0  0  0  0
 17 15  1  0  0  0  0
 17 19  1  0  0  0  0
 18 20  1  0  0  0  0
 19 23  1  0  0  0  0
 20 22  1  0  0  0  0
 20 24  1  0  0  0  0
 21 19  1  0  0  0  0
M  END
>  <CHROM.1>
4.21699813,-5.10810151,118.02312044,74.79180804,167.06487117,-62.32695349
177.89762224,162.91587024,-159.95447248,67.86038046,4.89893006,-0.04917457
-0.62591145,2.61122796,-0.30036507,0.94921683

>  <Name>
lig.pdb

>  <RI>
1.56215e+07

>  <Rbt.Current_Directory>
/home/itssahil/PROJECTS/Mol_Feturizer/New_Systems/rnas/2l94

>  <Rbt.Executable>
rbdock ($Id: //depot/dev/client3/rdock/2013.1/src/exe/rbdock.cxx#4 $)

>  <Rbt.Library>
libRbt.so (2013.1, Build901 2013/11/27)

>  <Rbt.Parameter_File>
/export/apps/rDock/src/rDock_2013.1_src/data/scripts/dock_solv.prm

>  <Rbt.Receptor>
prm/pocket_docking_2.prm

>  <SCORE>
-7.23459

>  <SCORE.INTER>
-7.57115

>  <SCORE.INTER.CONST>
1

>  <SCORE.INTER.POLAR>
-0.774597

>  <SCORE.INTER.ROT>
10

>  <SCORE.INTER.SOLV>
6.71661

>  <SCORE.INTER.VDW>
-14.971

>  <SCORE.INTER.norm>
-0.315465

>  <SCORE.INTRA>
0.335736

>  <SCORE.INTRA.DIHEDRAL>
0.107132

>  <SCORE.INTRA.DIHEDRAL.0>
7.52971

>  <SCORE.INTRA.POLAR>
0

>  <SCORE.INTRA.POLAR.0>
0

>  <SCORE.INTRA.REPUL>
0

>  <SCORE.INTRA.REPUL.0>
0

>  <SCORE.INTRA.SOLV>
0.212954

>  <SCORE.INTRA.SOLV.lig_0>
-22.1084

>  <SCORE.INTRA.VDW>
0.175693

>  <SCORE.INTRA.VDW.0>
2.4256

>  <SCORE.INTRA.norm>
0.013989

>  <SCORE.RESTR>
0.000820453

>  <SCORE.RESTR.CAVITY>
0.000820453

>  <SCORE.RESTR.norm>
3.41855e-05

>  <SCORE.SYSTEM>
0

>  <SCORE.SYSTEM.CONST>
0

>  <SCORE.SYSTEM.DIHEDRAL>
0

>  <SCORE.SYSTEM.SOLV>
0

>  <SCORE.SYSTEM.norm>
0

>  <SCORE.heavy>
24

>  <SCORE.norm>
-0.301441

>  <RMSD>
1.389

$$$$
lig.pdb
 OpenBabel11021811453D
libRbt.so/2013.1/901 2013/11/27
 24 24  0  0  0  0  0  0  0  0999 V2000
    5.1645   -1.9704   -2.3239 C   0  0  0  0  0  0  0  0  0  0  0  0
    3.9839   -1.8033   -3.1234 C   0  0  0  0  0  0  0  0  0  0  0  0
    3.1805   -0.6940   -3.0043 C   0  0  0  0  0  0  0  0  0  0  0  0
    3.4834    0.3595   -2.0834 C   0  0  0  0  0  0  0  0  0  0  0  0
    4.6440    0.1754   -1.2620 C   0  0  0  0  0  0  0  0  0  0  0  0
    5.4423   -0.9354   -1.3743 C   0  0  0  0  0  0  0  0  0  0  0  0
    5.9865   -3.0528   -2.4566 C   0  0  0  0  0  0  0  0  0  0  0  0
    5.9283   -3.8893   -3.5149 N   0  0  0  0  0  0  0  0  0  0  0  0
    1.4764    1.5828   -2.5123 N   0  0  0  0  0  0  0  0  0  0  0  0
    2.7139    1.4808   -1.9828 C   0  0  0  0  0  0  0  0  0  0  0  0
    6.9291   -3.3673   -1.5338 N   0  0  0  0  0  0  0  0  0  0  0  0
    3.1319    2.5962   -1.3385 N   0  0  0  0  0  0  0  0  0  0  0  0
    8.2484   -3.9404   -1.7932 C   0  0  0  0  0  0  0  0  0  0  0  0
    2.2780    3.6474   -0.7941 C   0  0  0  0  0  0  0  0  0  0  0  0
    9.2510   -3.2774   -0.8349 C   0  0  0  0  0  0  0  0  0  0  0  0
    2.1003    3.3798    0.7121 C   0  0  0  0  0  0  0  0  0  0  0  0
   10.2732   -2.4329   -1.6082 C   0  0  0  0  0  0  0  0  0  0  0  0
    0.9630    2.3856    1.0085 C   0  0  0  0  0  0  0  0  0  0  0  0
   11.5680   -2.3900   -0.8379 N   0  0  0  0  0  0  0  0  0  0  0  0
    0.2819    2.6978    2.3170 N   0  0  0  0  0  0  0  0  0  0  0  0
   11.4211   -1.4962    0.3634 C   0  0  0  0  0  0  0  0  0  0  0  0
    0.1776    1.4319    3.1245 C   0  0  0  0  0  0  0  0  0  0  0  0
   12.6945   -1.8883   -1.7070 C   0  0  0  0  0  0  0  0  0  0  0  0
   -1.0959    3.2654    2.1190 C   0  0  0  0  0  0  0  0  0  0  0  0
  1  6  2  0  0  0  0
  2  3  2  0  0  0  0
  2  1  1  0  0  0  0
  3  4  1  0  0  0  0
  4 10  1  0  0  0  0
  4  5  2  0  0  0  0
  6  5  1  0  0  0  0
  7  1  1  0  0  0  0
  7 11  1  0  0  0  0
  8  7  2  0  0  0  0
  9 10  2  0  0  0  0
 10 12  1  0  0  0  0
 12 14  1  0  0  0  0
 13 11  1  0  0  0  0
 13 15  1  0  0  0  0
 14 16  1  0  0  0  0
 16 18  1  0  0  0  0
 17 15  1  0  0  0  0
 17 19  1  0  0  0  0
 18 20  1  0  0  0  0
 19 23  1  0  0  0  0
 20 22  1  0  0  0  0
 20 24  1  0  0  0  0
 21 19  1  0  0  0  0
M  END
>  <CHROM.1>
14.37337135,14.59447029,97.88174712,141.03345842,-114.21948792,-84.79717114
-147.43434606,-151.28402119,-73.42559200,-131.14182412,5.03501724,-0.32293356
-0.96549841,0.49128231,0.28621901,-2.27097305

>  <Name>
lig.pdb

>  <RI>
1.56215e+07

>  <Rbt.Current_Directory>
/home/itssahil/PROJECTS/Mol_Feturizer/New_Systems/rnas/2l94

>  <Rbt.Executable>
rbdock ($Id: //depot/dev/client3/rdock/2013.1/src/exe/rbdock.cxx#4 $)

>  <Rbt.Library>
libRbt.so (2013.1, Build901 2013/11/27)

>  <Rbt.Parameter_File>
/export/apps/rDock/src/rDock_2013.1_src/data/scripts/dock_solv.prm

>  <Rbt.Receptor>
prm/pocket_docking_2.prm

>  <SCORE>
-5.08569

>  <SCORE.INTER>
-10.5696

>  <SCORE.INTER.CONST>
1

>  <SCORE.INTER.POLAR>
-1.11355

>  <SCORE.INTER.ROT>
10

>  <SCORE.INTER.SOLV>
9.10495

>  <SCORE.INTER.VDW>
-16.6362

>  <SCORE.INTER.norm>
-0.440399

>  <SCORE.INTRA>
5.16923

>  <SCORE.INTRA.DIHEDRAL>
15.7346

>  <SCORE.INTRA.DIHEDRAL.0>
7.52971

>  <SCORE.INTRA.POLAR>
0

>  <SCORE.INTRA.POLAR.0>
0

>  <SCORE.INTRA.REPUL>
0

>  <SCORE.INTRA.REPUL.0>
0

>  <SCORE.INTRA.SOLV>
0.199054

>  <SCORE.INTRA.SOLV.lig_0>
-22.1084

>  <SCORE.INTRA.VDW>
-2.79762

>  <SCORE.INTRA.VDW.0>
2.4256

>  <SCORE.INTRA.norm>
0.215385

>  <SCORE.RESTR>
0.314669

>  <SCORE.RESTR.CAVITY>
0.314669

>  <SCORE.RESTR.norm>
0.0131112

>  <SCORE.SYSTEM>
0

>  <SCORE.SYSTEM.CONST>
0

>  <SCORE.SYSTEM.DIHEDRAL>
0

>  <SCORE.SYSTEM.SOLV>
0

>  <SCORE.SYSTEM.norm>
0

>  <SCORE.heavy>
24

>  <SCORE.norm>
-0.211904

>  <RMSD>
1.420

$$$$
lig.pdb
 OpenBabel11021811453D
libRbt.so/2013.1/901 2013/11/27
 24 24  0  0  0  0  0  0  0  0999 V2000
    5.7825   -1.8510   -2.2443 C   0  0  0  0  0  0  0  0  0  0  0  0
    4.7089   -2.2259   -1.3679 C   0  0  0  0  0  0  0  0  0  0  0  0
    3.5946   -1.4362   -1.2100 C   0  0  0  0  0  0  0  0  0  0  0  0
    3.4400   -0.2020   -1.9186 C   0  0  0  0  0  0  0  0  0  0  0  0
    4.5279    0.1875   -2.7675 C   0  0  0  0  0  0  0  0  0  0  0  0
    5.6444   -0.5961   -2.9197 C   0  0  0  0  0  0  0  0  0  0  0  0
    6.8788   -2.6430   -2.4327 C   0  0  0  0  0  0  0  0  0  0  0  0
    7.5883   -2.6478   -3.5815 N   0  0  0  0  0  0  0  0  0  0  0  0
    1.0820    0.0642   -1.6409 N   0  0  0  0  0  0  0  0  0  0  0  0
    2.3232    0.5711   -1.7973 C   0  0  0  0  0  0  0  0  0  0  0  0
    7.3412   -3.4844   -1.4749 N   0  0  0  0  0  0  0  0  0  0  0  0
    2.3669    1.9244   -1.8258 N   0  0  0  0  0  0  0  0  0  0  0  0
    8.7390   -3.8107   -1.1997 C   0  0  0  0  0  0  0  0  0  0  0  0
    1.3602    2.8302   -1.2813 C   0  0  0  0  0  0  0  0  0  0  0  0
    9.4837   -2.4988   -0.9045 C   0  0  0  0  0  0  0  0  0  0  0  0
    1.9976    3.5943   -0.1059 C   0  0  0  0  0  0  0  0  0  0  0  0
   10.9970   -2.7365   -0.8074 C   0  0  0  0  0  0  0  0  0  0  0  0
    1.7120    2.9352    1.2556 C   0  0  0  0  0  0  0  0  0  0  0  0
   11.7029   -1.4100   -0.6898 N   0  0  0  0  0  0  0  0  0  0  0  0
    0.2599    3.0663    1.6402 N   0  0  0  0  0  0  0  0  0  0  0  0
   13.1509   -1.5638   -1.0682 C   0  0  0  0  0  0  0  0  0  0  0  0
    0.1698    3.3007    3.1243 C   0  0  0  0  0  0  0  0  0  0  0  0
   11.6019   -0.8696    0.7151 C   0  0  0  0  0  0  0  0  0  0  0  0
   -0.5334    1.8381    1.2909 C   0  0  0  0  0  0  0  0  0  0  0  0
  1  6  2  0  0  0  0
  2  3  2  0  0  0  0
  2  1  1  0  0  0  0
  3  4  1  0  0  0  0
  4 10  1  0  0  0  0
  4  5  2  0  0  0  0
  6  5  1  0  0  0  0
  7  1  1  0  0  0  0
  7 11  1  0  0  0  0
  8  7  2  0  0  0  0
  9 10  2  0  0  0  0
 10 12  1  0  0  0  0
 12 14  1  0  0  0  0
 13 11  1  0  0  0  0
 13 15  1  0  0  0  0
 14 16  1  0  0  0  0
 16 18  1  0  0  0  0
 17 15  1  0  0  0  0
 17 19  1  0  0  0  0
 18 20  1  0  0  0  0
 19 23  1  0  0  0  0
 20 22  1  0  0  0  0
 20 24  1  0  0  0  0
 21 19  1  0  0  0  0
M  END
>  <CHROM.1>
-35.44532275,151.09875764,113.95035245,57.18797266,-171.71943408,-94.81835213
-69.37065240,173.00093054,-160.45542684,-142.45170030,5.26748287,-0.28622656
-0.92344414,0.41800339,0.23861516,-2.32661355

>  <Name>
lig.pdb

>  <RI>
1.09765e+07

>  <Rbt.Current_Directory>
/home/itssahil/PROJECTS/Mol_Feturizer/New_Systems/rnas/2l94

>  <Rbt.Executable>
rbdock ($Id: //depot/dev/client3/rdock/2013.1/src/exe/rbdock.cxx#4 $)

>  <Rbt.Library>
libRbt.so (2013.1, Build901 2013/11/27)

>  <Rbt.Parameter_File>
/export/apps/rDock/src/rDock_2013.1_src/data/scripts/dock_solv.prm

>  <Rbt.Receptor>
prm/pocket_docking_3.prm

>  <SCORE>
-16.1577

>  <SCORE.INTER>
-18.7842

>  <SCORE.INTER.CONST>
1

>  <SCORE.INTER.POLAR>
-2.68921

>  <SCORE.INTER.ROT>
10

>  <SCORE.INTER.SOLV>
8.85754

>  <SCORE.INTER.VDW>
-16.778

>  <SCORE.INTER.norm>
-0.782675

>  <SCORE.INTRA>
2.6238

>  <SCORE.INTRA.DIHEDRAL>
11.9811

>  <SCORE.INTRA.DIHEDRAL.0>
7.52971

>  <SCORE.INTRA.POLAR>
0

>  <SCORE.INTRA.POLAR.0>
0

>  <SCORE.INTRA.REPUL>
0

>  <SCORE.INTRA.REPUL.0>
0

>  <SCORE.INTRA.SOLV>
0.498754

>  <SCORE.INTRA.SOLV.lig_0>
-22.1084

>  <SCORE.INTRA.VDW>
-3.61612

>  <SCORE.INTRA.VDW.0>
2.4256

>  <SCORE.INTRA.norm>
0.109325

>  <SCORE.RESTR>
0.00265346

>  <SCORE.RESTR.CAVITY>
0.00265346

>  <SCORE.RESTR.norm>
0.000110561

>  <SCORE.SYSTEM>
0

>  <SCORE.SYSTEM.CONST>
0

>  <SCORE.SYSTEM.DIHEDRAL>
0

>  <SCORE.SYSTEM.SOLV>
0

>  <SCORE.SYSTEM.norm>
0

>  <SCORE.heavy>
24

>  <SCORE.norm>
-0.673239

>  <RMSD>
1.431

$$$$
lig.pdb
 OpenBabel11021811453D
libRbt.so/2013.1/901 2013/11/27
 24 24  0  0  0  0  0  0  0  0999 V2000
    4.4710    0.8819   -1.8341 C   0  0  0  0  0  0  0  0  0  0  0  0
    4.4857    0.1185   -3.0498 C   0  0  0  0  0  0  0  0  0  0  0  0
    5.1112   -1.1032   -3.1295 C   0  0  0  0  0  0  0  0  0  0  0  0
    5.7733   -1.6849   -2.0014 C   0  0  0  0  0  0  0  0  0  0  0  0
    5.7869   -0.9063   -0.7975 C   0  0  0  0  0  0  0  0  0  0  0  0
    5.1697    0.3171   -0.7191 C   0  0  0  0  0  0  0  0  0  0  0  0
    3.8257    2.0813   -1.7352 C   0  0  0  0  0  0  0  0  0  0  0  0
    3.0074    2.5527   -2.7002 N   0  0  0  0  0  0  0  0  0  0  0  0
    6.4095   -3.6639   -3.1791 N   0  0  0  0  0  0  0  0  0  0  0  0
    6.3655   -2.9120   -2.0590 C   0  0  0  0  0  0  0  0  0  0  0  0
    3.9558    2.8899   -0.6543 N   0  0  0  0  0  0  0  0  0  0  0  0
    6.9627   -3.4841   -0.9866 N   0  0  0  0  0  0  0  0  0  0  0  0
    2.9177    3.7327   -0.0641 C   0  0  0  0  0  0  0  0  0  0  0  0
    7.9758   -4.5342   -1.0235 C   0  0  0  0  0  0  0  0  0  0  0  0
    2.3911    3.0258    1.1952 C   0  0  0  0  0  0  0  0  0  0  0  0
    9.2948   -3.9023   -1.5058 C   0  0  0  0  0  0  0  0  0  0  0  0
    0.8961    2.7053    1.0601 C   0  0  0  0  0  0  0  0  0  0  0  0
    9.8026   -2.7958   -0.5636 C   0  0  0  0  0  0  0  0  0  0  0  0
    0.3672    2.2281    2.3884 N   0  0  0  0  0  0  0  0  0  0  0  0
   11.2716   -2.5251   -0.7689 N   0  0  0  0  0  0  0  0  0  0  0  0
   -0.8950    1.4355    2.1833 C   0  0  0  0  0  0  0  0  0  0  0  0
   11.7273   -1.5177    0.2524 C   0  0  0  0  0  0  0  0  0  0  0  0
    0.0898    3.3926    3.3066 C   0  0  0  0  0  0  0  0  0  0  0  0
   11.5644   -1.9928   -2.1440 C   0  0  0  0  0  0  0  0  0  0  0  0
  1  6  2  0  0  0  0
  2  3  2  0  0  0  0
  2  1  1  0  0  0  0
  3  4  1  0  0  0  0
  4 10  1  0  0  0  0
  4  5  2  0  0  0  0
  6  5  1  0  0  0  0
  7  1  1  0  0  0  0
  7 11  1  0  0  0  0
  8  7  2  0  0  0  0
  9 10  2  0  0  0  0
 10 12  1  0  0  0  0
 12 14  1  0  0  0  0
 13 11  1  0  0  0  0
 13 15  1  0  0  0  0
 14 16  1  0  0  0  0
 16 18  1  0  0  0  0
 17 15  1  0  0  0  0
 17 19  1  0  0  0  0
 18 20  1  0  0  0  0
 19 23  1  0  0  0  0
 20 22  1  0  0  0  0
 20 24  1  0  0  0  0
 21 19  1  0  0  0  0
M  END
>  <CHROM.1>
1.71793337,9.28599068,72.98072372,102.21085169,-118.60916937,61.26165607
160.53851094,-170.61632900,-158.66931034,-175.52454342,5.37482374,-0.23083400
-0.72675125,2.63079805,-0.39402331,1.01393717

>  <Name>
lig.pdb

>  <RI>
1.56215e+07

>  <Rbt.Current_Directory>
/home/itssahil/PROJECTS/Mol_Feturizer/New_Systems/rnas/2l94

>  <Rbt.Executable>
rbdock ($Id: //depot/dev/client3/rdock/2013.1/src/exe/rbdock.cxx#4 $)

>  <Rbt.Library>
libRbt.so (2013.1, Build901 2013/11/27)

>  <Rbt.Parameter_File>
/export/apps/rDock/src/rDock_2013.1_src/data/scripts/dock_solv.prm

>  <Rbt.Receptor>
prm/pocket_docking_2.prm

>  <SCORE>
-12.0878

>  <SCORE.INTER>
-12.9045

>  <SCORE.INTER.CONST>
1

>  <SCORE.INTER.POLAR>
-1.88494

>  <SCORE.INTER.ROT>
10

>  <SCORE.INTER.SOLV>
8.35138

>  <SCORE.INTER.VDW>
-15.3703

>  <SCORE.INTER.norm>
-0.537689

>  <SCORE.INTRA>
0.77205

>  <SCORE.INTRA.DIHEDRAL>
5.78246

>  <SCORE.INTRA.DIHEDRAL.0>
7.52971

>  <SCORE.INTRA.POLAR>
0

>  <SCORE.INTRA.POLAR.0>
0

>  <SCORE.INTRA.REPUL>
0

>  <SCORE.INTRA.REPUL.0>
0

>  <SCORE.INTRA.SOLV>
0.341985

>  <SCORE.INTRA.SOLV.lig_0>
-22.1084

>  <SCORE.INTRA.VDW>
-2.29017

>  <SCORE.INTRA.VDW.0>
2.4256

>  <SCORE.INTRA.norm>
0.0321688

>  <SCORE.RESTR>
0.0447233

>  <SCORE.RESTR.CAVITY>
0.0447233

>  <SCORE.RESTR.norm>
0.00186347

>  <SCORE.SYSTEM>
0

>  <SCORE.SYSTEM.CONST>
0

>  <SCORE.SYSTEM.DIHEDRAL>
0

>  <SCORE.SYSTEM.SOLV>
0

>  <SCORE.SYSTEM.norm>
0

>  <SCORE.heavy>
24

>  <SCORE.norm>
-0.503657

>  <RMSD>
1.433

$$$$
lig.pdb
 OpenBabel11021811453D
libRbt.so/2013.1/901 2013/11/27
 24 24  0  0  0  0  0  0  0  0999 V2000
    5.9323   -0.9200   -2.0111 C   0  0  0  0  0  0  0  0  0  0  0  0
    5.5694    0.0415   -3.0135 C   0  0  0  0  0  0  0  0  0  0  0  0
    4.8121    1.1490   -2.7133 C   0  0  0  0  0  0  0  0  0  0  0  0
    4.3527    1.4086   -1.3825 C   0  0  0  0  0  0  0  0  0  0  0  0
    4.6874    0.4303   -0.3893 C   0  0  0  0  0  0  0  0  0  0  0  0
    5.4365   -0.6799   -0.6895 C   0  0  0  0  0  0  0  0  0  0  0  0
    6.7105   -2.0063   -2.2921 C   0  0  0  0  0  0  0  0  0  0  0  0
    7.3062   -2.1885   -3.4901 N   0  0  0  0  0  0  0  0  0  0  0  0
    3.9595    3.7630   -1.4854 N   0  0  0  0  0  0  0  0  0  0  0  0
    3.6320    2.5223   -1.0664 C   0  0  0  0  0  0  0  0  0  0  0  0
    6.9476   -2.9852   -1.3840 N   0  0  0  0  0  0  0  0  0  0  0  0
    2.5184    2.4757   -0.2972 N   0  0  0  0  0  0  0  0  0  0  0  0
    8.1877   -3.7407   -1.2178 C   0  0  0  0  0  0  0  0  0  0  0  0
    1.4547    3.4746   -0.2605 C   0  0  0  0  0  0  0  0  0  0  0  0
    8.9365   -3.1636   -0.0057 C   0  0  0  0  0  0  0  0  0  0  0  0
    0.9855    3.6126    1.1998 C   0  0  0  0  0  0  0  0  0  0  0  0
   10.4513   -3.1468   -0.2533 C   0  0  0  0  0  0  0  0  0  0  0  0
    0.0524    2.4680    1.6344 C   0  0  0  0  0  0  0  0  0  0  0  0
   10.8037   -1.9523   -1.1023 N   0  0  0  0  0  0  0  0  0  0  0  0
   -0.5308    2.7184    3.0022 N   0  0  0  0  0  0  0  0  0  0  0  0
   12.0479   -2.2378   -1.8985 C   0  0  0  0  0  0  0  0  0  0  0  0
   -1.0165    1.4117    3.5698 C   0  0  0  0  0  0  0  0  0  0  0  0
   11.0205   -0.7292   -0.2462 C   0  0  0  0  0  0  0  0  0  0  0  0
   -1.6777    3.6894    2.9617 C   0  0  0  0  0  0  0  0  0  0  0  0
  1  6  2  0  0  0  0
  2  3  2  0  0  0  0
  2  1  1  0  0  0  0
  3  4  1  0  0  0  0
  4 10  1  0  0  0  0
  4  5  2  0  0  0  0
  6  5  1  0  0  0  0
  7  1  1  0  0  0  0
  7 11  1  0  0  0  0
  8  7  2  0  0  0  0
  9 10  2  0  0  0  0
 10 12  1  0  0  0  0
 12 14  1  0  0  0  0
 13 11  1  0  0  0  0
 13 15  1  0  0  0  0
 14 16  1  0  0  0  0
 16 18  1  0  0  0  0
 17 15  1  0  0  0  0
 17 19  1  0  0  0  0
 18 20  1  0  0  0  0
 19 23  1  0  0  0  0
 20 22  1  0  0  0  0
 20 24  1  0  0  0  0
 21 19  1  0  0  0  0
M  END
>  <CHROM.1>
-45.70672328,6.85211183,-141.91919703,101.92745678,-142.30767862,-78.26981742
-172.71371477,80.14728469,-152.46335797,-160.34384240,5.10955185,0.23442808
-0.48984106,-0.05816383,0.57770477,-0.94173293

>  <Name>
lig.pdb

>  <RI>
1.56215e+07

>  <Rbt.Current_Directory>
/home/itssahil/PROJECTS/Mol_Feturizer/New_Systems/rnas/2l94

>  <Rbt.Executable>
rbdock ($Id: //depot/dev/client3/rdock/2013.1/src/exe/rbdock.cxx#4 $)

>  <Rbt.Library>
libRbt.so (2013.1, Build901 2013/11/27)

>  <Rbt.Parameter_File>
/export/apps/rDock/src/rDock_2013.1_src/data/scripts/dock_solv.prm

>  <Rbt.Receptor>
prm/pocket_docking_2.prm

>  <SCORE>
-4.30918

>  <SCORE.INTER>
-7.5817

>  <SCORE.INTER.CONST>
1

>  <SCORE.INTER.POLAR>
-1.36971

>  <SCORE.INTER.ROT>
10

>  <SCORE.INTER.SOLV>
5.75336

>  <SCORE.INTER.VDW>
-12.6732

>  <SCORE.INTER.norm>
-0.315904

>  <SCORE.INTRA>
3.00982

>  <SCORE.INTRA.DIHEDRAL>
12.935

>  <SCORE.INTRA.DIHEDRAL.0>
7.52971

>  <SCORE.INTRA.POLAR>
0

>  <SCORE.INTRA.POLAR.0>
0

>  <SCORE.INTRA.REPUL>
0

>  <SCORE.INTRA.REPUL.0>
0

>  <SCORE.INTRA.SOLV>
0.254129

>  <SCORE.INTRA.SOLV.lig_0>
-22.1084

>  <SCORE.INTRA.VDW>
-3.58475

>  <SCORE.INTRA.VDW.0>
2.4256

>  <SCORE.INTRA.norm>
0.125409

>  <SCORE.RESTR>
0.262702

>  <SCORE.RESTR.CAVITY>
0.262702

>  <SCORE.RESTR.norm>
0.0109459

>  <SCORE.SYSTEM>
0

>  <SCORE.SYSTEM.CONST>
0

>  <SCORE.SYSTEM.DIHEDRAL>
0

>  <SCORE.SYSTEM.SOLV>
0

>  <SCORE.SYSTEM.norm>
0

>  <SCORE.heavy>
24

>  <SCORE.norm>
-0.179549

>  <RMSD>
1.434

$$$$
lig.pdb
 OpenBabel11021811453D
libRbt.so/2013.1/901 2013/11/27
 24 24  0  0  0  0  0  0  0  0999 V2000
    6.0051   -2.2038   -1.5768 C   0  0  0  0  0  0  0  0  0  0  0  0
    6.3991   -1.0164   -0.8725 C   0  0  0  0  0  0  0  0  0  0  0  0
    5.5608    0.0669   -0.7554 C   0  0  0  0  0  0  0  0  0  0  0  0
    4.2457    0.0658   -1.3209 C   0  0  0  0  0  0  0  0  0  0  0  0
    3.8663   -1.1074   -2.0526 C   0  0  0  0  0  0  0  0  0  0  0  0
    4.7054   -2.1864   -2.1772 C   0  0  0  0  0  0  0  0  0  0  0  0
    6.8176   -3.2973   -1.6719 C   0  0  0  0  0  0  0  0  0  0  0  0
    6.5591   -4.3299   -2.5025 N   0  0  0  0  0  0  0  0  0  0  0  0
    3.7711    2.3229   -0.6976 N   0  0  0  0  0  0  0  0  0  0  0  0
    3.3925    1.1202   -1.1797 C   0  0  0  0  0  0  0  0  0  0  0  0
    7.9514   -3.4264   -0.9391 N   0  0  0  0  0  0  0  0  0  0  0  0
    2.0820    1.0471   -1.5131 N   0  0  0  0  0  0  0  0  0  0  0  0
    9.2017   -4.0507   -1.3673 C   0  0  0  0  0  0  0  0  0  0  0  0
    1.2080    2.1744   -1.8227 C   0  0  0  0  0  0  0  0  0  0  0  0
   10.2552   -2.9429   -1.5274 C   0  0  0  0  0  0  0  0  0  0  0  0
    0.1894    2.3123   -0.6758 C   0  0  0  0  0  0  0  0  0  0  0  0
   10.7743   -2.4773   -0.1599 C   0  0  0  0  0  0  0  0  0  0  0  0
    0.8615    2.5192    0.6936 C   0  0  0  0  0  0  0  0  0  0  0  0
   11.6813   -1.2886   -0.3501 N   0  0  0  0  0  0  0  0  0  0  0  0
   -0.1303    2.9755    1.7336 N   0  0  0  0  0  0  0  0  0  0  0  0
   12.4613   -1.0315    0.9104 C   0  0  0  0  0  0  0  0  0  0  0  0
    0.6219    3.4361    2.9532 C   0  0  0  0  0  0  0  0  0  0  0  0
   10.8869   -0.0586   -0.7133 C   0  0  0  0  0  0  0  0  0  0  0  0
   -1.0809    1.8809    2.1309 C   0  0  0  0  0  0  0  0  0  0  0  0
  1  6  2  0  0  0  0
  2  3  2  0  0  0  0
  2  1  1  0  0  0  0
  3  4  1  0  0  0  0
  4 10  1  0  0  0  0
  4  5  2  0  0  0  0
  6  5  1  0  0  0  0
  7  1  1  0  0  0  0
  7 11  1  0  0  0  0
  8  7  2  0  0  0  0
  9 10  2  0  0  0  0
 10 12  1  0  0  0  0
 12 14  1  0  0  0  0
 13 11  1  0  0  0  0
 13 15  1  0  0  0  0
 14 16  1  0  0  0  0
 16 18  1  0  0  0  0
 17 15  1  0  0  0  0
 17 19  1  0  0  0  0
 18 20  1  0  0  0  0
 19 23  1  0  0  0  0
 20 22  1  0  0  0  0
 20 24  1  0  0  0  0
 21 19  1  0  0  0  0
M  END
>  <CHROM.1>
11.15886916,-168.98724043,-110.62534582,110.21539306,76.20765533,58.03556106
166.40937265,-173.52517601,-165.99986276,-168.15450879,5.35564610,-0.35796406
-0.60002081,0.45130732,0.17774719,-2.50483381

>  <Name>
lig.pdb

>  <RI>
1.56215e+07

>  <Rbt.Current_Directory>
/home/itssahil/PROJECTS/Mol_Feturizer/New_Systems/rnas/2l94

>  <Rbt.Executable>
rbdock ($Id: //depot/dev/client3/rdock/2013.1/src/exe/rbdock.cxx#4 $)

>  <Rbt.Library>
libRbt.so (2013.1, Build901 2013/11/27)

>  <Rbt.Parameter_File>
/export/apps/rDock/src/rDock_2013.1_src/data/scripts/dock_solv.prm

>  <Rbt.Receptor>
prm/pocket_docking_2.prm

>  <SCORE>
-11.7286

>  <SCORE.INTER>
-10.6836

>  <SCORE.INTER.CONST>
1

>  <SCORE.INTER.POLAR>
-1.26392

>  <SCORE.INTER.ROT>
10

>  <SCORE.INTER.SOLV>
7.14632

>  <SCORE.INTER.VDW>
-15.5581

>  <SCORE.INTER.norm>
-0.44515

>  <SCORE.INTRA>
-1.7959

>  <SCORE.INTRA.DIHEDRAL>
0.716469

>  <SCORE.INTRA.DIHEDRAL.0>
7.52971

>  <SCORE.INTRA.POLAR>
0

>  <SCORE.INTRA.POLAR.0>
0

>  <SCORE.INTRA.REPUL>
0

>  <SCORE.INTRA.REPUL.0>
0

>  <SCORE.INTRA.SOLV>
0.584964

>  <SCORE.INTRA.SOLV.lig_0>
-22.1084

>  <SCORE.INTRA.VDW>
-2.44662

>  <SCORE.INTRA.VDW.0>
2.4256

>  <SCORE.INTRA.norm>
-0.0748293

>  <SCORE.RESTR>
0.75088

>  <SCORE.RESTR.CAVITY>
0.75088

>  <SCORE.RESTR.norm>
0.0312867

>  <SCORE.SYSTEM>
0

>  <SCORE.SYSTEM.CONST>
0

>  <SCORE.SYSTEM.DIHEDRAL>
0

>  <SCORE.SYSTEM.SOLV>
0

>  <SCORE.SYSTEM.norm>
0

>  <SCORE.heavy>
24

>  <SCORE.norm>
-0.488692

>  <RMSD>
1.440

$$$$
lig.pdb
 OpenBabel11021811453D
libRbt.so/2013.1/901 2013/11/27
 24 24  0  0  0  0  0  0  0  0999 V2000
    3.9275    0.9956   -1.7210 C   0  0  0  0  0  0  0  0  0  0  0  0
    4.7102    0.3337   -0.7159 C   0  0  0  0  0  0  0  0  0  0  0  0
    5.3444   -0.8608   -0.9629 C   0  0  0  0  0  0  0  0  0  0  0  0
    5.2668   -1.5044   -2.2392 C   0  0  0  0  0  0  0  0  0  0  0  0
    4.4574   -0.8594   -3.2315 C   0  0  0  0  0  0  0  0  0  0  0  0
    3.8172    0.3290   -2.9834 C   0  0  0  0  0  0  0  0  0  0  0  0
    3.3199    2.1977   -1.4963 C   0  0  0  0  0  0  0  0  0  0  0  0
    2.5562    2.8152   -2.4228 N   0  0  0  0  0  0  0  0  0  0  0  0
    5.9422   -3.2481   -3.7264 N   0  0  0  0  0  0  0  0  0  0  0  0
    5.9214   -2.6705   -2.5065 C   0  0  0  0  0  0  0  0  0  0  0  0
    3.4352    2.8617   -0.3195 N   0  0  0  0  0  0  0  0  0  0  0  0
    6.6098   -3.3532   -1.5610 N   0  0  0  0  0  0  0  0  0  0  0  0
    2.4041    3.6650    0.3347 C   0  0  0  0  0  0  0  0  0  0  0  0
    7.6754   -4.3211   -1.8023 C   0  0  0  0  0  0  0  0  0  0  0  0
    1.3421    2.7071    0.8981 C   0  0  0  0  0  0  0  0  0  0  0  0
    8.9103   -3.8757   -0.9970 C   0  0  0  0  0  0  0  0  0  0  0  0
    0.4021    3.4381    1.8667 C   0  0  0  0  0  0  0  0  0  0  0  0
    9.7447   -2.8100   -1.7303 C   0  0  0  0  0  0  0  0  0  0  0  0
   -0.6407    2.4739    2.3714 N   0  0  0  0  0  0  0  0  0  0  0  0
   11.0676   -2.5754   -1.0459 N   0  0  0  0  0  0  0  0  0  0  0  0
   -1.8162    3.2326    2.9246 C   0  0  0  0  0  0  0  0  0  0  0  0
   10.8571   -1.6319    0.1078 C   0  0  0  0  0  0  0  0  0  0  0  0
   -0.0699    1.5755    3.4406 C   0  0  0  0  0  0  0  0  0  0  0  0
   12.0922   -1.9880   -1.9760 C   0  0  0  0  0  0  0  0  0  0  0  0
  1  6  2  0  0  0  0
  2  3  2  0  0  0  0
  2  1  1  0  0  0  0
  3  4  1  0  0  0  0
  4 10  1  0  0  0  0
  4  5  2  0  0  0  0
  6  5  1  0  0  0  0
  7  1  1  0  0  0  0
  7 11  1  0  0  0  0
  8  7  2  0  0  0  0
  9 10  2  0  0  0  0
 10 12  1  0  0  0  0
 12 14  1  0  0  0  0
 13 11  1  0  0  0  0
 13 15  1  0  0  0  0
 14 16  1  0  0  0  0
 16 18  1  0  0  0  0
 17 15  1  0  0  0  0
 17 19  1  0  0  0  0
 18 20  1  0  0  0  0
 19 23  1  0  0  0  0
 20 22  1  0  0  0  0
 20 24  1  0  0  0  0
 21 19  1  0  0  0  0
M  END
>  <CHROM.1>
-175.15222243,-178.43712614,125.45573024,72.41060251,167.07424280,-83.25499011
-169.65405420,178.72996597,-160.81540160,-81.80943907,4.89685447,-0.12387579
-0.76773892,2.66123461,-0.42494940,1.16675616

>  <Name>
lig.pdb

>  <RI>
1.56215e+07

>  <Rbt.Current_Directory>
/home/itssahil/PROJECTS/Mol_Feturizer/New_Systems/rnas/2l94

>  <Rbt.Executable>
rbdock ($Id: //depot/dev/client3/rdock/2013.1/src/exe/rbdock.cxx#4 $)

>  <Rbt.Library>
libRbt.so (2013.1, Build901 2013/11/27)

>  <Rbt.Parameter_File>
/export/apps/rDock/src/rDock_2013.1_src/data/scripts/dock_solv.prm

>  <Rbt.Receptor>
prm/pocket_docking_2.prm

>  <SCORE>
-15.2804

>  <SCORE.INTER>
-13.8536

>  <SCORE.INTER.CONST>
1

>  <SCORE.INTER.POLAR>
-1.88815

>  <SCORE.INTER.ROT>
10

>  <SCORE.INTER.SOLV>
8.03875

>  <SCORE.INTER.VDW>
-15.8881

>  <SCORE.INTER.norm>
-0.577233

>  <SCORE.INTRA>
-1.4268

>  <SCORE.INTRA.DIHEDRAL>
2.08034

>  <SCORE.INTRA.DIHEDRAL.0>
7.52971

>  <SCORE.INTRA.POLAR>
0

>  <SCORE.INTRA.POLAR.0>
0

>  <SCORE.INTRA.REPUL>
0

>  <SCORE.INTRA.REPUL.0>
0

>  <SCORE.INTRA.SOLV>
0.0696773

>  <SCORE.INTRA.SOLV.lig_0>
-22.1084

>  <SCORE.INTRA.VDW>
-2.5018

>  <SCORE.INTRA.VDW.0>
2.4256

>  <SCORE.INTRA.norm>
-0.0594499

>  <SCORE.RESTR>
0

>  <SCORE.RESTR.CAVITY>
0

>  <SCORE.RESTR.norm>
0

>  <SCORE.SYSTEM>
0

>  <SCORE.SYSTEM.CONST>
0

>  <SCORE.SYSTEM.DIHEDRAL>
0

>  <SCORE.SYSTEM.SOLV>
0

>  <SCORE.SYSTEM.norm>
0

>  <SCORE.heavy>
24

>  <SCORE.norm>
-0.636683

>  <RMSD>
1.449

$$$$
lig.pdb
 OpenBabel11021811453D
libRbt.so/2013.1/901 2013/11/27
 24 24  0  0  0  0  0  0  0  0999 V2000
    3.5891    0.2147   -1.6815 C   0  0  0  0  0  0  0  0  0  0  0  0
    4.1336    0.0122   -2.9943 C   0  0  0  0  0  0  0  0  0  0  0  0
    5.0977   -0.9369   -3.2392 C   0  0  0  0  0  0  0  0  0  0  0  0
    5.6036   -1.7815   -2.2000 C   0  0  0  0  0  0  0  0  0  0  0  0
    5.0834   -1.5553   -0.8832 C   0  0  0  0  0  0  0  0  0  0  0  0
    4.1268   -0.6026   -0.6360 C   0  0  0  0  0  0  0  0  0  0  0  0
    2.6087    1.1325   -1.4335 C   0  0  0  0  0  0  0  0  0  0  0  0
    2.0168    1.8518   -2.4109 N   0  0  0  0  0  0  0  0  0  0  0  0
    7.1388   -2.9213   -3.6326 N   0  0  0  0  0  0  0  0  0  0  0  0
    6.5331   -2.7505   -2.4384 C   0  0  0  0  0  0  0  0  0  0  0  0
    2.1518    1.3881   -0.1825 N   0  0  0  0  0  0  0  0  0  0  0  0
    6.9281   -3.6311   -1.4885 N   0  0  0  0  0  0  0  0  0  0  0  0
    0.7781    1.7134    0.1961 C   0  0  0  0  0  0  0  0  0  0  0  0
    8.1773   -4.3860   -1.4801 C   0  0  0  0  0  0  0  0  0  0  0  0
    0.7717    3.1326    0.7867 C   0  0  0  0  0  0  0  0  0  0  0  0
    9.3343   -3.3884   -1.6743 C   0  0  0  0  0  0  0  0  0  0  0  0
    0.4613    3.1002    2.2895 C   0  0  0  0  0  0  0  0  0  0  0  0
    9.3529   -2.2845   -0.6016 C   0  0  0  0  0  0  0  0  0  0  0  0
   -0.9429    2.5933    2.4971 N   0  0  0  0  0  0  0  0  0  0  0  0
   10.7571   -1.8171   -0.3127 N   0  0  0  0  0  0  0  0  0  0  0  0
   -1.8540    3.7366    2.8526 C   0  0  0  0  0  0  0  0  0  0  0  0
   10.6942   -0.6370    0.6195 C   0  0  0  0  0  0  0  0  0  0  0  0
   -0.9837    1.5550    3.5908 C   0  0  0  0  0  0  0  0  0  0  0  0
   11.4899   -1.4138   -1.5619 C   0  0  0  0  0  0  0  0  0  0  0  0
  1  6  2  0  0  0  0
  2  3  2  0  0  0  0
  2  1  1  0  0  0  0
  3  4  1  0  0  0  0
  4 10  1  0  0  0  0
  4  5  2  0  0  0  0
  6  5  1  0  0  0  0
  7  1  1  0  0  0  0
  7 11  1  0  0  0  0
  8  7  2  0  0  0  0
  9 10  2  0  0  0  0
 10 12  1  0  0  0  0
 12 14  1  0  0  0  0
 13 11  1  0  0  0  0
 13 15  1  0  0  0  0
 14 16  1  0  0  0  0
 16 18  1  0  0  0  0
 17 15  1  0  0  0  0
 17 19  1  0  0  0  0
 18 20  1  0  0  0  0
 19 23  1  0  0  0  0
 20 22  1  0  0  0  0
 20 24  1  0  0  0  0
 21 19  1  0  0  0  0
M  END
>  <CHROM.1>
5.98832903,4.54460090,52.11366626,-116.91620221,-111.70687576,57.24690037
148.87708871,-65.04994970,-104.69871548,173.54454428,4.71540418,-0.29546159
-0.61758370,2.68291537,-0.34133830,1.13979957

>  <Name>
lig.pdb

>  <RI>
1.56215e+07

>  <Rbt.Current_Directory>
/home/itssahil/PROJECTS/Mol_Feturizer/New_Systems/rnas/2l94

>  <Rbt.Executable>
rbdock ($Id: //depot/dev/client3/rdock/2013.1/src/exe/rbdock.cxx#4 $)

>  <Rbt.Library>
libRbt.so (2013.1, Build901 2013/11/27)

>  <Rbt.Parameter_File>
/export/apps/rDock/src/rDock_2013.1_src/data/scripts/dock_solv.prm

>  <Rbt.Receptor>
prm/pocket_docking_2.prm

>  <SCORE>
-7.11685

>  <SCORE.INTER>
-11.5152

>  <SCORE.INTER.CONST>
1

>  <SCORE.INTER.POLAR>
-1.59922

>  <SCORE.INTER.ROT>
10

>  <SCORE.INTER.SOLV>
8.29401

>  <SCORE.INTER.VDW>
-15.3774

>  <SCORE.INTER.norm>
-0.4798

>  <SCORE.INTRA>
4.36724

>  <SCORE.INTRA.DIHEDRAL>
9.03028

>  <SCORE.INTRA.DIHEDRAL.0>
7.52971

>  <SCORE.INTRA.POLAR>
0

>  <SCORE.INTRA.POLAR.0>
0

>  <SCORE.INTRA.REPUL>
0

>  <SCORE.INTRA.REPUL.0>
0

>  <SCORE.INTRA.SOLV>
0.598104

>  <SCORE.INTRA.SOLV.lig_0>
-22.1084

>  <SCORE.INTRA.VDW>
-0.446958

>  <SCORE.INTRA.VDW.0>
2.4256

>  <SCORE.INTRA.norm>
0.181968

>  <SCORE.RESTR>
0.0311016

>  <SCORE.RESTR.CAVITY>
0.0311016

>  <SCORE.RESTR.norm>
0.0012959

>  <SCORE.SYSTEM>
0

>  <SCORE.SYSTEM.CONST>
0

>  <SCORE.SYSTEM.DIHEDRAL>
0

>  <SCORE.SYSTEM.SOLV>
0

>  <SCORE.SYSTEM.norm>
0

>  <SCORE.heavy>
24

>  <SCORE.norm>
-0.296536

>  <RMSD>
1.454

$$$$
lig.pdb
 OpenBabel11021811453D
libRbt.so/2013.1/901 2013/11/27
 24 24  0  0  0  0  0  0  0  0999 V2000
    5.6903   -1.2526   -2.3448 C   0  0  0  0  0  0  0  0  0  0  0  0
    5.2737   -1.0372   -0.9879 C   0  0  0  0  0  0  0  0  0  0  0  0
    4.4880    0.0340   -0.6337 C   0  0  0  0  0  0  0  0  0  0  0  0
    4.0345    0.9872   -1.6007 C   0  0  0  0  0  0  0  0  0  0  0  0
    4.4791    0.7896   -2.9494 C   0  0  0  0  0  0  0  0  0  0  0  0
    5.2702   -0.2749   -3.3027 C   0  0  0  0  0  0  0  0  0  0  0  0
    6.4440   -2.3303   -2.7126 C   0  0  0  0  0  0  0  0  0  0  0  0
    7.1110   -2.3898   -3.8850 N   0  0  0  0  0  0  0  0  0  0  0  0
    2.4412    2.6788   -2.1557 N   0  0  0  0  0  0  0  0  0  0  0  0
    3.2251    2.0327   -1.2668 C   0  0  0  0  0  0  0  0  0  0  0  0
    6.5825   -3.4241   -1.9229 N   0  0  0  0  0  0  0  0  0  0  0  0
    3.1412    2.5152   -0.0042 N   0  0  0  0  0  0  0  0  0  0  0  0
    7.7792   -4.2506   -1.7777 C   0  0  0  0  0  0  0  0  0  0  0  0
    2.0357    3.2909    0.5496 C   0  0  0  0  0  0  0  0  0  0  0  0
    8.7647   -3.5031   -0.8650 C   0  0  0  0  0  0  0  0  0  0  0  0
    1.8890    2.9115    2.0349 C   0  0  0  0  0  0  0  0  0  0  0  0
    9.7295   -2.6397   -1.6895 C   0  0  0  0  0  0  0  0  0  0  0  0
    0.6474    3.5440    2.6895 C   0  0  0  0  0  0  0  0  0  0  0  0
   11.0499   -2.5423   -0.9691 N   0  0  0  0  0  0  0  0  0  0  0  0
   -0.6133    3.1902    1.9419 N   0  0  0  0  0  0  0  0  0  0  0  0
   10.9409   -1.5690    0.1729 C   0  0  0  0  0  0  0  0  0  0  0  0
   -1.8007    3.6119    2.7650 C   0  0  0  0  0  0  0  0  0  0  0  0
   12.1438   -2.0991   -1.9088 C   0  0  0  0  0  0  0  0  0  0  0  0
   -0.7126    1.7168    1.6609 C   0  0  0  0  0  0  0  0  0  0  0  0
  1  6  2  0  0  0  0
  2  3  2  0  0  0  0
  2  1  1  0  0  0  0
  3  4  1  0  0  0  0
  4 10  1  0  0  0  0
  4  5  2  0  0  0  0
  6  5  1  0  0  0  0
  7  1  1  0  0  0  0
  7 11  1  0  0  0  0
  8  7  2  0  0  0  0
  9 10  2  0  0  0  0
 10 12  1  0  0  0  0
 12 14  1  0  0  0  0
 13 11  1  0  0  0  0
 13 15  1  0  0  0  0
 14 16  1  0  0  0  0
 16 18  1  0  0  0  0
 17 15  1  0  0  0  0
 17 19  1  0  0  0  0
 18 20  1  0  0  0  0
 19 23  1  0  0  0  0
 20 22  1  0  0  0  0
 20 24  1  0  0  0  0
 21 19  1  0  0  0  0
M  END
>  <CHROM.1>
-157.81206124,-163.49915520,145.88219386,77.46208981,-92.11481185,-173.29078024
55.79967087,-149.39835381,-76.83538371,169.41456597,5.00634763,0.00908659
-0.76099917,0.46983577,0.42725099,-1.95542897

>  <Name>
lig.pdb

>  <RI>
1.56215e+07

>  <Rbt.Current_Directory>
/home/itssahil/PROJECTS/Mol_Feturizer/New_Systems/rnas/2l94

>  <Rbt.Executable>
rbdock ($Id: //depot/dev/client3/rdock/2013.1/src/exe/rbdock.cxx#4 $)

>  <Rbt.Library>
libRbt.so (2013.1, Build901 2013/11/27)

>  <Rbt.Parameter_File>
/export/apps/rDock/src/rDock_2013.1_src/data/scripts/dock_solv.prm

>  <Rbt.Receptor>
prm/pocket_docking_2.prm

>  <SCORE>
-20.1667

>  <SCORE.INTER>
-23.5238

>  <SCORE.INTER.CONST>
1

>  <SCORE.INTER.POLAR>
-3.62643

>  <SCORE.INTER.ROT>
10

>  <SCORE.INTER.SOLV>
8.39087

>  <SCORE.INTER.VDW>
-16.6581

>  <SCORE.INTER.norm>
-0.98016

>  <SCORE.INTRA>
3.14886

>  <SCORE.INTRA.DIHEDRAL>
7.33084

>  <SCORE.INTRA.DIHEDRAL.0>
7.52971

>  <SCORE.INTRA.POLAR>
0

>  <SCORE.INTRA.POLAR.0>
0

>  <SCORE.INTRA.REPUL>
0

>  <SCORE.INTRA.REPUL.0>
0

>  <SCORE.INTRA.SOLV>
0.31255

>  <SCORE.INTRA.SOLV.lig_0>
-22.1084

>  <SCORE.INTRA.VDW>
-0.672835

>  <SCORE.INTRA.VDW.0>
2.4256

>  <SCORE.INTRA.norm>
0.131202

>  <SCORE.RESTR>
0.208301

>  <SCORE.RESTR.CAVITY>
0.208301

>  <SCORE.RESTR.norm>
0.00867921

>  <SCORE.SYSTEM>
0

>  <SCORE.SYSTEM.CONST>
0

>  <SCORE.SYSTEM.DIHEDRAL>
0

>  <SCORE.SYSTEM.SOLV>
0

>  <SCORE.SYSTEM.norm>
0

>  <SCORE.heavy>
24

>  <SCORE.norm>
-0.840279

>  <RMSD>
1.469

$$$$
lig.pdb
 OpenBabel11021811453D
libRbt.so/2013.1/901 2013/11/27
 24 24  0  0  0  0  0  0  0  0999 V2000
    2.8952    0.0760   -2.2491 C   0  0  0  0  0  0  0  0  0  0  0  0
    4.0196    0.2163   -1.3676 C   0  0  0  0  0  0  0  0  0  0  0  0
    5.1598   -0.5359   -1.5241 C   0  0  0  0  0  0  0  0  0  0  0  0
    5.2913   -1.4927   -2.5807 C   0  0  0  0  0  0  0  0  0  0  0  0
    4.1549   -1.6557   -3.4397 C   0  0  0  0  0  0  0  0  0  0  0  0
    3.0131   -0.9111   -3.2795 C   0  0  0  0  0  0  0  0  0  0  0  0
    1.7707    0.8404   -2.1220 C   0  0  0  0  0  0  0  0  0  0  0  0
    0.6190    0.5594   -2.7684 N   0  0  0  0  0  0  0  0  0  0  0  0
    6.6918   -2.9156   -3.8931 N   0  0  0  0  0  0  0  0  0  0  0  0
    6.4310   -2.2179   -2.7673 C   0  0  0  0  0  0  0  0  0  0  0  0
    1.7253    1.9409   -1.3308 N   0  0  0  0  0  0  0  0  0  0  0  0
    7.4041   -2.3005   -1.8291 N   0  0  0  0  0  0  0  0  0  0  0  0
    0.5834    2.4057   -0.5459 C   0  0  0  0  0  0  0  0  0  0  0  0
    8.8011   -2.6512   -2.0659 C   0  0  0  0  0  0  0  0  0  0  0  0
    1.1204    3.0130    0.7601 C   0  0  0  0  0  0  0  0  0  0  0  0
    9.6513   -1.9670   -0.9794 C   0  0  0  0  0  0  0  0  0  0  0  0
    0.7384    2.1448    1.9669 C   0  0  0  0  0  0  0  0  0  0  0  0
   11.1342   -1.8453   -1.3747 C   0  0  0  0  0  0  0  0  0  0  0  0
   -0.7625    2.1109    2.1006 N   0  0  0  0  0  0  0  0  0  0  0  0
   11.9737   -1.3442   -0.2268 N   0  0  0  0  0  0  0  0  0  0  0  0
   -1.2520    3.3934    2.7163 C   0  0  0  0  0  0  0  0  0  0  0  0
   11.5770    0.0746    0.0820 C   0  0  0  0  0  0  0  0  0  0  0  0
   -1.2006    0.9429    2.9491 C   0  0  0  0  0  0  0  0  0  0  0  0
   13.4437   -1.3831   -0.5387 C   0  0  0  0  0  0  0  0  0  0  0  0
  1  6  2  0  0  0  0
  2  3  2  0  0  0  0
  2  1  1  0  0  0  0
  3  4  1  0  0  0  0
  4 10  1  0  0  0  0
  4  5  2  0  0  0  0
  6  5  1  0  0  0  0
  7  1  1  0  0  0  0
  7 11  1  0  0  0  0
  8  7  2  0  0  0  0
  9 10  2  0  0  0  0
 10 12  1  0  0  0  0
 12 14  1  0  0  0  0
 13 11  1  0  0  0  0
 13 15  1  0  0  0  0
 14 16  1  0  0  0  0
 16 18  1  0  0  0  0
 17 15  1  0  0  0  0
 17 19  1  0  0  0  0
 18 20  1  0  0  0  0
 19 23  1  0  0  0  0
 20 22  1  0  0  0  0
 20 24  1  0  0  0  0
 21 19  1  0  0  0  0
M  END
>  <CHROM.1>
-165.99353485,-167.21509322,151.80282990,144.38504458,-111.55194414,-160.18850238
-172.35608720,-63.04683000,-77.49330092,-66.53988134,4.81415442,-0.12633695
-0.95524368,2.81696860,-0.20362270,1.04358556

>  <Name>
lig.pdb

>  <RI>
1.71133e+07

>  <Rbt.Current_Directory>
/home/itssahil/PROJECTS/Mol_Feturizer/New_Systems/rnas/2l94

>  <Rbt.Executable>
rbdock ($Id: //depot/dev/client3/rdock/2013.1/src/exe/rbdock.cxx#4 $)

>  <Rbt.Library>
libRbt.so (2013.1, Build901 2013/11/27)

>  <Rbt.Parameter_File>
/export/apps/rDock/src/rDock_2013.1_src/data/scripts/dock_solv.prm

>  <Rbt.Receptor>
prm/pocket_docking_5.prm

>  <SCORE>
-10.253

>  <SCORE.INTER>
-12.8689

>  <SCORE.INTER.CONST>
1

>  <SCORE.INTER.POLAR>
-1.43831

>  <SCORE.INTER.ROT>
10

>  <SCORE.INTER.SOLV>
9.98804

>  <SCORE.INTER.VDW>
-17.3809

>  <SCORE.INTER.norm>
-0.536205

>  <SCORE.INTRA>
2.61588

>  <SCORE.INTRA.DIHEDRAL>
6.37367

>  <SCORE.INTRA.DIHEDRAL.0>
7.52971

>  <SCORE.INTRA.POLAR>
0

>  <SCORE.INTRA.POLAR.0>
0

>  <SCORE.INTRA.REPUL>
0

>  <SCORE.INTRA.REPUL.0>
0

>  <SCORE.INTRA.SOLV>
-0.221058

>  <SCORE.INTRA.SOLV.lig_0>
-22.1084

>  <SCORE.INTRA.VDW>
-0.46043

>  <SCORE.INTRA.VDW.0>
2.4256

>  <SCORE.INTRA.norm>
0.108995

>  <SCORE.RESTR>
0

>  <SCORE.RESTR.CAVITY>
0

>  <SCORE.RESTR.norm>
0

>  <SCORE.SYSTEM>
0

>  <SCORE.SYSTEM.CONST>
0

>  <SCORE.SYSTEM.DIHEDRAL>
0

>  <SCORE.SYSTEM.SOLV>
0

>  <SCORE.SYSTEM.norm>
0

>  <SCORE.heavy>
24

>  <SCORE.norm>
-0.42721

>  <RMSD>
1.472

$$$$
lig.pdb
 OpenBabel11021811453D
libRbt.so/2013.1/901 2013/11/27
 24 24  0  0  0  0  0  0  0  0999 V2000
    4.5045    1.1982   -1.8952 C   0  0  0  0  0  0  0  0  0  0  0  0
    5.0063    0.3358   -0.8630 C   0  0  0  0  0  0  0  0  0  0  0  0
    5.6852   -0.8234   -1.1552 C   0  0  0  0  0  0  0  0  0  0  0  0
    5.9373   -1.2283   -2.5050 C   0  0  0  0  0  0  0  0  0  0  0  0
    5.4064   -0.3836   -3.5347 C   0  0  0  0  0  0  0  0  0  0  0  0
    4.7214    0.7697   -3.2441 C   0  0  0  0  0  0  0  0  0  0  0  0
    3.8569    2.3676   -1.6161 C   0  0  0  0  0  0  0  0  0  0  0  0
    2.9295    2.9037   -2.4380 N   0  0  0  0  0  0  0  0  0  0  0  0
    7.2003   -2.5837   -4.0136 N   0  0  0  0  0  0  0  0  0  0  0  0
    6.6410   -2.3569   -2.8062 C   0  0  0  0  0  0  0  0  0  0  0  0
    4.0949    3.0786   -0.4861 N   0  0  0  0  0  0  0  0  0  0  0  0
    6.8375   -3.3539   -1.9110 N   0  0  0  0  0  0  0  0  0  0  0  0
    3.1171    3.8391    0.2895 C   0  0  0  0  0  0  0  0  0  0  0  0
    7.8983   -4.3555   -1.9567 C   0  0  0  0  0  0  0  0  0  0  0  0
    1.8456    2.9849    0.4190 C   0  0  0  0  0  0  0  0  0  0  0  0
    9.0612   -3.8532   -1.0810 C   0  0  0  0  0  0  0  0  0  0  0  0
    1.1774    3.1989    1.7842 C   0  0  0  0  0  0  0  0  0  0  0  0
    9.9728   -2.8562   -1.8191 C   0  0  0  0  0  0  0  0  0  0  0  0
   -0.3162    3.0626    1.6342 N   0  0  0  0  0  0  0  0  0  0  0  0
   11.2308   -2.5732   -1.0376 N   0  0  0  0  0  0  0  0  0  0  0  0
   -0.9958    3.4071    2.9315 C   0  0  0  0  0  0  0  0  0  0  0  0
   10.9033   -1.6225    0.0824 C   0  0  0  0  0  0  0  0  0  0  0  0
   -0.6898    1.6595    1.2244 C   0  0  0  0  0  0  0  0  0  0  0  0
   12.3072   -1.9664   -1.8938 C   0  0  0  0  0  0  0  0  0  0  0  0
  1  6  2  0  0  0  0
  2  3  2  0  0  0  0
  2  1  1  0  0  0  0
  3  4  1  0  0  0  0
  4 10  1  0  0  0  0
  4  5  2  0  0  0  0
  6  5  1  0  0  0  0
  7  1  1  0  0  0  0
  7 11  1  0  0  0  0
  8  7  2  0  0  0  0
  9 10  2  0  0  0  0
 10 12  1  0  0  0  0
 12 14  1  0  0  0  0
 13 11  1  0  0  0  0
 13 15  1  0  0  0  0
 14 16  1  0  0  0  0
 16 18  1  0  0  0  0
 17 15  1  0  0  0  0
 17 19  1  0  0  0  0
 18 20  1  0  0  0  0
 19 23  1  0  0  0  0
 20 22  1  0  0  0  0
 20 24  1  0  0  0  0
 21 19  1  0  0  0  0
M  END
>  <CHROM.1>
-161.64626134,-151.92863361,94.78251280,43.74721868,144.74503519,-82.30263861
-169.71967135,147.49315092,-174.25891544,-77.20225281,5.35018015,0.04261641
-1.03879479,2.66208120,-0.43213655,1.11520772

>  <Name>
lig.pdb

>  <RI>
1.56215e+07

>  <Rbt.Current_Directory>
/home/itssahil/PROJECTS/Mol_Feturizer/New_Systems/rnas/2l94

>  <Rbt.Executable>
rbdock ($Id: //depot/dev/client3/rdock/2013.1/src/exe/rbdock.cxx#4 $)

>  <Rbt.Library>
libRbt.so (2013.1, Build901 2013/11/27)

>  <Rbt.Parameter_File>
/export/apps/rDock/src/rDock_2013.1_src/data/scripts/dock_solv.prm

>  <Rbt.Receptor>
prm/pocket_docking_2.prm

>  <SCORE>
-19.3041

>  <SCORE.INTER>
-23.2342

>  <SCORE.INTER.CONST>
1

>  <SCORE.INTER.POLAR>
-3.74699

>  <SCORE.INTER.ROT>
10

>  <SCORE.INTER.SOLV>
9.1633

>  <SCORE.INTER.VDW>
-16.3206

>  <SCORE.INTER.norm>
-0.968094

>  <SCORE.INTRA>
3.59387

>  <SCORE.INTRA.DIHEDRAL>
10.8689

>  <SCORE.INTRA.DIHEDRAL.0>
7.52971

>  <SCORE.INTRA.POLAR>
0

>  <SCORE.INTRA.POLAR.0>
0

>  <SCORE.INTRA.REPUL>
0

>  <SCORE.INTRA.REPUL.0>
0

>  <SCORE.INTRA.SOLV>
0.428673

>  <SCORE.INTRA.SOLV.lig_0>
-22.1084

>  <SCORE.INTRA.VDW>
-2.05491

>  <SCORE.INTRA.VDW.0>
2.4256

>  <SCORE.INTRA.norm>
0.149745

>  <SCORE.RESTR>
0.336311

>  <SCORE.RESTR.CAVITY>
0.336311

>  <SCORE.RESTR.norm>
0.014013

>  <SCORE.SYSTEM>
0

>  <SCORE.SYSTEM.CONST>
0

>  <SCORE.SYSTEM.DIHEDRAL>
0

>  <SCORE.SYSTEM.SOLV>
0

>  <SCORE.SYSTEM.norm>
0

>  <SCORE.heavy>
24

>  <SCORE.norm>
-0.804336

>  <RMSD>
1.478

$$$$
lig.pdb
 OpenBabel11021811453D
libRbt.so/2013.1/901 2013/11/27
 24 24  0  0  0  0  0  0  0  0999 V2000
    3.1996    0.9187   -1.5461 C   0  0  0  0  0  0  0  0  0  0  0  0
    4.4989    0.8806   -0.9365 C   0  0  0  0  0  0  0  0  0  0  0  0
    5.4072   -0.1087   -1.2305 C   0  0  0  0  0  0  0  0  0  0  0  0
    5.1102   -1.1490   -2.1680 C   0  0  0  0  0  0  0  0  0  0  0  0
    3.8002   -1.1287   -2.7505 C   0  0  0  0  0  0  0  0  0  0  0  0
    2.8896   -0.1462   -2.4516 C   0  0  0  0  0  0  0  0  0  0  0  0
    2.3020    1.9143   -1.2853 C   0  0  0  0  0  0  0  0  0  0  0  0
    1.0290    1.8867   -1.7345 N   0  0  0  0  0  0  0  0  0  0  0  0
    5.7342   -3.1540   -3.3076 N   0  0  0  0  0  0  0  0  0  0  0  0
    6.0165   -2.1142   -2.4944 C   0  0  0  0  0  0  0  0  0  0  0  0
    2.6222    3.0074   -0.5494 N   0  0  0  0  0  0  0  0  0  0  0  0
    7.2864   -2.1106   -2.0239 N   0  0  0  0  0  0  0  0  0  0  0  0
    1.7477    3.7231    0.3775 C   0  0  0  0  0  0  0  0  0  0  0  0
    8.4285   -2.7945   -2.6226 C   0  0  0  0  0  0  0  0  0  0  0  0
    1.7982    2.9994    1.7328 C   0  0  0  0  0  0  0  0  0  0  0  0
    9.5359   -2.8881   -1.5565 C   0  0  0  0  0  0  0  0  0  0  0  0
    0.6814    3.4951    2.6617 C   0  0  0  0  0  0  0  0  0  0  0  0
   10.7660   -2.0290   -1.9010 C   0  0  0  0  0  0  0  0  0  0  0  0
   -0.5263    2.6068    2.5065 N   0  0  0  0  0  0  0  0  0  0  0  0
   11.8998   -2.2744   -0.9377 N   0  0  0  0  0  0  0  0  0  0  0  0
   -1.1813    2.8589    1.1757 C   0  0  0  0  0  0  0  0  0  0  0  0
   11.5304   -1.7002    0.4037 C   0  0  0  0  0  0  0  0  0  0  0  0
   -1.5205    2.8523    3.6143 C   0  0  0  0  0  0  0  0  0  0  0  0
   13.1845   -1.6460   -1.4006 C   0  0  0  0  0  0  0  0  0  0  0  0
  1  6  2  0  0  0  0
  2  3  2  0  0  0  0
  2  1  1  0  0  0  0
  3  4  1  0  0  0  0
  4 10  1  0  0  0  0
  4  5  2  0  0  0  0
  6  5  1  0  0  0  0
  7  1  1  0  0  0  0
  7 11  1  0  0  0  0
  8  7  2  0  0  0  0
  9 10  2  0  0  0  0
 10 12  1  0  0  0  0
 12 14  1  0  0  0  0
 13 11  1  0  0  0  0
 13 15  1  0  0  0  0
 14 16  1  0  0  0  0
 16 18  1  0  0  0  0
 17 15  1  0  0  0  0
 17 19  1  0  0  0  0
 18 20  1  0  0  0  0
 19 23  1  0  0  0  0
 20 22  1  0  0  0  0
 20 24  1  0  0  0  0
 21 19  1  0  0  0  0
M  END
>  <CHROM.1>
175.56248251,-172.55769192,-162.64324651,84.13552156,-167.41680428,-112.57465720
-172.69882771,92.74676182,-71.80329810,-70.00113244,4.86540816,0.16392758
-0.72277259,2.67236187,-0.24956356,0.96656275

>  <Name>
lig.pdb

>  <RI>
1.56215e+07

>  <Rbt.Current_Directory>
/home/itssahil/PROJECTS/Mol_Feturizer/New_Systems/rnas/2l94

>  <Rbt.Executable>
rbdock ($Id: //depot/dev/client3/rdock/2013.1/src/exe/rbdock.cxx#4 $)

>  <Rbt.Library>
libRbt.so (2013.1, Build901 2013/11/27)

>  <Rbt.Parameter_File>
/export/apps/rDock/src/rDock_2013.1_src/data/scripts/dock_solv.prm

>  <Rbt.Receptor>
prm/pocket_docking_2.prm

>  <SCORE>
-3.85621

>  <SCORE.INTER>
-7.04202

>  <SCORE.INTER.CONST>
1

>  <SCORE.INTER.POLAR>
-1.10084

>  <SCORE.INTER.ROT>
10

>  <SCORE.INTER.SOLV>
7.5261

>  <SCORE.INTER.VDW>
-13.8006

>  <SCORE.INTER.norm>
-0.293417

>  <SCORE.INTRA>
3.08226

>  <SCORE.INTRA.DIHEDRAL>
7.51058

>  <SCORE.INTRA.DIHEDRAL.0>
7.52971

>  <SCORE.INTRA.POLAR>
0

>  <SCORE.INTRA.POLAR.0>
0

>  <SCORE.INTRA.REPUL>
0

>  <SCORE.INTRA.REPUL.0>
0

>  <SCORE.INTRA.SOLV>
0.15594

>  <SCORE.INTRA.SOLV.lig_0>
-22.1084

>  <SCORE.INTRA.VDW>
-0.751002

>  <SCORE.INTRA.VDW.0>
2.4256

>  <SCORE.INTRA.norm>
0.128427

>  <SCORE.RESTR>
0.103555

>  <SCORE.RESTR.CAVITY>
0.103555

>  <SCORE.RESTR.norm>
0.00431481

>  <SCORE.SYSTEM>
0

>  <SCORE.SYSTEM.CONST>
0

>  <SCORE.SYSTEM.DIHEDRAL>
0

>  <SCORE.SYSTEM.SOLV>
0

>  <SCORE.SYSTEM.norm>
0

>  <SCORE.heavy>
24

>  <SCORE.norm>
-0.160675

>  <RMSD>
1.480

$$$$
lig.pdb
 OpenBabel11021811453D
libRbt.so/2013.1/901 2013/11/27
 24 24  0  0  0  0  0  0  0  0999 V2000
    3.9837    0.5817   -1.9138 C   0  0  0  0  0  0  0  0  0  0  0  0
    3.9572   -0.6429   -1.1651 C   0  0  0  0  0  0  0  0  0  0  0  0
    4.8393   -1.6661   -1.4202 C   0  0  0  0  0  0  0  0  0  0  0  0
    5.8387   -1.5618   -2.4398 C   0  0  0  0  0  0  0  0  0  0  0  0
    5.8422   -0.3518   -3.2091 C   0  0  0  0  0  0  0  0  0  0  0  0
    4.9569    0.6671   -2.9607 C   0  0  0  0  0  0  0  0  0  0  0  0
    3.1333    1.6164   -1.6476 C   0  0  0  0  0  0  0  0  0  0  0  0
    3.1300    2.7622   -2.3619 N   0  0  0  0  0  0  0  0  0  0  0  0
    7.6523   -2.5101   -3.6727 N   0  0  0  0  0  0  0  0  0  0  0  0
    6.7420   -2.5555   -2.6771 C   0  0  0  0  0  0  0  0  0  0  0  0
    2.2220    1.5687   -0.6444 N   0  0  0  0  0  0  0  0  0  0  0  0
    6.8000   -3.6819   -1.9274 N   0  0  0  0  0  0  0  0  0  0  0  0
    0.8809    2.1498   -0.6543 C   0  0  0  0  0  0  0  0  0  0  0  0
    7.9508   -4.5700   -1.7953 C   0  0  0  0  0  0  0  0  0  0  0  0
    0.8312    3.2477    0.4205 C   0  0  0  0  0  0  0  0  0  0  0  0
    9.0023   -3.8557   -0.9258 C   0  0  0  0  0  0  0  0  0  0  0  0
    0.6474    2.6398    1.8179 C   0  0  0  0  0  0  0  0  0  0  0  0
    9.8714   -2.8736   -1.7320 C   0  0  0  0  0  0  0  0  0  0  0  0
   -0.7968    2.2517    2.0061 N   0  0  0  0  0  0  0  0  0  0  0  0
   11.1901   -2.6125   -1.0490 N   0  0  0  0  0  0  0  0  0  0  0  0
   -1.6501    3.4860    2.1140 C   0  0  0  0  0  0  0  0  0  0  0  0
   10.9692   -1.6399    0.0782 C   0  0  0  0  0  0  0  0  0  0  0  0
   -0.9698    1.4072    3.2442 C   0  0  0  0  0  0  0  0  0  0  0  0
   12.2148   -2.0438   -1.9906 C   0  0  0  0  0  0  0  0  0  0  0  0
  1  6  2  0  0  0  0
  2  3  2  0  0  0  0
  2  1  1  0  0  0  0
  3  4  1  0  0  0  0
  4 10  1  0  0  0  0
  4  5  2  0  0  0  0
  6  5  1  0  0  0  0
  7  1  1  0  0  0  0
  7 11  1  0  0  0  0
  8  7  2  0  0  0  0
  9 10  2  0  0  0  0
 10 12  1  0  0  0  0
 12 14  1  0  0  0  0
 13 11  1  0  0  0  0
 13 15  1  0  0  0  0
 14 16  1  0  0  0  0
 16 18  1  0  0  0  0
 17 15  1  0  0  0  0
 17 19  1  0  0  0  0
 18 20  1  0  0  0  0
 19 23  1  0  0  0  0
 20 22  1  0  0  0  0
 20 24  1  0  0  0  0
 21 19  1  0  0  0  0
M  END
>  <CHROM.1>
176.71345370,-178.60817496,72.95590167,-115.57895018,-79.34399405,-82.87249434
-157.26545575,-77.96839381,-69.93466498,-78.11846469,4.97652228,-0.32971871
-0.97463434,3.00009021,-0.54926004,1.79393303

>  <Name>
lig.pdb

>  <RI>
1.56215e+07

>  <Rbt.Current_Directory>
/home/itssahil/PROJECTS/Mol_Feturizer/New_Systems/rnas/2l94

>  <Rbt.Executable>
rbdock ($Id: //depot/dev/client3/rdock/2013.1/src/exe/rbdock.cxx#4 $)

>  <Rbt.Library>
libRbt.so (2013.1, Build901 2013/11/27)

>  <Rbt.Parameter_File>
/export/apps/rDock/src/rDock_2013.1_src/data/scripts/dock_solv.prm

>  <Rbt.Receptor>
prm/pocket_docking_2.prm

>  <SCORE>
-12.8532

>  <SCORE.INTER>
-13.5664

>  <SCORE.INTER.CONST>
1

>  <SCORE.INTER.POLAR>
-1.93817

>  <SCORE.INTER.ROT>
10

>  <SCORE.INTER.SOLV>
8.23178

>  <SCORE.INTER.VDW>
-15.5943

>  <SCORE.INTER.norm>
-0.565265

>  <SCORE.INTRA>
0.581432

>  <SCORE.INTRA.DIHEDRAL>
4.32981

>  <SCORE.INTRA.DIHEDRAL.0>
7.52971

>  <SCORE.INTRA.POLAR>
0

>  <SCORE.INTRA.POLAR.0>
0

>  <SCORE.INTRA.REPUL>
0

>  <SCORE.INTRA.REPUL.0>
0

>  <SCORE.INTRA.SOLV>
0.762287

>  <SCORE.INTRA.SOLV.lig_0>
-22.1084

>  <SCORE.INTRA.VDW>
-1.96462

>  <SCORE.INTRA.VDW.0>
2.4256

>  <SCORE.INTRA.norm>
0.0242263

>  <SCORE.RESTR>
0.131712

>  <SCORE.RESTR.CAVITY>
0.131712

>  <SCORE.RESTR.norm>
0.00548801

>  <SCORE.SYSTEM>
0

>  <SCORE.SYSTEM.CONST>
0

>  <SCORE.SYSTEM.DIHEDRAL>
0

>  <SCORE.SYSTEM.SOLV>
0

>  <SCORE.SYSTEM.norm>
0

>  <SCORE.heavy>
24

>  <SCORE.norm>
-0.535551

>  <RMSD>
1.490

$$$$
lig.pdb
 OpenBabel11021811453D
libRbt.so/2013.1/901 2013/11/27
 24 24  0  0  0  0  0  0  0  0999 V2000
    4.3026    1.1815   -2.4573 C   0  0  0  0  0  0  0  0  0  0  0  0
    4.7882    0.7974   -3.7526 C   0  0  0  0  0  0  0  0  0  0  0  0
    5.5737   -0.3169   -3.9295 C   0  0  0  0  0  0  0  0  0  0  0  0
    5.9417   -1.1604   -2.8329 C   0  0  0  0  0  0  0  0  0  0  0  0
    5.4841   -0.7568   -1.5354 C   0  0  0  0  0  0  0  0  0  0  0  0
    4.7066    0.3600   -1.3565 C   0  0  0  0  0  0  0  0  0  0  0  0
    3.4957    2.2681   -2.2751 C   0  0  0  0  0  0  0  0  0  0  0  0
    3.3009    3.2022   -3.2303 N   0  0  0  0  0  0  0  0  0  0  0  0
    7.2335   -2.6486   -4.1837 N   0  0  0  0  0  0  0  0  0  0  0  0
    6.6899   -2.2879   -3.0020 C   0  0  0  0  0  0  0  0  0  0  0  0
    2.8239    2.4887   -1.1179 N   0  0  0  0  0  0  0  0  0  0  0  0
    6.9506   -3.1482   -1.9892 N   0  0  0  0  0  0  0  0  0  0  0  0
    1.4937    3.0783   -0.9790 C   0  0  0  0  0  0  0  0  0  0  0  0
    8.0550   -4.1009   -1.9313 C   0  0  0  0  0  0  0  0  0  0  0  0
    0.5564    2.0049   -0.4025 C   0  0  0  0  0  0  0  0  0  0  0  0
    8.7150   -3.9764   -0.5455 C   0  0  0  0  0  0  0  0  0  0  0  0
    0.7033    1.9096    1.1224 C   0  0  0  0  0  0  0  0  0  0  0  0
    9.4699   -2.6470   -0.3646 C   0  0  0  0  0  0  0  0  0  0  0  0
   -0.0597    3.0381    1.7676 N   0  0  0  0  0  0  0  0  0  0  0  0
   10.8970   -2.7517   -0.8402 N   0  0  0  0  0  0  0  0  0  0  0  0
    0.6385    3.4762    3.0262 C   0  0  0  0  0  0  0  0  0  0  0  0
   11.7003   -1.6436   -0.2138 C   0  0  0  0  0  0  0  0  0  0  0  0
   -1.4712    2.6162    2.0928 C   0  0  0  0  0  0  0  0  0  0  0  0
   11.0063   -2.6485   -2.3359 C   0  0  0  0  0  0  0  0  0  0  0  0
  1  6  2  0  0  0  0
  2  3  2  0  0  0  0
  2  1  1  0  0  0  0
  3  4  1  0  0  0  0
  4 10  1  0  0  0  0
  4  5  2  0  0  0  0
  6  5  1  0  0  0  0
  7  1  1  0  0  0  0
  7 11  1  0  0  0  0
  8  7  2  0  0  0  0
  9 10  2  0  0  0  0
 10 12  1  0  0  0  0
 12 14  1  0  0  0  0
 13 11  1  0  0  0  0
 13 15  1  0  0  0  0
 14 16  1  0  0  0  0
 16 18  1  0  0  0  0
 17 15  1  0  0  0  0
 17 19  1  0  0  0  0
 18 20  1  0  0  0  0
 19 23  1  0  0  0  0
 20 22  1  0  0  0  0
 20 24  1  0  0  0  0
 21 19  1  0  0  0  0
M  END
>  <CHROM.1>
5.42637708,-13.04871764,132.88211754,115.12839619,81.70289212,-69.57072738
-88.30676775,78.76702251,-147.07553157,-160.10632211,5.13265347,-0.06189886
-1.25199881,2.96989982,-0.58687976,1.65430786

>  <Name>
lig.pdb

>  <RI>
1.56215e+07

>  <Rbt.Current_Directory>
/home/itssahil/PROJECTS/Mol_Feturizer/New_Systems/rnas/2l94

>  <Rbt.Executable>
rbdock ($Id: //depot/dev/client3/rdock/2013.1/src/exe/rbdock.cxx#4 $)

>  <Rbt.Library>
libRbt.so (2013.1, Build901 2013/11/27)

>  <Rbt.Parameter_File>
/export/apps/rDock/src/rDock_2013.1_src/data/scripts/dock_solv.prm

>  <Rbt.Receptor>
prm/pocket_docking_2.prm

>  <SCORE>
-19.4801

>  <SCORE.INTER>
-20.2605

>  <SCORE.INTER.CONST>
1

>  <SCORE.INTER.POLAR>
-3.02029

>  <SCORE.INTER.ROT>
10

>  <SCORE.INTER.SOLV>
9.56042

>  <SCORE.INTER.VDW>
-16.8928

>  <SCORE.INTER.norm>
-0.844187

>  <SCORE.INTRA>
0.635164

>  <SCORE.INTRA.DIHEDRAL>
6.54852

>  <SCORE.INTRA.DIHEDRAL.0>
7.52971

>  <SCORE.INTRA.POLAR>
0

>  <SCORE.INTRA.POLAR.0>
0

>  <SCORE.INTRA.REPUL>
0

>  <SCORE.INTRA.REPUL.0>
0

>  <SCORE.INTRA.SOLV>
0.525368

>  <SCORE.INTRA.SOLV.lig_0>
-22.1084

>  <SCORE.INTRA.VDW>
-2.90178

>  <SCORE.INTRA.VDW.0>
2.4256

>  <SCORE.INTRA.norm>
0.0264652

>  <SCORE.RESTR>
0.145269

>  <SCORE.RESTR.CAVITY>
0.145269

>  <SCORE.RESTR.norm>
0.00605286

>  <SCORE.SYSTEM>
0

>  <SCORE.SYSTEM.CONST>
0

>  <SCORE.SYSTEM.DIHEDRAL>
0

>  <SCORE.SYSTEM.SOLV>
0

>  <SCORE.SYSTEM.norm>
0

>  <SCORE.heavy>
24

>  <SCORE.norm>
-0.811669

>  <RMSD>
1.498

$$$$
lig.pdb
 OpenBabel11021811453D
libRbt.so/2013.1/901 2013/11/27
 24 24  0  0  0  0  0  0  0  0999 V2000
    3.4564   -0.0080   -2.0787 C   0  0  0  0  0  0  0  0  0  0  0  0
    3.4260   -1.0303   -3.0862 C   0  0  0  0  0  0  0  0  0  0  0  0
    4.4778   -1.8964   -3.2701 C   0  0  0  0  0  0  0  0  0  0  0  0
    5.6564   -1.8320   -2.4602 C   0  0  0  0  0  0  0  0  0  0  0  0
    5.6994   -0.7892   -1.4770 C   0  0  0  0  0  0  0  0  0  0  0  0
    4.6533    0.0811   -1.2979 C   0  0  0  0  0  0  0  0  0  0  0  0
    2.4045    0.8366   -1.8665 C   0  0  0  0  0  0  0  0  0  0  0  0
    1.1373    0.3996   -1.7050 N   0  0  0  0  0  0  0  0  0  0  0  0
    7.1527   -3.1143   -3.8111 N   0  0  0  0  0  0  0  0  0  0  0  0
    6.6901   -2.7087   -2.6096 C   0  0  0  0  0  0  0  0  0  0  0  0
    2.5554    2.1826   -1.7979 N   0  0  0  0  0  0  0  0  0  0  0  0
    7.3435   -3.2517   -1.5550 N   0  0  0  0  0  0  0  0  0  0  0  0
    1.8138    3.1018   -0.9369 C   0  0  0  0  0  0  0  0  0  0  0  0
    8.6881   -3.8195   -1.5744 C   0  0  0  0  0  0  0  0  0  0  0  0
    1.5953    2.4108    0.4188 C   0  0  0  0  0  0  0  0  0  0  0  0
    9.6927   -2.6543   -1.6441 C   0  0  0  0  0  0  0  0  0  0  0  0
    0.7281    3.2769    1.3428 C   0  0  0  0  0  0  0  0  0  0  0  0
   11.0965   -3.1062   -2.0854 C   0  0  0  0  0  0  0  0  0  0  0  0
    0.2447    2.4407    2.4999 N   0  0  0  0  0  0  0  0  0  0  0  0
   12.1111   -2.0035   -1.9178 N   0  0  0  0  0  0  0  0  0  0  0  0
   -0.8187    1.4843    2.0329 C   0  0  0  0  0  0  0  0  0  0  0  0
   12.1858   -1.6294   -0.4617 C   0  0  0  0  0  0  0  0  0  0  0  0
   -0.3073    3.3128    3.6002 C   0  0  0  0  0  0  0  0  0  0  0  0
   11.7589   -0.7809   -2.7184 C   0  0  0  0  0  0  0  0  0  0  0  0
  1  6  2  0  0  0  0
  2  3  2  0  0  0  0
  2  1  1  0  0  0  0
  3  4  1  0  0  0  0
  4 10  1  0  0  0  0
  4  5  2  0  0  0  0
  6  5  1  0  0  0  0
  7  1  1  0  0  0  0
  7 11  1  0  0  0  0
  8  7  2  0  0  0  0
  9 10  2  0  0  0  0
 10 12  1  0  0  0  0
 12 14  1  0  0  0  0
 13 11  1  0  0  0  0
 13 15  1  0  0  0  0
 14 16  1  0  0  0  0
 16 18  1  0  0  0  0
 17 15  1  0  0  0  0
 17 19  1  0  0  0  0
 18 20  1  0  0  0  0
 19 23  1  0  0  0  0
 20 22  1  0  0  0  0
 20 24  1  0  0  0  0
 21 19  1  0  0  0  0
M  END
>  <CHROM.1>
41.55769650,50.23020752,74.51927539,37.88441391,-175.69973357,-162.98399314
-170.18494708,165.62112430,-73.03495254,61.24974652,5.16832868,-0.36031084
-1.13971483,2.65220246,-0.20948761,0.93454736

>  <Name>
lig.pdb

>  <RI>
1.56215e+07

>  <Rbt.Current_Directory>
/home/itssahil/PROJECTS/Mol_Feturizer/New_Systems/rnas/2l94

>  <Rbt.Executable>
rbdock ($Id: //depot/dev/client3/rdock/2013.1/src/exe/rbdock.cxx#4 $)

>  <Rbt.Library>
libRbt.so (2013.1, Build901 2013/11/27)

>  <Rbt.Parameter_File>
/export/apps/rDock/src/rDock_2013.1_src/data/scripts/dock_solv.prm

>  <Rbt.Receptor>
prm/pocket_docking_2.prm

>  <SCORE>
-8.21352

>  <SCORE.INTER>
-16.6924

>  <SCORE.INTER.CONST>
1

>  <SCORE.INTER.POLAR>
-2.66201

>  <SCORE.INTER.ROT>
10

>  <SCORE.INTER.SOLV>
9.52763

>  <SCORE.INTER.VDW>
-15.6975

>  <SCORE.INTER.norm>
-0.695517

>  <SCORE.INTRA>
6.60885

>  <SCORE.INTRA.DIHEDRAL>
13.1275

>  <SCORE.INTRA.DIHEDRAL.0>
7.52971

>  <SCORE.INTRA.POLAR>
0

>  <SCORE.INTRA.POLAR.0>
0

>  <SCORE.INTRA.REPUL>
0

>  <SCORE.INTRA.REPUL.0>
0

>  <SCORE.INTRA.SOLV>
0.187571

>  <SCORE.INTRA.SOLV.lig_0>
-22.1084

>  <SCORE.INTRA.VDW>
-0.048706

>  <SCORE.INTRA.VDW.0>
2.4256

>  <SCORE.INTRA.norm>
0.275369

>  <SCORE.RESTR>
1.87005

>  <SCORE.RESTR.CAVITY>
1.87005

>  <SCORE.RESTR.norm>
0.0779189

>  <SCORE.SYSTEM>
0

>  <SCORE.SYSTEM.CONST>
0

>  <SCORE.SYSTEM.DIHEDRAL>
0

>  <SCORE.SYSTEM.SOLV>
0

>  <SCORE.SYSTEM.norm>
0

>  <SCORE.heavy>
24

>  <SCORE.norm>
-0.34223

>  <RMSD>
1.507

$$$$
lig.pdb
 OpenBabel11021811453D
libRbt.so/2013.1/901 2013/11/27
 24 24  0  0  0  0  0  0  0  0999 V2000
    4.4312    1.2941   -2.1150 C   0  0  0  0  0  0  0  0  0  0  0  0
    4.6247    0.7798   -3.4413 C   0  0  0  0  0  0  0  0  0  0  0  0
    5.3881   -0.3386   -3.6794 C   0  0  0  0  0  0  0  0  0  0  0  0
    6.0233   -1.0567   -2.6163 C   0  0  0  0  0  0  0  0  0  0  0  0
    5.8569   -0.5226   -1.2962 C   0  0  0  0  0  0  0  0  0  0  0  0
    5.1017    0.5985   -1.0582 C   0  0  0  0  0  0  0  0  0  0  0  0
    3.6493    2.3851   -1.8640 C   0  0  0  0  0  0  0  0  0  0  0  0
    2.6970    2.8142   -2.7196 N   0  0  0  0  0  0  0  0  0  0  0  0
    7.1849   -2.5666   -4.0583 N   0  0  0  0  0  0  0  0  0  0  0  0
    6.7525   -2.1877   -2.8370 C   0  0  0  0  0  0  0  0  0  0  0  0
    3.7684    3.1196   -0.7303 N   0  0  0  0  0  0  0  0  0  0  0  0
    7.1054   -3.0335   -1.8400 N   0  0  0  0  0  0  0  0  0  0  0  0
    2.6866    3.7685    0.0078 C   0  0  0  0  0  0  0  0  0  0  0  0
    8.2102   -3.9869   -1.8700 C   0  0  0  0  0  0  0  0  0  0  0  0
    2.2418    2.8184    1.1314 C   0  0  0  0  0  0  0  0  0  0  0  0
    8.9597   -3.8850   -0.5285 C   0  0  0  0  0  0  0  0  0  0  0  0
    0.7197    2.6207    1.1127 C   0  0  0  0  0  0  0  0  0  0  0  0
    9.7246   -2.5579   -0.3751 C   0  0  0  0  0  0  0  0  0  0  0  0
    0.2535    2.2142    2.4871 N   0  0  0  0  0  0  0  0  0  0  0  0
   11.0920   -2.6310   -1.0063 N   0  0  0  0  0  0  0  0  0  0  0  0
   -1.0540    1.4765    2.3882 C   0  0  0  0  0  0  0  0  0  0  0  0
   11.9372   -1.5089   -0.4660 C   0  0  0  0  0  0  0  0  0  0  0  0
    0.0876    3.4207    3.3775 C   0  0  0  0  0  0  0  0  0  0  0  0
   11.0328   -2.5198   -2.5044 C   0  0  0  0  0  0  0  0  0  0  0  0
  1  6  2  0  0  0  0
  2  3  2  0  0  0  0
  2  1  1  0  0  0  0
  3  4  1  0  0  0  0
  4 10  1  0  0  0  0
  4  5  2  0  0  0  0
  6  5  1  0  0  0  0
  7  1  1  0  0  0  0
  7 11  1  0  0  0  0
  8  7  2  0  0  0  0
  9 10  2  0  0  0  0
 10 12  1  0  0  0  0
 12 14  1  0  0  0  0
 13 11  1  0  0  0  0
 13 15  1  0  0  0  0
 14 16  1  0  0  0  0
 16 18  1  0  0  0  0
 17 15  1  0  0  0  0
 17 19  1  0  0  0  0
 18 20  1  0  0  0  0
 19 23  1  0  0  0  0
 20 22  1  0  0  0  0
 20 24  1  0  0  0  0
 21 19  1  0  0  0  0
M  END
>  <CHROM.1>
14.92644409,20.76002037,135.23373210,94.98708291,-129.09926768,-69.49783735
-85.44415507,-155.90406750,-156.40093976,-162.36315449,5.36041815,0.01628760
-0.97050330,2.91768552,-0.59336488,1.67161300

>  <Name>
lig.pdb

>  <RI>
1.56215e+07

>  <Rbt.Current_Directory>
/home/itssahil/PROJECTS/Mol_Feturizer/New_Systems/rnas/2l94

>  <Rbt.Executable>
rbdock ($Id: //depot/dev/client3/rdock/2013.1/src/exe/rbdock.cxx#4 $)

>  <Rbt.Library>
libRbt.so (2013.1, Build901 2013/11/27)

>  <Rbt.Parameter_File>
/export/apps/rDock/src/rDock_2013.1_src/data/scripts/dock_solv.prm

>  <Rbt.Receptor>
prm/pocket_docking_2.prm

>  <SCORE>
-14.5367

>  <SCORE.INTER>
-17.2235

>  <SCORE.INTER.CONST>
1

>  <SCORE.INTER.POLAR>
-2.71277

>  <SCORE.INTER.ROT>
10

>  <SCORE.INTER.SOLV>
8.54809

>  <SCORE.INTER.VDW>
-15.5558

>  <SCORE.INTER.norm>
-0.717647

>  <SCORE.INTRA>
2.66154

>  <SCORE.INTRA.DIHEDRAL>
11.1248

>  <SCORE.INTRA.DIHEDRAL.0>
7.52971

>  <SCORE.INTRA.POLAR>
0

>  <SCORE.INTRA.POLAR.0>
0

>  <SCORE.INTRA.REPUL>
0

>  <SCORE.INTRA.REPUL.0>
0

>  <SCORE.INTRA.SOLV>
0.453974

>  <SCORE.INTRA.SOLV.lig_0>
-22.1084

>  <SCORE.INTRA.VDW>
-3.12783

>  <SCORE.INTRA.VDW.0>
2.4256

>  <SCORE.INTRA.norm>
0.110897

>  <SCORE.RESTR>
0.0252912

>  <SCORE.RESTR.CAVITY>
0.0252912

>  <SCORE.RESTR.norm>
0.0010538

>  <SCORE.SYSTEM>
0

>  <SCORE.SYSTEM.CONST>
0

>  <SCORE.SYSTEM.DIHEDRAL>
0

>  <SCORE.SYSTEM.SOLV>
0

>  <SCORE.SYSTEM.norm>
0

>  <SCORE.heavy>
24

>  <SCORE.norm>
-0.605696

>  <RMSD>
1.512

$$$$
lig.pdb
 OpenBabel11021811453D
libRbt.so/2013.1/901 2013/11/27
 24 24  0  0  0  0  0  0  0  0999 V2000
    4.1739    1.3563   -2.1314 C   0  0  0  0  0  0  0  0  0  0  0  0
    5.0228    0.7951   -1.1187 C   0  0  0  0  0  0  0  0  0  0  0  0
    5.8300   -0.2890   -1.3703 C   0  0  0  0  0  0  0  0  0  0  0  0
    5.8751   -0.9109   -2.6589 C   0  0  0  0  0  0  0  0  0  0  0  0
    5.0019   -0.3706   -3.6596 C   0  0  0  0  0  0  0  0  0  0  0  0
    4.1897    0.7066   -3.4073 C   0  0  0  0  0  0  0  0  0  0  0  0
    3.3924    2.4522   -1.9012 C   0  0  0  0  0  0  0  0  0  0  0  0
    2.5743    2.9765   -2.8388 N   0  0  0  0  0  0  0  0  0  0  0  0
    7.1731   -2.2374   -4.1635 N   0  0  0  0  0  0  0  0  0  0  0  0
    6.6986   -1.9635   -2.9298 C   0  0  0  0  0  0  0  0  0  0  0  0
    3.3764    3.0960   -0.7078 N   0  0  0  0  0  0  0  0  0  0  0  0
    7.1114   -2.8305   -1.9749 N   0  0  0  0  0  0  0  0  0  0  0  0
    2.2216    3.7255   -0.0704 C   0  0  0  0  0  0  0  0  0  0  0  0
    8.2925   -3.6857   -2.0406 C   0  0  0  0  0  0  0  0  0  0  0  0
    1.6873    2.7623    1.0019 C   0  0  0  0  0  0  0  0  0  0  0  0
    8.8151   -3.8817   -0.6052 C   0  0  0  0  0  0  0  0  0  0  0  0
    0.2726    3.1623    1.4431 C   0  0  0  0  0  0  0  0  0  0  0  0
   10.1995   -3.2454   -0.3853 C   0  0  0  0  0  0  0  0  0  0  0  0
   -0.0609    2.4655    2.7373 N   0  0  0  0  0  0  0  0  0  0  0  0
   10.1820   -1.7666   -0.6792 N   0  0  0  0  0  0  0  0  0  0  0  0
   -0.4592    1.0404    2.4651 C   0  0  0  0  0  0  0  0  0  0  0  0
   10.7551   -1.5374   -2.0519 C   0  0  0  0  0  0  0  0  0  0  0  0
   -1.1810    3.1751    3.4571 C   0  0  0  0  0  0  0  0  0  0  0  0
   10.9813   -0.9791    0.3212 C   0  0  0  0  0  0  0  0  0  0  0  0
  1  6  2  0  0  0  0
  2  3  2  0  0  0  0
  2  1  1  0  0  0  0
  3  4  1  0  0  0  0
  4 10  1  0  0  0  0
  4  5  2  0  0  0  0
  6  5  1  0  0  0  0
  7  1  1  0  0  0  0
  7 11  1  0  0  0  0
  8  7  2  0  0  0  0
  9 10  2  0  0  0  0
 10 12  1  0  0  0  0
 12 14  1  0  0  0  0
 13 11  1  0  0  0  0
 13 15  1  0  0  0  0
 14 16  1  0  0  0  0
 16 18  1  0  0  0  0
 17 15  1  0  0  0  0
 17 19  1  0  0  0  0
 18 20  1  0  0  0  0
 19 23  1  0  0  0  0
 20 22  1  0  0  0  0
 20 24  1  0  0  0  0
 21 19  1  0  0  0  0
M  END
>  <CHROM.1>
-152.84130340,-178.92977481,149.32358297,100.26300358,-164.37045520,-114.25067686
58.21903905,-164.02590805,-79.11393086,-100.24564915,5.08794128,0.17308687
-0.91358450,2.91960643,-0.57500346,1.68644615

>  <Name>
lig.pdb

>  <RI>
1.56215e+07

>  <Rbt.Current_Directory>
/home/itssahil/PROJECTS/Mol_Feturizer/New_Systems/rnas/2l94

>  <Rbt.Executable>
rbdock ($Id: //depot/dev/client3/rdock/2013.1/src/exe/rbdock.cxx#4 $)

>  <Rbt.Library>
libRbt.so (2013.1, Build901 2013/11/27)

>  <Rbt.Parameter_File>
/export/apps/rDock/src/rDock_2013.1_src/data/scripts/dock_solv.prm

>  <Rbt.Receptor>
prm/pocket_docking_2.prm

>  <SCORE>
-6.67783

>  <SCORE.INTER>
-9.47343

>  <SCORE.INTER.CONST>
1

>  <SCORE.INTER.POLAR>
-1.59922

>  <SCORE.INTER.ROT>
10

>  <SCORE.INTER.SOLV>
7.79599

>  <SCORE.INTER.VDW>
-13.8502

>  <SCORE.INTER.norm>
-0.394726

>  <SCORE.INTRA>
2.79559

>  <SCORE.INTRA.DIHEDRAL>
10.8444

>  <SCORE.INTRA.DIHEDRAL.0>
7.52971

>  <SCORE.INTRA.POLAR>
0

>  <SCORE.INTRA.POLAR.0>
0

>  <SCORE.INTRA.REPUL>
0

>  <SCORE.INTRA.REPUL.0>
0

>  <SCORE.INTRA.SOLV>
0.493029

>  <SCORE.INTRA.SOLV.lig_0>
-22.1084

>  <SCORE.INTRA.VDW>
-2.87313

>  <SCORE.INTRA.VDW.0>
2.4256

>  <SCORE.INTRA.norm>
0.116483

>  <SCORE.RESTR>
0

>  <SCORE.RESTR.CAVITY>
0

>  <SCORE.RESTR.norm>
0

>  <SCORE.SYSTEM>
0

>  <SCORE.SYSTEM.CONST>
0

>  <SCORE.SYSTEM.DIHEDRAL>
0

>  <SCORE.SYSTEM.SOLV>
0

>  <SCORE.SYSTEM.norm>
0

>  <SCORE.heavy>
24

>  <SCORE.norm>
-0.278243

>  <RMSD>
1.519

$$$$
lig.pdb
 OpenBabel11021811453D
libRbt.so/2013.1/901 2013/11/27
 24 24  0  0  0  0  0  0  0  0999 V2000
    5.9550   -1.8639   -2.1489 C   0  0  0  0  0  0  0  0  0  0  0  0
    5.1902   -1.0755   -3.0732 C   0  0  0  0  0  0  0  0  0  0  0  0
    4.3144   -0.1059   -2.6452 C   0  0  0  0  0  0  0  0  0  0  0  0
    4.1252    0.1767   -1.2546 C   0  0  0  0  0  0  0  0  0  0  0  0
    4.8644   -0.6343   -0.3318 C   0  0  0  0  0  0  0  0  0  0  0  0
    5.7329   -1.6080   -0.7577 C   0  0  0  0  0  0  0  0  0  0  0  0
    6.8510   -2.8072   -2.5641 C   0  0  0  0  0  0  0  0  0  0  0  0
    7.6085   -2.6582   -3.6718 N   0  0  0  0  0  0  0  0  0  0  0  0
    3.5742    1.9787    0.2143 N   0  0  0  0  0  0  0  0  0  0  0  0
    3.2866    1.1604   -0.8201 C   0  0  0  0  0  0  0  0  0  0  0  0
    7.0505   -3.9668   -1.8899 N   0  0  0  0  0  0  0  0  0  0  0  0
    2.0837    1.3992   -1.3946 N   0  0  0  0  0  0  0  0  0  0  0  0
    8.3178   -4.6772   -1.7301 C   0  0  0  0  0  0  0  0  0  0  0  0
    1.3282    2.6461   -1.3245 C   0  0  0  0  0  0  0  0  0  0  0  0
    9.2176   -3.8413   -0.8057 C   0  0  0  0  0  0  0  0  0  0  0  0
    0.1331    2.4226   -0.3792 C   0  0  0  0  0  0  0  0  0  0  0  0
    9.9392   -2.7386   -1.5926 C   0  0  0  0  0  0  0  0  0  0  0  0
    0.4374    2.8387    1.0713 C   0  0  0  0  0  0  0  0  0  0  0  0
   11.2767   -2.4649   -0.9536 N   0  0  0  0  0  0  0  0  0  0  0  0
   -0.6861    2.4602    2.0030 N   0  0  0  0  0  0  0  0  0  0  0  0
   11.1069   -1.5273    0.2107 C   0  0  0  0  0  0  0  0  0  0  0  0
   -0.6319    3.3498    3.2159 C   0  0  0  0  0  0  0  0  0  0  0  0
   12.2364   -1.8645   -1.9509 C   0  0  0  0  0  0  0  0  0  0  0  0
   -0.5988    1.0261    2.4451 C   0  0  0  0  0  0  0  0  0  0  0  0
  1  6  2  0  0  0  0
  2  3  2  0  0  0  0
  2  1  1  0  0  0  0
  3  4  1  0  0  0  0
  4 10  1  0  0  0  0
  4  5  2  0  0  0  0
  6  5  1  0  0  0  0
  7  1  1  0  0  0  0
  7 11  1  0  0  0  0
  8  7  2  0  0  0  0
  9 10  2  0  0  0  0
 10 12  1  0  0  0  0
 12 14  1  0  0  0  0
 13 11  1  0  0  0  0
 13 15  1  0  0  0  0
 14 16  1  0  0  0  0
 16 18  1  0  0  0  0
 17 15  1  0  0  0  0
 17 19  1  0  0  0  0
 18 20  1  0  0  0  0
 19 23  1  0  0  0  0
 20 22  1  0  0  0  0
 20 24  1  0  0  0  0
 21 19  1  0  0  0  0
M  END
>  <CHROM.1>
-140.16280420,35.58767639,-106.79788695,69.70309834,-83.01334692,93.61712694
-173.28557261,-148.91989084,-82.56901831,-156.55943570,5.12121129,-0.49769242
-0.79404986,0.45534150,0.33525923,-2.07868090

>  <Name>
lig.pdb

>  <RI>
1.56215e+07

>  <Rbt.Current_Directory>
/home/itssahil/PROJECTS/Mol_Feturizer/New_Systems/rnas/2l94

>  <Rbt.Executable>
rbdock ($Id: //depot/dev/client3/rdock/2013.1/src/exe/rbdock.cxx#4 $)

>  <Rbt.Library>
libRbt.so (2013.1, Build901 2013/11/27)

>  <Rbt.Parameter_File>
/export/apps/rDock/src/rDock_2013.1_src/data/scripts/dock_solv.prm

>  <Rbt.Receptor>
prm/pocket_docking_2.prm

>  <SCORE>
-9.7397

>  <SCORE.INTER>
-14.8598

>  <SCORE.INTER.CONST>
1

>  <SCORE.INTER.POLAR>
-1.98428

>  <SCORE.INTER.ROT>
10

>  <SCORE.INTER.SOLV>
8.04195

>  <SCORE.INTER.VDW>
-16.2396

>  <SCORE.INTER.norm>
-0.619158

>  <SCORE.INTRA>
4.89066

>  <SCORE.INTRA.DIHEDRAL>
17.3553

>  <SCORE.INTRA.DIHEDRAL.0>
7.52971

>  <SCORE.INTRA.POLAR>
0

>  <SCORE.INTRA.POLAR.0>
0

>  <SCORE.INTRA.REPUL>
0

>  <SCORE.INTRA.REPUL.0>
0

>  <SCORE.INTRA.SOLV>
0.795895

>  <SCORE.INTRA.SOLV.lig_0>
-22.1084

>  <SCORE.INTRA.VDW>
-4.18494

>  <SCORE.INTRA.VDW.0>
2.4256

>  <SCORE.INTRA.norm>
0.203778

>  <SCORE.RESTR>
0.22943

>  <SCORE.RESTR.CAVITY>
0.22943

>  <SCORE.RESTR.norm>
0.00955959

>  <SCORE.SYSTEM>
0

>  <SCORE.SYSTEM.CONST>
0

>  <SCORE.SYSTEM.DIHEDRAL>
0

>  <SCORE.SYSTEM.SOLV>
0

>  <SCORE.SYSTEM.norm>
0

>  <SCORE.heavy>
24

>  <SCORE.norm>
-0.405821

>  <RMSD>
1.528

$$$$
lig.pdb
 OpenBabel11021811453D
libRbt.so/2013.1/901 2013/11/27
 24 24  0  0  0  0  0  0  0  0999 V2000
    3.5714   -0.0506   -2.4080 C   0  0  0  0  0  0  0  0  0  0  0  0
    3.8379   -0.9696   -1.3377 C   0  0  0  0  0  0  0  0  0  0  0  0
    4.9668   -1.7542   -1.3220 C   0  0  0  0  0  0  0  0  0  0  0  0
    5.9428   -1.6899   -2.3673 C   0  0  0  0  0  0  0  0  0  0  0  0
    5.6587   -0.7964   -3.4521 C   0  0  0  0  0  0  0  0  0  0  0  0
    4.5281   -0.0186   -3.4728 C   0  0  0  0  0  0  0  0  0  0  0  0
    2.4697    0.7561   -2.4175 C   0  0  0  0  0  0  0  0  0  0  0  0
    1.2435    0.3230   -2.0544 N   0  0  0  0  0  0  0  0  0  0  0  0
    7.8899   -2.5953   -3.4148 N   0  0  0  0  0  0  0  0  0  0  0  0
    7.0836   -2.4367   -2.3439 C   0  0  0  0  0  0  0  0  0  0  0  0
    2.5257    2.0589   -2.7901 N   0  0  0  0  0  0  0  0  0  0  0  0
    7.5052   -3.0887   -1.2343 N   0  0  0  0  0  0  0  0  0  0  0  0
    1.7504    3.1625   -2.2270 C   0  0  0  0  0  0  0  0  0  0  0  0
    8.8702   -3.5266   -0.9593 C   0  0  0  0  0  0  0  0  0  0  0  0
    2.2459    3.4077   -0.7927 C   0  0  0  0  0  0  0  0  0  0  0  0
    9.7002   -2.2835   -0.5885 C   0  0  0  0  0  0  0  0  0  0  0  0
    1.2182    2.9142    0.2350 C   0  0  0  0  0  0  0  0  0  0  0  0
   11.2140   -2.5632   -0.5730 C   0  0  0  0  0  0  0  0  0  0  0  0
    1.7103    3.2326    1.6236 N   0  0  0  0  0  0  0  0  0  0  0  0
   12.0086   -1.2975   -0.3725 N   0  0  0  0  0  0  0  0  0  0  0  0
    2.8591    2.3292    1.9807 C   0  0  0  0  0  0  0  0  0  0  0  0
   13.4001   -1.5079   -0.9064 C   0  0  0  0  0  0  0  0  0  0  0  0
    0.6044    3.0692    2.6368 C   0  0  0  0  0  0  0  0  0  0  0  0
   12.0958   -0.9049    1.0760 C   0  0  0  0  0  0  0  0  0  0  0  0
  1  6  2  0  0  0  0
  2  3  2  0  0  0  0
  2  1  1  0  0  0  0
  3  4  1  0  0  0  0
  4 10  1  0  0  0  0
  4  5  2  0  0  0  0
  6  5  1  0  0  0  0
  7  1  1  0  0  0  0
  7 11  1  0  0  0  0
  8  7  2  0  0  0  0
  9 10  2  0  0  0  0
 10 12  1  0  0  0  0
 12 14  1  0  0  0  0
 13 11  1  0  0  0  0
 13 15  1  0  0  0  0
 14 16  1  0  0  0  0
 16 18  1  0  0  0  0
 17 15  1  0  0  0  0
 17 19  1  0  0  0  0
 18 20  1  0  0  0  0
 19 23  1  0  0  0  0
 20 22  1  0  0  0  0
 20 24  1  0  0  0  0
 21 19  1  0  0  0  0
M  END
>  <CHROM.1>
166.84669406,-42.32524928,74.54900562,68.91043833,-107.01687517,-167.57568479
173.10653393,-177.27902321,-72.14404669,-157.32813269,5.66097415,-0.14311607
-1.08915697,2.83854151,-0.35502589,0.95525423

>  <Name>
lig.pdb

>  <RI>
1.56215e+07

>  <Rbt.Current_Directory>
/home/itssahil/PROJECTS/Mol_Feturizer/New_Systems/rnas/2l94

>  <Rbt.Executable>
rbdock ($Id: //depot/dev/client3/rdock/2013.1/src/exe/rbdock.cxx#4 $)

>  <Rbt.Library>
libRbt.so (2013.1, Build901 2013/11/27)

>  <Rbt.Parameter_File>
/export/apps/rDock/src/rDock_2013.1_src/data/scripts/dock_solv.prm

>  <Rbt.Receptor>
prm/pocket_docking_2.prm

>  <SCORE>
-11.9706

>  <SCORE.INTER>
-15.7068

>  <SCORE.INTER.CONST>
1

>  <SCORE.INTER.POLAR>
-2.23912

>  <SCORE.INTER.ROT>
10

>  <SCORE.INTER.SOLV>
9.99238

>  <SCORE.INTER.VDW>
-16.6049

>  <SCORE.INTER.norm>
-0.654449

>  <SCORE.INTRA>
2.31233

>  <SCORE.INTRA.DIHEDRAL>
10.906

>  <SCORE.INTRA.DIHEDRAL.0>
7.52971

>  <SCORE.INTRA.POLAR>
0

>  <SCORE.INTRA.POLAR.0>
0

>  <SCORE.INTRA.REPUL>
0

>  <SCORE.INTRA.REPUL.0>
0

>  <SCORE.INTRA.SOLV>
0.361219

>  <SCORE.INTRA.SOLV.lig_0>
-22.1084

>  <SCORE.INTRA.VDW>
-3.3213

>  <SCORE.INTRA.VDW.0>
2.4256

>  <SCORE.INTRA.norm>
0.096347

>  <SCORE.RESTR>
1.42381

>  <SCORE.RESTR.CAVITY>
1.42381

>  <SCORE.RESTR.norm>
0.0593255

>  <SCORE.SYSTEM>
0

>  <SCORE.SYSTEM.CONST>
0

>  <SCORE.SYSTEM.DIHEDRAL>
0

>  <SCORE.SYSTEM.SOLV>
0

>  <SCORE.SYSTEM.norm>
0

>  <SCORE.heavy>
24

>  <SCORE.norm>
-0.498777

>  <RMSD>
1.553

$$$$
lig.pdb
 OpenBabel11021811453D
libRbt.so/2013.1/901 2013/11/27
 24 24  0  0  0  0  0  0  0  0999 V2000
    6.0303   -1.3018   -2.6448 C   0  0  0  0  0  0  0  0  0  0  0  0
    5.5483   -0.4626   -3.7052 C   0  0  0  0  0  0  0  0  0  0  0  0
    4.8399    0.6881   -3.4521 C   0  0  0  0  0  0  0  0  0  0  0  0
    4.5530    1.1171   -2.1168 C   0  0  0  0  0  0  0  0  0  0  0  0
    5.0058    0.2606   -1.0598 C   0  0  0  0  0  0  0  0  0  0  0  0
    5.7061   -0.8926   -1.3115 C   0  0  0  0  0  0  0  0  0  0  0  0
    6.7621   -2.4296   -2.8842 C   0  0  0  0  0  0  0  0  0  0  0  0
    7.2942   -2.7129   -4.0924 N   0  0  0  0  0  0  0  0  0  0  0  0
    3.1366    2.9268   -2.7700 N   0  0  0  0  0  0  0  0  0  0  0  0
    3.8829    2.2752   -1.8533 C   0  0  0  0  0  0  0  0  0  0  0  0
    7.0136   -3.3510   -1.9215 N   0  0  0  0  0  0  0  0  0  0  0  0
    3.9123    2.8741   -0.6390 N   0  0  0  0  0  0  0  0  0  0  0  0
    8.2376   -4.1333   -1.7596 C   0  0  0  0  0  0  0  0  0  0  0  0
    2.9279    3.8192   -0.1210 C   0  0  0  0  0  0  0  0  0  0  0  0
    8.8637   -3.7608   -0.4060 C   0  0  0  0  0  0  0  0  0  0  0  0
    1.6303    3.0410    0.1662 C   0  0  0  0  0  0  0  0  0  0  0  0
    9.6103   -2.4227   -0.4962 C   0  0  0  0  0  0  0  0  0  0  0  0
    1.2474    3.0544    1.6571 C   0  0  0  0  0  0  0  0  0  0  0  0
   10.9916   -2.6597   -1.0508 N   0  0  0  0  0  0  0  0  0  0  0  0
   -0.2466    2.9778    1.8456 N   0  0  0  0  0  0  0  0  0  0  0  0
   11.9574   -1.6663   -0.4645 C   0  0  0  0  0  0  0  0  0  0  0  0
   -0.5789    3.3742    3.2590 C   0  0  0  0  0  0  0  0  0  0  0  0
   10.9950   -2.5414   -2.5548 C   0  0  0  0  0  0  0  0  0  0  0  0
   -0.7817    1.5969    1.5873 C   0  0  0  0  0  0  0  0  0  0  0  0
  1  6  2  0  0  0  0
  2  3  2  0  0  0  0
  2  1  1  0  0  0  0
  3  4  1  0  0  0  0
  4 10  1  0  0  0  0
  4  5  2  0  0  0  0
  6  5  1  0  0  0  0
  7  1  1  0  0  0  0
  7 11  1  0  0  0  0
  8  7  2  0  0  0  0
  9 10  2  0  0  0  0
 10 12  1  0  0  0  0
 12 14  1  0  0  0  0
 13 11  1  0  0  0  0
 13 15  1  0  0  0  0
 14 16  1  0  0  0  0
 16 18  1  0  0  0  0
 17 15  1  0  0  0  0
 17 19  1  0  0  0  0
 18 20  1  0  0  0  0
 19 23  1  0  0  0  0
 20 22  1  0  0  0  0
 20 24  1  0  0  0  0
 21 19  1  0  0  0  0
M  END
>  <CHROM.1>
18.05869590,12.43507048,70.55293586,117.43677899,-78.55654183,117.00380363
149.86659735,-83.03384454,-147.98161965,-164.47123792,5.35667094,-0.00853661
-1.07372839,0.22952902,0.60340573,-1.52065994

>  <Name>
lig.pdb

>  <RI>
1.56215e+07

>  <Rbt.Current_Directory>
/home/itssahil/PROJECTS/Mol_Feturizer/New_Systems/rnas/2l94

>  <Rbt.Executable>
rbdock ($Id: //depot/dev/client3/rdock/2013.1/src/exe/rbdock.cxx#4 $)

>  <Rbt.Library>
libRbt.so (2013.1, Build901 2013/11/27)

>  <Rbt.Parameter_File>
/export/apps/rDock/src/rDock_2013.1_src/data/scripts/dock_solv.prm

>  <Rbt.Receptor>
prm/pocket_docking_2.prm

>  <SCORE>
-19.9791

>  <SCORE.INTER>
-23.4707

>  <SCORE.INTER.CONST>
1

>  <SCORE.INTER.POLAR>
-3.81686

>  <SCORE.INTER.ROT>
10

>  <SCORE.INTER.SOLV>
9.20856

>  <SCORE.INTER.VDW>
-16.2604

>  <SCORE.INTER.norm>
-0.977944

>  <SCORE.INTRA>
3.38547

>  <SCORE.INTRA.DIHEDRAL>
12.7866

>  <SCORE.INTRA.DIHEDRAL.0>
7.52971

>  <SCORE.INTRA.POLAR>
0

>  <SCORE.INTRA.POLAR.0>
0

>  <SCORE.INTRA.REPUL>
0

>  <SCORE.INTRA.REPUL.0>
0

>  <SCORE.INTRA.SOLV>
0.56627

>  <SCORE.INTRA.SOLV.lig_0>
-22.1084

>  <SCORE.INTRA.VDW>
-3.29096

>  <SCORE.INTRA.VDW.0>
2.4256

>  <SCORE.INTRA.norm>
0.141061

>  <SCORE.RESTR>
0.106064

>  <SCORE.RESTR.CAVITY>
0.106064

>  <SCORE.RESTR.norm>
0.00441935

>  <SCORE.SYSTEM>
0

>  <SCORE.SYSTEM.CONST>
0

>  <SCORE.SYSTEM.DIHEDRAL>
0

>  <SCORE.SYSTEM.SOLV>
0

>  <SCORE.SYSTEM.norm>
0

>  <SCORE.heavy>
24

>  <SCORE.norm>
-0.832463

>  <RMSD>
1.568

$$$$
lig.pdb
 OpenBabel11021811453D
libRbt.so/2013.1/901 2013/11/27
 24 24  0  0  0  0  0  0  0  0999 V2000
    6.7914   -1.1834   -1.1289 C   0  0  0  0  0  0  0  0  0  0  0  0
    6.9029   -0.5299    0.1445 C   0  0  0  0  0  0  0  0  0  0  0  0
    5.9757    0.3926    0.5679 C   0  0  0  0  0  0  0  0  0  0  0  0
    4.8432    0.7443   -0.2341 C   0  0  0  0  0  0  0  0  0  0  0  0
    4.7513    0.1161   -1.5196 C   0  0  0  0  0  0  0  0  0  0  0  0
    5.6807   -0.7990   -1.9468 C   0  0  0  0  0  0  0  0  0  0  0  0
    7.6890   -2.1244   -1.5455 C   0  0  0  0  0  0  0  0  0  0  0  0
    7.6870   -2.6335   -2.7960 N   0  0  0  0  0  0  0  0  0  0  0  0
    4.0701    2.4486    1.2512 N   0  0  0  0  0  0  0  0  0  0  0  0
    3.8981    1.6307    0.1912 C   0  0  0  0  0  0  0  0  0  0  0  0
    8.6560   -2.6169   -0.7322 N   0  0  0  0  0  0  0  0  0  0  0  0
    2.6967    1.7641   -0.4194 N   0  0  0  0  0  0  0  0  0  0  0  0
   10.0122   -2.9996   -1.1201 C   0  0  0  0  0  0  0  0  0  0  0  0
    1.8201    2.9290   -0.3500 C   0  0  0  0  0  0  0  0  0  0  0  0
   10.9350   -1.7957   -0.8712 C   0  0  0  0  0  0  0  0  0  0  0  0
    0.3645    2.4261   -0.3450 C   0  0  0  0  0  0  0  0  0  0  0  0
   12.3831   -2.1245   -1.2597 C   0  0  0  0  0  0  0  0  0  0  0  0
   -0.1038    1.9769    1.0510 C   0  0  0  0  0  0  0  0  0  0  0  0
   13.2041   -0.8606   -1.2363 N   0  0  0  0  0  0  0  0  0  0  0  0
   -0.3217    3.1545    1.9672 N   0  0  0  0  0  0  0  0  0  0  0  0
   13.0518   -0.1256   -2.5401 C   0  0  0  0  0  0  0  0  0  0  0  0
    0.8371    3.2470    2.9234 C   0  0  0  0  0  0  0  0  0  0  0  0
   14.6612   -1.1701   -0.9972 C   0  0  0  0  0  0  0  0  0  0  0  0
   -1.5962    3.0332    2.7550 C   0  0  0  0  0  0  0  0  0  0  0  0
  1  6  2  0  0  0  0
  2  3  2  0  0  0  0
  2  1  1  0  0  0  0
  3  4  1  0  0  0  0
  4 10  1  0  0  0  0
  4  5  2  0  0  0  0
  6  5  1  0  0  0  0
  7  1  1  0  0  0  0
  7 11  1  0  0  0  0
  8  7  2  0  0  0  0
  9 10  2  0  0  0  0
 10 12  1  0  0  0  0
 12 14  1  0  0  0  0
 13 11  1  0  0  0  0
 13 15  1  0  0  0  0
 14 16  1  0  0  0  0
 16 18  1  0  0  0  0
 17 15  1  0  0  0  0
 17 19  1  0  0  0  0
 18 20  1  0  0  0  0
 19 23  1  0  0  0  0
 20 22  1  0  0  0  0
 20 24  1  0  0  0  0
 21 19  1  0  0  0  0
M  END
>  <CHROM.1>
13.99102756,-172.14710546,-144.25489265,94.22219961,-179.91533969,81.77534657
72.50056879,170.00607940,-83.95508267,-103.50160647,6.04945905,0.23287427
-0.31946522,0.42450835,0.04403143,-2.47783034

>  <Name>
lig.pdb

>  <RI>
0

>  <Rbt.Current_Directory>
/home/itssahil/PROJECTS/Mol_Feturizer/New_Systems/rnas/2l94

>  <Rbt.Executable>
rbdock ($Id: //depot/dev/client3/rdock/2013.1/src/exe/rbdock.cxx#4 $)

>  <Rbt.Library>
libRbt.so (2013.1, Build901 2013/11/27)

>  <Rbt.Parameter_File>
/export/apps/rDock/src/rDock_2013.1_src/data/scripts/dock_solv.prm

>  <Rbt.Receptor>
prm/pocket_docking_4.prm

>  <SCORE>
-13.7886

>  <SCORE.INTER>
-13.6532

>  <SCORE.INTER.CONST>
1

>  <SCORE.INTER.POLAR>
-1.93817

>  <SCORE.INTER.ROT>
10

>  <SCORE.INTER.SOLV>
5.47573

>  <SCORE.INTER.VDW>
-14.7335

>  <SCORE.INTER.norm>
-0.568885

>  <SCORE.INTRA>
-0.135368

>  <SCORE.INTRA.DIHEDRAL>
5.20646

>  <SCORE.INTRA.DIHEDRAL.0>
7.52971

>  <SCORE.INTRA.POLAR>
0

>  <SCORE.INTRA.POLAR.0>
0

>  <SCORE.INTRA.REPUL>
0

>  <SCORE.INTRA.REPUL.0>
0

>  <SCORE.INTRA.SOLV>
0.42965

>  <SCORE.INTRA.SOLV.lig_0>
-22.1084

>  <SCORE.INTRA.VDW>
-2.95342

>  <SCORE.INTRA.VDW.0>
2.4256

>  <SCORE.INTRA.norm>
-0.00564032

>  <SCORE.RESTR>
0

>  <SCORE.RESTR.CAVITY>
0

>  <SCORE.RESTR.norm>
0

>  <SCORE.SYSTEM>
0

>  <SCORE.SYSTEM.CONST>
0

>  <SCORE.SYSTEM.DIHEDRAL>
0

>  <SCORE.SYSTEM.SOLV>
0

>  <SCORE.SYSTEM.norm>
0

>  <SCORE.heavy>
24

>  <SCORE.norm>
-0.574526

>  <RMSD>
1.577

$$$$
lig.pdb
 OpenBabel11021811453D
libRbt.so/2013.1/901 2013/11/27
 24 24  0  0  0  0  0  0  0  0999 V2000
    5.8256   -1.2654   -2.6643 C   0  0  0  0  0  0  0  0  0  0  0  0
    5.4328   -1.0195   -1.3056 C   0  0  0  0  0  0  0  0  0  0  0  0
    4.6095    0.0287   -0.9688 C   0  0  0  0  0  0  0  0  0  0  0  0
    4.0911    0.9261   -1.9564 C   0  0  0  0  0  0  0  0  0  0  0  0
    4.5112    0.6995   -3.3084 C   0  0  0  0  0  0  0  0  0  0  0  0
    5.3397   -0.3418   -3.6447 C   0  0  0  0  0  0  0  0  0  0  0  0
    6.6169   -2.3221   -3.0136 C   0  0  0  0  0  0  0  0  0  0  0  0
    7.2579   -2.3946   -4.1998 N   0  0  0  0  0  0  0  0  0  0  0  0
    2.5119    2.6168   -2.5532 N   0  0  0  0  0  0  0  0  0  0  0  0
    3.2447    1.9470   -1.6385 C   0  0  0  0  0  0  0  0  0  0  0  0
    6.8221   -3.3800   -2.1904 N   0  0  0  0  0  0  0  0  0  0  0  0
    3.0687    2.3788   -0.3671 N   0  0  0  0  0  0  0  0  0  0  0  0
    8.0571   -4.1485   -2.0470 C   0  0  0  0  0  0  0  0  0  0  0  0
    1.9164    3.1175    0.1398 C   0  0  0  0  0  0  0  0  0  0  0  0
    8.5843   -3.9378   -0.6185 C   0  0  0  0  0  0  0  0  0  0  0  0
    1.8076    2.8451    1.6517 C   0  0  0  0  0  0  0  0  0  0  0  0
    9.2855   -2.5787   -0.4871 C   0  0  0  0  0  0  0  0  0  0  0  0
    0.5778    3.5169    2.2890 C   0  0  0  0  0  0  0  0  0  0  0  0
   10.7406   -2.7322   -0.8487 N   0  0  0  0  0  0  0  0  0  0  0  0
   -0.6945    2.7862    1.9411 N   0  0  0  0  0  0  0  0  0  0  0  0
   11.5564   -1.6764   -0.1534 C   0  0  0  0  0  0  0  0  0  0  0  0
   -1.8622    3.5453    2.5118 C   0  0  0  0  0  0  0  0  0  0  0  0
   10.9385   -2.6235   -2.3404 C   0  0  0  0  0  0  0  0  0  0  0  0
   -0.7112    1.3845    2.4841 C   0  0  0  0  0  0  0  0  0  0  0  0
  1  6  2  0  0  0  0
  2  3  2  0  0  0  0
  2  1  1  0  0  0  0
  3  4  1  0  0  0  0
  4 10  1  0  0  0  0
  4  5  2  0  0  0  0
  6  5  1  0  0  0  0
  7  1  1  0  0  0  0
  7 11  1  0  0  0  0
  8  7  2  0  0  0  0
  9 10  2  0  0  0  0
 10 12  1  0  0  0  0
 12 14  1  0  0  0  0
 13 11  1  0  0  0  0
 13 15  1  0  0  0  0
 14 16  1  0  0  0  0
 16 18  1  0  0  0  0
 17 15  1  0  0  0  0
 17 19  1  0  0  0  0
 18 20  1  0  0  0  0
 19 23  1  0  0  0  0
 20 22  1  0  0  0  0
 20 24  1  0  0  0  0
 21 19  1  0  0  0  0
M  END
>  <CHROM.1>
-164.79382754,-163.46660477,154.44941055,115.18540736,-78.20096874,-177.00375558
74.95667346,-88.44757148,-153.77074975,-176.06981871,4.98052951,-0.10592845
-0.92762210,0.31368610,0.55278869,-1.62677975

>  <Name>
lig.pdb

>  <RI>
1.56215e+07

>  <Rbt.Current_Directory>
/home/itssahil/PROJECTS/Mol_Feturizer/New_Systems/rnas/2l94

>  <Rbt.Executable>
rbdock ($Id: //depot/dev/client3/rdock/2013.1/src/exe/rbdock.cxx#4 $)

>  <Rbt.Library>
libRbt.so (2013.1, Build901 2013/11/27)

>  <Rbt.Parameter_File>
/export/apps/rDock/src/rDock_2013.1_src/data/scripts/dock_solv.prm

>  <Rbt.Receptor>
prm/pocket_docking_2.prm

>  <SCORE>
-19.0736

>  <SCORE.INTER>
-19.6501

>  <SCORE.INTER.CONST>
1

>  <SCORE.INTER.POLAR>
-2.71277

>  <SCORE.INTER.ROT>
10

>  <SCORE.INTER.SOLV>
9.22908

>  <SCORE.INTER.VDW>
-17.4005

>  <SCORE.INTER.norm>
-0.818754

>  <SCORE.INTRA>
0.553401

>  <SCORE.INTRA.DIHEDRAL>
5.11394

>  <SCORE.INTRA.DIHEDRAL.0>
7.52971

>  <SCORE.INTRA.POLAR>
0

>  <SCORE.INTRA.POLAR.0>
0

>  <SCORE.INTRA.REPUL>
0

>  <SCORE.INTRA.REPUL.0>
0

>  <SCORE.INTRA.SOLV>
0.277498

>  <SCORE.INTRA.SOLV.lig_0>
-22.1084

>  <SCORE.INTRA.VDW>
-2.14232

>  <SCORE.INTRA.VDW.0>
2.4256

>  <SCORE.INTRA.norm>
0.0230584

>  <SCORE.RESTR>
0.023059

>  <SCORE.RESTR.CAVITY>
0.023059

>  <SCORE.RESTR.norm>
0.00096079

>  <SCORE.SYSTEM>
0

>  <SCORE.SYSTEM.CONST>
0

>  <SCORE.SYSTEM.DIHEDRAL>
0

>  <SCORE.SYSTEM.SOLV>
0

>  <SCORE.SYSTEM.norm>
0

>  <SCORE.heavy>
24

>  <SCORE.norm>
-0.794734

>  <RMSD>
1.587

$$$$
lig.pdb
 OpenBabel11021811453D
libRbt.so/2013.1/901 2013/11/27
 24 24  0  0  0  0  0  0  0  0999 V2000
    3.5748    0.3441   -1.5445 C   0  0  0  0  0  0  0  0  0  0  0  0
    3.5839   -0.9956   -1.0285 C   0  0  0  0  0  0  0  0  0  0  0  0
    4.5043   -1.9264   -1.4487 C   0  0  0  0  0  0  0  0  0  0  0  0
    5.5098   -1.6073   -2.4163 C   0  0  0  0  0  0  0  0  0  0  0  0
    5.4784   -0.2791   -2.9556 C   0  0  0  0  0  0  0  0  0  0  0  0
    4.5550    0.6486   -2.5428 C   0  0  0  0  0  0  0  0  0  0  0  0
    2.6856    1.2853   -1.1108 C   0  0  0  0  0  0  0  0  0  0  0  0
    2.7856    2.5913   -1.4386 N   0  0  0  0  0  0  0  0  0  0  0  0
    7.2837   -2.3081   -3.8553 N   0  0  0  0  0  0  0  0  0  0  0  0
    6.4501   -2.5117   -2.8133 C   0  0  0  0  0  0  0  0  0  0  0  0
    1.6290    0.9768   -0.3186 N   0  0  0  0  0  0  0  0  0  0  0  0
    6.6260   -3.7012   -2.1903 N   0  0  0  0  0  0  0  0  0  0  0  0
    0.3017    1.5877   -0.3557 C   0  0  0  0  0  0  0  0  0  0  0  0
    7.8327   -4.5216   -2.2256 C   0  0  0  0  0  0  0  0  0  0  0  0
   -0.2770    1.5530    1.0679 C   0  0  0  0  0  0  0  0  0  0  0  0
    8.8567   -3.8988   -1.2584 C   0  0  0  0  0  0  0  0  0  0  0  0
   -1.1125    2.8090    1.3515 C   0  0  0  0  0  0  0  0  0  0  0  0
    9.7106   -2.8034   -1.9223 C   0  0  0  0  0  0  0  0  0  0  0  0
   -1.2204    3.0092    2.8415 N   0  0  0  0  0  0  0  0  0  0  0  0
   10.9756   -2.5406   -1.1450 N   0  0  0  0  0  0  0  0  0  0  0  0
   -2.3062    4.0045    3.1483 C   0  0  0  0  0  0  0  0  0  0  0  0
   10.6759   -1.5537   -0.0487 C   0  0  0  0  0  0  0  0  0  0  0  0
    0.0877    3.4948    3.4150 C   0  0  0  0  0  0  0  0  0  0  0  0
   12.0713   -1.9878   -2.0131 C   0  0  0  0  0  0  0  0  0  0  0  0
  1  6  2  0  0  0  0
  2  3  2  0  0  0  0
  2  1  1  0  0  0  0
  3  4  1  0  0  0  0
  4 10  1  0  0  0  0
  4  5  2  0  0  0  0
  6  5  1  0  0  0  0
  7  1  1  0  0  0  0
  7 11  1  0  0  0  0
  8  7  2  0  0  0  0
  9 10  2  0  0  0  0
 10 12  1  0  0  0  0
 12 14  1  0  0  0  0
 13 11  1  0  0  0  0
 13 15  1  0  0  0  0
 14 16  1  0  0  0  0
 16 18  1  0  0  0  0
 17 15  1  0  0  0  0
 17 19  1  0  0  0  0
 18 20  1  0  0  0  0
 19 23  1  0  0  0  0
 20 22  1  0  0  0  0
 20 24  1  0  0  0  0
 21 19  1  0  0  0  0
M  END
>  <CHROM.1>
170.06408154,170.10803529,77.89384480,-149.17523273,144.28450075,-86.77039052
-160.79606820,-158.72044022,-165.53450914,-85.01745719,4.60706608,-0.32291453
-0.81337650,2.61166150,-0.27962254,1.01506670

>  <Name>
lig.pdb

>  <RI>
1.56215e+07

>  <Rbt.Current_Directory>
/home/itssahil/PROJECTS/Mol_Feturizer/New_Systems/rnas/2l94

>  <Rbt.Executable>
rbdock ($Id: //depot/dev/client3/rdock/2013.1/src/exe/rbdock.cxx#4 $)

>  <Rbt.Library>
libRbt.so (2013.1, Build901 2013/11/27)

>  <Rbt.Parameter_File>
/export/apps/rDock/src/rDock_2013.1_src/data/scripts/dock_solv.prm

>  <Rbt.Receptor>
prm/pocket_docking_2.prm

>  <SCORE>
-11.2132

>  <SCORE.INTER>
-13.3908

>  <SCORE.INTER.CONST>
1

>  <SCORE.INTER.POLAR>
-1.93817

>  <SCORE.INTER.ROT>
10

>  <SCORE.INTER.SOLV>
8.2671

>  <SCORE.INTER.VDW>
-15.489

>  <SCORE.INTER.norm>
-0.557949

>  <SCORE.INTRA>
2.13044

>  <SCORE.INTRA.DIHEDRAL>
8.59733

>  <SCORE.INTRA.DIHEDRAL.0>
7.52971

>  <SCORE.INTRA.POLAR>
0

>  <SCORE.INTRA.POLAR.0>
0

>  <SCORE.INTRA.REPUL>
0

>  <SCORE.INTRA.REPUL.0>
0

>  <SCORE.INTRA.SOLV>
0.329584

>  <SCORE.INTRA.SOLV.lig_0>
-22.1084

>  <SCORE.INTRA.VDW>
-2.33301

>  <SCORE.INTRA.VDW.0>
2.4256

>  <SCORE.INTRA.norm>
0.0887685

>  <SCORE.RESTR>
0.0471239

>  <SCORE.RESTR.CAVITY>
0.0471239

>  <SCORE.RESTR.norm>
0.00196349

>  <SCORE.SYSTEM>
0

>  <SCORE.SYSTEM.CONST>
0

>  <SCORE.SYSTEM.DIHEDRAL>
0

>  <SCORE.SYSTEM.SOLV>
0

>  <SCORE.SYSTEM.norm>
0

>  <SCORE.heavy>
24

>  <SCORE.norm>
-0.467217

>  <RMSD>
1.599

$$$$
lig.pdb
 OpenBabel11021811453D
libRbt.so/2013.1/901 2013/11/27
 24 24  0  0  0  0  0  0  0  0999 V2000
    5.2515   -1.6433   -2.5555 C   0  0  0  0  0  0  0  0  0  0  0  0
    4.4550   -0.9405   -3.5213 C   0  0  0  0  0  0  0  0  0  0  0  0
    3.7777    0.2119   -3.1996 C   0  0  0  0  0  0  0  0  0  0  0  0
    3.8381    0.7789   -1.8865 C   0  0  0  0  0  0  0  0  0  0  0  0
    4.6065    0.0577   -0.9143 C   0  0  0  0  0  0  0  0  0  0  0  0
    5.2765   -1.0972   -1.2322 C   0  0  0  0  0  0  0  0  0  0  0  0
    5.9537   -2.7707   -2.8728 C   0  0  0  0  0  0  0  0  0  0  0  0
    6.0201   -3.2611   -4.1291 N   0  0  0  0  0  0  0  0  0  0  0  0
    2.4904    2.6681   -2.4546 N   0  0  0  0  0  0  0  0  0  0  0  0
    3.2000    1.9407   -1.5661 C   0  0  0  0  0  0  0  0  0  0  0  0
    6.6429   -3.4826   -1.9469 N   0  0  0  0  0  0  0  0  0  0  0  0
    3.2270    2.4670   -0.3186 N   0  0  0  0  0  0  0  0  0  0  0  0
    7.9128   -4.1778   -2.1475 C   0  0  0  0  0  0  0  0  0  0  0  0
    2.2637    3.4116    0.2386 C   0  0  0  0  0  0  0  0  0  0  0  0
    8.6559   -4.2070   -0.8021 C   0  0  0  0  0  0  0  0  0  0  0  0
    1.0842    2.6029    0.8098 C   0  0  0  0  0  0  0  0  0  0  0  0
    9.2312   -2.8250   -0.4628 C   0  0  0  0  0  0  0  0  0  0  0  0
    0.2600    3.3999    1.8372 C   0  0  0  0  0  0  0  0  0  0  0  0
   10.7008   -2.8018   -0.7969 N   0  0  0  0  0  0  0  0  0  0  0  0
   -1.0447    2.7131    2.1526 N   0  0  0  0  0  0  0  0  0  0  0  0
   11.3770   -1.6781   -0.0597 C   0  0  0  0  0  0  0  0  0  0  0  0
   -1.9459    3.6858    2.8649 C   0  0  0  0  0  0  0  0  0  0  0  0
   10.9123   -2.6327   -2.2811 C   0  0  0  0  0  0  0  0  0  0  0  0
   -0.8532    1.5002    3.0197 C   0  0  0  0  0  0  0  0  0  0  0  0
  1  6  2  0  0  0  0
  2  3  2  0  0  0  0
  2  1  1  0  0  0  0
  3  4  1  0  0  0  0
  4 10  1  0  0  0  0
  4  5  2  0  0  0  0
  6  5  1  0  0  0  0
  7  1  1  0  0  0  0
  7 11  1  0  0  0  0
  8  7  2  0  0  0  0
  9 10  2  0  0  0  0
 10 12  1  0  0  0  0
 12 14  1  0  0  0  0
 13 11  1  0  0  0  0
 13 15  1  0  0  0  0
 14 16  1  0  0  0  0
 16 18  1  0  0  0  0
 17 15  1  0  0  0  0
 17 19  1  0  0  0  0
 18 20  1  0  0  0  0
 19 23  1  0  0  0  0
 20 22  1  0  0  0  0
 20 24  1  0  0  0  0
 21 19  1  0  0  0  0
M  END
>  <CHROM.1>
-1.65325197,4.22418113,85.60894415,151.24901894,-74.09521704,159.90809827
167.53115416,-100.38368859,-160.54368059,-165.51605780,4.72436000,-0.24611231
-0.87981210,0.44620716,0.47688869,-1.90185817

>  <Name>
lig.pdb

>  <RI>
1.56215e+07

>  <Rbt.Current_Directory>
/home/itssahil/PROJECTS/Mol_Feturizer/New_Systems/rnas/2l94

>  <Rbt.Executable>
rbdock ($Id: //depot/dev/client3/rdock/2013.1/src/exe/rbdock.cxx#4 $)

>  <Rbt.Library>
libRbt.so (2013.1, Build901 2013/11/27)

>  <Rbt.Parameter_File>
/export/apps/rDock/src/rDock_2013.1_src/data/scripts/dock_solv.prm

>  <Rbt.Receptor>
prm/pocket_docking_2.prm

>  <SCORE>
-16.1344

>  <SCORE.INTER>
-16.8336

>  <SCORE.INTER.CONST>
1

>  <SCORE.INTER.POLAR>
-1.88815

>  <SCORE.INTER.ROT>
10

>  <SCORE.INTER.SOLV>
9.31621

>  <SCORE.INTER.VDW>
-18.3006

>  <SCORE.INTER.norm>
-0.7014

>  <SCORE.INTRA>
0.688418

>  <SCORE.INTRA.DIHEDRAL>
5.43099

>  <SCORE.INTRA.DIHEDRAL.0>
7.52971

>  <SCORE.INTRA.POLAR>
0

>  <SCORE.INTRA.POLAR.0>
0

>  <SCORE.INTRA.REPUL>
0

>  <SCORE.INTRA.REPUL.0>
0

>  <SCORE.INTRA.SOLV>
0.0839379

>  <SCORE.INTRA.SOLV.lig_0>
-22.1084

>  <SCORE.INTRA.VDW>
-2.06904

>  <SCORE.INTRA.VDW.0>
2.4256

>  <SCORE.INTRA.norm>
0.0286841

>  <SCORE.RESTR>
0.0108167

>  <SCORE.RESTR.CAVITY>
0.0108167

>  <SCORE.RESTR.norm>
0.000450697

>  <SCORE.SYSTEM>
0

>  <SCORE.SYSTEM.CONST>
0

>  <SCORE.SYSTEM.DIHEDRAL>
0

>  <SCORE.SYSTEM.SOLV>
0

>  <SCORE.SYSTEM.norm>
0

>  <SCORE.heavy>
24

>  <SCORE.norm>
-0.672265

>  <RMSD>
1.620

$$$$
lig.pdb
 OpenBabel11021811453D
libRbt.so/2013.1/901 2013/11/27
 24 24  0  0  0  0  0  0  0  0999 V2000
    3.9427    1.3386   -1.3926 C   0  0  0  0  0  0  0  0  0  0  0  0
    3.4655    0.6622   -2.5655 C   0  0  0  0  0  0  0  0  0  0  0  0
    4.0594   -0.4877   -3.0295 C   0  0  0  0  0  0  0  0  0  0  0  0
    5.1798   -1.0783   -2.3623 C   0  0  0  0  0  0  0  0  0  0  0  0
    5.6763   -0.3832   -1.2107 C   0  0  0  0  0  0  0  0  0  0  0  0
    5.0892    0.7692   -0.7512 C   0  0  0  0  0  0  0  0  0  0  0  0
    3.3406    2.4632   -0.9050 C   0  0  0  0  0  0  0  0  0  0  0  0
    3.7038    3.7081   -1.2809 N   0  0  0  0  0  0  0  0  0  0  0  0
    5.7432   -2.6386   -4.0816 N   0  0  0  0  0  0  0  0  0  0  0  0
    5.7538   -2.2380   -2.7926 C   0  0  0  0  0  0  0  0  0  0  0  0
    2.3262    2.4133   -0.0065 N   0  0  0  0  0  0  0  0  0  0  0  0
    6.3865   -3.0929   -1.9543 N   0  0  0  0  0  0  0  0  0  0  0  0
    1.1772    3.3139    0.0646 C   0  0  0  0  0  0  0  0  0  0  0  0
    7.3841   -4.0892   -2.3321 C   0  0  0  0  0  0  0  0  0  0  0  0
   -0.0996    2.4630   -0.0290 C   0  0  0  0  0  0  0  0  0  0  0  0
    8.6352   -3.8587   -1.4642 C   0  0  0  0  0  0  0  0  0  0  0  0
   -0.5245    1.9565    1.3562 C   0  0  0  0  0  0  0  0  0  0  0  0
    9.5879   -2.8081   -2.0629 C   0  0  0  0  0  0  0  0  0  0  0  0
   -0.7898    3.1352    2.2574 N   0  0  0  0  0  0  0  0  0  0  0  0
   10.8929   -2.7512   -1.3096 N   0  0  0  0  0  0  0  0  0  0  0  0
    0.4480    3.4679    3.0451 C   0  0  0  0  0  0  0  0  0  0  0  0
   10.6833   -1.9831   -0.0323 C   0  0  0  0  0  0  0  0  0  0  0  0
   -1.9282    2.8434    3.2035 C   0  0  0  0  0  0  0  0  0  0  0  0
   11.9802   -2.0859   -2.1065 C   0  0  0  0  0  0  0  0  0  0  0  0
  1  6  2  0  0  0  0
  2  3  2  0  0  0  0
  2  1  1  0  0  0  0
  3  4  1  0  0  0  0
  4 10  1  0  0  0  0
  4  5  2  0  0  0  0
  6  5  1  0  0  0  0
  7  1  1  0  0  0  0
  7 11  1  0  0  0  0
  8  7  2  0  0  0  0
  9 10  2  0  0  0  0
 10 12  1  0  0  0  0
 12 14  1  0  0  0  0
 13 11  1  0  0  0  0
 13 15  1  0  0  0  0
 14 16  1  0  0  0  0
 16 18  1  0  0  0  0
 17 15  1  0  0  0  0
 17 19  1  0  0  0  0
 18 20  1  0  0  0  0
 19 23  1  0  0  0  0
 20 22  1  0  0  0  0
 20 24  1  0  0  0  0
 21 19  1  0  0  0  0
M  END
>  <CHROM.1>
28.23947389,-90.63167225,126.09648985,123.12659160,86.62138974,-86.03531041
-171.45746872,59.97032205,-93.82049733,-77.77760795,4.68426727,0.05038175
-0.86135540,2.57327356,-0.28368429,0.93043672

>  <Name>
lig.pdb

>  <RI>
1.56215e+07

>  <Rbt.Current_Directory>
/home/itssahil/PROJECTS/Mol_Feturizer/New_Systems/rnas/2l94

>  <Rbt.Executable>
rbdock ($Id: //depot/dev/client3/rdock/2013.1/src/exe/rbdock.cxx#4 $)

>  <Rbt.Library>
libRbt.so (2013.1, Build901 2013/11/27)

>  <Rbt.Parameter_File>
/export/apps/rDock/src/rDock_2013.1_src/data/scripts/dock_solv.prm

>  <Rbt.Receptor>
prm/pocket_docking_2.prm

>  <SCORE>
-13.8969

>  <SCORE.INTER>
-21.777

>  <SCORE.INTER.CONST>
1

>  <SCORE.INTER.POLAR>
-3.30414

>  <SCORE.INTER.ROT>
10

>  <SCORE.INTER.SOLV>
7.52861

>  <SCORE.INTER.VDW>
-16.2804

>  <SCORE.INTER.norm>
-0.907375

>  <SCORE.INTRA>
7.76398

>  <SCORE.INTRA.DIHEDRAL>
20.7018

>  <SCORE.INTRA.DIHEDRAL.0>
7.52971

>  <SCORE.INTRA.POLAR>
0

>  <SCORE.INTRA.POLAR.0>
0

>  <SCORE.INTRA.REPUL>
0

>  <SCORE.INTRA.REPUL.0>
0

>  <SCORE.INTRA.SOLV>
0.220571

>  <SCORE.INTRA.SOLV.lig_0>
-22.1084

>  <SCORE.INTRA.VDW>
-2.69721

>  <SCORE.INTRA.VDW.0>
2.4256

>  <SCORE.INTRA.norm>
0.323499

>  <SCORE.RESTR>
0.116082

>  <SCORE.RESTR.CAVITY>
0.116082

>  <SCORE.RESTR.norm>
0.00483674

>  <SCORE.SYSTEM>
0

>  <SCORE.SYSTEM.CONST>
0

>  <SCORE.SYSTEM.DIHEDRAL>
0

>  <SCORE.SYSTEM.SOLV>
0

>  <SCORE.SYSTEM.norm>
0

>  <SCORE.heavy>
24

>  <SCORE.norm>
-0.579039

>  <RMSD>
1.620

$$$$
lig.pdb
 OpenBabel11021811453D
libRbt.so/2013.1/901 2013/11/27
 24 24  0  0  0  0  0  0  0  0999 V2000
    5.3856   -1.9671   -1.5929 C   0  0  0  0  0  0  0  0  0  0  0  0
    5.8030   -0.9908   -0.6265 C   0  0  0  0  0  0  0  0  0  0  0  0
    5.2466    0.2655   -0.5806 C   0  0  0  0  0  0  0  0  0  0  0  0
    4.2136    0.6650   -1.4876 C   0  0  0  0  0  0  0  0  0  0  0  0
    3.8216   -0.2993   -2.4736 C   0  0  0  0  0  0  0  0  0  0  0  0
    4.3820   -1.5511   -2.5256 C   0  0  0  0  0  0  0  0  0  0  0  0
    5.9089   -3.2279   -1.6268 C   0  0  0  0  0  0  0  0  0  0  0  0
    5.4064   -4.2071   -2.4090 N   0  0  0  0  0  0  0  0  0  0  0  0
    2.9891    2.4658   -2.4705 N   0  0  0  0  0  0  0  0  0  0  0  0
    3.6293    1.8957   -1.4278 C   0  0  0  0  0  0  0  0  0  0  0  0
    6.9793   -3.5912   -0.8775 N   0  0  0  0  0  0  0  0  0  0  0  0
    3.6444    2.6559   -0.3072 N   0  0  0  0  0  0  0  0  0  0  0  0
    8.0403   -4.5198   -1.2625 C   0  0  0  0  0  0  0  0  0  0  0  0
    2.7163    3.7359    0.0134 C   0  0  0  0  0  0  0  0  0  0  0  0
    9.3723   -3.9649   -0.7328 C   0  0  0  0  0  0  0  0  0  0  0  0
    1.3048    3.1297    0.1227 C   0  0  0  0  0  0  0  0  0  0  0  0
    9.8920   -2.8342   -1.6314 C   0  0  0  0  0  0  0  0  0  0  0  0
    1.1293    2.2559    1.3779 C   0  0  0  0  0  0  0  0  0  0  0  0
   11.3398   -2.5669   -1.3082 N   0  0  0  0  0  0  0  0  0  0  0  0
   -0.3025    1.8155    1.5499 N   0  0  0  0  0  0  0  0  0  0  0  0
   11.4400   -1.6830   -0.0949 C   0  0  0  0  0  0  0  0  0  0  0  0
   -1.1032    2.9680    2.0939 C   0  0  0  0  0  0  0  0  0  0  0  0
   12.0381   -1.9089   -2.4724 C   0  0  0  0  0  0  0  0  0  0  0  0
   -0.4288    0.6475    2.4879 C   0  0  0  0  0  0  0  0  0  0  0  0
  1  6  2  0  0  0  0
  2  3  2  0  0  0  0
  2  1  1  0  0  0  0
  3  4  1  0  0  0  0
  4 10  1  0  0  0  0
  4  5  2  0  0  0  0
  6  5  1  0  0  0  0
  7  1  1  0  0  0  0
  7 11  1  0  0  0  0
  8  7  2  0  0  0  0
  9 10  2  0  0  0  0
 10 12  1  0  0  0  0
 12 14  1  0  0  0  0
 13 11  1  0  0  0  0
 13 15  1  0  0  0  0
 14 16  1  0  0  0  0
 16 18  1  0  0  0  0
 17 15  1  0  0  0  0
 17 19  1  0  0  0  0
 18 20  1  0  0  0  0
 19 23  1  0  0  0  0
 20 22  1  0  0  0  0
 20 24  1  0  0  0  0
 21 19  1  0  0  0  0
M  END
>  <CHROM.1>
158.25190585,171.03677891,62.58995173,141.04651212,-78.40687878,70.92720920
172.98457631,-165.18099247,-81.60607698,-77.01859902,5.12727909,-0.44613727
-0.73309817,0.55066963,-0.19083106,-3.05636708

>  <Name>
lig.pdb

>  <RI>
0

>  <Rbt.Current_Directory>
/home/itssahil/PROJECTS/Mol_Feturizer/New_Systems/rnas/2l94

>  <Rbt.Executable>
rbdock ($Id: //depot/dev/client3/rdock/2013.1/src/exe/rbdock.cxx#4 $)

>  <Rbt.Library>
libRbt.so (2013.1, Build901 2013/11/27)

>  <Rbt.Parameter_File>
/export/apps/rDock/src/rDock_2013.1_src/data/scripts/dock_solv.prm

>  <Rbt.Receptor>
prm/pocket_docking_4.prm

>  <SCORE>
-18.7936

>  <SCORE.INTER>
-18.639

>  <SCORE.INTER.CONST>
1

>  <SCORE.INTER.POLAR>
-2.6993

>  <SCORE.INTER.ROT>
10

>  <SCORE.INTER.SOLV>
7.84407

>  <SCORE.INTER.VDW>
-16.3097

>  <SCORE.INTER.norm>
-0.776626

>  <SCORE.INTRA>
-0.154531

>  <SCORE.INTRA.DIHEDRAL>
3.72635

>  <SCORE.INTRA.DIHEDRAL.0>
7.52971

>  <SCORE.INTRA.POLAR>
0

>  <SCORE.INTRA.POLAR.0>
0

>  <SCORE.INTRA.REPUL>
0

>  <SCORE.INTRA.REPUL.0>
0

>  <SCORE.INTRA.SOLV>
0.33181

>  <SCORE.INTRA.SOLV.lig_0>
-22.1084

>  <SCORE.INTRA.VDW>
-2.18361

>  <SCORE.INTRA.VDW.0>
2.4256

>  <SCORE.INTRA.norm>
-0.00643881

>  <SCORE.RESTR>
0

>  <SCORE.RESTR.CAVITY>
0

>  <SCORE.RESTR.norm>
0

>  <SCORE.SYSTEM>
0

>  <SCORE.SYSTEM.CONST>
0

>  <SCORE.SYSTEM.DIHEDRAL>
0

>  <SCORE.SYSTEM.SOLV>
0

>  <SCORE.SYSTEM.norm>
0

>  <SCORE.heavy>
24

>  <SCORE.norm>
-0.783065

>  <RMSD>
1.632

$$$$
lig.pdb
 OpenBabel11021811453D
libRbt.so/2013.1/901 2013/11/27
 24 24  0  0  0  0  0  0  0  0999 V2000
    6.1686   -1.4127   -2.3384 C   0  0  0  0  0  0  0  0  0  0  0  0
    5.7917   -1.0418   -1.0037 C   0  0  0  0  0  0  0  0  0  0  0  0
    5.1034    0.1192   -0.7425 C   0  0  0  0  0  0  0  0  0  0  0  0
    4.7164    1.0166   -1.7886 C   0  0  0  0  0  0  0  0  0  0  0  0
    5.1229    0.6618   -3.1170 C   0  0  0  0  0  0  0  0  0  0  0  0
    5.8171   -0.4930   -3.3780 C   0  0  0  0  0  0  0  0  0  0  0  0
    6.8242   -2.5788   -2.6124 C   0  0  0  0  0  0  0  0  0  0  0  0
    7.4912   -2.7883   -3.7675 N   0  0  0  0  0  0  0  0  0  0  0  0
    3.1568    2.7049   -2.4409 N   0  0  0  0  0  0  0  0  0  0  0  0
    4.0021    2.1524   -1.5451 C   0  0  0  0  0  0  0  0  0  0  0  0
    6.8578   -3.6162   -1.7396 N   0  0  0  0  0  0  0  0  0  0  0  0
    4.0836    2.8277   -0.3741 N   0  0  0  0  0  0  0  0  0  0  0  0
    7.9739   -4.5329   -1.5152 C   0  0  0  0  0  0  0  0  0  0  0  0
    3.0864    3.7509    0.1588 C   0  0  0  0  0  0  0  0  0  0  0  0
    9.0491   -3.7842   -0.7112 C   0  0  0  0  0  0  0  0  0  0  0  0
    2.4545    3.0985    1.4025 C   0  0  0  0  0  0  0  0  0  0  0  0
    9.8280   -2.8124   -1.6085 C   0  0  0  0  0  0  0  0  0  0  0  0
    0.9178    3.0445    1.3286 C   0  0  0  0  0  0  0  0  0  0  0  0
   11.1802   -2.5463   -0.9982 N   0  0  0  0  0  0  0  0  0  0  0  0
    0.4231    1.6362    1.1150 N   0  0  0  0  0  0  0  0  0  0  0  0
   11.0483   -1.5628    0.1326 C   0  0  0  0  0  0  0  0  0  0  0  0
    0.3357    1.3713   -0.3641 C   0  0  0  0  0  0  0  0  0  0  0  0
   12.1389   -2.0054   -2.0299 C   0  0  0  0  0  0  0  0  0  0  0  0
   -0.9287    1.4092    1.7323 C   0  0  0  0  0  0  0  0  0  0  0  0
  1  6  2  0  0  0  0
  2  3  2  0  0  0  0
  2  1  1  0  0  0  0
  3  4  1  0  0  0  0
  4 10  1  0  0  0  0
  4  5  2  0  0  0  0
  6  5  1  0  0  0  0
  7  1  1  0  0  0  0
  7 11  1  0  0  0  0
  8  7  2  0  0  0  0
  9 10  2  0  0  0  0
 10 12  1  0  0  0  0
 12 14  1  0  0  0  0
 13 11  1  0  0  0  0
 13 15  1  0  0  0  0
 14 16  1  0  0  0  0
 16 18  1  0  0  0  0
 17 15  1  0  0  0  0
 17 19  1  0  0  0  0
 18 20  1  0  0  0  0
 19 23  1  0  0  0  0
 20 22  1  0  0  0  0
 20 24  1  0  0  0  0
 21 19  1  0  0  0  0
M  END
>  <CHROM.1>
-150.91504333,-161.99928376,111.46531794,74.53846999,-76.33417660,-126.62014513
108.63657912,-156.30589295,-78.11930483,-89.53248806,5.53304381,-0.22973853
-1.06120814,0.59456011,0.01735710,-2.74747680

>  <Name>
lig.pdb

>  <RI>
1.56215e+07

>  <Rbt.Current_Directory>
/home/itssahil/PROJECTS/Mol_Feturizer/New_Systems/rnas/2l94

>  <Rbt.Executable>
rbdock ($Id: //depot/dev/client3/rdock/2013.1/src/exe/rbdock.cxx#4 $)

>  <Rbt.Library>
libRbt.so (2013.1, Build901 2013/11/27)

>  <Rbt.Parameter_File>
/export/apps/rDock/src/rDock_2013.1_src/data/scripts/dock_solv.prm

>  <Rbt.Receptor>
prm/pocket_docking_2.prm

>  <SCORE>
-10.6639

>  <SCORE.INTER>
-15.798

>  <SCORE.INTER.CONST>
1

>  <SCORE.INTER.POLAR>
-2.70981

>  <SCORE.INTER.ROT>
10

>  <SCORE.INTER.SOLV>
8.10947

>  <SCORE.INTER.VDW>
-14.4691

>  <SCORE.INTER.norm>
-0.65825

>  <SCORE.INTRA>
5.01936

>  <SCORE.INTRA.DIHEDRAL>
17.4288

>  <SCORE.INTRA.DIHEDRAL.0>
7.52971

>  <SCORE.INTRA.POLAR>
0

>  <SCORE.INTRA.POLAR.0>
0

>  <SCORE.INTRA.REPUL>
0

>  <SCORE.INTRA.REPUL.0>
0

>  <SCORE.INTRA.SOLV>
0.873897

>  <SCORE.INTRA.SOLV.lig_0>
-22.1084

>  <SCORE.INTRA.VDW>
-4.13201

>  <SCORE.INTRA.VDW.0>
2.4256

>  <SCORE.INTRA.norm>
0.20914

>  <SCORE.RESTR>
0.114755

>  <SCORE.RESTR.CAVITY>
0.114755

>  <SCORE.RESTR.norm>
0.00478147

>  <SCORE.SYSTEM>
0

>  <SCORE.SYSTEM.CONST>
0

>  <SCORE.SYSTEM.DIHEDRAL>
0

>  <SCORE.SYSTEM.SOLV>
0

>  <SCORE.SYSTEM.norm>
0

>  <SCORE.heavy>
24

>  <SCORE.norm>
-0.444328

>  <RMSD>
1.680

$$$$
lig.pdb
 OpenBabel11021811453D
libRbt.so/2013.1/901 2013/11/27
 24 24  0  0  0  0  0  0  0  0999 V2000
    3.5987   -0.1499   -2.3751 C   0  0  0  0  0  0  0  0  0  0  0  0
    3.8026   -1.2827   -1.5170 C   0  0  0  0  0  0  0  0  0  0  0  0
    4.8667   -2.1365   -1.6866 C   0  0  0  0  0  0  0  0  0  0  0  0
    5.8347   -1.9366   -2.7221 C   0  0  0  0  0  0  0  0  0  0  0  0
    5.6112   -0.8245   -3.5991 C   0  0  0  0  0  0  0  0  0  0  0  0
    4.5448    0.0239   -3.4357 C   0  0  0  0  0  0  0  0  0  0  0  0
    2.5634    0.7223   -2.1958 C   0  0  0  0  0  0  0  0  0  0  0  0
    1.3241    0.3223   -1.8390 N   0  0  0  0  0  0  0  0  0  0  0  0
    7.9202   -2.5041   -3.7404 N   0  0  0  0  0  0  0  0  0  0  0  0
    6.9137   -2.7560   -2.8769 C   0  0  0  0  0  0  0  0  0  0  0  0
    2.7041    2.0612   -2.3594 N   0  0  0  0  0  0  0  0  0  0  0  0
    7.0656   -3.9021   -2.1717 N   0  0  0  0  0  0  0  0  0  0  0  0
    2.0418    3.1099   -1.5864 C   0  0  0  0  0  0  0  0  0  0  0  0
    8.3232   -4.6003   -1.9235 C   0  0  0  0  0  0  0  0  0  0  0  0
    2.4835    2.9704   -0.1206 C   0  0  0  0  0  0  0  0  0  0  0  0
    9.1152   -3.7915   -0.8793 C   0  0  0  0  0  0  0  0  0  0  0  0
    1.5817    3.7980    0.8056 C   0  0  0  0  0  0  0  0  0  0  0  0
   10.1142   -2.8112   -1.5204 C   0  0  0  0  0  0  0  0  0  0  0  0
    0.6965    2.8703    1.5978 N   0  0  0  0  0  0  0  0  0  0  0  0
   11.0818   -2.2625   -0.5026 N   0  0  0  0  0  0  0  0  0  0  0  0
   -0.4752    2.4380    0.7589 C   0  0  0  0  0  0  0  0  0  0  0  0
   10.4882   -1.0243    0.1138 C   0  0  0  0  0  0  0  0  0  0  0  0
    0.1991    3.5431    2.8532 C   0  0  0  0  0  0  0  0  0  0  0  0
   12.4112   -1.9149   -1.1123 C   0  0  0  0  0  0  0  0  0  0  0  0
  1  6  2  0  0  0  0
  2  3  2  0  0  0  0
  2  1  1  0  0  0  0
  3  4  1  0  0  0  0
  4 10  1  0  0  0  0
  4  5  2  0  0  0  0
  6  5  1  0  0  0  0
  7  1  1  0  0  0  0
  7 11  1  0  0  0  0
  8  7  2  0  0  0  0
  9 10  2  0  0  0  0
 10 12  1  0  0  0  0
 12 14  1  0  0  0  0
 13 11  1  0  0  0  0
 13 15  1  0  0  0  0
 14 16  1  0  0  0  0
 16 18  1  0  0  0  0
 17 15  1  0  0  0  0
 17 19  1  0  0  0  0
 18 20  1  0  0  0  0
 19 23  1  0  0  0  0
 20 22  1  0  0  0  0
 20 24  1  0  0  0  0
 21 19  1  0  0  0  0
M  END
>  <CHROM.1>
-172.04298258,-39.36364897,73.75893756,61.87834153,-166.00279635,-94.25710937
-167.32438088,107.85080973,-80.49776771,-88.62669246,5.21947367,-0.39382097
-1.27814376,2.65271057,-0.34815731,0.88790843

>  <Name>
lig.pdb

>  <RI>
1.56215e+07

>  <Rbt.Current_Directory>
/home/itssahil/PROJECTS/Mol_Feturizer/New_Systems/rnas/2l94

>  <Rbt.Executable>
rbdock ($Id: //depot/dev/client3/rdock/2013.1/src/exe/rbdock.cxx#4 $)

>  <Rbt.Library>
libRbt.so (2013.1, Build901 2013/11/27)

>  <Rbt.Parameter_File>
/export/apps/rDock/src/rDock_2013.1_src/data/scripts/dock_solv.prm

>  <Rbt.Receptor>
prm/pocket_docking_2.prm

>  <SCORE>
-9.11115

>  <SCORE.INTER>
-14.5092

>  <SCORE.INTER.CONST>
1

>  <SCORE.INTER.POLAR>
-1.55393

>  <SCORE.INTER.ROT>
10

>  <SCORE.INTER.SOLV>
11.0856

>  <SCORE.INTER.VDW>
-18.4549

>  <SCORE.INTER.norm>
-0.604548

>  <SCORE.INTRA>
4.22861

>  <SCORE.INTRA.DIHEDRAL>
15.0905

>  <SCORE.INTRA.DIHEDRAL.0>
7.52971

>  <SCORE.INTRA.POLAR>
0

>  <SCORE.INTRA.POLAR.0>
0

>  <SCORE.INTRA.REPUL>
0

>  <SCORE.INTRA.REPUL.0>
0

>  <SCORE.INTRA.SOLV>
0.748926

>  <SCORE.INTRA.SOLV.lig_0>
-22.1084

>  <SCORE.INTRA.VDW>
-3.69109

>  <SCORE.INTRA.VDW.0>
2.4256

>  <SCORE.INTRA.norm>
0.176192

>  <SCORE.RESTR>
1.16941

>  <SCORE.RESTR.CAVITY>
1.16941

>  <SCORE.RESTR.norm>
0.0487254

>  <SCORE.SYSTEM>
0

>  <SCORE.SYSTEM.CONST>
0

>  <SCORE.SYSTEM.DIHEDRAL>
0

>  <SCORE.SYSTEM.SOLV>
0

>  <SCORE.SYSTEM.norm>
0

>  <SCORE.heavy>
24

>  <SCORE.norm>
-0.379631

>  <RMSD>
1.695

$$$$
lig.pdb
 OpenBabel11021811453D
libRbt.so/2013.1/901 2013/11/27
 24 24  0  0  0  0  0  0  0  0999 V2000
    4.0687   -0.5013   -1.9077 C   0  0  0  0  0  0  0  0  0  0  0  0
    5.3532    0.1207   -1.7522 C   0  0  0  0  0  0  0  0  0  0  0  0
    6.5006   -0.6193   -1.5910 C   0  0  0  0  0  0  0  0  0  0  0  0
    6.4778   -2.0507   -1.5795 C   0  0  0  0  0  0  0  0  0  0  0  0
    5.1904   -2.6698   -1.7011 C   0  0  0  0  0  0  0  0  0  0  0  0
    4.0432   -1.9319   -1.8539 C   0  0  0  0  0  0  0  0  0  0  0  0
    2.9274    0.2234   -2.1004 C   0  0  0  0  0  0  0  0  0  0  0  0
    1.6991   -0.3372   -2.1131 N   0  0  0  0  0  0  0  0  0  0  0  0
    7.6209   -4.1448   -1.4524 N   0  0  0  0  0  0  0  0  0  0  0  0
    7.6139   -2.7950   -1.4567 C   0  0  0  0  0  0  0  0  0  0  0  0
    2.9421    1.5661   -2.2900 N   0  0  0  0  0  0  0  0  0  0  0  0
    8.8406   -2.2364   -1.3261 N   0  0  0  0  0  0  0  0  0  0  0  0
    1.9477    2.5262   -1.8150 C   0  0  0  0  0  0  0  0  0  0  0  0
   10.1161   -2.8794   -1.6267 C   0  0  0  0  0  0  0  0  0  0  0  0
    2.3306    2.9379   -0.3843 C   0  0  0  0  0  0  0  0  0  0  0  0
   11.2376   -1.8652   -1.3346 C   0  0  0  0  0  0  0  0  0  0  0  0
    1.1026    2.9291    0.5365 C   0  0  0  0  0  0  0  0  0  0  0  0
   12.6273   -2.5227   -1.2567 C   0  0  0  0  0  0  0  0  0  0  0  0
    1.5324    3.2606    1.9427 N   0  0  0  0  0  0  0  0  0  0  0  0
   13.6612   -1.5690   -0.7134 N   0  0  0  0  0  0  0  0  0  0  0  0
    2.3030    2.1090    2.5287 C   0  0  0  0  0  0  0  0  0  0  0  0
   13.1305   -0.9450    0.5494 C   0  0  0  0  0  0  0  0  0  0  0  0
    0.3379    3.5648    2.8126 C   0  0  0  0  0  0  0  0  0  0  0  0
   13.9984   -0.4789   -1.6921 C   0  0  0  0  0  0  0  0  0  0  0  0
  1  6  2  0  0  0  0
  2  3  2  0  0  0  0
  2  1  1  0  0  0  0
  3  4  1  0  0  0  0
  4 10  1  0  0  0  0
  4  5  2  0  0  0  0
  6  5  1  0  0  0  0
  7  1  1  0  0  0  0
  7 11  1  0  0  0  0
  8  7  2  0  0  0  0
  9 10  2  0  0  0  0
 10 12  1  0  0  0  0
 12 14  1  0  0  0  0
 13 11  1  0  0  0  0
 13 15  1  0  0  0  0
 14 16  1  0  0  0  0
 16 18  1  0  0  0  0
 17 15  1  0  0  0  0
 17 19  1  0  0  0  0
 18 20  1  0  0  0  0
 19 23  1  0  0  0  0
 20 22  1  0  0  0  0
 20 24  1  0  0  0  0
 21 19  1  0  0  0  0
M  END
>  <CHROM.1>
-179.52004048,-173.12232257,179.74593079,86.47823225,-134.72695291,165.00104319
-169.06041034,176.79409288,-71.30366267,49.53499859,6.19059787,-0.31074156
-0.85204747,2.76547987,-0.14765570,0.66075004

>  <Name>
lig.pdb

>  <RI>
1.09765e+07

>  <Rbt.Current_Directory>
/home/itssahil/PROJECTS/Mol_Feturizer/New_Systems/rnas/2l94

>  <Rbt.Executable>
rbdock ($Id: //depot/dev/client3/rdock/2013.1/src/exe/rbdock.cxx#4 $)

>  <Rbt.Library>
libRbt.so (2013.1, Build901 2013/11/27)

>  <Rbt.Parameter_File>
/export/apps/rDock/src/rDock_2013.1_src/data/scripts/dock_solv.prm

>  <Rbt.Receptor>
prm/pocket_docking_3.prm

>  <SCORE>
-15.085

>  <SCORE.INTER>
-19.2573

>  <SCORE.INTER.CONST>
1

>  <SCORE.INTER.POLAR>
-2.99743

>  <SCORE.INTER.ROT>
10

>  <SCORE.INTER.SOLV>
9.13837

>  <SCORE.INTER.VDW>
-16.1596

>  <SCORE.INTER.norm>
-0.802388

>  <SCORE.INTRA>
4.17229

>  <SCORE.INTRA.DIHEDRAL>
4.17055

>  <SCORE.INTRA.DIHEDRAL.0>
7.52971

>  <SCORE.INTRA.POLAR>
0

>  <SCORE.INTRA.POLAR.0>
0

>  <SCORE.INTRA.REPUL>
0

>  <SCORE.INTRA.REPUL.0>
0

>  <SCORE.INTRA.SOLV>
-0.160644

>  <SCORE.INTRA.SOLV.lig_0>
-22.1084

>  <SCORE.INTRA.VDW>
2.16734

>  <SCORE.INTRA.VDW.0>
2.4256

>  <SCORE.INTRA.norm>
0.173845

>  <SCORE.RESTR>
0

>  <SCORE.RESTR.CAVITY>
0

>  <SCORE.RESTR.norm>
0

>  <SCORE.SYSTEM>
0

>  <SCORE.SYSTEM.CONST>
0

>  <SCORE.SYSTEM.DIHEDRAL>
0

>  <SCORE.SYSTEM.SOLV>
0

>  <SCORE.SYSTEM.norm>
0

>  <SCORE.heavy>
24

>  <SCORE.norm>
-0.628542

>  <RMSD>
1.743

$$$$
lig.pdb
 OpenBabel11021811453D
libRbt.so/2013.1/901 2013/11/27
 24 24  0  0  0  0  0  0  0  0999 V2000
    3.1787    0.2467   -1.9372 C   0  0  0  0  0  0  0  0  0  0  0  0
    3.5626   -0.7989   -1.0314 C   0  0  0  0  0  0  0  0  0  0  0  0
    4.5535   -1.6992   -1.3438 C   0  0  0  0  0  0  0  0  0  0  0  0
    5.2632   -1.6367   -2.5855 C   0  0  0  0  0  0  0  0  0  0  0  0
    4.8558   -0.6130   -3.5030 C   0  0  0  0  0  0  0  0  0  0  0  0
    3.8611    0.2814   -3.1955 C   0  0  0  0  0  0  0  0  0  0  0  0
    2.2182    1.1653   -1.6238 C   0  0  0  0  0  0  0  0  0  0  0  0
    1.7416    2.0584   -2.5173 N   0  0  0  0  0  0  0  0  0  0  0  0
    6.9735   -2.4486   -4.0428 N   0  0  0  0  0  0  0  0  0  0  0  0
    6.2723   -2.5017   -2.8906 C   0  0  0  0  0  0  0  0  0  0  0  0
    1.6661    1.2469   -0.3878 N   0  0  0  0  0  0  0  0  0  0  0  0
    6.6572   -3.4961   -2.0558 N   0  0  0  0  0  0  0  0  0  0  0  0
    0.2790    1.5818   -0.0712 C   0  0  0  0  0  0  0  0  0  0  0  0
    7.9517   -4.1705   -2.0590 C   0  0  0  0  0  0  0  0  0  0  0  0
    0.2865    2.5814    1.0965 C   0  0  0  0  0  0  0  0  0  0  0  0
    8.5267   -4.0975   -0.6322 C   0  0  0  0  0  0  0  0  0  0  0  0
   -1.1270    2.7742    1.6630 C   0  0  0  0  0  0  0  0  0  0  0  0
    9.2467   -2.7666   -0.3495 C   0  0  0  0  0  0  0  0  0  0  0  0
   -1.0354    3.4272    3.0184 N   0  0  0  0  0  0  0  0  0  0  0  0
   10.6983   -2.8259   -0.7534 N   0  0  0  0  0  0  0  0  0  0  0  0
   -0.4815    2.4522    4.0213 C   0  0  0  0  0  0  0  0  0  0  0  0
   11.4440   -1.7248   -0.0484 C   0  0  0  0  0  0  0  0  0  0  0  0
   -2.3899    3.9090    3.4759 C   0  0  0  0  0  0  0  0  0  0  0  0
   10.8820   -2.6678   -2.2370 C   0  0  0  0  0  0  0  0  0  0  0  0
  1  6  2  0  0  0  0
  2  3  2  0  0  0  0
  2  1  1  0  0  0  0
  3  4  1  0  0  0  0
  4 10  1  0  0  0  0
  4  5  2  0  0  0  0
  6  5  1  0  0  0  0
  7  1  1  0  0  0  0
  7 11  1  0  0  0  0
  8  7  2  0  0  0  0
  9 10  2  0  0  0  0
 10 12  1  0  0  0  0
 12 14  1  0  0  0  0
 13 11  1  0  0  0  0
 13 15  1  0  0  0  0
 14 16  1  0  0  0  0
 16 18  1  0  0  0  0
 17 15  1  0  0  0  0
 17 19  1  0  0  0  0
 18 20  1  0  0  0  0
 19 23  1  0  0  0  0
 20 22  1  0  0  0  0
 20 24  1  0  0  0  0
 21 19  1  0  0  0  0
M  END
>  <CHROM.1>
-178.72226350,-172.35541848,126.88507443,-135.60258720,-169.09517119,-83.22728357
-87.84988717,163.92761521,-71.11961896,-160.86455908,4.39449133,-0.38136077
-0.77534693,2.73792168,-0.46314111,1.35412913

>  <Name>
lig.pdb

>  <RI>
1.56215e+07

>  <Rbt.Current_Directory>
/home/itssahil/PROJECTS/Mol_Feturizer/New_Systems/rnas/2l94

>  <Rbt.Executable>
rbdock ($Id: //depot/dev/client3/rdock/2013.1/src/exe/rbdock.cxx#4 $)

>  <Rbt.Library>
libRbt.so (2013.1, Build901 2013/11/27)

>  <Rbt.Parameter_File>
/export/apps/rDock/src/rDock_2013.1_src/data/scripts/dock_solv.prm

>  <Rbt.Receptor>
prm/pocket_docking_2.prm

>  <SCORE>
-21.5144

>  <SCORE.INTER>
-21.85

>  <SCORE.INTER.CONST>
1

>  <SCORE.INTER.POLAR>
-2.71277

>  <SCORE.INTER.ROT>
10

>  <SCORE.INTER.SOLV>
9.67465

>  <SCORE.INTER.VDW>
-19.0156

>  <SCORE.INTER.norm>
-0.910415

>  <SCORE.INTRA>
0.318867

>  <SCORE.INTRA.DIHEDRAL>
4.25578

>  <SCORE.INTRA.DIHEDRAL.0>
7.52971

>  <SCORE.INTRA.POLAR>
0

>  <SCORE.INTRA.POLAR.0>
0

>  <SCORE.INTRA.REPUL>
0

>  <SCORE.INTRA.REPUL.0>
0

>  <SCORE.INTRA.SOLV>
0.158576

>  <SCORE.INTRA.SOLV.lig_0>
-22.1084

>  <SCORE.INTRA.VDW>
-1.88831

>  <SCORE.INTRA.VDW.0>
2.4256

>  <SCORE.INTRA.norm>
0.0132861

>  <SCORE.RESTR>
0.0166871

>  <SCORE.RESTR.CAVITY>
0.0166871

>  <SCORE.RESTR.norm>
0.000695295

>  <SCORE.SYSTEM>
0

>  <SCORE.SYSTEM.CONST>
0

>  <SCORE.SYSTEM.DIHEDRAL>
0

>  <SCORE.SYSTEM.SOLV>
0

>  <SCORE.SYSTEM.norm>
0

>  <SCORE.heavy>
24

>  <SCORE.norm>
-0.896434

>  <RMSD>
1.746

$$$$
lig.pdb
 OpenBabel11021811453D
libRbt.so/2013.1/901 2013/11/27
 24 24  0  0  0  0  0  0  0  0999 V2000
    6.7858   -2.7445   -1.7164 C   0  0  0  0  0  0  0  0  0  0  0  0
    5.9865   -3.0249   -2.8755 C   0  0  0  0  0  0  0  0  0  0  0  0
    4.9278   -2.2249   -3.2350 C   0  0  0  0  0  0  0  0  0  0  0  0
    4.5712   -1.0631   -2.4785 C   0  0  0  0  0  0  0  0  0  0  0  0
    5.3492   -0.8033   -1.3025 C   0  0  0  0  0  0  0  0  0  0  0  0
    6.4013   -1.6058   -0.9380 C   0  0  0  0  0  0  0  0  0  0  0  0
    7.8589   -3.5141   -1.3683 C   0  0  0  0  0  0  0  0  0  0  0  0
    8.2141   -4.6240   -2.0502 N   0  0  0  0  0  0  0  0  0  0  0  0
    2.8830   -0.3601   -4.0160 N   0  0  0  0  0  0  0  0  0  0  0  0
    3.5462   -0.2423   -2.8462 C   0  0  0  0  0  0  0  0  0  0  0  0
    8.6534   -3.2176   -0.3101 N   0  0  0  0  0  0  0  0  0  0  0  0
    3.1054    0.7696   -2.0616 N   0  0  0  0  0  0  0  0  0  0  0  0
   10.0977   -3.4221   -0.2180 C   0  0  0  0  0  0  0  0  0  0  0  0
    1.7916    1.4021   -2.1290 C   0  0  0  0  0  0  0  0  0  0  0  0
   10.7838   -2.0614   -0.4196 C   0  0  0  0  0  0  0  0  0  0  0  0
    1.1930    1.4017   -0.7101 C   0  0  0  0  0  0  0  0  0  0  0  0
   12.1458   -2.2299   -1.1070 C   0  0  0  0  0  0  0  0  0  0  0  0
    0.0487    2.4187   -0.5481 C   0  0  0  0  0  0  0  0  0  0  0  0
   12.9634   -0.9799   -0.9052 N   0  0  0  0  0  0  0  0  0  0  0  0
   -0.1088    2.8505    0.8880 N   0  0  0  0  0  0  0  0  0  0  0  0
   14.0128   -0.8742   -1.9781 C   0  0  0  0  0  0  0  0  0  0  0  0
    1.2307    3.2946    1.4114 C   0  0  0  0  0  0  0  0  0  0  0  0
   13.6248   -0.9829    0.4508 C   0  0  0  0  0  0  0  0  0  0  0  0
   -0.6309    1.7431    1.7602 C   0  0  0  0  0  0  0  0  0  0  0  0
  1  6  2  0  0  0  0
  2  3  2  0  0  0  0
  2  1  1  0  0  0  0
  3  4  1  0  0  0  0
  4 10  1  0  0  0  0
  4  5  2  0  0  0  0
  6  5  1  0  0  0  0
  7  1  1  0  0  0  0
  7 11  1  0  0  0  0
  8  7  2  0  0  0  0
  9 10  2  0  0  0  0
 10 12  1  0  0  0  0
 12 14  1  0  0  0  0
 13 11  1  0  0  0  0
 13 15  1  0  0  0  0
 14 16  1  0  0  0  0
 16 18  1  0  0  0  0
 17 15  1  0  0  0  0
 17 19  1  0  0  0  0
 18 20  1  0  0  0  0
 19 23  1  0  0  0  0
 20 22  1  0  0  0  0
 20 24  1  0  0  0  0
 21 19  1  0  0  0  0
M  END
>  <CHROM.1>
-7.68854642,-2.90890699,128.55782647,102.72980266,-148.03572761,161.35741808
-154.78595603,-162.47992622,-157.19411400,51.46626217,6.07637545,-0.78671990
-1.15890573,0.29628206,0.19763370,-2.43751243

>  <Name>
lig.pdb

>  <RI>
1.56215e+07

>  <Rbt.Current_Directory>
/home/itssahil/PROJECTS/Mol_Feturizer/New_Systems/rnas/2l94

>  <Rbt.Executable>
rbdock ($Id: //depot/dev/client3/rdock/2013.1/src/exe/rbdock.cxx#4 $)

>  <Rbt.Library>
libRbt.so (2013.1, Build901 2013/11/27)

>  <Rbt.Parameter_File>
/export/apps/rDock/src/rDock_2013.1_src/data/scripts/dock_solv.prm

>  <Rbt.Receptor>
prm/pocket_docking_2.prm

>  <SCORE>
-9.01176

>  <SCORE.INTER>
-13.7902

>  <SCORE.INTER.CONST>
1

>  <SCORE.INTER.POLAR>
-1.50231

>  <SCORE.INTER.ROT>
10

>  <SCORE.INTER.SOLV>
10.945

>  <SCORE.INTER.VDW>
-18.1008

>  <SCORE.INTER.norm>
-0.574592

>  <SCORE.INTRA>
4.05236

>  <SCORE.INTRA.DIHEDRAL>
6.22419

>  <SCORE.INTRA.DIHEDRAL.0>
7.52971

>  <SCORE.INTRA.POLAR>
0

>  <SCORE.INTRA.POLAR.0>
0

>  <SCORE.INTRA.REPUL>
0

>  <SCORE.INTRA.REPUL.0>
0

>  <SCORE.INTRA.SOLV>
-0.259173

>  <SCORE.INTRA.SOLV.lig_0>
-22.1084

>  <SCORE.INTRA.VDW>
1.06985

>  <SCORE.INTRA.VDW.0>
2.4256

>  <SCORE.INTRA.norm>
0.168848

>  <SCORE.RESTR>
0.726099

>  <SCORE.RESTR.CAVITY>
0.726099

>  <SCORE.RESTR.norm>
0.0302541

>  <SCORE.SYSTEM>
0

>  <SCORE.SYSTEM.CONST>
0

>  <SCORE.SYSTEM.DIHEDRAL>
0

>  <SCORE.SYSTEM.SOLV>
0

>  <SCORE.SYSTEM.norm>
0

>  <SCORE.heavy>
24

>  <SCORE.norm>
-0.37549

>  <RMSD>
1.794

$$$$
lig.pdb
 OpenBabel11021811453D
libRbt.so/2013.1/901 2013/11/27
 24 24  0  0  0  0  0  0  0  0999 V2000
    6.2349   -2.9968   -2.2701 C   0  0  0  0  0  0  0  0  0  0  0  0
    5.1702   -3.2048   -3.2105 C   0  0  0  0  0  0  0  0  0  0  0  0
    4.0843   -2.3638   -3.2716 C   0  0  0  0  0  0  0  0  0  0  0  0
    3.9613   -1.2293   -2.4073 C   0  0  0  0  0  0  0  0  0  0  0  0
    5.0086   -1.0422   -1.4462 C   0  0  0  0  0  0  0  0  0  0  0  0
    6.0892   -1.8857   -1.3788 C   0  0  0  0  0  0  0  0  0  0  0  0
    7.3329   -3.8073   -2.2225 C   0  0  0  0  0  0  0  0  0  0  0  0
    7.4110   -4.9728   -2.8997 N   0  0  0  0  0  0  0  0  0  0  0  0
    2.0029   -0.3870   -3.4861 N   0  0  0  0  0  0  0  0  0  0  0  0
    2.9068   -0.3680   -2.4837 C   0  0  0  0  0  0  0  0  0  0  0  0
    8.4329   -3.4989   -1.4919 N   0  0  0  0  0  0  0  0  0  0  0  0
    2.6776    0.5880   -1.5522 N   0  0  0  0  0  0  0  0  0  0  0  0
    9.8229   -3.7823   -1.8439 C   0  0  0  0  0  0  0  0  0  0  0  0
    1.4005    1.2431   -1.2867 C   0  0  0  0  0  0  0  0  0  0  0  0
   10.6426   -2.5033   -1.6087 C   0  0  0  0  0  0  0  0  0  0  0  0
    1.6639    2.4249   -0.3350 C   0  0  0  0  0  0  0  0  0  0  0  0
   10.9078   -2.2887   -0.1122 C   0  0  0  0  0  0  0  0  0  0  0  0
    0.5034    2.6663    0.6473 C   0  0  0  0  0  0  0  0  0  0  0  0
   11.3909   -0.8785    0.1106 N   0  0  0  0  0  0  0  0  0  0  0  0
    0.9952    3.2266    1.9579 N   0  0  0  0  0  0  0  0  0  0  0  0
   12.3179   -0.8347    1.2948 C   0  0  0  0  0  0  0  0  0  0  0  0
    1.8585    2.1953    2.6337 C   0  0  0  0  0  0  0  0  0  0  0  0
   10.2305    0.0574    0.3417 C   0  0  0  0  0  0  0  0  0  0  0  0
   -0.1351    3.5956    2.8778 C   0  0  0  0  0  0  0  0  0  0  0  0
  1  6  2  0  0  0  0
  2  3  2  0  0  0  0
  2  1  1  0  0  0  0
  3  4  1  0  0  0  0
  4 10  1  0  0  0  0
  4  5  2  0  0  0  0
  6  5  1  0  0  0  0
  7  1  1  0  0  0  0
  7 11  1  0  0  0  0
  8  7  2  0  0  0  0
  9 10  2  0  0  0  0
 10 12  1  0  0  0  0
 12 14  1  0  0  0  0
 13 11  1  0  0  0  0
 13 15  1  0  0  0  0
 14 16  1  0  0  0  0
 16 18  1  0  0  0  0
 17 15  1  0  0  0  0
 17 19  1  0  0  0  0
 18 20  1  0  0  0  0
 19 23  1  0  0  0  0
 20 22  1  0  0  0  0
 20 24  1  0  0  0  0
 21 19  1  0  0  0  0
M  END
>  <CHROM.1>
-10.04046885,-10.56056714,-169.93740094,132.94380454,76.45249329,-145.95550094
149.11004530,-165.63098538,-149.60058319,-65.02140205,5.55734616,-0.77518610
-0.91502186,0.44628885,0.25763263,-2.34540773

>  <Name>
lig.pdb

>  <RI>
1.09765e+07

>  <Rbt.Current_Directory>
/home/itssahil/PROJECTS/Mol_Feturizer/New_Systems/rnas/2l94

>  <Rbt.Executable>
rbdock ($Id: //depot/dev/client3/rdock/2013.1/src/exe/rbdock.cxx#4 $)

>  <Rbt.Library>
libRbt.so (2013.1, Build901 2013/11/27)

>  <Rbt.Parameter_File>
/export/apps/rDock/src/rDock_2013.1_src/data/scripts/dock_solv.prm

>  <Rbt.Receptor>
prm/pocket_docking_3.prm

>  <SCORE>
-9.5154

>  <SCORE.INTER>
-12.3936

>  <SCORE.INTER.CONST>
1

>  <SCORE.INTER.POLAR>
-1.48419

>  <SCORE.INTER.ROT>
10

>  <SCORE.INTER.SOLV>
14.366

>  <SCORE.INTER.VDW>
-18.3704

>  <SCORE.INTER.norm>
-0.516398

>  <SCORE.INTRA>
2.87815

>  <SCORE.INTRA.DIHEDRAL>
7.83663

>  <SCORE.INTRA.DIHEDRAL.0>
7.52971

>  <SCORE.INTRA.POLAR>
0

>  <SCORE.INTRA.POLAR.0>
0

>  <SCORE.INTRA.REPUL>
0

>  <SCORE.INTRA.REPUL.0>
0

>  <SCORE.INTRA.SOLV>
-0.0555947

>  <SCORE.INTRA.SOLV.lig_0>
-22.1084

>  <SCORE.INTRA.VDW>
-1.01237

>  <SCORE.INTRA.VDW.0>
2.4256

>  <SCORE.INTRA.norm>
0.119923

>  <SCORE.RESTR>
0

>  <SCORE.RESTR.CAVITY>
0

>  <SCORE.RESTR.norm>
0

>  <SCORE.SYSTEM>
0

>  <SCORE.SYSTEM.CONST>
0

>  <SCORE.SYSTEM.DIHEDRAL>
0

>  <SCORE.SYSTEM.SOLV>
0

>  <SCORE.SYSTEM.norm>
0

>  <SCORE.heavy>
24

>  <SCORE.norm>
-0.396475

>  <RMSD>
1.825

$$$$
lig.pdb
 OpenBabel11021811453D
libRbt.so/2013.1/901 2013/11/27
 24 24  0  0  0  0  0  0  0  0999 V2000
    2.8502   -0.0333   -2.4125 C   0  0  0  0  0  0  0  0  0  0  0  0
    3.8223   -0.2628   -1.3813 C   0  0  0  0  0  0  0  0  0  0  0  0
    4.8521   -1.1589   -1.5442 C   0  0  0  0  0  0  0  0  0  0  0  0
    5.0167   -1.9045   -2.7552 C   0  0  0  0  0  0  0  0  0  0  0  0
    4.0260   -1.6992   -3.7711 C   0  0  0  0  0  0  0  0  0  0  0  0
    2.9928   -0.8108   -3.6064 C   0  0  0  0  0  0  0  0  0  0  0  0
    1.8423    0.8774   -2.2733 C   0  0  0  0  0  0  0  0  0  0  0  0
    0.6157    0.6976   -2.8083 N   0  0  0  0  0  0  0  0  0  0  0  0
    6.5878   -3.0400   -4.1517 N   0  0  0  0  0  0  0  0  0  0  0  0
    6.0549   -2.7688   -2.9415 C   0  0  0  0  0  0  0  0  0  0  0  0
    1.9973    2.0332   -1.5811 N   0  0  0  0  0  0  0  0  0  0  0  0
    6.6420   -3.4342   -1.9185 N   0  0  0  0  0  0  0  0  0  0  0  0
    0.9894    2.7019   -0.7607 C   0  0  0  0  0  0  0  0  0  0  0  0
    7.9835   -4.0093   -1.9224 C   0  0  0  0  0  0  0  0  0  0  0  0
    0.9485    2.0006    0.6066 C   0  0  0  0  0  0  0  0  0  0  0  0
    8.5911   -3.8021   -0.5225 C   0  0  0  0  0  0  0  0  0  0  0  0
   -0.2245    2.5151    1.4525 C   0  0  0  0  0  0  0  0  0  0  0  0
    9.4336   -2.5174   -0.4250 C   0  0  0  0  0  0  0  0  0  0  0  0
   -0.1946    1.8473    2.8035 N   0  0  0  0  0  0  0  0  0  0  0  0
   10.8467   -2.7448   -0.8994 N   0  0  0  0  0  0  0  0  0  0  0  0
   -1.5200    2.0246    3.4929 C   0  0  0  0  0  0  0  0  0  0  0  0
   11.7295   -1.6666   -0.3307 C   0  0  0  0  0  0  0  0  0  0  0  0
    0.9038    2.4220    3.6633 C   0  0  0  0  0  0  0  0  0  0  0  0
   10.9530   -2.7225   -2.3988 C   0  0  0  0  0  0  0  0  0  0  0  0
  1  6  2  0  0  0  0
  2  3  2  0  0  0  0
  2  1  1  0  0  0  0
  3  4  1  0  0  0  0
  4 10  1  0  0  0  0
  4  5  2  0  0  0  0
  6  5  1  0  0  0  0
  7  1  1  0  0  0  0
  7 11  1  0  0  0  0
  8  7  2  0  0  0  0
  9 10  2  0  0  0  0
 10 12  1  0  0  0  0
 12 14  1  0  0  0  0
 13 11  1  0  0  0  0
 13 15  1  0  0  0  0
 14 16  1  0  0  0  0
 16 18  1  0  0  0  0
 17 15  1  0  0  0  0
 17 19  1  0  0  0  0
 18 20  1  0  0  0  0
 19 23  1  0  0  0  0
 20 22  1  0  0  0  0
 20 24  1  0  0  0  0
 21 19  1  0  0  0  0
M  END
>  <CHROM.1>
-150.53098802,-146.01376641,142.59442027,80.75697095,-171.84695692,-93.62717862
-84.77312053,-177.61308426,-163.92790872,-159.43637549,4.51580696,-0.63582182
-1.04044607,2.73671342,-0.39594032,1.24479900

>  <Name>
lig.pdb

>  <RI>
2.48096e+07

>  <Rbt.Current_Directory>
/home/itssahil/PROJECTS/Mol_Feturizer/New_Systems/rnas/2l94

>  <Rbt.Executable>
rbdock ($Id: //depot/dev/client3/rdock/2013.1/src/exe/rbdock.cxx#4 $)

>  <Rbt.Library>
libRbt.so (2013.1, Build901 2013/11/27)

>  <Rbt.Parameter_File>
/export/apps/rDock/src/rDock_2013.1_src/data/scripts/dock_solv.prm

>  <Rbt.Receptor>
prm/pocket_docking_6.prm

>  <SCORE>
-18.8743

>  <SCORE.INTER>
-21.4653

>  <SCORE.INTER.CONST>
1

>  <SCORE.INTER.POLAR>
-2.5974

>  <SCORE.INTER.ROT>
10

>  <SCORE.INTER.SOLV>
12.2333

>  <SCORE.INTER.VDW>
-19.9967

>  <SCORE.INTER.norm>
-0.894388

>  <SCORE.INTRA>
2.59098

>  <SCORE.INTRA.DIHEDRAL>
11.3936

>  <SCORE.INTRA.DIHEDRAL.0>
7.52971

>  <SCORE.INTRA.POLAR>
0

>  <SCORE.INTRA.POLAR.0>
0

>  <SCORE.INTRA.REPUL>
0

>  <SCORE.INTRA.REPUL.0>
0

>  <SCORE.INTRA.SOLV>
-0.0436456

>  <SCORE.INTRA.SOLV.lig_0>
-22.1084

>  <SCORE.INTRA.VDW>
-3.08398

>  <SCORE.INTRA.VDW.0>
2.4256

>  <SCORE.INTRA.norm>
0.107958

>  <SCORE.RESTR>
0

>  <SCORE.RESTR.CAVITY>
0

>  <SCORE.RESTR.norm>
0

>  <SCORE.SYSTEM>
0

>  <SCORE.SYSTEM.CONST>
0

>  <SCORE.SYSTEM.DIHEDRAL>
0

>  <SCORE.SYSTEM.SOLV>
0

>  <SCORE.SYSTEM.norm>
0

>  <SCORE.heavy>
24

>  <SCORE.norm>
-0.786431

>  <RMSD>
1.827

$$$$
lig.pdb
 OpenBabel11021811453D
libRbt.so/2013.1/901 2013/11/27
 24 24  0  0  0  0  0  0  0  0999 V2000
    4.4539   -0.4584   -2.0607 C   0  0  0  0  0  0  0  0  0  0  0  0
    5.6788   -0.7324   -2.7574 C   0  0  0  0  0  0  0  0  0  0  0  0
    6.7505   -1.3237   -2.1313 C   0  0  0  0  0  0  0  0  0  0  0  0
    6.6995   -1.7073   -0.7530 C   0  0  0  0  0  0  0  0  0  0  0  0
    5.4877   -1.4024   -0.0499 C   0  0  0  0  0  0  0  0  0  0  0  0
    4.4201   -0.8048   -0.6718 C   0  0  0  0  0  0  0  0  0  0  0  0
    3.3726    0.0992   -2.6809 C   0  0  0  0  0  0  0  0  0  0  0  0
    3.0323   -0.1884   -3.9555 N   0  0  0  0  0  0  0  0  0  0  0  0
    7.5930   -3.1607    0.9195 N   0  0  0  0  0  0  0  0  0  0  0  0
    7.7431   -2.3272   -0.1316 C   0  0  0  0  0  0  0  0  0  0  0  0
    2.5541    0.9839   -2.0592 N   0  0  0  0  0  0  0  0  0  0  0  0
    9.0290   -2.1551   -0.5201 N   0  0  0  0  0  0  0  0  0  0  0  0
    1.1079    1.1063   -2.2321 C   0  0  0  0  0  0  0  0  0  0  0  0
   10.1396   -3.0623   -0.2479 C   0  0  0  0  0  0  0  0  0  0  0  0
    0.4626    1.1227   -0.8370 C   0  0  0  0  0  0  0  0  0  0  0  0
   11.3843   -2.5172   -0.9727 C   0  0  0  0  0  0  0  0  0  0  0  0
    0.9083    2.3569   -0.0406 C   0  0  0  0  0  0  0  0  0  0  0  0
   11.7629   -1.0967   -0.5158 C   0  0  0  0  0  0  0  0  0  0  0  0
    0.3847    2.2555    1.3692 N   0  0  0  0  0  0  0  0  0  0  0  0
   12.3430   -1.0991    0.8759 N   0  0  0  0  0  0  0  0  0  0  0  0
   -1.0436    2.7255    1.4212 C   0  0  0  0  0  0  0  0  0  0  0  0
   11.8549    0.1222    1.6078 C   0  0  0  0  0  0  0  0  0  0  0  0
    1.2231    3.0793    2.3148 C   0  0  0  0  0  0  0  0  0  0  0  0
   13.8463   -1.0931    0.8648 C   0  0  0  0  0  0  0  0  0  0  0  0
  1  6  2  0  0  0  0
  2  3  2  0  0  0  0
  2  1  1  0  0  0  0
  3  4  1  0  0  0  0
  4 10  1  0  0  0  0
  4  5  2  0  0  0  0
  6  5  1  0  0  0  0
  7  1  1  0  0  0  0
  7 11  1  0  0  0  0
  8  7  2  0  0  0  0
  9 10  2  0  0  0  0
 10 12  1  0  0  0  0
 12 14  1  0  0  0  0
 13 11  1  0  0  0  0
 13 15  1  0  0  0  0
 14 16  1  0  0  0  0
 16 18  1  0  0  0  0
 17 15  1  0  0  0  0
 17 19  1  0  0  0  0
 18 20  1  0  0  0  0
 19 23  1  0  0  0  0
 20 22  1  0  0  0  0
 20 24  1  0  0  0  0
 21 19  1  0  0  0  0
M  END
>  <CHROM.1>
-152.35008588,36.42705751,175.64919118,130.15626334,63.82621762,59.20357096
71.97517248,-173.52345178,-82.28134474,-142.10690384,5.89645946,-0.35675813
-0.49964043,3.03775958,-0.29930319,1.07261326

>  <Name>
lig.pdb

>  <RI>
0

>  <Rbt.Current_Directory>
/home/itssahil/PROJECTS/Mol_Feturizer/New_Systems/rnas/2l94

>  <Rbt.Executable>
rbdock ($Id: //depot/dev/client3/rdock/2013.1/src/exe/rbdock.cxx#4 $)

>  <Rbt.Library>
libRbt.so (2013.1, Build901 2013/11/27)

>  <Rbt.Parameter_File>
/export/apps/rDock/src/rDock_2013.1_src/data/scripts/dock_solv.prm

>  <Rbt.Receptor>
prm/pocket_docking_4.prm

>  <SCORE>
-11.7537

>  <SCORE.INTER>
-14.1606

>  <SCORE.INTER.CONST>
1

>  <SCORE.INTER.POLAR>
-1.54546

>  <SCORE.INTER.ROT>
10

>  <SCORE.INTER.SOLV>
8.50922

>  <SCORE.INTER.VDW>
-17.392

>  <SCORE.INTER.norm>
-0.590026

>  <SCORE.INTRA>
2.40697

>  <SCORE.INTRA.DIHEDRAL>
8.91234

>  <SCORE.INTRA.DIHEDRAL.0>
7.52971

>  <SCORE.INTRA.POLAR>
0

>  <SCORE.INTRA.POLAR.0>
0

>  <SCORE.INTRA.REPUL>
0

>  <SCORE.INTRA.REPUL.0>
0

>  <SCORE.INTRA.SOLV>
0.361702

>  <SCORE.INTRA.SOLV.lig_0>
-22.1084

>  <SCORE.INTRA.VDW>
-2.23005

>  <SCORE.INTRA.VDW.0>
2.4256

>  <SCORE.INTRA.norm>
0.100291

>  <SCORE.RESTR>
0

>  <SCORE.RESTR.CAVITY>
0

>  <SCORE.RESTR.norm>
0

>  <SCORE.SYSTEM>
0

>  <SCORE.SYSTEM.CONST>
0

>  <SCORE.SYSTEM.DIHEDRAL>
0

>  <SCORE.SYSTEM.SOLV>
0

>  <SCORE.SYSTEM.norm>
0

>  <SCORE.heavy>
24

>  <SCORE.norm>
-0.489736

>  <RMSD>
1.852

$$$$
lig.pdb
 OpenBabel11021811453D
libRbt.so/2013.1/901 2013/11/27
 24 24  0  0  0  0  0  0  0  0999 V2000
    5.6784   -2.2940   -2.5856 C   0  0  0  0  0  0  0  0  0  0  0  0
    5.0631   -1.3705   -3.4965 C   0  0  0  0  0  0  0  0  0  0  0  0
    3.9244   -0.6759   -3.1633 C   0  0  0  0  0  0  0  0  0  0  0  0
    3.2961   -0.8285   -1.8861 C   0  0  0  0  0  0  0  0  0  0  0  0
    3.8924   -1.7760   -0.9903 C   0  0  0  0  0  0  0  0  0  0  0  0
    5.0246   -2.4760   -1.3249 C   0  0  0  0  0  0  0  0  0  0  0  0
    6.8271   -2.9649   -2.8942 C   0  0  0  0  0  0  0  0  0  0  0  0
    7.6536   -2.5795   -3.8899 N   0  0  0  0  0  0  0  0  0  0  0  0
    1.4868    0.6462   -2.3960 N   0  0  0  0  0  0  0  0  0  0  0  0
    2.1876   -0.1178   -1.5315 C   0  0  0  0  0  0  0  0  0  0  0  0
    7.2271   -4.0705   -2.2184 N   0  0  0  0  0  0  0  0  0  0  0  0
    1.6942   -0.1181   -0.2703 N   0  0  0  0  0  0  0  0  0  0  0  0
    8.6026   -4.4521   -1.9044 C   0  0  0  0  0  0  0  0  0  0  0  0
    0.3281    0.2166    0.1200 C   0  0  0  0  0  0  0  0  0  0  0  0
    9.0302   -3.6898   -0.6399 C   0  0  0  0  0  0  0  0  0  0  0  0
    0.3305    1.6586    0.6608 C   0  0  0  0  0  0  0  0  0  0  0  0
    9.7851   -2.4037   -1.0033 C   0  0  0  0  0  0  0  0  0  0  0  0
   -0.8387    1.9335    1.6238 C   0  0  0  0  0  0  0  0  0  0  0  0
   11.2058   -2.7474   -1.3713 N   0  0  0  0  0  0  0  0  0  0  0  0
   -0.7758    3.3313    2.1858 N   0  0  0  0  0  0  0  0  0  0  0  0
   12.1291   -1.6390   -0.9439 C   0  0  0  0  0  0  0  0  0  0  0  0
    0.4188    3.4358    3.0954 C   0  0  0  0  0  0  0  0  0  0  0  0
   11.3375   -2.9707   -2.8575 C   0  0  0  0  0  0  0  0  0  0  0  0
   -2.0129    3.6878    2.9618 C   0  0  0  0  0  0  0  0  0  0  0  0
  1  6  2  0  0  0  0
  2  3  2  0  0  0  0
  2  1  1  0  0  0  0
  3  4  1  0  0  0  0
  4 10  1  0  0  0  0
  4  5  2  0  0  0  0
  6  5  1  0  0  0  0
  7  1  1  0  0  0  0
  7 11  1  0  0  0  0
  8  7  2  0  0  0  0
  9 10  2  0  0  0  0
 10 12  1  0  0  0  0
 12 14  1  0  0  0  0
 13 11  1  0  0  0  0
 13 15  1  0  0  0  0
 14 16  1  0  0  0  0
 16 18  1  0  0  0  0
 17 15  1  0  0  0  0
 17 19  1  0  0  0  0
 18 20  1  0  0  0  0
 19 23  1  0  0  0  0
 20 22  1  0  0  0  0
 20 24  1  0  0  0  0
 21 19  1  0  0  0  0
M  END
>  <CHROM.1>
9.11425397,17.68261442,-100.87433929,82.70016053,-95.34533345,-155.75192438
177.40677900,-78.89103916,-146.41586839,-67.93389953,4.74697795,-0.88702979
-0.98752784,0.50869853,0.24968193,-2.15194404

>  <Name>
lig.pdb

>  <RI>
1.09765e+07

>  <Rbt.Current_Directory>
/home/itssahil/PROJECTS/Mol_Feturizer/New_Systems/rnas/2l94

>  <Rbt.Executable>
rbdock ($Id: //depot/dev/client3/rdock/2013.1/src/exe/rbdock.cxx#4 $)

>  <Rbt.Library>
libRbt.so (2013.1, Build901 2013/11/27)

>  <Rbt.Parameter_File>
/export/apps/rDock/src/rDock_2013.1_src/data/scripts/dock_solv.prm

>  <Rbt.Receptor>
prm/pocket_docking_3.prm

>  <SCORE>
-30.6134

>  <SCORE.INTER>
-32.1051

>  <SCORE.INTER.CONST>
1

>  <SCORE.INTER.POLAR>
-4.42908

>  <SCORE.INTER.ROT>
10

>  <SCORE.INTER.SOLV>
12.2207

>  <SCORE.INTER.VDW>
-20.9801

>  <SCORE.INTER.norm>
-1.33771

>  <SCORE.INTRA>
1.47361

>  <SCORE.INTRA.DIHEDRAL>
7.75888

>  <SCORE.INTRA.DIHEDRAL.0>
7.52971

>  <SCORE.INTRA.POLAR>
0

>  <SCORE.INTRA.POLAR.0>
0

>  <SCORE.INTRA.REPUL>
0

>  <SCORE.INTRA.REPUL.0>
0

>  <SCORE.INTRA.SOLV>
0.576846

>  <SCORE.INTRA.SOLV.lig_0>
-22.1084

>  <SCORE.INTRA.VDW>
-2.69425

>  <SCORE.INTRA.VDW.0>
2.4256

>  <SCORE.INTRA.norm>
0.0614005

>  <SCORE.RESTR>
0.0181415

>  <SCORE.RESTR.CAVITY>
0.0181415

>  <SCORE.RESTR.norm>
0.000755898

>  <SCORE.SYSTEM>
0

>  <SCORE.SYSTEM.CONST>
0

>  <SCORE.SYSTEM.DIHEDRAL>
0

>  <SCORE.SYSTEM.SOLV>
0

>  <SCORE.SYSTEM.norm>
0

>  <SCORE.heavy>
24

>  <SCORE.norm>
-1.27556

>  <RMSD>
1.864

$$$$
lig.pdb
 OpenBabel11021811453D
libRbt.so/2013.1/901 2013/11/27
 24 24  0  0  0  0  0  0  0  0999 V2000
    5.7313   -2.0924   -2.6162 C   0  0  0  0  0  0  0  0  0  0  0  0
    4.5592   -2.5649   -1.9351 C   0  0  0  0  0  0  0  0  0  0  0  0
    3.4645   -1.7579   -1.7342 C   0  0  0  0  0  0  0  0  0  0  0  0
    3.4301   -0.4055   -2.2023 C   0  0  0  0  0  0  0  0  0  0  0  0
    4.6141    0.0754   -2.8525 C   0  0  0  0  0  0  0  0  0  0  0  0
    5.7107   -0.7268   -3.0465 C   0  0  0  0  0  0  0  0  0  0  0  0
    6.8114   -2.8949   -2.8491 C   0  0  0  0  0  0  0  0  0  0  0  0
    7.7772   -2.5807   -3.7388 N   0  0  0  0  0  0  0  0  0  0  0  0
    1.0946   -0.0862   -1.8127 N   0  0  0  0  0  0  0  0  0  0  0  0
    2.3360    0.3923   -2.0408 C   0  0  0  0  0  0  0  0  0  0  0  0
    6.9974   -4.0702   -2.1986 N   0  0  0  0  0  0  0  0  0  0  0  0
    2.4046    1.7436   -2.0980 N   0  0  0  0  0  0  0  0  0  0  0  0
    8.2744   -4.6416   -1.7753 C   0  0  0  0  0  0  0  0  0  0  0  0
    1.4442    2.6797   -1.5218 C   0  0  0  0  0  0  0  0  0  0  0  0
    8.9125   -3.6787   -0.7610 C   0  0  0  0  0  0  0  0  0  0  0  0
    2.1629    3.4733   -0.4147 C   0  0  0  0  0  0  0  0  0  0  0  0
    9.9233   -2.7495   -1.4473 C   0  0  0  0  0  0  0  0  0  0  0  0
    1.9259    2.8840    0.9876 C   0  0  0  0  0  0  0  0  0  0  0  0
   10.7485   -2.0497   -0.3979 N   0  0  0  0  0  0  0  0  0  0  0  0
    0.4792    2.9960    1.3977 N   0  0  0  0  0  0  0  0  0  0  0  0
    9.9966   -0.8621    0.1386 C   0  0  0  0  0  0  0  0  0  0  0  0
    0.4148    3.3752    2.8529 C   0  0  0  0  0  0  0  0  0  0  0  0
   12.0702   -1.5966   -0.9669 C   0  0  0  0  0  0  0  0  0  0  0  0
   -0.2699    1.7084    1.1952 C   0  0  0  0  0  0  0  0  0  0  0  0
  1  6  2  0  0  0  0
  2  3  2  0  0  0  0
  2  1  1  0  0  0  0
  3  4  1  0  0  0  0
  4 10  1  0  0  0  0
  4  5  2  0  0  0  0
  6  5  1  0  0  0  0
  7  1  1  0  0  0  0
  7 11  1  0  0  0  0
  8  7  2  0  0  0  0
  9 10  2  0  0  0  0
 10 12  1  0  0  0  0
 12 14  1  0  0  0  0
 13 11  1  0  0  0  0
 13 15  1  0  0  0  0
 14 16  1  0  0  0  0
 16 18  1  0  0  0  0
 17 15  1  0  0  0  0
 17 19  1  0  0  0  0
 18 20  1  0  0  0  0
 19 23  1  0  0  0  0
 20 22  1  0  0  0  0
 20 24  1  0  0  0  0
 21 19  1  0  0  0  0
M  END
>  <CHROM.1>
-20.48513115,164.24321681,115.11839140,62.34166869,-96.38147160,-96.33621000
-65.52597425,-167.13344818,-82.00719676,-139.78947615,5.05750355,-0.52742729
-1.19145946,0.51270305,0.27721005,-2.35668152

>  <Name>
lig.pdb

>  <RI>
0

>  <Rbt.Current_Directory>
/home/itssahil/PROJECTS/Mol_Feturizer/New_Systems/rnas/2l94

>  <Rbt.Executable>
rbdock ($Id: //depot/dev/client3/rdock/2013.1/src/exe/rbdock.cxx#4 $)

>  <Rbt.Library>
libRbt.so (2013.1, Build901 2013/11/27)

>  <Rbt.Parameter_File>
/export/apps/rDock/src/rDock_2013.1_src/data/scripts/dock_solv.prm

>  <Rbt.Receptor>
prm/pocket_docking_4.prm

>  <SCORE>
-18.386

>  <SCORE.INTER>
-21.0694

>  <SCORE.INTER.CONST>
1

>  <SCORE.INTER.POLAR>
-2.88799

>  <SCORE.INTER.ROT>
10

>  <SCORE.INTER.SOLV>
11.6705

>  <SCORE.INTER.VDW>
-18.5765

>  <SCORE.INTER.norm>
-0.877892

>  <SCORE.INTRA>
2.68338

>  <SCORE.INTRA.DIHEDRAL>
11.6271

>  <SCORE.INTRA.DIHEDRAL.0>
7.52971

>  <SCORE.INTRA.POLAR>
0

>  <SCORE.INTRA.POLAR.0>
0

>  <SCORE.INTRA.REPUL>
0

>  <SCORE.INTRA.REPUL.0>
0

>  <SCORE.INTRA.SOLV>
0.937512

>  <SCORE.INTRA.SOLV.lig_0>
-22.1084

>  <SCORE.INTRA.VDW>
-3.59895

>  <SCORE.INTRA.VDW.0>
2.4256

>  <SCORE.INTRA.norm>
0.111807

>  <SCORE.RESTR>
0

>  <SCORE.RESTR.CAVITY>
0

>  <SCORE.RESTR.norm>
0

>  <SCORE.SYSTEM>
0

>  <SCORE.SYSTEM.CONST>
0

>  <SCORE.SYSTEM.DIHEDRAL>
0

>  <SCORE.SYSTEM.SOLV>
0

>  <SCORE.SYSTEM.norm>
0

>  <SCORE.heavy>
24

>  <SCORE.norm>
-0.766085

>  <RMSD>
1.873

$$$$
lig.pdb
 OpenBabel11021811453D
libRbt.so/2013.1/901 2013/11/27
 24 24  0  0  0  0  0  0  0  0999 V2000
    6.9377   -2.3150   -1.0307 C   0  0  0  0  0  0  0  0  0  0  0  0
    7.1991   -0.9415   -1.3565 C   0  0  0  0  0  0  0  0  0  0  0  0
    6.2158   -0.1141   -1.8451 C   0  0  0  0  0  0  0  0  0  0  0  0
    4.8754   -0.5748   -2.0462 C   0  0  0  0  0  0  0  0  0  0  0  0
    4.6240   -1.9555   -1.7524 C   0  0  0  0  0  0  0  0  0  0  0  0
    5.6067   -2.7845   -1.2722 C   0  0  0  0  0  0  0  0  0  0  0  0
    7.8988   -3.1366   -0.5149 C   0  0  0  0  0  0  0  0  0  0  0  0
    7.7888   -4.4823   -0.5183 N   0  0  0  0  0  0  0  0  0  0  0  0
    3.7527    0.6144   -3.7879 N   0  0  0  0  0  0  0  0  0  0  0  0
    3.8840    0.2465   -2.4958 C   0  0  0  0  0  0  0  0  0  0  0  0
    9.0421   -2.6605    0.0377 N   0  0  0  0  0  0  0  0  0  0  0  0
    2.9410    0.7674   -1.6752 N   0  0  0  0  0  0  0  0  0  0  0  0
   10.3676   -3.2720   -0.0345 C   0  0  0  0  0  0  0  0  0  0  0  0
    1.6294    1.2658   -2.0777 C   0  0  0  0  0  0  0  0  0  0  0  0
   11.3046   -2.2905   -0.7569 C   0  0  0  0  0  0  0  0  0  0  0  0
    1.1981    2.3381   -1.0599 C   0  0  0  0  0  0  0  0  0  0  0  0
   11.9648   -1.3277    0.2396 C   0  0  0  0  0  0  0  0  0  0  0  0
    0.4735    1.7414    0.1602 C   0  0  0  0  0  0  0  0  0  0  0  0
   12.9795   -0.4804   -0.4846 N   0  0  0  0  0  0  0  0  0  0  0  0
    0.3017    2.7628    1.2560 N   0  0  0  0  0  0  0  0  0  0  0  0
   14.1078   -1.3429   -0.9810 C   0  0  0  0  0  0  0  0  0  0  0  0
    1.6472    3.0526    1.8652 C   0  0  0  0  0  0  0  0  0  0  0  0
   13.5259    0.5957    0.4207 C   0  0  0  0  0  0  0  0  0  0  0  0
   -0.6305    2.2870    2.3351 C   0  0  0  0  0  0  0  0  0  0  0  0
  1  6  2  0  0  0  0
  2  3  2  0  0  0  0
  2  1  1  0  0  0  0
  3  4  1  0  0  0  0
  4 10  1  0  0  0  0
  4  5  2  0  0  0  0
  6  5  1  0  0  0  0
  7  1  1  0  0  0  0
  7 11  1  0  0  0  0
  8  7  2  0  0  0  0
  9 10  2  0  0  0  0
 10 12  1  0  0  0  0
 12 14  1  0  0  0  0
 13 11  1  0  0  0  0
 13 15  1  0  0  0  0
 14 16  1  0  0  0  0
 16 18  1  0  0  0  0
 17 15  1  0  0  0  0
 17 19  1  0  0  0  0
 18 20  1  0  0  0  0
 19 23  1  0  0  0  0
 20 22  1  0  0  0  0
 20 24  1  0  0  0  0
 21 19  1  0  0  0  0
M  END
>  <CHROM.1>
77.26602159,-162.71886369,-152.58071830,118.32599644,89.04086070,-86.96640037
168.93925502,174.16203025,-65.78381044,-70.55941521,6.25068289,-0.45204327
-0.68849064,0.28877210,0.15562547,-2.58166310

>  <Name>
lig.pdb

>  <RI>
1.56215e+07

>  <Rbt.Current_Directory>
/home/itssahil/PROJECTS/Mol_Feturizer/New_Systems/rnas/2l94

>  <Rbt.Executable>
rbdock ($Id: //depot/dev/client3/rdock/2013.1/src/exe/rbdock.cxx#4 $)

>  <Rbt.Library>
libRbt.so (2013.1, Build901 2013/11/27)

>  <Rbt.Parameter_File>
/export/apps/rDock/src/rDock_2013.1_src/data/scripts/dock_solv.prm

>  <Rbt.Receptor>
prm/pocket_docking_2.prm

>  <SCORE>
-8.21547

>  <SCORE.INTER>
-16.8981

>  <SCORE.INTER.CONST>
1

>  <SCORE.INTER.POLAR>
-2.98673

>  <SCORE.INTER.ROT>
10

>  <SCORE.INTER.SOLV>
8.06646

>  <SCORE.INTER.VDW>
-14.2651

>  <SCORE.INTER.norm>
-0.704088

>  <SCORE.INTRA>
6.4818

>  <SCORE.INTRA.DIHEDRAL>
16.5443

>  <SCORE.INTRA.DIHEDRAL.0>
7.52971

>  <SCORE.INTRA.POLAR>
0

>  <SCORE.INTRA.POLAR.0>
0

>  <SCORE.INTRA.REPUL>
0

>  <SCORE.INTRA.REPUL.0>
0

>  <SCORE.INTRA.SOLV>
-0.11305

>  <SCORE.INTRA.SOLV.lig_0>
-22.1084

>  <SCORE.INTRA.VDW>
-1.73384

>  <SCORE.INTRA.VDW.0>
2.4256

>  <SCORE.INTRA.norm>
0.270075

>  <SCORE.RESTR>
2.20083

>  <SCORE.RESTR.CAVITY>
2.20083

>  <SCORE.RESTR.norm>
0.0917013

>  <SCORE.SYSTEM>
0

>  <SCORE.SYSTEM.CONST>
0

>  <SCORE.SYSTEM.DIHEDRAL>
0

>  <SCORE.SYSTEM.SOLV>
0

>  <SCORE.SYSTEM.norm>
0

>  <SCORE.heavy>
24

>  <SCORE.norm>
-0.342311

>  <RMSD>
1.881

$$$$
lig.pdb
 OpenBabel11021811453D
libRbt.so/2013.1/901 2013/11/27
 24 24  0  0  0  0  0  0  0  0999 V2000
    3.6976    1.2784   -2.0783 C   0  0  0  0  0  0  0  0  0  0  0  0
    4.0974    1.0836   -3.4433 C   0  0  0  0  0  0  0  0  0  0  0  0
    4.7466   -0.0576   -3.8512 C   0  0  0  0  0  0  0  0  0  0  0  0
    5.0502   -1.1180   -2.9386 C   0  0  0  0  0  0  0  0  0  0  0  0
    4.6805   -0.9075   -1.5694 C   0  0  0  0  0  0  0  0  0  0  0  0
    4.0396    0.2349   -1.1595 C   0  0  0  0  0  0  0  0  0  0  0  0
    3.0243    2.3937   -1.6689 C   0  0  0  0  0  0  0  0  0  0  0  0
    2.3994    3.2268   -2.5283 N   0  0  0  0  0  0  0  0  0  0  0  0
    6.0109   -2.5186   -4.6190 N   0  0  0  0  0  0  0  0  0  0  0  0
    5.6610   -2.2695   -3.3392 C   0  0  0  0  0  0  0  0  0  0  0  0
    2.9290    2.7470   -0.3631 N   0  0  0  0  0  0  0  0  0  0  0  0
    5.9687   -3.2688   -2.4786 N   0  0  0  0  0  0  0  0  0  0  0  0
    1.7818    3.3739    0.2906 C   0  0  0  0  0  0  0  0  0  0  0  0
    6.9769   -4.3038   -2.6857 C   0  0  0  0  0  0  0  0  0  0  0  0
    0.5282    2.5590   -0.0661 C   0  0  0  0  0  0  0  0  0  0  0  0
    7.9295   -4.2851   -1.4758 C   0  0  0  0  0  0  0  0  0  0  0  0
   -0.2099    2.1046    1.2007 C   0  0  0  0  0  0  0  0  0  0  0  0
    8.9653   -3.1489   -1.5530 C   0  0  0  0  0  0  0  0  0  0  0  0
   -0.5332    3.3088    2.0475 N   0  0  0  0  0  0  0  0  0  0  0  0
    9.5822   -2.8699   -0.2057 N   0  0  0  0  0  0  0  0  0  0  0  0
    0.4949    3.4624    3.1351 C   0  0  0  0  0  0  0  0  0  0  0  0
    8.7976   -1.7782    0.4711 C   0  0  0  0  0  0  0  0  0  0  0  0
   -1.9050    3.1812    2.6624 C   0  0  0  0  0  0  0  0  0  0  0  0
   11.0189   -2.4415   -0.3165 C   0  0  0  0  0  0  0  0  0  0  0  0
  1  6  2  0  0  0  0
  2  3  2  0  0  0  0
  2  1  1  0  0  0  0
  3  4  1  0  0  0  0
  4 10  1  0  0  0  0
  4  5  2  0  0  0  0
  6  5  1  0  0  0  0
  7  1  1  0  0  0  0
  7 11  1  0  0  0  0
  8  7  2  0  0  0  0
  9 10  2  0  0  0  0
 10 12  1  0  0  0  0
 12 14  1  0  0  0  0
 13 11  1  0  0  0  0
 13 15  1  0  0  0  0
 14 16  1  0  0  0  0
 16 18  1  0  0  0  0
 17 15  1  0  0  0  0
 17 19  1  0  0  0  0
 18 20  1  0  0  0  0
 19 23  1  0  0  0  0
 20 22  1  0  0  0  0
 20 24  1  0  0  0  0
 21 19  1  0  0  0  0
M  END
>  <CHROM.1>
-1.05450811,16.74054882,125.81405785,50.13039529,124.97150009,-78.83638536
161.89493084,55.67348857,-98.10871449,-92.83577529,4.40790235,0.00850929
-1.04399551,2.75687397,-0.60832948,1.38867051

>  <Name>
lig.pdb

>  <RI>
1.56215e+07

>  <Rbt.Current_Directory>
/home/itssahil/PROJECTS/Mol_Feturizer/New_Systems/rnas/2l94

>  <Rbt.Executable>
rbdock ($Id: //depot/dev/client3/rdock/2013.1/src/exe/rbdock.cxx#4 $)

>  <Rbt.Library>
libRbt.so (2013.1, Build901 2013/11/27)

>  <Rbt.Parameter_File>
/export/apps/rDock/src/rDock_2013.1_src/data/scripts/dock_solv.prm

>  <Rbt.Receptor>
prm/pocket_docking_2.prm

>  <SCORE>
-15.9738

>  <SCORE.INTER>
-20.0422

>  <SCORE.INTER.CONST>
1

>  <SCORE.INTER.POLAR>
-2.94766

>  <SCORE.INTER.ROT>
10

>  <SCORE.INTER.SOLV>
9.79638

>  <SCORE.INTER.VDW>
-17.0681

>  <SCORE.INTER.norm>
-0.835092

>  <SCORE.INTRA>
3.82198

>  <SCORE.INTRA.DIHEDRAL>
10.9448

>  <SCORE.INTRA.DIHEDRAL.0>
7.52971

>  <SCORE.INTRA.POLAR>
0

>  <SCORE.INTRA.POLAR.0>
0

>  <SCORE.INTRA.REPUL>
0

>  <SCORE.INTRA.REPUL.0>
0

>  <SCORE.INTRA.SOLV>
0.466037

>  <SCORE.INTRA.SOLV.lig_0>
-22.1084

>  <SCORE.INTRA.VDW>
-1.88346

>  <SCORE.INTRA.VDW.0>
2.4256

>  <SCORE.INTRA.norm>
0.159249

>  <SCORE.RESTR>
0.246435

>  <SCORE.RESTR.CAVITY>
0.246435

>  <SCORE.RESTR.norm>
0.0102681

>  <SCORE.SYSTEM>
0

>  <SCORE.SYSTEM.CONST>
0

>  <SCORE.SYSTEM.DIHEDRAL>
0

>  <SCORE.SYSTEM.SOLV>
0

>  <SCORE.SYSTEM.norm>
0

>  <SCORE.heavy>
24

>  <SCORE.norm>
-0.665574

>  <RMSD>
1.908

$$$$
lig.pdb
 OpenBabel11021811453D
libRbt.so/2013.1/901 2013/11/27
 24 24  0  0  0  0  0  0  0  0999 V2000
    4.0475    1.3662   -2.3069 C   0  0  0  0  0  0  0  0  0  0  0  0
    4.3966    0.9700   -3.6419 C   0  0  0  0  0  0  0  0  0  0  0  0
    5.1608   -0.1458   -3.8889 C   0  0  0  0  0  0  0  0  0  0  0  0
    5.6416   -0.9788   -2.8285 C   0  0  0  0  0  0  0  0  0  0  0  0
    5.3206   -0.5631   -1.4944 C   0  0  0  0  0  0  0  0  0  0  0  0
    4.5646    0.5552   -1.2462 C   0  0  0  0  0  0  0  0  0  0  0  0
    3.2627    2.4543   -2.0521 C   0  0  0  0  0  0  0  0  0  0  0  0
    2.6931    3.1899   -3.0306 N   0  0  0  0  0  0  0  0  0  0  0  0
    7.1987   -2.2507   -4.1192 N   0  0  0  0  0  0  0  0  0  0  0  0
    6.3695   -2.1077   -3.0637 C   0  0  0  0  0  0  0  0  0  0  0  0
    2.9923    2.8766   -0.7921 N   0  0  0  0  0  0  0  0  0  0  0  0
    6.3191   -3.1899   -2.2511 N   0  0  0  0  0  0  0  0  0  0  0  0
    1.7393    3.4598   -0.3164 C   0  0  0  0  0  0  0  0  0  0  0  0
    7.3346   -4.2327   -2.1416 C   0  0  0  0  0  0  0  0  0  0  0  0
    1.0956    2.4668    0.6647 C   0  0  0  0  0  0  0  0  0  0  0  0
    8.0612   -4.0460   -0.7967 C   0  0  0  0  0  0  0  0  0  0  0  0
   -0.4012    2.7589    0.8382 C   0  0  0  0  0  0  0  0  0  0  0  0
    9.5896   -3.9525   -0.9555 C   0  0  0  0  0  0  0  0  0  0  0  0
   -0.8293    2.3573    2.2265 N   0  0  0  0  0  0  0  0  0  0  0  0
    9.9770   -2.9224   -1.9861 N   0  0  0  0  0  0  0  0  0  0  0  0
   -0.1309    3.2143    3.2469 C   0  0  0  0  0  0  0  0  0  0  0  0
   11.4783   -2.8689   -2.0790 C   0  0  0  0  0  0  0  0  0  0  0  0
   -0.5164    0.9046    2.4866 C   0  0  0  0  0  0  0  0  0  0  0  0
    9.4601   -1.5531   -1.6429 C   0  0  0  0  0  0  0  0  0  0  0  0
  1  6  2  0  0  0  0
  2  3  2  0  0  0  0
  2  1  1  0  0  0  0
  3  4  1  0  0  0  0
  4 10  1  0  0  0  0
  4  5  2  0  0  0  0
  6  5  1  0  0  0  0
  7  1  1  0  0  0  0
  7 11  1  0  0  0  0
  8  7  2  0  0  0  0
  9 10  2  0  0  0  0
 10 12  1  0  0  0  0
 12 14  1  0  0  0  0
 13 11  1  0  0  0  0
 13 15  1  0  0  0  0
 14 16  1  0  0  0  0
 16 18  1  0  0  0  0
 17 15  1  0  0  0  0
 17 19  1  0  0  0  0
 18 20  1  0  0  0  0
 19 23  1  0  0  0  0
 20 22  1  0  0  0  0
 20 24  1  0  0  0  0
 21 19  1  0  0  0  0
M  END
>  <CHROM.1>
31.10585632,4.01484451,107.28818429,112.41419133,-160.68904969,-126.40762573
51.48199422,-149.66750050,64.62110684,179.27132948,4.78190969,-0.09768007
-1.25506398,-3.11573731,-0.66117671,2.11876833

>  <Name>
lig.pdb

>  <RI>
1.56215e+07

>  <Rbt.Current_Directory>
/home/itssahil/PROJECTS/Mol_Feturizer/New_Systems/rnas/2l94

>  <Rbt.Executable>
rbdock ($Id: //depot/dev/client3/rdock/2013.1/src/exe/rbdock.cxx#4 $)

>  <Rbt.Library>
libRbt.so (2013.1, Build901 2013/11/27)

>  <Rbt.Parameter_File>
/export/apps/rDock/src/rDock_2013.1_src/data/scripts/dock_solv.prm

>  <Rbt.Receptor>
prm/pocket_docking_2.prm

>  <SCORE>
-7.37041

>  <SCORE.INTER>
-13.9037

>  <SCORE.INTER.CONST>
1

>  <SCORE.INTER.POLAR>
-2.06133

>  <SCORE.INTER.ROT>
10

>  <SCORE.INTER.SOLV>
9.76147

>  <SCORE.INTER.VDW>
-15.9185

>  <SCORE.INTER.norm>
-0.579321

>  <SCORE.INTRA>
6.43395

>  <SCORE.INTRA.DIHEDRAL>
10.5754

>  <SCORE.INTRA.DIHEDRAL.0>
7.52971

>  <SCORE.INTRA.POLAR>
0

>  <SCORE.INTRA.POLAR.0>
0

>  <SCORE.INTRA.REPUL>
0

>  <SCORE.INTRA.REPUL.0>
0

>  <SCORE.INTRA.SOLV>
0.972777

>  <SCORE.INTRA.SOLV.lig_0>
-22.1084

>  <SCORE.INTRA.VDW>
0.659848

>  <SCORE.INTRA.VDW.0>
2.4256

>  <SCORE.INTRA.norm>
0.268081

>  <SCORE.RESTR>
0.0993328

>  <SCORE.RESTR.CAVITY>
0.0993328

>  <SCORE.RESTR.norm>
0.00413887

>  <SCORE.SYSTEM>
0

>  <SCORE.SYSTEM.CONST>
0

>  <SCORE.SYSTEM.DIHEDRAL>
0

>  <SCORE.SYSTEM.SOLV>
0

>  <SCORE.SYSTEM.norm>
0

>  <SCORE.heavy>
24

>  <SCORE.norm>
-0.3071

>  <RMSD>
1.908

$$$$
lig.pdb
 OpenBabel11021811453D
libRbt.so/2013.1/901 2013/11/27
 24 24  0  0  0  0  0  0  0  0999 V2000
    5.9690   -1.8860   -0.5268 C   0  0  0  0  0  0  0  0  0  0  0  0
    5.5919   -2.0716   -1.8996 C   0  0  0  0  0  0  0  0  0  0  0  0
    4.5566   -1.3672   -2.4671 C   0  0  0  0  0  0  0  0  0  0  0  0
    3.8048   -0.4030   -1.7224 C   0  0  0  0  0  0  0  0  0  0  0  0
    4.1605   -0.2432   -0.3427 C   0  0  0  0  0  0  0  0  0  0  0  0
    5.1887   -0.9517    0.2271 C   0  0  0  0  0  0  0  0  0  0  0  0
    7.0158   -2.5570    0.0378 C   0  0  0  0  0  0  0  0  0  0  0  0
    6.8996   -3.2614    1.1838 N   0  0  0  0  0  0  0  0  0  0  0  0
    2.0437   -0.1160   -3.3113 N   0  0  0  0  0  0  0  0  0  0  0  0
    2.7999    0.3275   -2.2848 C   0  0  0  0  0  0  0  0  0  0  0  0
    8.2542   -2.5693   -0.5147 N   0  0  0  0  0  0  0  0  0  0  0  0
    2.4753    1.5708   -1.8573 N   0  0  0  0  0  0  0  0  0  0  0  0
    9.2005   -3.6832   -0.5126 C   0  0  0  0  0  0  0  0  0  0  0  0
    1.1960    2.2440   -2.0587 C   0  0  0  0  0  0  0  0  0  0  0  0
    9.8717   -3.7387   -1.8944 C   0  0  0  0  0  0  0  0  0  0  0  0
    0.2250    1.7501   -0.9702 C   0  0  0  0  0  0  0  0  0  0  0  0
   10.6526   -2.4479   -2.1775 C   0  0  0  0  0  0  0  0  0  0  0  0
    0.5099    2.3748    0.4076 C   0  0  0  0  0  0  0  0  0  0  0  0
   11.8187   -2.3529   -1.2272 N   0  0  0  0  0  0  0  0  0  0  0  0
   -0.6260    2.1350    1.3697 N   0  0  0  0  0  0  0  0  0  0  0  0
   11.3783   -1.7181    0.0637 C   0  0  0  0  0  0  0  0  0  0  0  0
   -0.4630    3.0519    2.5521 C   0  0  0  0  0  0  0  0  0  0  0  0
   12.9404   -1.5449   -1.8314 C   0  0  0  0  0  0  0  0  0  0  0  0
   -0.6676    0.7133    1.8565 C   0  0  0  0  0  0  0  0  0  0  0  0
  1  6  2  0  0  0  0
  2  3  2  0  0  0  0
  2  1  1  0  0  0  0
  3  4  1  0  0  0  0
  4 10  1  0  0  0  0
  4  5  2  0  0  0  0
  6  5  1  0  0  0  0
  7  1  1  0  0  0  0
  7 11  1  0  0  0  0
  8  7  2  0  0  0  0
  9 10  2  0  0  0  0
 10 12  1  0  0  0  0
 12 14  1  0  0  0  0
 13 11  1  0  0  0  0
 13 15  1  0  0  0  0
 14 16  1  0  0  0  0
 16 18  1  0  0  0  0
 17 15  1  0  0  0  0
 17 19  1  0  0  0  0
 18 20  1  0  0  0  0
 19 23  1  0  0  0  0
 20 22  1  0  0  0  0
 20 24  1  0  0  0  0
 21 19  1  0  0  0  0
M  END
>  <CHROM.1>
29.26947604,-127.48619448,82.41492786,139.59430982,61.61219288,75.68682503
166.77303270,66.65774696,-85.79616644,-165.38243194,5.21211788,-0.67990024
-0.71742793,-0.07879270,-0.41070605,1.63347328

>  <Name>
lig.pdb

>  <RI>
1.09765e+07

>  <Rbt.Current_Directory>
/home/itssahil/PROJECTS/Mol_Feturizer/New_Systems/rnas/2l94

>  <Rbt.Executable>
rbdock ($Id: //depot/dev/client3/rdock/2013.1/src/exe/rbdock.cxx#4 $)

>  <Rbt.Library>
libRbt.so (2013.1, Build901 2013/11/27)

>  <Rbt.Parameter_File>
/export/apps/rDock/src/rDock_2013.1_src/data/scripts/dock_solv.prm

>  <Rbt.Receptor>
prm/pocket_docking_3.prm

>  <SCORE>
-15.9568

>  <SCORE.INTER>
-20.6514

>  <SCORE.INTER.CONST>
1

>  <SCORE.INTER.POLAR>
-2.50309

>  <SCORE.INTER.ROT>
10

>  <SCORE.INTER.SOLV>
10.4095

>  <SCORE.INTER.VDW>
-19.1604

>  <SCORE.INTER.norm>
-0.860473

>  <SCORE.INTRA>
4.68085

>  <SCORE.INTRA.DIHEDRAL>
12.0375

>  <SCORE.INTRA.DIHEDRAL.0>
7.52971

>  <SCORE.INTRA.POLAR>
0

>  <SCORE.INTRA.POLAR.0>
0

>  <SCORE.INTRA.REPUL>
0

>  <SCORE.INTRA.REPUL.0>
0

>  <SCORE.INTRA.SOLV>
0.611495

>  <SCORE.INTRA.SOLV.lig_0>
-22.1084

>  <SCORE.INTRA.VDW>
-1.64366

>  <SCORE.INTRA.VDW.0>
2.4256

>  <SCORE.INTRA.norm>
0.195036

>  <SCORE.RESTR>
0.0136862

>  <SCORE.RESTR.CAVITY>
0.0136862

>  <SCORE.RESTR.norm>
0.000570259

>  <SCORE.SYSTEM>
0

>  <SCORE.SYSTEM.CONST>
0

>  <SCORE.SYSTEM.DIHEDRAL>
0

>  <SCORE.SYSTEM.SOLV>
0

>  <SCORE.SYSTEM.norm>
0

>  <SCORE.heavy>
24

>  <SCORE.norm>
-0.664868

>  <RMSD>
1.937

$$$$
lig.pdb
 OpenBabel11021811453D
libRbt.so/2013.1/901 2013/11/27
 24 24  0  0  0  0  0  0  0  0999 V2000
    4.9234   -1.9301   -1.5849 C   0  0  0  0  0  0  0  0  0  0  0  0
    5.1427   -1.0206   -0.4960 C   0  0  0  0  0  0  0  0  0  0  0  0
    4.4646    0.1717   -0.4015 C   0  0  0  0  0  0  0  0  0  0  0  0
    3.4957    0.5662   -1.3788 C   0  0  0  0  0  0  0  0  0  0  0  0
    3.3024   -0.3275   -2.4832 C   0  0  0  0  0  0  0  0  0  0  0  0
    3.9847   -1.5142   -2.5829 C   0  0  0  0  0  0  0  0  0  0  0  0
    5.5679   -3.1309   -1.6716 C   0  0  0  0  0  0  0  0  0  0  0  0
    5.0551   -4.1895   -2.3345 N   0  0  0  0  0  0  0  0  0  0  0  0
    2.0691    2.2526   -2.2892 N   0  0  0  0  0  0  0  0  0  0  0  0
    2.7912    1.7292   -1.2759 C   0  0  0  0  0  0  0  0  0  0  0  0
    6.7779   -3.3495   -1.0994 N   0  0  0  0  0  0  0  0  0  0  0  0
    2.7584    2.4633   -0.1384 N   0  0  0  0  0  0  0  0  0  0  0  0
    7.8573   -4.1802   -1.6295 C   0  0  0  0  0  0  0  0  0  0  0  0
    1.7340    3.4357    0.2298 C   0  0  0  0  0  0  0  0  0  0  0  0
    9.1303   -3.8759   -0.8233 C   0  0  0  0  0  0  0  0  0  0  0  0
    0.4393    2.6631    0.5436 C   0  0  0  0  0  0  0  0  0  0  0  0
    9.5541   -2.4111   -0.9988 C   0  0  0  0  0  0  0  0  0  0  0  0
    0.5810    1.7386    1.7663 C   0  0  0  0  0  0  0  0  0  0  0  0
   10.9314   -2.2183   -0.4177 N   0  0  0  0  0  0  0  0  0  0  0  0
   -0.5134    0.7022    1.8063 N   0  0  0  0  0  0  0  0  0  0  0  0
   11.0634   -0.8267    0.1388 C   0  0  0  0  0  0  0  0  0  0  0  0
   -0.6013    0.1421    3.2006 C   0  0  0  0  0  0  0  0  0  0  0  0
   11.9936   -2.4473   -1.4643 C   0  0  0  0  0  0  0  0  0  0  0  0
   -0.2645   -0.4244    0.8426 C   0  0  0  0  0  0  0  0  0  0  0  0
  1  6  2  0  0  0  0
  2  3  2  0  0  0  0
  2  1  1  0  0  0  0
  3  4  1  0  0  0  0
  4 10  1  0  0  0  0
  4  5  2  0  0  0  0
  6  5  1  0  0  0  0
  7  1  1  0  0  0  0
  7 11  1  0  0  0  0
  8  7  2  0  0  0  0
  9 10  2  0  0  0  0
 10 12  1  0  0  0  0
 12 14  1  0  0  0  0
 13 11  1  0  0  0  0
 13 15  1  0  0  0  0
 14 16  1  0  0  0  0
 16 18  1  0  0  0  0
 17 15  1  0  0  0  0
 17 19  1  0  0  0  0
 18 20  1  0  0  0  0
 19 23  1  0  0  0  0
 20 22  1  0  0  0  0
 20 24  1  0  0  0  0
 21 19  1  0  0  0  0
M  END
>  <CHROM.1>
166.87220005,153.84774133,70.08664797,167.18000278,-62.69189029,64.14455240
-162.58549819,-169.29110390,-147.93417116,-161.59516926,4.69206420,-0.67163268
-0.56935848,0.47576856,-0.06558566,-2.87858949

>  <Name>
lig.pdb

>  <RI>
0

>  <Rbt.Current_Directory>
/home/itssahil/PROJECTS/Mol_Feturizer/New_Systems/rnas/2l94

>  <Rbt.Executable>
rbdock ($Id: //depot/dev/client3/rdock/2013.1/src/exe/rbdock.cxx#4 $)

>  <Rbt.Library>
libRbt.so (2013.1, Build901 2013/11/27)

>  <Rbt.Parameter_File>
/export/apps/rDock/src/rDock_2013.1_src/data/scripts/dock_solv.prm

>  <Rbt.Receptor>
prm/pocket_docking_4.prm

>  <SCORE>
-12.7708

>  <SCORE.INTER>
-12.6696

>  <SCORE.INTER.CONST>
1

>  <SCORE.INTER.POLAR>
-1.59489

>  <SCORE.INTER.ROT>
10

>  <SCORE.INTER.SOLV>
7.44014

>  <SCORE.INTER.VDW>
-15.8768

>  <SCORE.INTER.norm>
-0.5279

>  <SCORE.INTRA>
-0.101169

>  <SCORE.INTRA.DIHEDRAL>
4.61117

>  <SCORE.INTRA.DIHEDRAL.0>
7.52971

>  <SCORE.INTRA.POLAR>
0

>  <SCORE.INTRA.POLAR.0>
0

>  <SCORE.INTRA.REPUL>
0

>  <SCORE.INTRA.REPUL.0>
0

>  <SCORE.INTRA.SOLV>
0.473811

>  <SCORE.INTRA.SOLV.lig_0>
-22.1084

>  <SCORE.INTRA.VDW>
-2.64366

>  <SCORE.INTRA.VDW.0>
2.4256

>  <SCORE.INTRA.norm>
-0.00421537

>  <SCORE.RESTR>
0

>  <SCORE.RESTR.CAVITY>
0

>  <SCORE.RESTR.norm>
0

>  <SCORE.SYSTEM>
0

>  <SCORE.SYSTEM.CONST>
0

>  <SCORE.SYSTEM.DIHEDRAL>
0

>  <SCORE.SYSTEM.SOLV>
0

>  <SCORE.SYSTEM.norm>
0

>  <SCORE.heavy>
24

>  <SCORE.norm>
-0.532116

>  <RMSD>
1.958

$$$$
lig.pdb
 OpenBabel11021811453D
libRbt.so/2013.1/901 2013/11/27
 24 24  0  0  0  0  0  0  0  0999 V2000
    5.3069   -1.5492   -2.7020 C   0  0  0  0  0  0  0  0  0  0  0  0
    4.7019   -0.8598   -3.8065 C   0  0  0  0  0  0  0  0  0  0  0  0
    4.1036    0.3684   -3.6525 C   0  0  0  0  0  0  0  0  0  0  0  0
    4.0603    1.0310   -2.3843 C   0  0  0  0  0  0  0  0  0  0  0  0
    4.6349    0.3262   -1.2757 C   0  0  0  0  0  0  0  0  0  0  0  0
    5.2253   -0.9035   -1.4266 C   0  0  0  0  0  0  0  0  0  0  0  0
    5.9316   -2.7544   -2.8502 C   0  0  0  0  0  0  0  0  0  0  0  0
    5.8963   -3.4594   -4.0012 N   0  0  0  0  0  0  0  0  0  0  0  0
    3.4906    3.2044   -3.1968 N   0  0  0  0  0  0  0  0  0  0  0  0
    3.5018    2.2651   -2.2273 C   0  0  0  0  0  0  0  0  0  0  0  0
    6.6404   -3.3336   -1.8496 N   0  0  0  0  0  0  0  0  0  0  0  0
    2.9078    2.6551   -1.0745 N   0  0  0  0  0  0  0  0  0  0  0  0
    7.8597   -4.1275   -1.9892 C   0  0  0  0  0  0  0  0  0  0  0  0
    1.9236    3.7234   -0.9313 C   0  0  0  0  0  0  0  0  0  0  0  0
    8.6607   -4.0012   -0.6832 C   0  0  0  0  0  0  0  0  0  0  0  0
    1.6538    3.9198    0.5721 C   0  0  0  0  0  0  0  0  0  0  0  0
   10.0722   -3.4628   -0.9550 C   0  0  0  0  0  0  0  0  0  0  0  0
    1.2941    2.6050    1.2876 C   0  0  0  0  0  0  0  0  0  0  0  0
    9.9719   -2.0849   -1.5576 N   0  0  0  0  0  0  0  0  0  0  0  0
    0.0345    1.9957    0.7257 N   0  0  0  0  0  0  0  0  0  0  0  0
   11.3109   -1.6625   -2.0981 C   0  0  0  0  0  0  0  0  0  0  0  0
   -0.9096    1.6994    1.8599 C   0  0  0  0  0  0  0  0  0  0  0  0
    9.5010   -1.0827   -0.5330 C   0  0  0  0  0  0  0  0  0  0  0  0
    0.3060    0.7239   -0.0284 C   0  0  0  0  0  0  0  0  0  0  0  0
  1  6  2  0  0  0  0
  2  3  2  0  0  0  0
  2  1  1  0  0  0  0
  3  4  1  0  0  0  0
  4 10  1  0  0  0  0
  4  5  2  0  0  0  0
  6  5  1  0  0  0  0
  7  1  1  0  0  0  0
  7 11  1  0  0  0  0
  8  7  2  0  0  0  0
  9 10  2  0  0  0  0
 10 12  1  0  0  0  0
 12 14  1  0  0  0  0
 13 11  1  0  0  0  0
 13 15  1  0  0  0  0
 14 16  1  0  0  0  0
 16 18  1  0  0  0  0
 17 15  1  0  0  0  0
 17 19  1  0  0  0  0
 18 20  1  0  0  0  0
 19 23  1  0  0  0  0
 20 22  1  0  0  0  0
 20 24  1  0  0  0  0
 21 19  1  0  0  0  0
M  END
>  <CHROM.1>
-30.67294601,-7.84037359,-173.47548571,152.99740620,-122.94264150,-52.00393354
-61.42144966,61.74340180,-167.98938304,-128.36110606,4.92309688,-0.19262609
-1.41821627,0.48787643,-0.42187593,2.80657403

>  <Name>
lig.pdb

>  <RI>
1.56215e+07

>  <Rbt.Current_Directory>
/home/itssahil/PROJECTS/Mol_Feturizer/New_Systems/rnas/2l94

>  <Rbt.Executable>
rbdock ($Id: //depot/dev/client3/rdock/2013.1/src/exe/rbdock.cxx#4 $)

>  <Rbt.Library>
libRbt.so (2013.1, Build901 2013/11/27)

>  <Rbt.Parameter_File>
/export/apps/rDock/src/rDock_2013.1_src/data/scripts/dock_solv.prm

>  <Rbt.Receptor>
prm/pocket_docking_2.prm

>  <SCORE>
3.93551

>  <SCORE.INTER>
-0.668104

>  <SCORE.INTER.CONST>
1

>  <SCORE.INTER.POLAR>
0

>  <SCORE.INTER.ROT>
10

>  <SCORE.INTER.SOLV>
7.92892

>  <SCORE.INTER.VDW>
-13.355

>  <SCORE.INTER.norm>
-0.0278377

>  <SCORE.INTRA>
4.58314

>  <SCORE.INTRA.DIHEDRAL>
10.2317

>  <SCORE.INTRA.DIHEDRAL.0>
7.52971

>  <SCORE.INTRA.POLAR>
0

>  <SCORE.INTRA.POLAR.0>
0

>  <SCORE.INTRA.REPUL>
0

>  <SCORE.INTRA.REPUL.0>
0

>  <SCORE.INTRA.SOLV>
1.03732

>  <SCORE.INTRA.SOLV.lig_0>
-22.1084

>  <SCORE.INTRA.VDW>
-1.05137

>  <SCORE.INTRA.VDW.0>
2.4256

>  <SCORE.INTRA.norm>
0.190964

>  <SCORE.RESTR>
0.0204731

>  <SCORE.RESTR.CAVITY>
0.0204731

>  <SCORE.RESTR.norm>
0.000853046

>  <SCORE.SYSTEM>
0

>  <SCORE.SYSTEM.CONST>
0

>  <SCORE.SYSTEM.DIHEDRAL>
0

>  <SCORE.SYSTEM.SOLV>
0

>  <SCORE.SYSTEM.norm>
0

>  <SCORE.heavy>
24

>  <SCORE.norm>
0.16398

>  <RMSD>
1.981

$$$$
lig.pdb
 OpenBabel11021811453D
libRbt.so/2013.1/901 2013/11/27
 24 24  0  0  0  0  0  0  0  0999 V2000
    5.6632   -2.1881   -2.4980 C   0  0  0  0  0  0  0  0  0  0  0  0
    4.8004   -2.5011   -1.3941 C   0  0  0  0  0  0  0  0  0  0  0  0
    3.6849   -1.7487   -1.1117 C   0  0  0  0  0  0  0  0  0  0  0  0
    3.3179   -0.6180   -1.9093 C   0  0  0  0  0  0  0  0  0  0  0  0
    4.1989   -0.2865   -2.9909 C   0  0  0  0  0  0  0  0  0  0  0  0
    5.3171   -1.0322   -3.2688 C   0  0  0  0  0  0  0  0  0  0  0  0
    6.7555   -2.9474   -2.8064 C   0  0  0  0  0  0  0  0  0  0  0  0
    7.6483   -2.5923   -3.7550 N   0  0  0  0  0  0  0  0  0  0  0  0
    1.3355   -0.1622   -0.6560 N   0  0  0  0  0  0  0  0  0  0  0  0
    2.1942    0.1134   -1.6604 C   0  0  0  0  0  0  0  0  0  0  0  0
    7.0284   -4.1176   -2.1776 N   0  0  0  0  0  0  0  0  0  0  0  0
    1.8422    1.1861   -2.4084 N   0  0  0  0  0  0  0  0  0  0  0  0
    8.3512   -4.6412   -1.8425 C   0  0  0  0  0  0  0  0  0  0  0  0
    0.9574    2.2710   -1.9953 C   0  0  0  0  0  0  0  0  0  0  0  0
    9.0003   -3.6809   -0.8329 C   0  0  0  0  0  0  0  0  0  0  0  0
    1.7512    3.1968   -1.0548 C   0  0  0  0  0  0  0  0  0  0  0  0
   10.0754   -2.8185   -1.5086 C   0  0  0  0  0  0  0  0  0  0  0  0
    2.2170    2.4830    0.2271 C   0  0  0  0  0  0  0  0  0  0  0  0
   10.9365   -2.1770   -0.4508 N   0  0  0  0  0  0  0  0  0  0  0  0
    1.6268    3.1189    1.4603 N   0  0  0  0  0  0  0  0  0  0  0  0
   10.2400   -0.9694    0.1150 C   0  0  0  0  0  0  0  0  0  0  0  0
    2.2317    2.4721    2.6773 C   0  0  0  0  0  0  0  0  0  0  0  0
   12.2732   -1.7699   -1.0195 C   0  0  0  0  0  0  0  0  0  0  0  0
    0.1324    2.9663    1.5184 C   0  0  0  0  0  0  0  0  0  0  0  0
  1  6  2  0  0  0  0
  2  3  2  0  0  0  0
  2  1  1  0  0  0  0
  3  4  1  0  0  0  0
  4 10  1  0  0  0  0
  4  5  2  0  0  0  0
  6  5  1  0  0  0  0
  7  1  1  0  0  0  0
  7 11  1  0  0  0  0
  8  7  2  0  0  0  0
  9 10  2  0  0  0  0
 10 12  1  0  0  0  0
 12 14  1  0  0  0  0
 13 11  1  0  0  0  0
 13 15  1  0  0  0  0
 14 16  1  0  0  0  0
 16 18  1  0  0  0  0
 17 15  1  0  0  0  0
 17 19  1  0  0  0  0
 18 20  1  0  0  0  0
 19 23  1  0  0  0  0
 20 22  1  0  0  0  0
 20 24  1  0  0  0  0
 21 19  1  0  0  0  0
M  END
>  <CHROM.1>
-0.25362399,-173.21620423,76.73498412,64.01445448,-104.42373599,-62.09350979
-118.51265959,-164.63473931,-80.16702871,-174.08331636,5.18038909,-0.64932819
-1.16995073,0.48525882,0.30995591,-2.33083376

>  <Name>
lig.pdb

>  <RI>
1.09765e+07

>  <Rbt.Current_Directory>
/home/itssahil/PROJECTS/Mol_Feturizer/New_Systems/rnas/2l94

>  <Rbt.Executable>
rbdock ($Id: //depot/dev/client3/rdock/2013.1/src/exe/rbdock.cxx#4 $)

>  <Rbt.Library>
libRbt.so (2013.1, Build901 2013/11/27)

>  <Rbt.Parameter_File>
/export/apps/rDock/src/rDock_2013.1_src/data/scripts/dock_solv.prm

>  <Rbt.Receptor>
prm/pocket_docking_3.prm

>  <SCORE>
-18.9268

>  <SCORE.INTER>
-21.9596

>  <SCORE.INTER.CONST>
1

>  <SCORE.INTER.POLAR>
-3.01342

>  <SCORE.INTER.ROT>
10

>  <SCORE.INTER.SOLV>
11.0358

>  <SCORE.INTER.VDW>
-18.5402

>  <SCORE.INTER.norm>
-0.914981

>  <SCORE.INTRA>
2.94882

>  <SCORE.INTRA.DIHEDRAL>
9.55394

>  <SCORE.INTRA.DIHEDRAL.0>
7.52971

>  <SCORE.INTRA.POLAR>
0

>  <SCORE.INTRA.POLAR.0>
0

>  <SCORE.INTRA.REPUL>
0

>  <SCORE.INTRA.REPUL.0>
0

>  <SCORE.INTRA.SOLV>
1.31191

>  <SCORE.INTRA.SOLV.lig_0>
-22.1084

>  <SCORE.INTRA.VDW>
-2.48411

>  <SCORE.INTRA.VDW.0>
2.4256

>  <SCORE.INTRA.norm>
0.122867

>  <SCORE.RESTR>
0.0838943

>  <SCORE.RESTR.CAVITY>
0.0838943

>  <SCORE.RESTR.norm>
0.0034956

>  <SCORE.SYSTEM>
0

>  <SCORE.SYSTEM.CONST>
0

>  <SCORE.SYSTEM.DIHEDRAL>
0

>  <SCORE.SYSTEM.SOLV>
0

>  <SCORE.SYSTEM.norm>
0

>  <SCORE.heavy>
24

>  <SCORE.norm>
-0.788619

>  <RMSD>
1.994

$$$$
lig.pdb
 OpenBabel11021811453D
libRbt.so/2013.1/901 2013/11/27
 24 24  0  0  0  0  0  0  0  0999 V2000
    4.3595   -1.0646   -2.3111 C   0  0  0  0  0  0  0  0  0  0  0  0
    4.2364   -2.1353   -1.3627 C   0  0  0  0  0  0  0  0  0  0  0  0
    5.3380   -2.7842   -0.8571 C   0  0  0  0  0  0  0  0  0  0  0  0
    6.6682   -2.4205   -1.2416 C   0  0  0  0  0  0  0  0  0  0  0  0
    6.7881   -1.3738   -2.2141 C   0  0  0  0  0  0  0  0  0  0  0  0
    5.6887   -0.7307   -2.7255 C   0  0  0  0  0  0  0  0  0  0  0  0
    3.2738   -0.3924   -2.7951 C   0  0  0  0  0  0  0  0  0  0  0  0
    2.9415   -0.3868   -4.1038 N   0  0  0  0  0  0  0  0  0  0  0  0
    7.8200   -4.3504   -0.4310 N   0  0  0  0  0  0  0  0  0  0  0  0
    7.7691   -3.0326   -0.7192 C   0  0  0  0  0  0  0  0  0  0  0  0
    2.4428    0.3192   -1.9939 N   0  0  0  0  0  0  0  0  0  0  0  0
    8.9129   -2.3627   -0.4421 N   0  0  0  0  0  0  0  0  0  0  0  0
    0.9959    0.4620   -2.1433 C   0  0  0  0  0  0  0  0  0  0  0  0
   10.2440   -2.9477   -0.3137 C   0  0  0  0  0  0  0  0  0  0  0  0
    0.3943    0.6881   -0.7469 C   0  0  0  0  0  0  0  0  0  0  0  0
   11.0589   -2.5468   -1.5575 C   0  0  0  0  0  0  0  0  0  0  0  0
    0.8358    2.0409   -0.1715 C   0  0  0  0  0  0  0  0  0  0  0  0
   12.5630   -2.4046   -1.2615 C   0  0  0  0  0  0  0  0  0  0  0  0
    0.4479    2.1137    1.2832 N   0  0  0  0  0  0  0  0  0  0  0  0
   12.8326   -1.2815   -0.2923 N   0  0  0  0  0  0  0  0  0  0  0  0
   -0.9809    2.5670    1.4112 C   0  0  0  0  0  0  0  0  0  0  0  0
   12.4414    0.0210   -0.9372 C   0  0  0  0  0  0  0  0  0  0  0  0
    1.3490    3.0631    2.0332 C   0  0  0  0  0  0  0  0  0  0  0  0
   14.2797   -1.2123    0.1088 C   0  0  0  0  0  0  0  0  0  0  0  0
  1  6  2  0  0  0  0
  2  3  2  0  0  0  0
  2  1  1  0  0  0  0
  3  4  1  0  0  0  0
  4 10  1  0  0  0  0
  4  5  2  0  0  0  0
  6  5  1  0  0  0  0
  7  1  1  0  0  0  0
  7 11  1  0  0  0  0
  8  7  2  0  0  0  0
  9 10  2  0  0  0  0
 10 12  1  0  0  0  0
 12 14  1  0  0  0  0
 13 11  1  0  0  0  0
 13 15  1  0  0  0  0
 14 16  1  0  0  0  0
 16 18  1  0  0  0  0
 17 15  1  0  0  0  0
 17 19  1  0  0  0  0
 18 20  1  0  0  0  0
 19 23  1  0  0  0  0
 20 22  1  0  0  0  0
 20 24  1  0  0  0  0
 21 19  1  0  0  0  0
M  END
>  <CHROM.1>
37.03304608,-117.97258629,107.35554966,151.33229093,66.97515127,148.97321900
-64.29794603,-169.39875223,-84.28353946,-64.80130343,5.96594271,-0.79776755
-0.94672515,2.90399707,-0.19341911,0.77168329

>  <Name>
lig.pdb

>  <RI>
1.09765e+07

>  <Rbt.Current_Directory>
/home/itssahil/PROJECTS/Mol_Feturizer/New_Systems/rnas/2l94

>  <Rbt.Executable>
rbdock ($Id: //depot/dev/client3/rdock/2013.1/src/exe/rbdock.cxx#4 $)

>  <Rbt.Library>
libRbt.so (2013.1, Build901 2013/11/27)

>  <Rbt.Parameter_File>
/export/apps/rDock/src/rDock_2013.1_src/data/scripts/dock_solv.prm

>  <Rbt.Receptor>
prm/pocket_docking_3.prm

>  <SCORE>
-9.94613

>  <SCORE.INTER>
-16.2854

>  <SCORE.INTER.CONST>
1

>  <SCORE.INTER.POLAR>
-2.16998

>  <SCORE.INTER.ROT>
10

>  <SCORE.INTER.SOLV>
9.65054

>  <SCORE.INTER.VDW>
-17.1072

>  <SCORE.INTER.norm>
-0.67856

>  <SCORE.INTRA>
6.3393

>  <SCORE.INTRA.DIHEDRAL>
16.8979

>  <SCORE.INTRA.DIHEDRAL.0>
7.52971

>  <SCORE.INTRA.POLAR>
0

>  <SCORE.INTRA.POLAR.0>
0

>  <SCORE.INTRA.REPUL>
0

>  <SCORE.INTRA.REPUL.0>
0

>  <SCORE.INTRA.SOLV>
0.0301046

>  <SCORE.INTRA.SOLV.lig_0>
-22.1084

>  <SCORE.INTRA.VDW>
-2.12473

>  <SCORE.INTRA.VDW.0>
2.4256

>  <SCORE.INTRA.norm>
0.264137

>  <SCORE.RESTR>
0

>  <SCORE.RESTR.CAVITY>
0

>  <SCORE.RESTR.norm>
0

>  <SCORE.SYSTEM>
0

>  <SCORE.SYSTEM.CONST>
0

>  <SCORE.SYSTEM.DIHEDRAL>
0

>  <SCORE.SYSTEM.SOLV>
0

>  <SCORE.SYSTEM.norm>
0

>  <SCORE.heavy>
24

>  <SCORE.norm>
-0.414422

>  <RMSD>
1.996

$$$$
lig.pdb
 OpenBabel11021811453D
libRbt.so/2013.1/901 2013/11/27
 24 24  0  0  0  0  0  0  0  0999 V2000
    4.0881   -1.0009   -2.7063 C   0  0  0  0  0  0  0  0  0  0  0  0
    5.0161   -0.4489   -1.7602 C   0  0  0  0  0  0  0  0  0  0  0  0
    6.1625   -1.1156   -1.3978 C   0  0  0  0  0  0  0  0  0  0  0  0
    6.4981   -2.3921   -1.9520 C   0  0  0  0  0  0  0  0  0  0  0  0
    5.5539   -2.9574   -2.8711 C   0  0  0  0  0  0  0  0  0  0  0  0
    4.4051   -2.2964   -3.2275 C   0  0  0  0  0  0  0  0  0  0  0  0
    2.9629   -0.3332   -3.0972 C   0  0  0  0  0  0  0  0  0  0  0  0
    2.3258   -0.5921   -4.2591 N   0  0  0  0  0  0  0  0  0  0  0  0
    7.7270   -4.3846   -1.4745 N   0  0  0  0  0  0  0  0  0  0  0  0
    7.6501   -3.0456   -1.6273 C   0  0  0  0  0  0  0  0  0  0  0  0
    2.3967    0.6410   -2.3425 N   0  0  0  0  0  0  0  0  0  0  0  0
    8.8233   -2.3993   -1.4278 N   0  0  0  0  0  0  0  0  0  0  0  0
    0.9686    0.9199   -2.2045 C   0  0  0  0  0  0  0  0  0  0  0  0
   10.1564   -2.9869   -1.5176 C   0  0  0  0  0  0  0  0  0  0  0  0
    0.8119    2.1700   -1.3237 C   0  0  0  0  0  0  0  0  0  0  0  0
   10.7999   -2.9156   -0.1203 C   0  0  0  0  0  0  0  0  0  0  0  0
    0.7205    1.7880    0.1601 C   0  0  0  0  0  0  0  0  0  0  0  0
   11.6430   -1.6434    0.0811 C   0  0  0  0  0  0  0  0  0  0  0  0
    0.8735    3.0277    1.0036 N   0  0  0  0  0  0  0  0  0  0  0  0
   12.9034   -1.6781   -0.7457 N   0  0  0  0  0  0  0  0  0  0  0  0
    2.2270    3.6424    0.7720 C   0  0  0  0  0  0  0  0  0  0  0  0
   14.0252   -1.0705    0.0531 C   0  0  0  0  0  0  0  0  0  0  0  0
    0.7082    2.7055    2.4682 C   0  0  0  0  0  0  0  0  0  0  0  0
   12.7574   -0.9210   -2.0362 C   0  0  0  0  0  0  0  0  0  0  0  0
  1  6  2  0  0  0  0
  2  3  2  0  0  0  0
  2  1  1  0  0  0  0
  3  4  1  0  0  0  0
  4 10  1  0  0  0  0
  4  5  2  0  0  0  0
  6  5  1  0  0  0  0
  7  1  1  0  0  0  0
  7 11  1  0  0  0  0
  8  7  2  0  0  0  0
  9 10  2  0  0  0  0
 10 12  1  0  0  0  0
 12 14  1  0  0  0  0
 13 11  1  0  0  0  0
 13 15  1  0  0  0  0
 14 16  1  0  0  0  0
 16 18  1  0  0  0  0
 17 15  1  0  0  0  0
 17 19  1  0  0  0  0
 18 20  1  0  0  0  0
 19 23  1  0  0  0  0
 20 22  1  0  0  0  0
 20 24  1  0  0  0  0
 21 19  1  0  0  0  0
M  END
>  <CHROM.1>
142.53317982,157.51750438,-115.97625838,-176.26609508,-89.45265494,-92.66932473
-70.19312387,167.64779858,-61.98592955,-141.88312692,5.95802273,-0.67712712
-1.27335066,2.86519118,-0.24277875,0.76363987

>  <Name>
lig.pdb

>  <RI>
1.56215e+07

>  <Rbt.Current_Directory>
/home/itssahil/PROJECTS/Mol_Feturizer/New_Systems/rnas/2l94

>  <Rbt.Executable>
rbdock ($Id: //depot/dev/client3/rdock/2013.1/src/exe/rbdock.cxx#4 $)

>  <Rbt.Library>
libRbt.so (2013.1, Build901 2013/11/27)

>  <Rbt.Parameter_File>
/export/apps/rDock/src/rDock_2013.1_src/data/scripts/dock_solv.prm

>  <Rbt.Receptor>
prm/pocket_docking_2.prm

>  <SCORE>
-8.03576

>  <SCORE.INTER>
-14.9918

>  <SCORE.INTER.CONST>
1

>  <SCORE.INTER.POLAR>
-1.61008

>  <SCORE.INTER.ROT>
10

>  <SCORE.INTER.SOLV>
11.8409

>  <SCORE.INTER.VDW>
-18.8412

>  <SCORE.INTER.norm>
-0.624657

>  <SCORE.INTRA>
5.0972

>  <SCORE.INTRA.DIHEDRAL>
13.1302

>  <SCORE.INTRA.DIHEDRAL.0>
7.52971

>  <SCORE.INTRA.POLAR>
0

>  <SCORE.INTRA.POLAR.0>
0

>  <SCORE.INTRA.REPUL>
0

>  <SCORE.INTRA.REPUL.0>
0

>  <SCORE.INTRA.SOLV>
0.19218

>  <SCORE.INTRA.SOLV.lig_0>
-22.1084

>  <SCORE.INTRA.VDW>
-1.56397

>  <SCORE.INTRA.VDW.0>
2.4256

>  <SCORE.INTRA.norm>
0.212383

>  <SCORE.RESTR>
1.85881

>  <SCORE.RESTR.CAVITY>
1.85881

>  <SCORE.RESTR.norm>
0.0774506

>  <SCORE.SYSTEM>
0

>  <SCORE.SYSTEM.CONST>
0

>  <SCORE.SYSTEM.DIHEDRAL>
0

>  <SCORE.SYSTEM.SOLV>
0

>  <SCORE.SYSTEM.norm>
0

>  <SCORE.heavy>
24

>  <SCORE.norm>
-0.334823

>  <RMSD>
2.002

$$$$
lig.pdb
 OpenBabel11021811453D
libRbt.so/2013.1/901 2013/11/27
 24 24  0  0  0  0  0  0  0  0999 V2000
    4.5140   -0.8695   -2.3321 C   0  0  0  0  0  0  0  0  0  0  0  0
    4.7122   -2.2691   -2.5831 C   0  0  0  0  0  0  0  0  0  0  0  0
    5.7844   -2.9530   -2.0609 C   0  0  0  0  0  0  0  0  0  0  0  0
    6.7561   -2.3087   -1.2303 C   0  0  0  0  0  0  0  0  0  0  0  0
    6.5754   -0.9038   -1.0082 C   0  0  0  0  0  0  0  0  0  0  0  0
    5.5098   -0.2182   -1.5356 C   0  0  0  0  0  0  0  0  0  0  0  0
    3.4357   -0.1879   -2.8194 C   0  0  0  0  0  0  0  0  0  0  0  0
    2.6920   -0.6386   -3.8523 N   0  0  0  0  0  0  0  0  0  0  0  0
    7.8084   -4.3219   -0.4901 N   0  0  0  0  0  0  0  0  0  0  0  0
    7.8032   -2.9851   -0.6774 C   0  0  0  0  0  0  0  0  0  0  0  0
    3.0271    0.9952   -2.2976 N   0  0  0  0  0  0  0  0  0  0  0  0
    8.9347   -2.3658   -0.2650 N   0  0  0  0  0  0  0  0  0  0  0  0
    1.6482    1.4611   -2.1637 C   0  0  0  0  0  0  0  0  0  0  0  0
   10.2416   -2.9905   -0.0847 C   0  0  0  0  0  0  0  0  0  0  0  0
    1.1992    1.2059   -0.7159 C   0  0  0  0  0  0  0  0  0  0  0  0
   11.1658   -2.4867   -1.2088 C   0  0  0  0  0  0  0  0  0  0  0  0
    0.2592    2.3173   -0.2288 C   0  0  0  0  0  0  0  0  0  0  0  0
   12.3174   -1.6107   -0.6830 C   0  0  0  0  0  0  0  0  0  0  0  0
    0.0689    2.1910    1.2611 N   0  0  0  0  0  0  0  0  0  0  0  0
   13.3437   -1.3438   -1.7549 N   0  0  0  0  0  0  0  0  0  0  0  0
   -1.1343    2.9837    1.6938 C   0  0  0  0  0  0  0  0  0  0  0  0
   14.5599   -0.7252   -1.1197 C   0  0  0  0  0  0  0  0  0  0  0  0
    1.2891    2.6783    2.0024 C   0  0  0  0  0  0  0  0  0  0  0  0
   12.8252   -0.4183   -2.8200 C   0  0  0  0  0  0  0  0  0  0  0  0
  1  6  2  0  0  0  0
  2  3  2  0  0  0  0
  2  1  1  0  0  0  0
  3  4  1  0  0  0  0
  4 10  1  0  0  0  0
  4  5  2  0  0  0  0
  6  5  1  0  0  0  0
  7  1  1  0  0  0  0
  7 11  1  0  0  0  0
  8  7  2  0  0  0  0
  9 10  2  0  0  0  0
 10 12  1  0  0  0  0
 12 14  1  0  0  0  0
 13 11  1  0  0  0  0
 13 15  1  0  0  0  0
 14 16  1  0  0  0  0
 16 18  1  0  0  0  0
 17 15  1  0  0  0  0
 17 19  1  0  0  0  0
 18 20  1  0  0  0  0
 19 23  1  0  0  0  0
 20 22  1  0  0  0  0
 20 24  1  0  0  0  0
 21 19  1  0  0  0  0
M  END
>  <CHROM.1>
-21.73534527,-19.20659325,108.79129957,99.12691435,144.95112220,113.48629978
169.45892198,-168.46824418,-163.31593862,-168.91763460,6.07525189,-0.62247524
-1.09693902,2.84368944,-0.13816524,0.69889256

>  <Name>
lig.pdb

>  <RI>
1.71133e+07

>  <Rbt.Current_Directory>
/home/itssahil/PROJECTS/Mol_Feturizer/New_Systems/rnas/2l94

>  <Rbt.Executable>
rbdock ($Id: //depot/dev/client3/rdock/2013.1/src/exe/rbdock.cxx#4 $)

>  <Rbt.Library>
libRbt.so (2013.1, Build901 2013/11/27)

>  <Rbt.Parameter_File>
/export/apps/rDock/src/rDock_2013.1_src/data/scripts/dock_solv.prm

>  <Rbt.Receptor>
prm/pocket_docking_5.prm

>  <SCORE>
-19.4465

>  <SCORE.INTER>
-22.3673

>  <SCORE.INTER.CONST>
1

>  <SCORE.INTER.POLAR>
-3.24586

>  <SCORE.INTER.ROT>
10

>  <SCORE.INTER.SOLV>
9.80754

>  <SCORE.INTER.VDW>
-17.6278

>  <SCORE.INTER.norm>
-0.93197

>  <SCORE.INTRA>
2.92079

>  <SCORE.INTRA.DIHEDRAL>
11.0159

>  <SCORE.INTRA.DIHEDRAL.0>
7.52971

>  <SCORE.INTRA.POLAR>
0

>  <SCORE.INTRA.POLAR.0>
0

>  <SCORE.INTRA.REPUL>
0

>  <SCORE.INTRA.REPUL.0>
0

>  <SCORE.INTRA.SOLV>
-0.171973

>  <SCORE.INTRA.SOLV.lig_0>
-22.1084

>  <SCORE.INTRA.VDW>
-2.50119

>  <SCORE.INTRA.VDW.0>
2.4256

>  <SCORE.INTRA.norm>
0.121699

>  <SCORE.RESTR>
0

>  <SCORE.RESTR.CAVITY>
0

>  <SCORE.RESTR.norm>
0

>  <SCORE.SYSTEM>
0

>  <SCORE.SYSTEM.CONST>
0

>  <SCORE.SYSTEM.DIHEDRAL>
0

>  <SCORE.SYSTEM.SOLV>
0

>  <SCORE.SYSTEM.norm>
0

>  <SCORE.heavy>
24

>  <SCORE.norm>
-0.81027

>  <RMSD>
2.018

$$$$
lig.pdb
 OpenBabel11021811453D
libRbt.so/2013.1/901 2013/11/27
 24 24  0  0  0  0  0  0  0  0999 V2000
    4.2069   -0.9690   -2.0975 C   0  0  0  0  0  0  0  0  0  0  0  0
    4.3158   -2.4005   -2.1008 C   0  0  0  0  0  0  0  0  0  0  0  0
    5.4417   -3.0414   -1.6408 C   0  0  0  0  0  0  0  0  0  0  0  0
    6.5628   -2.3163   -1.1244 C   0  0  0  0  0  0  0  0  0  0  0  0
    6.4661   -0.8860   -1.1530 C   0  0  0  0  0  0  0  0  0  0  0  0
    5.3458   -0.2448   -1.6194 C   0  0  0  0  0  0  0  0  0  0  0  0
    3.0809   -0.3235   -2.5222 C   0  0  0  0  0  0  0  0  0  0  0  0
    2.1655   -0.9038   -3.3273 N   0  0  0  0  0  0  0  0  0  0  0  0
    7.7408   -4.2751   -0.4291 N   0  0  0  0  0  0  0  0  0  0  0  0
    7.6696   -2.9425   -0.6321 C   0  0  0  0  0  0  0  0  0  0  0  0
    2.7950    0.9524   -2.1624 N   0  0  0  0  0  0  0  0  0  0  0  0
    8.7993   -2.2729   -0.3013 N   0  0  0  0  0  0  0  0  0  0  0  0
    1.4697    1.5091   -1.8979 C   0  0  0  0  0  0  0  0  0  0  0  0
   10.1392   -2.8427   -0.1982 C   0  0  0  0  0  0  0  0  0  0  0  0
    1.2502    1.5103   -0.3764 C   0  0  0  0  0  0  0  0  0  0  0  0
   10.9380   -2.4006   -1.4384 C   0  0  0  0  0  0  0  0  0  0  0  0
   -0.0684    2.2067   -0.0127 C   0  0  0  0  0  0  0  0  0  0  0  0
   12.4603   -2.4700   -1.2200 C   0  0  0  0  0  0  0  0  0  0  0  0
   -0.2846    2.1171    1.4763 N   0  0  0  0  0  0  0  0  0  0  0  0
   13.0819   -1.0963   -1.2155 N   0  0  0  0  0  0  0  0  0  0  0  0
   -0.6684    0.7127    1.8555 C   0  0  0  0  0  0  0  0  0  0  0  0
   13.2743   -0.6454   -2.6386 C   0  0  0  0  0  0  0  0  0  0  0  0
   -1.3625    3.0739    1.9219 C   0  0  0  0  0  0  0  0  0  0  0  0
   14.4110   -1.0764   -0.5133 C   0  0  0  0  0  0  0  0  0  0  0  0
  1  6  2  0  0  0  0
  2  3  2  0  0  0  0
  2  1  1  0  0  0  0
  3  4  1  0  0  0  0
  4 10  1  0  0  0  0
  4  5  2  0  0  0  0
  6  5  1  0  0  0  0
  7  1  1  0  0  0  0
  7 11  1  0  0  0  0
  8  7  2  0  0  0  0
  9 10  2  0  0  0  0
 10 12  1  0  0  0  0
 12 14  1  0  0  0  0
 13 11  1  0  0  0  0
 13 15  1  0  0  0  0
 14 16  1  0  0  0  0
 16 18  1  0  0  0  0
 17 15  1  0  0  0  0
 17 19  1  0  0  0  0
 18 20  1  0  0  0  0
 19 23  1  0  0  0  0
 20 22  1  0  0  0  0
 20 24  1  0  0  0  0
 21 19  1  0  0  0  0
M  END
>  <CHROM.1>
-8.75486739,-20.30781553,104.83262977,98.20783756,174.54453317,158.48692792
-112.71282419,176.77314372,-73.14245988,-80.87009885,5.81790984,-0.75636490
-0.94077868,2.84752667,-0.07530153,0.56792378

>  <Name>
lig.pdb

>  <RI>
0

>  <Rbt.Current_Directory>
/home/itssahil/PROJECTS/Mol_Feturizer/New_Systems/rnas/2l94

>  <Rbt.Executable>
rbdock ($Id: //depot/dev/client3/rdock/2013.1/src/exe/rbdock.cxx#4 $)

>  <Rbt.Library>
libRbt.so (2013.1, Build901 2013/11/27)

>  <Rbt.Parameter_File>
/export/apps/rDock/src/rDock_2013.1_src/data/scripts/dock_solv.prm

>  <Rbt.Receptor>
prm/pocket_docking_4.prm

>  <SCORE>
-12.5704

>  <SCORE.INTER>
-14.0031

>  <SCORE.INTER.CONST>
1

>  <SCORE.INTER.POLAR>
-1.68965

>  <SCORE.INTER.ROT>
10

>  <SCORE.INTER.SOLV>
10.4441

>  <SCORE.INTER.VDW>
-17.4512

>  <SCORE.INTER.norm>
-0.58346

>  <SCORE.INTRA>
1.43267

>  <SCORE.INTRA.DIHEDRAL>
7.69022

>  <SCORE.INTRA.DIHEDRAL.0>
7.52971

>  <SCORE.INTRA.POLAR>
0

>  <SCORE.INTRA.POLAR.0>
0

>  <SCORE.INTRA.REPUL>
0

>  <SCORE.INTRA.REPUL.0>
0

>  <SCORE.INTRA.SOLV>
-0.216086

>  <SCORE.INTRA.SOLV.lig_0>
-22.1084

>  <SCORE.INTRA.VDW>
-2.3044

>  <SCORE.INTRA.VDW.0>
2.4256

>  <SCORE.INTRA.norm>
0.0596945

>  <SCORE.RESTR>
0

>  <SCORE.RESTR.CAVITY>
0

>  <SCORE.RESTR.norm>
0

>  <SCORE.SYSTEM>
0

>  <SCORE.SYSTEM.CONST>
0

>  <SCORE.SYSTEM.DIHEDRAL>
0

>  <SCORE.SYSTEM.SOLV>
0

>  <SCORE.SYSTEM.norm>
0

>  <SCORE.heavy>
24

>  <SCORE.norm>
-0.523766

>  <RMSD>
2.023

$$$$
lig.pdb
 OpenBabel11021811453D
libRbt.so/2013.1/901 2013/11/27
 24 24  0  0  0  0  0  0  0  0999 V2000
    4.3019   -0.5711   -2.1403 C   0  0  0  0  0  0  0  0  0  0  0  0
    5.3659    0.0629   -1.4144 C   0  0  0  0  0  0  0  0  0  0  0  0
    6.4411   -0.6490   -0.9378 C   0  0  0  0  0  0  0  0  0  0  0  0
    6.5629   -2.0597   -1.1483 C   0  0  0  0  0  0  0  0  0  0  0  0
    5.4833   -2.6970   -1.8440 C   0  0  0  0  0  0  0  0  0  0  0  0
    4.4054   -1.9887   -2.3132 C   0  0  0  0  0  0  0  0  0  0  0  0
    3.2455    0.1315   -2.6455 C   0  0  0  0  0  0  0  0  0  0  0  0
    2.3350   -0.4160   -3.4787 N   0  0  0  0  0  0  0  0  0  0  0  0
    7.5485   -3.9901   -0.1430 N   0  0  0  0  0  0  0  0  0  0  0  0
    7.6424   -2.7695   -0.7118 C   0  0  0  0  0  0  0  0  0  0  0  0
    3.0289    1.4357   -2.3436 N   0  0  0  0  0  0  0  0  0  0  0  0
    8.9100   -2.3037   -0.8122 N   0  0  0  0  0  0  0  0  0  0  0  0
    1.7327    2.0881   -2.1686 C   0  0  0  0  0  0  0  0  0  0  0  0
   10.1271   -3.1094   -0.8009 C   0  0  0  0  0  0  0  0  0  0  0  0
    0.8548    1.1743   -1.2984 C   0  0  0  0  0  0  0  0  0  0  0  0
   10.7738   -3.0091   -2.1950 C   0  0  0  0  0  0  0  0  0  0  0  0
    0.1646    1.9743   -0.1850 C   0  0  0  0  0  0  0  0  0  0  0  0
   11.3684   -1.6171   -2.4750 C   0  0  0  0  0  0  0  0  0  0  0  0
    1.1657    2.2870    0.8974 N   0  0  0  0  0  0  0  0  0  0  0  0
   12.7697   -1.4944   -1.9318 N   0  0  0  0  0  0  0  0  0  0  0  0
    1.4594    1.0477    1.6983 C   0  0  0  0  0  0  0  0  0  0  0  0
   12.6955   -1.2282   -0.4523 C   0  0  0  0  0  0  0  0  0  0  0  0
    0.6485    3.3696    1.8120 C   0  0  0  0  0  0  0  0  0  0  0  0
   13.5387   -0.3829   -2.5898 C   0  0  0  0  0  0  0  0  0  0  0  0
  1  6  2  0  0  0  0
  2  3  2  0  0  0  0
  2  1  1  0  0  0  0
  3  4  1  0  0  0  0
  4 10  1  0  0  0  0
  4  5  2  0  0  0  0
  6  5  1  0  0  0  0
  7  1  1  0  0  0  0
  7 11  1  0  0  0  0
  8  7  2  0  0  0  0
  9 10  2  0  0  0  0
 10 12  1  0  0  0  0
 12 14  1  0  0  0  0
 13 11  1  0  0  0  0
 13 15  1  0  0  0  0
 14 16  1  0  0  0  0
 16 18  1  0  0  0  0
 17 15  1  0  0  0  0
 17 19  1  0  0  0  0
 18 20  1  0  0  0  0
 19 23  1  0  0  0  0
 20 22  1  0  0  0  0
 20 24  1  0  0  0  0
 21 19  1  0  0  0  0
M  END
>  <CHROM.1>
138.58683614,170.85593877,113.08759959,45.01451832,133.18523757,70.23012470
85.17706889,-75.93627223,-74.05871335,-79.76986352,5.97135399,-0.58502209
-1.21005886,2.79914624,-0.10690081,0.57937531

>  <Name>
lig.pdb

>  <RI>
1.09765e+07

>  <Rbt.Current_Directory>
/home/itssahil/PROJECTS/Mol_Feturizer/New_Systems/rnas/2l94

>  <Rbt.Executable>
rbdock ($Id: //depot/dev/client3/rdock/2013.1/src/exe/rbdock.cxx#4 $)

>  <Rbt.Library>
libRbt.so (2013.1, Build901 2013/11/27)

>  <Rbt.Parameter_File>
/export/apps/rDock/src/rDock_2013.1_src/data/scripts/dock_solv.prm

>  <Rbt.Receptor>
prm/pocket_docking_3.prm

>  <SCORE>
-12.4271

>  <SCORE.INTER>
-17.1427

>  <SCORE.INTER.CONST>
1

>  <SCORE.INTER.POLAR>
-2.40915

>  <SCORE.INTER.ROT>
10

>  <SCORE.INTER.SOLV>
9.31046

>  <SCORE.INTER.VDW>
-16.7681

>  <SCORE.INTER.norm>
-0.71428

>  <SCORE.INTRA>
4.71561

>  <SCORE.INTRA.DIHEDRAL>
12.8672

>  <SCORE.INTRA.DIHEDRAL.0>
7.52971

>  <SCORE.INTRA.POLAR>
0

>  <SCORE.INTRA.POLAR.0>
0

>  <SCORE.INTRA.REPUL>
0

>  <SCORE.INTRA.REPUL.0>
0

>  <SCORE.INTRA.SOLV>
0.704663

>  <SCORE.INTRA.SOLV.lig_0>
-22.1084

>  <SCORE.INTRA.VDW>
-2.07032

>  <SCORE.INTRA.VDW.0>
2.4256

>  <SCORE.INTRA.norm>
0.196484

>  <SCORE.RESTR>
0

>  <SCORE.RESTR.CAVITY>
0

>  <SCORE.RESTR.norm>
0

>  <SCORE.SYSTEM>
0

>  <SCORE.SYSTEM.CONST>
0

>  <SCORE.SYSTEM.DIHEDRAL>
0

>  <SCORE.SYSTEM.SOLV>
0

>  <SCORE.SYSTEM.norm>
0

>  <SCORE.heavy>
24

>  <SCORE.norm>
-0.517796

>  <RMSD>
2.032

$$$$
lig.pdb
 OpenBabel11021811453D
libRbt.so/2013.1/901 2013/11/27
 24 24  0  0  0  0  0  0  0  0999 V2000
    4.7010   -2.5498   -2.3086 C   0  0  0  0  0  0  0  0  0  0  0  0
    4.9378   -1.3981   -1.4848 C   0  0  0  0  0  0  0  0  0  0  0  0
    4.0828   -0.3216   -1.4832 C   0  0  0  0  0  0  0  0  0  0  0  0
    2.9044   -0.2949   -2.2957 C   0  0  0  0  0  0  0  0  0  0  0  0
    2.6871   -1.4311   -3.1428 C   0  0  0  0  0  0  0  0  0  0  0  0
    3.5444   -2.5029   -3.1513 C   0  0  0  0  0  0  0  0  0  0  0  0
    5.5264   -3.6375   -2.2940 C   0  0  0  0  0  0  0  0  0  0  0  0
    5.2358   -4.7844   -2.9447 N   0  0  0  0  0  0  0  0  0  0  0  0
    0.7902    0.6946   -2.8049 N   0  0  0  0  0  0  0  0  0  0  0  0
    2.0304    0.7517   -2.2749 C   0  0  0  0  0  0  0  0  0  0  0  0
    6.7064   -3.6458   -1.6256 N   0  0  0  0  0  0  0  0  0  0  0  0
    2.3376    1.9468   -1.7171 N   0  0  0  0  0  0  0  0  0  0  0  0
    7.9388   -4.3149   -2.0375 C   0  0  0  0  0  0  0  0  0  0  0  0
    1.3851    2.9486   -1.2482 C   0  0  0  0  0  0  0  0  0  0  0  0
    8.8718   -4.3845   -0.8178 C   0  0  0  0  0  0  0  0  0  0  0  0
    0.5872    2.3340   -0.0832 C   0  0  0  0  0  0  0  0  0  0  0  0
    9.4785   -3.0082   -0.5116 C   0  0  0  0  0  0  0  0  0  0  0  0
    0.8373    3.0553    1.2536 C   0  0  0  0  0  0  0  0  0  0  0  0
   10.8418   -2.9124   -1.1473 N   0  0  0  0  0  0  0  0  0  0  0  0
   -0.0833    2.5503    2.3357 N   0  0  0  0  0  0  0  0  0  0  0  0
   11.6141   -1.7750   -0.5365 C   0  0  0  0  0  0  0  0  0  0  0  0
   -1.3947    3.2826    2.2387 C   0  0  0  0  0  0  0  0  0  0  0  0
   10.7272   -2.7036   -2.6370 C   0  0  0  0  0  0  0  0  0  0  0  0
    0.4896    2.7553    3.7104 C   0  0  0  0  0  0  0  0  0  0  0  0
  1  6  2  0  0  0  0
  2  3  2  0  0  0  0
  2  1  1  0  0  0  0
  3  4  1  0  0  0  0
  4 10  1  0  0  0  0
  4  5  2  0  0  0  0
  6  5  1  0  0  0  0
  7  1  1  0  0  0  0
  7 11  1  0  0  0  0
  8  7  2  0  0  0  0
  9 10  2  0  0  0  0
 10 12  1  0  0  0  0
 12 14  1  0  0  0  0
 13 11  1  0  0  0  0
 13 15  1  0  0  0  0
 14 16  1  0  0  0  0
 16 18  1  0  0  0  0
 17 15  1  0  0  0  0
 17 19  1  0  0  0  0
 18 20  1  0  0  0  0
 19 23  1  0  0  0  0
 20 22  1  0  0  0  0
 20 24  1  0  0  0  0
 21 19  1  0  0  0  0
M  END
>  <CHROM.1>
-165.82355805,172.21857326,63.79291920,-164.49598171,-74.06212599,115.35755127
172.73968923,-96.08148138,-163.14060513,-84.26347393,4.47274785,-0.78697008
-1.07486754,0.53750044,0.33270239,-2.26308375

>  <Name>
lig.pdb

>  <RI>
1.71133e+07

>  <Rbt.Current_Directory>
/home/itssahil/PROJECTS/Mol_Feturizer/New_Systems/rnas/2l94

>  <Rbt.Executable>
rbdock ($Id: //depot/dev/client3/rdock/2013.1/src/exe/rbdock.cxx#4 $)

>  <Rbt.Library>
libRbt.so (2013.1, Build901 2013/11/27)

>  <Rbt.Parameter_File>
/export/apps/rDock/src/rDock_2013.1_src/data/scripts/dock_solv.prm

>  <Rbt.Receptor>
prm/pocket_docking_5.prm

>  <SCORE>
-19.7254

>  <SCORE.INTER>
-23.4454

>  <SCORE.INTER.CONST>
1

>  <SCORE.INTER.POLAR>
-2.50142

>  <SCORE.INTER.ROT>
10

>  <SCORE.INTER.SOLV>
13.8713

>  <SCORE.INTER.VDW>
-22.1826

>  <SCORE.INTER.norm>
-0.976892

>  <SCORE.INTRA>
3.72002

>  <SCORE.INTRA.DIHEDRAL>
10.212

>  <SCORE.INTRA.DIHEDRAL.0>
7.52971

>  <SCORE.INTRA.POLAR>
0

>  <SCORE.INTRA.POLAR.0>
0

>  <SCORE.INTRA.REPUL>
0

>  <SCORE.INTRA.REPUL.0>
0

>  <SCORE.INTRA.SOLV>
0.262549

>  <SCORE.INTRA.SOLV.lig_0>
-22.1084

>  <SCORE.INTRA.VDW>
-1.51725

>  <SCORE.INTRA.VDW.0>
2.4256

>  <SCORE.INTRA.norm>
0.155001

>  <SCORE.RESTR>
0

>  <SCORE.RESTR.CAVITY>
0

>  <SCORE.RESTR.norm>
0

>  <SCORE.SYSTEM>
0

>  <SCORE.SYSTEM.CONST>
0

>  <SCORE.SYSTEM.DIHEDRAL>
0

>  <SCORE.SYSTEM.SOLV>
0

>  <SCORE.SYSTEM.norm>
0

>  <SCORE.heavy>
24

>  <SCORE.norm>
-0.821891

>  <RMSD>
2.038

$$$$
lig.pdb
 OpenBabel11021811453D
libRbt.so/2013.1/901 2013/11/27
 24 24  0  0  0  0  0  0  0  0999 V2000
    3.3679   -1.3777   -2.0859 C   0  0  0  0  0  0  0  0  0  0  0  0
    4.1161   -1.5493   -0.8728 C   0  0  0  0  0  0  0  0  0  0  0  0
    5.2240   -2.3612   -0.8148 C   0  0  0  0  0  0  0  0  0  0  0  0
    5.6976   -3.0718   -1.9638 C   0  0  0  0  0  0  0  0  0  0  0  0
    4.9299   -2.9259   -3.1659 C   0  0  0  0  0  0  0  0  0  0  0  0
    3.8189   -2.1220   -3.2229 C   0  0  0  0  0  0  0  0  0  0  0  0
    2.2851   -0.5491   -2.1625 C   0  0  0  0  0  0  0  0  0  0  0  0
    1.7116   -0.2023   -3.3346 N   0  0  0  0  0  0  0  0  0  0  0  0
    7.1488   -4.7201   -2.9047 N   0  0  0  0  0  0  0  0  0  0  0  0
    6.8161   -3.8509   -1.9269 C   0  0  0  0  0  0  0  0  0  0  0  0
    1.7001   -0.0137   -1.0624 N   0  0  0  0  0  0  0  0  0  0  0  0
    7.6934   -3.8182   -0.8957 N   0  0  0  0  0  0  0  0  0  0  0  0
    0.2739    0.2395   -0.8674 C   0  0  0  0  0  0  0  0  0  0  0  0
    9.0893   -4.2429   -0.9388 C   0  0  0  0  0  0  0  0  0  0  0  0
    0.1134    1.6781   -0.3500 C   0  0  0  0  0  0  0  0  0  0  0  0
    9.9207   -3.2162   -0.1474 C   0  0  0  0  0  0  0  0  0  0  0  0
    0.5604    1.7878    1.1143 C   0  0  0  0  0  0  0  0  0  0  0  0
    9.8722   -1.8081   -0.7676 C   0  0  0  0  0  0  0  0  0  0  0  0
   -0.0266    3.0360    1.7219 N   0  0  0  0  0  0  0  0  0  0  0  0
   10.4079   -0.7664    0.1819 N   0  0  0  0  0  0  0  0  0  0  0  0
    0.8356    3.5064    2.8616 C   0  0  0  0  0  0  0  0  0  0  0  0
    9.2975   -0.3276    1.0983 C   0  0  0  0  0  0  0  0  0  0  0  0
   -1.4287    2.7843    2.2187 C   0  0  0  0  0  0  0  0  0  0  0  0
   10.9487    0.4360   -0.5403 C   0  0  0  0  0  0  0  0  0  0  0  0
  1  6  2  0  0  0  0
  2  3  2  0  0  0  0
  2  1  1  0  0  0  0
  3  4  1  0  0  0  0
  4 10  1  0  0  0  0
  4  5  2  0  0  0  0
  6  5  1  0  0  0  0
  7  1  1  0  0  0  0
  7 11  1  0  0  0  0
  8  7  2  0  0  0  0
  9 10  2  0  0  0  0
 10 12  1  0  0  0  0
 12 14  1  0  0  0  0
 13 11  1  0  0  0  0
 13 15  1  0  0  0  0
 14 16  1  0  0  0  0
 16 18  1  0  0  0  0
 17 15  1  0  0  0  0
 17 19  1  0  0  0  0
 18 20  1  0  0  0  0
 19 23  1  0  0  0  0
 20 22  1  0  0  0  0
 20 24  1  0  0  0  0
 21 19  1  0  0  0  0
M  END
>  <CHROM.1>
167.29578363,168.49726716,138.54723709,-131.26057209,-73.31805192,-62.68889654
166.46328691,-160.96017631,-154.26042747,-85.19073714,4.77622185,-0.91088261
-0.73256350,2.69384529,-0.21214674,0.74482372

>  <Name>
lig.pdb

>  <RI>
2.48096e+07

>  <Rbt.Current_Directory>
/home/itssahil/PROJECTS/Mol_Feturizer/New_Systems/rnas/2l94

>  <Rbt.Executable>
rbdock ($Id: //depot/dev/client3/rdock/2013.1/src/exe/rbdock.cxx#4 $)

>  <Rbt.Library>
libRbt.so (2013.1, Build901 2013/11/27)

>  <Rbt.Parameter_File>
/export/apps/rDock/src/rDock_2013.1_src/data/scripts/dock_solv.prm

>  <Rbt.Receptor>
prm/pocket_docking_6.prm

>  <SCORE>
-12.1345

>  <SCORE.INTER>
-11.772

>  <SCORE.INTER.CONST>
1

>  <SCORE.INTER.POLAR>
-1.09531

>  <SCORE.INTER.ROT>
10

>  <SCORE.INTER.SOLV>
14.7727

>  <SCORE.INTER.VDW>
-19.3879

>  <SCORE.INTER.norm>
-0.4905

>  <SCORE.INTRA>
-0.3625

>  <SCORE.INTRA.DIHEDRAL>
3.72295

>  <SCORE.INTRA.DIHEDRAL.0>
7.52971

>  <SCORE.INTRA.POLAR>
0

>  <SCORE.INTRA.POLAR.0>
0

>  <SCORE.INTRA.REPUL>
0

>  <SCORE.INTRA.REPUL.0>
0

>  <SCORE.INTRA.SOLV>
0.278443

>  <SCORE.INTRA.SOLV.lig_0>
-22.1084

>  <SCORE.INTRA.VDW>
-2.3632

>  <SCORE.INTRA.VDW.0>
2.4256

>  <SCORE.INTRA.norm>
-0.0151042

>  <SCORE.RESTR>
0

>  <SCORE.RESTR.CAVITY>
0

>  <SCORE.RESTR.norm>
0

>  <SCORE.SYSTEM>
0

>  <SCORE.SYSTEM.CONST>
0

>  <SCORE.SYSTEM.DIHEDRAL>
0

>  <SCORE.SYSTEM.SOLV>
0

>  <SCORE.SYSTEM.norm>
0

>  <SCORE.heavy>
24

>  <SCORE.norm>
-0.505605

>  <RMSD>
2.039

$$$$
lig.pdb
 OpenBabel11021811453D
libRbt.so/2013.1/901 2013/11/27
 24 24  0  0  0  0  0  0  0  0999 V2000
    2.8109   -0.7425   -1.6266 C   0  0  0  0  0  0  0  0  0  0  0  0
    3.5616   -0.6738   -2.8484 C   0  0  0  0  0  0  0  0  0  0  0  0
    4.7068   -1.4108   -3.0363 C   0  0  0  0  0  0  0  0  0  0  0  0
    5.2074   -2.2944   -2.0273 C   0  0  0  0  0  0  0  0  0  0  0  0
    4.4755   -2.3365   -0.7952 C   0  0  0  0  0  0  0  0  0  0  0  0
    3.3366   -1.5950   -0.6034 C   0  0  0  0  0  0  0  0  0  0  0  0
    1.6551   -0.0392   -1.4417 C   0  0  0  0  0  0  0  0  0  0  0  0
    0.7518   -0.3549   -0.4891 N   0  0  0  0  0  0  0  0  0  0  0  0
    7.0425   -3.0495   -3.3580 N   0  0  0  0  0  0  0  0  0  0  0  0
    6.3217   -3.0573   -2.2167 C   0  0  0  0  0  0  0  0  0  0  0  0
    1.3287    1.0357   -2.2015 N   0  0  0  0  0  0  0  0  0  0  0  0
    6.8013   -3.8953   -1.2670 N   0  0  0  0  0  0  0  0  0  0  0  0
    0.6268    2.2384   -1.7574 C   0  0  0  0  0  0  0  0  0  0  0  0
    8.1675   -4.4008   -1.1749 C   0  0  0  0  0  0  0  0  0  0  0  0
    1.3267    2.7561   -0.4905 C   0  0  0  0  0  0  0  0  0  0  0  0
    9.0254   -3.3228   -0.4868 C   0  0  0  0  0  0  0  0  0  0  0  0
    0.3822    2.7043    0.7183 C   0  0  0  0  0  0  0  0  0  0  0  0
    9.2863   -2.1047   -1.3913 C   0  0  0  0  0  0  0  0  0  0  0  0
    1.1286    3.1419    1.9525 N   0  0  0  0  0  0  0  0  0  0  0  0
   10.0791   -1.0419   -0.6734 N   0  0  0  0  0  0  0  0  0  0  0  0
    2.1493    2.1033    2.3303 C   0  0  0  0  0  0  0  0  0  0  0  0
   11.4353   -1.5968   -0.3294 C   0  0  0  0  0  0  0  0  0  0  0  0
    0.1801    3.3618    3.1050 C   0  0  0  0  0  0  0  0  0  0  0  0
    9.4038   -0.5855    0.5897 C   0  0  0  0  0  0  0  0  0  0  0  0
  1  6  2  0  0  0  0
  2  3  2  0  0  0  0
  2  1  1  0  0  0  0
  3  4  1  0  0  0  0
  4 10  1  0  0  0  0
  4  5  2  0  0  0  0
  6  5  1  0  0  0  0
  7  1  1  0  0  0  0
  7 11  1  0  0  0  0
  8  7  2  0  0  0  0
  9 10  2  0  0  0  0
 10 12  1  0  0  0  0
 12 14  1  0  0  0  0
 13 11  1  0  0  0  0
 13 15  1  0  0  0  0
 14 16  1  0  0  0  0
 16 18  1  0  0  0  0
 17 15  1  0  0  0  0
 17 19  1  0  0  0  0
 18 20  1  0  0  0  0
 19 23  1  0  0  0  0
 20 22  1  0  0  0  0
 20 24  1  0  0  0  0
 21 19  1  0  0  0  0
M  END
>  <CHROM.1>
-0.09010076,161.06297440,82.23577069,50.11578481,-116.51150766,-72.02613111
177.64082831,176.69356990,-69.61252460,63.58429881,4.66336552,-0.58632634
-0.76384918,2.65543488,-0.28038907,0.81475960

>  <Name>
lig.pdb

>  <RI>
1.09765e+07

>  <Rbt.Current_Directory>
/home/itssahil/PROJECTS/Mol_Feturizer/New_Systems/rnas/2l94

>  <Rbt.Executable>
rbdock ($Id: //depot/dev/client3/rdock/2013.1/src/exe/rbdock.cxx#4 $)

>  <Rbt.Library>
libRbt.so (2013.1, Build901 2013/11/27)

>  <Rbt.Parameter_File>
/export/apps/rDock/src/rDock_2013.1_src/data/scripts/dock_solv.prm

>  <Rbt.Receptor>
prm/pocket_docking_3.prm

>  <SCORE>
-15.9338

>  <SCORE.INTER>
-19.1563

>  <SCORE.INTER.CONST>
1

>  <SCORE.INTER.POLAR>
-2.62467

>  <SCORE.INTER.ROT>
10

>  <SCORE.INTER.SOLV>
9.67551

>  <SCORE.INTER.VDW>
-17.5138

>  <SCORE.INTER.norm>
-0.79818

>  <SCORE.INTRA>
3.13992

>  <SCORE.INTRA.DIHEDRAL>
4.97611

>  <SCORE.INTRA.DIHEDRAL.0>
7.52971

>  <SCORE.INTRA.POLAR>
0

>  <SCORE.INTRA.POLAR.0>
0

>  <SCORE.INTRA.REPUL>
0

>  <SCORE.INTRA.REPUL.0>
0

>  <SCORE.INTRA.SOLV>
1.08334

>  <SCORE.INTRA.SOLV.lig_0>
-22.1084

>  <SCORE.INTRA.VDW>
0.110193

>  <SCORE.INTRA.VDW.0>
2.4256

>  <SCORE.INTRA.norm>
0.13083

>  <SCORE.RESTR>
0.0825756

>  <SCORE.RESTR.CAVITY>
0.0825756

>  <SCORE.RESTR.norm>
0.00344065

>  <SCORE.SYSTEM>
0

>  <SCORE.SYSTEM.CONST>
0

>  <SCORE.SYSTEM.DIHEDRAL>
0

>  <SCORE.SYSTEM.SOLV>
0

>  <SCORE.SYSTEM.norm>
0

>  <SCORE.heavy>
24

>  <SCORE.norm>
-0.663909

>  <RMSD>
2.070

$$$$
lig.pdb
 OpenBabel11021811453D
libRbt.so/2013.1/901 2013/11/27
 24 24  0  0  0  0  0  0  0  0999 V2000
    5.4431   -2.3543   -2.6745 C   0  0  0  0  0  0  0  0  0  0  0  0
    4.7703   -1.5700   -3.6711 C   0  0  0  0  0  0  0  0  0  0  0  0
    3.6429   -0.8400   -3.3777 C   0  0  0  0  0  0  0  0  0  0  0  0
    3.0845   -0.8144   -2.0598 C   0  0  0  0  0  0  0  0  0  0  0  0
    3.7378   -1.6247   -1.0737 C   0  0  0  0  0  0  0  0  0  0  0  0
    4.8587   -2.3603   -1.3674 C   0  0  0  0  0  0  0  0  0  0  0  0
    6.5815   -3.0574   -2.9476 C   0  0  0  0  0  0  0  0  0  0  0  0
    7.3642   -2.7948   -4.0159 N   0  0  0  0  0  0  0  0  0  0  0  0
    1.3676    0.7454   -2.6320 N   0  0  0  0  0  0  0  0  0  0  0  0
    1.9882   -0.0653   -1.7490 C   0  0  0  0  0  0  0  0  0  0  0  0
    7.0147   -4.0734   -2.1608 N   0  0  0  0  0  0  0  0  0  0  0  0
    1.4268   -0.0715   -0.5166 N   0  0  0  0  0  0  0  0  0  0  0  0
    8.4039   -4.4144   -1.8606 C   0  0  0  0  0  0  0  0  0  0  0  0
    0.0562    0.3121   -0.1927 C   0  0  0  0  0  0  0  0  0  0  0  0
    9.2040   -3.1053   -1.7644 C   0  0  0  0  0  0  0  0  0  0  0  0
    0.0985    1.2041    1.0620 C   0  0  0  0  0  0  0  0  0  0  0  0
    8.8662   -2.3494   -0.4719 C   0  0  0  0  0  0  0  0  0  0  0  0
    0.8536    2.5248    0.8266 C   0  0  0  0  0  0  0  0  0  0  0  0
    9.7056   -1.1001   -0.3919 N   0  0  0  0  0  0  0  0  0  0  0  0
    1.1293    3.2434    2.1232 N   0  0  0  0  0  0  0  0  0  0  0  0
   11.1083   -1.4500    0.0245 C   0  0  0  0  0  0  0  0  0  0  0  0
    2.0463    2.3953    2.9631 C   0  0  0  0  0  0  0  0  0  0  0  0
    9.1164   -0.1181    0.5903 C   0  0  0  0  0  0  0  0  0  0  0  0
   -0.1286    3.5180    2.8991 C   0  0  0  0  0  0  0  0  0  0  0  0
  1  6  2  0  0  0  0
  2  3  2  0  0  0  0
  2  1  1  0  0  0  0
  3  4  1  0  0  0  0
  4 10  1  0  0  0  0
  4  5  2  0  0  0  0
  6  5  1  0  0  0  0
  7  1  1  0  0  0  0
  7 11  1  0  0  0  0
  8  7  2  0  0  0  0
  9 10  2  0  0  0  0
 10 12  1  0  0  0  0
 12 14  1  0  0  0  0
 13 11  1  0  0  0  0
 13 15  1  0  0  0  0
 14 16  1  0  0  0  0
 16 18  1  0  0  0  0
 17 15  1  0  0  0  0
 17 19  1  0  0  0  0
 18 20  1  0  0  0  0
 19 23  1  0  0  0  0
 20 22  1  0  0  0  0
 20 24  1  0  0  0  0
 21 19  1  0  0  0  0
M  END
>  <CHROM.1>
-2.41510724,19.03293089,-135.30259654,35.60915608,72.87272054,63.81047420
-168.19577375,177.98543585,-77.01777018,63.82218866,4.68033364,-0.70374105
-0.87749554,0.53597553,0.25503790,-2.21683280

>  <Name>
lig.pdb

>  <RI>
1.09765e+07

>  <Rbt.Current_Directory>
/home/itssahil/PROJECTS/Mol_Feturizer/New_Systems/rnas/2l94

>  <Rbt.Executable>
rbdock ($Id: //depot/dev/client3/rdock/2013.1/src/exe/rbdock.cxx#4 $)

>  <Rbt.Library>
libRbt.so (2013.1, Build901 2013/11/27)

>  <Rbt.Parameter_File>
/export/apps/rDock/src/rDock_2013.1_src/data/scripts/dock_solv.prm

>  <Rbt.Receptor>
prm/pocket_docking_3.prm

>  <SCORE>
-18.1187

>  <SCORE.INTER>
-19.7762

>  <SCORE.INTER.CONST>
1

>  <SCORE.INTER.POLAR>
-3.10306

>  <SCORE.INTER.ROT>
10

>  <SCORE.INTER.SOLV>
11.6206

>  <SCORE.INTER.VDW>
-16.9808

>  <SCORE.INTER.norm>
-0.824009

>  <SCORE.INTRA>
1.65756

>  <SCORE.INTRA.DIHEDRAL>
0.576735

>  <SCORE.INTRA.DIHEDRAL.0>
7.52971

>  <SCORE.INTRA.POLAR>
0

>  <SCORE.INTRA.POLAR.0>
0

>  <SCORE.INTRA.REPUL>
0

>  <SCORE.INTRA.REPUL.0>
0

>  <SCORE.INTRA.SOLV>
0.813069

>  <SCORE.INTRA.SOLV.lig_0>
-22.1084

>  <SCORE.INTRA.VDW>
0.962661

>  <SCORE.INTRA.VDW.0>
2.4256

>  <SCORE.INTRA.norm>
0.0690651

>  <SCORE.RESTR>
0

>  <SCORE.RESTR.CAVITY>
0

>  <SCORE.RESTR.norm>
0

>  <SCORE.SYSTEM>
0

>  <SCORE.SYSTEM.CONST>
0

>  <SCORE.SYSTEM.DIHEDRAL>
0

>  <SCORE.SYSTEM.SOLV>
0

>  <SCORE.SYSTEM.norm>
0

>  <SCORE.heavy>
24

>  <SCORE.norm>
-0.754944

>  <RMSD>
2.070

$$$$
lig.pdb
 OpenBabel11021811453D
libRbt.so/2013.1/901 2013/11/27
 24 24  0  0  0  0  0  0  0  0999 V2000
    3.7351    0.2878   -2.7496 C   0  0  0  0  0  0  0  0  0  0  0  0
    3.6232   -1.0120   -2.1503 C   0  0  0  0  0  0  0  0  0  0  0  0
    4.6292   -1.9438   -2.2502 C   0  0  0  0  0  0  0  0  0  0  0  0
    5.8470   -1.6648   -2.9490 C   0  0  0  0  0  0  0  0  0  0  0  0
    5.9435   -0.3787   -3.5755 C   0  0  0  0  0  0  0  0  0  0  0  0
    4.9366    0.5493   -3.4833 C   0  0  0  0  0  0  0  0  0  0  0  0
    2.7557    1.2317   -2.6293 C   0  0  0  0  0  0  0  0  0  0  0  0
    1.5242    0.9506   -2.1524 N   0  0  0  0  0  0  0  0  0  0  0  0
    7.9278   -2.4243   -3.8444 N   0  0  0  0  0  0  0  0  0  0  0  0
    6.8659   -2.5681   -3.0235 C   0  0  0  0  0  0  0  0  0  0  0  0
    2.9488    2.5281   -2.9775 N   0  0  0  0  0  0  0  0  0  0  0  0
    6.8964   -3.6958   -2.2743 N   0  0  0  0  0  0  0  0  0  0  0  0
    2.3873    3.7034   -2.3146 C   0  0  0  0  0  0  0  0  0  0  0  0
    8.0838   -4.4769   -1.9418 C   0  0  0  0  0  0  0  0  0  0  0  0
    2.7372    3.6183   -0.8202 C   0  0  0  0  0  0  0  0  0  0  0  0
    8.5560   -4.0467   -0.5405 C   0  0  0  0  0  0  0  0  0  0  0  0
    1.5608    3.0530   -0.0124 C   0  0  0  0  0  0  0  0  0  0  0  0
    9.2398   -2.6674   -0.5418 C   0  0  0  0  0  0  0  0  0  0  0  0
    1.7732    3.3491    1.4502 N   0  0  0  0  0  0  0  0  0  0  0  0
   10.7136   -2.7806   -0.8396 N   0  0  0  0  0  0  0  0  0  0  0  0
    2.8448    2.4508    2.0053 C   0  0  0  0  0  0  0  0  0  0  0  0
   11.4427   -1.6866   -0.1067 C   0  0  0  0  0  0  0  0  0  0  0  0
    0.4961    3.1545    2.2294 C   0  0  0  0  0  0  0  0  0  0  0  0
   11.0069   -2.6630   -2.3093 C   0  0  0  0  0  0  0  0  0  0  0  0
  1  6  2  0  0  0  0
  2  3  2  0  0  0  0
  2  1  1  0  0  0  0
  3  4  1  0  0  0  0
  4 10  1  0  0  0  0
  4  5  2  0  0  0  0
  6  5  1  0  0  0  0
  7  1  1  0  0  0  0
  7 11  1  0  0  0  0
  8  7  2  0  0  0  0
  9 10  2  0  0  0  0
 10 12  1  0  0  0  0
 12 14  1  0  0  0  0
 13 11  1  0  0  0  0
 13 15  1  0  0  0  0
 14 16  1  0  0  0  0
 16 18  1  0  0  0  0
 17 15  1  0  0  0  0
 17 19  1  0  0  0  0
 18 20  1  0  0  0  0
 19 23  1  0  0  0  0
 20 22  1  0  0  0  0
 20 24  1  0  0  0  0
 21 19  1  0  0  0  0
M  END
>  <CHROM.1>
169.01176337,-12.04244745,97.20983295,53.39079467,-98.19241563,-74.35007537
-87.16146378,-163.78579751,-74.00496136,-148.10064101,5.38235929,-0.28002843
-1.51777649,2.74638903,-0.56587359,1.14155835

>  <Name>
lig.pdb

>  <RI>
1.56215e+07

>  <Rbt.Current_Directory>
/home/itssahil/PROJECTS/Mol_Feturizer/New_Systems/rnas/2l94

>  <Rbt.Executable>
rbdock ($Id: //depot/dev/client3/rdock/2013.1/src/exe/rbdock.cxx#4 $)

>  <Rbt.Library>
libRbt.so (2013.1, Build901 2013/11/27)

>  <Rbt.Parameter_File>
/export/apps/rDock/src/rDock_2013.1_src/data/scripts/dock_solv.prm

>  <Rbt.Receptor>
prm/pocket_docking_2.prm

>  <SCORE>
-19.0572

>  <SCORE.INTER>
-21.8574

>  <SCORE.INTER.CONST>
1

>  <SCORE.INTER.POLAR>
-2.99203

>  <SCORE.INTER.ROT>
10

>  <SCORE.INTER.SOLV>
11.7833

>  <SCORE.INTER.VDW>
-18.7926

>  <SCORE.INTER.norm>
-0.910723

>  <SCORE.INTRA>
1.91368

>  <SCORE.INTRA.DIHEDRAL>
8.6658

>  <SCORE.INTRA.DIHEDRAL.0>
7.52971

>  <SCORE.INTRA.POLAR>
0

>  <SCORE.INTRA.POLAR.0>
0

>  <SCORE.INTRA.REPUL>
0

>  <SCORE.INTRA.REPUL.0>
0

>  <SCORE.INTRA.SOLV>
1.36239

>  <SCORE.INTRA.SOLV.lig_0>
-22.1084

>  <SCORE.INTRA.VDW>
-3.10041

>  <SCORE.INTRA.VDW.0>
2.4256

>  <SCORE.INTRA.norm>
0.0797367

>  <SCORE.RESTR>
0.886497

>  <SCORE.RESTR.CAVITY>
0.886497

>  <SCORE.RESTR.norm>
0.0369374

>  <SCORE.SYSTEM>
0

>  <SCORE.SYSTEM.CONST>
0

>  <SCORE.SYSTEM.DIHEDRAL>
0

>  <SCORE.SYSTEM.SOLV>
0

>  <SCORE.SYSTEM.norm>
0

>  <SCORE.heavy>
24

>  <SCORE.norm>
-0.794049

>  <RMSD>
2.125

$$$$
lig.pdb
 OpenBabel11021811453D
libRbt.so/2013.1/901 2013/11/27
 24 24  0  0  0  0  0  0  0  0999 V2000
    6.7725   -2.3999   -1.0065 C   0  0  0  0  0  0  0  0  0  0  0  0
    5.8768   -2.9719   -1.9718 C   0  0  0  0  0  0  0  0  0  0  0  0
    4.8291   -2.2556   -2.5002 C   0  0  0  0  0  0  0  0  0  0  0  0
    4.5805   -0.8969   -2.1239 C   0  0  0  0  0  0  0  0  0  0  0  0
    5.4553   -0.3380   -1.1349 C   0  0  0  0  0  0  0  0  0  0  0  0
    6.4967   -1.0548   -0.6007 C   0  0  0  0  0  0  0  0  0  0  0  0
    7.8349   -3.0919   -0.4993 C   0  0  0  0  0  0  0  0  0  0  0  0
    7.9055   -4.4401   -0.5189 N   0  0  0  0  0  0  0  0  0  0  0  0
    3.0625   -0.3954   -3.8994 N   0  0  0  0  0  0  0  0  0  0  0  0
    3.5665   -0.1655   -2.6685 C   0  0  0  0  0  0  0  0  0  0  0  0
    8.9045   -2.4741    0.0605 N   0  0  0  0  0  0  0  0  0  0  0  0
    2.9766    0.8629   -2.0140 N   0  0  0  0  0  0  0  0  0  0  0  0
   10.2998   -2.9021   -0.0173 C   0  0  0  0  0  0  0  0  0  0  0  0
    1.6493    1.4071   -2.2835 C   0  0  0  0  0  0  0  0  0  0  0  0
   10.7807   -2.6933   -1.4623 C   0  0  0  0  0  0  0  0  0  0  0  0
    1.0602    1.9000   -0.9487 C   0  0  0  0  0  0  0  0  0  0  0  0
   12.3086   -2.5565   -1.5180 C   0  0  0  0  0  0  0  0  0  0  0  0
    1.6697    3.2365   -0.4880 C   0  0  0  0  0  0  0  0  0  0  0  0
   12.7104   -1.2232   -0.9411 N   0  0  0  0  0  0  0  0  0  0  0  0
    1.7406    3.3234    1.0156 N   0  0  0  0  0  0  0  0  0  0  0  0
   12.5136   -0.1401   -1.9666 C   0  0  0  0  0  0  0  0  0  0  0  0
    2.7772    2.3506    1.5101 C   0  0  0  0  0  0  0  0  0  0  0  0
   14.1516   -1.2423   -0.4957 C   0  0  0  0  0  0  0  0  0  0  0  0
    0.4230    3.0050    1.6657 C   0  0  0  0  0  0  0  0  0  0  0  0
  1  6  2  0  0  0  0
  2  3  2  0  0  0  0
  2  1  1  0  0  0  0
  3  4  1  0  0  0  0
  4 10  1  0  0  0  0
  4  5  2  0  0  0  0
  6  5  1  0  0  0  0
  7  1  1  0  0  0  0
  7 11  1  0  0  0  0
  8  7  2  0  0  0  0
  9 10  2  0  0  0  0
 10 12  1  0  0  0  0
 12 14  1  0  0  0  0
 13 11  1  0  0  0  0
 13 15  1  0  0  0  0
 14 16  1  0  0  0  0
 16 18  1  0  0  0  0
 17 15  1  0  0  0  0
 17 19  1  0  0  0  0
 18 20  1  0  0  0  0
 19 23  1  0  0  0  0
 20 22  1  0  0  0  0
 20 24  1  0  0  0  0
 21 19  1  0  0  0  0
M  END
>  <CHROM.1>
-26.87723421,-21.11748308,147.40107996,69.74593883,156.67369570,76.15042683
-147.42624007,-71.86899609,-80.00260833,69.49095334,6.29333979,-0.58429063
-1.00312403,0.35677527,0.18699395,-2.58405936

>  <Name>
lig.pdb

>  <RI>
1.56215e+07

>  <Rbt.Current_Directory>
/home/itssahil/PROJECTS/Mol_Feturizer/New_Systems/rnas/2l94

>  <Rbt.Executable>
rbdock ($Id: //depot/dev/client3/rdock/2013.1/src/exe/rbdock.cxx#4 $)

>  <Rbt.Library>
libRbt.so (2013.1, Build901 2013/11/27)

>  <Rbt.Parameter_File>
/export/apps/rDock/src/rDock_2013.1_src/data/scripts/dock_solv.prm

>  <Rbt.Receptor>
prm/pocket_docking_2.prm

>  <SCORE>
-14.8151

>  <SCORE.INTER>
-20.6851

>  <SCORE.INTER.CONST>
1

>  <SCORE.INTER.POLAR>
-3.17168

>  <SCORE.INTER.ROT>
10

>  <SCORE.INTER.SOLV>
9.08401

>  <SCORE.INTER.VDW>
-16.5125

>  <SCORE.INTER.norm>
-0.861878

>  <SCORE.INTRA>
4.90874

>  <SCORE.INTRA.DIHEDRAL>
9.08558

>  <SCORE.INTRA.DIHEDRAL.0>
7.52971

>  <SCORE.INTRA.POLAR>
0

>  <SCORE.INTRA.POLAR.0>
0

>  <SCORE.INTRA.REPUL>
0

>  <SCORE.INTRA.REPUL.0>
0

>  <SCORE.INTRA.SOLV>
0.308109

>  <SCORE.INTRA.SOLV.lig_0>
-22.1084

>  <SCORE.INTRA.VDW>
0.211898

>  <SCORE.INTRA.VDW.0>
2.4256

>  <SCORE.INTRA.norm>
0.204531

>  <SCORE.RESTR>
0.961208

>  <SCORE.RESTR.CAVITY>
0.961208

>  <SCORE.RESTR.norm>
0.0400503

>  <SCORE.SYSTEM>
0

>  <SCORE.SYSTEM.CONST>
0

>  <SCORE.SYSTEM.DIHEDRAL>
0

>  <SCORE.SYSTEM.SOLV>
0

>  <SCORE.SYSTEM.norm>
0

>  <SCORE.heavy>
24

>  <SCORE.norm>
-0.617297

>  <RMSD>
2.138

$$$$
lig.pdb
 OpenBabel11021811453D
libRbt.so/2013.1/901 2013/11/27
 24 24  0  0  0  0  0  0  0  0999 V2000
    3.9204   -0.5185   -1.9289 C   0  0  0  0  0  0  0  0  0  0  0  0
    4.2380   -0.3843   -0.5353 C   0  0  0  0  0  0  0  0  0  0  0  0
    5.2940   -1.0558    0.0340 C   0  0  0  0  0  0  0  0  0  0  0  0
    6.1403   -1.9176   -0.7345 C   0  0  0  0  0  0  0  0  0  0  0  0
    5.8015   -2.0768   -2.1185 C   0  0  0  0  0  0  0  0  0  0  0  0
    4.7426   -1.4132   -2.6861 C   0  0  0  0  0  0  0  0  0  0  0  0
    2.8937    0.1684   -2.5110 C   0  0  0  0  0  0  0  0  0  0  0  0
    2.2137   -0.3003   -3.5792 N   0  0  0  0  0  0  0  0  0  0  0  0
    7.2065   -3.0917    1.0524 N   0  0  0  0  0  0  0  0  0  0  0  0
    7.2121   -2.5600   -0.1883 C   0  0  0  0  0  0  0  0  0  0  0  0
    2.4760    1.3755   -2.0554 N   0  0  0  0  0  0  0  0  0  0  0  0
    8.3825   -2.7178   -0.8510 N   0  0  0  0  0  0  0  0  0  0  0  0
    1.1017    1.8726   -2.0327 C   0  0  0  0  0  0  0  0  0  0  0  0
    9.4003   -3.7264   -0.5729 C   0  0  0  0  0  0  0  0  0  0  0  0
    0.3041    1.0179   -1.0345 C   0  0  0  0  0  0  0  0  0  0  0  0
   10.7137   -2.9941   -0.2405 C   0  0  0  0  0  0  0  0  0  0  0  0
    0.3204    1.6494    0.3644 C   0  0  0  0  0  0  0  0  0  0  0  0
   11.2227   -2.1284   -1.4072 C   0  0  0  0  0  0  0  0  0  0  0  0
    1.6160    1.3024    1.0522 N   0  0  0  0  0  0  0  0  0  0  0  0
   12.5407   -1.4745   -1.0774 N   0  0  0  0  0  0  0  0  0  0  0  0
    1.5362   -0.0856    1.6270 C   0  0  0  0  0  0  0  0  0  0  0  0
   12.3140   -0.4338   -0.0140 C   0  0  0  0  0  0  0  0  0  0  0  0
    1.9219    2.2886    2.1521 C   0  0  0  0  0  0  0  0  0  0  0  0
   13.1654   -0.8185   -2.2771 C   0  0  0  0  0  0  0  0  0  0  0  0
  1  6  2  0  0  0  0
  2  3  2  0  0  0  0
  2  1  1  0  0  0  0
  3  4  1  0  0  0  0
  4 10  1  0  0  0  0
  4  5  2  0  0  0  0
  6  5  1  0  0  0  0
  7  1  1  0  0  0  0
  7 11  1  0  0  0  0
  8  7  2  0  0  0  0
  9 10  2  0  0  0  0
 10 12  1  0  0  0  0
 12 14  1  0  0  0  0
 13 11  1  0  0  0  0
 13 15  1  0  0  0  0
 14 16  1  0  0  0  0
 16 18  1  0  0  0  0
 17 15  1  0  0  0  0
 17 19  1  0  0  0  0
 18 20  1  0  0  0  0
 19 23  1  0  0  0  0
 20 22  1  0  0  0  0
 20 24  1  0  0  0  0
 21 19  1  0  0  0  0
M  END
>  <CHROM.1>
38.57433576,-151.17675272,-120.91618466,66.71093380,92.17103040,-61.35514192
-177.36617053,-80.86899398,-80.62215111,-69.04186922,5.73737916,-0.72989124
-0.78827164,3.08967271,-0.29976459,1.50318091

>  <Name>
lig.pdb

>  <RI>
1.09765e+07

>  <Rbt.Current_Directory>
/home/itssahil/PROJECTS/Mol_Feturizer/New_Systems/rnas/2l94

>  <Rbt.Executable>
rbdock ($Id: //depot/dev/client3/rdock/2013.1/src/exe/rbdock.cxx#4 $)

>  <Rbt.Library>
libRbt.so (2013.1, Build901 2013/11/27)

>  <Rbt.Parameter_File>
/export/apps/rDock/src/rDock_2013.1_src/data/scripts/dock_solv.prm

>  <Rbt.Receptor>
prm/pocket_docking_3.prm

>  <SCORE>
-8.52864

>  <SCORE.INTER>
-10.8194

>  <SCORE.INTER.CONST>
1

>  <SCORE.INTER.POLAR>
-1.36751

>  <SCORE.INTER.ROT>
10

>  <SCORE.INTER.SOLV>
8.78667

>  <SCORE.INTER.VDW>
-15.8501

>  <SCORE.INTER.norm>
-0.450809

>  <SCORE.INTRA>
2.29078

>  <SCORE.INTRA.DIHEDRAL>
11.1118

>  <SCORE.INTRA.DIHEDRAL.0>
7.52971

>  <SCORE.INTRA.POLAR>
0

>  <SCORE.INTRA.POLAR.0>
0

>  <SCORE.INTRA.REPUL>
0

>  <SCORE.INTRA.REPUL.0>
0

>  <SCORE.INTRA.SOLV>
1.13084

>  <SCORE.INTRA.SOLV.lig_0>
-22.1084

>  <SCORE.INTRA.VDW>
-3.83056

>  <SCORE.INTRA.VDW.0>
2.4256

>  <SCORE.INTRA.norm>
0.095449

>  <SCORE.RESTR>
0

>  <SCORE.RESTR.CAVITY>
0

>  <SCORE.RESTR.norm>
0

>  <SCORE.SYSTEM>
0

>  <SCORE.SYSTEM.CONST>
0

>  <SCORE.SYSTEM.DIHEDRAL>
0

>  <SCORE.SYSTEM.SOLV>
0

>  <SCORE.SYSTEM.norm>
0

>  <SCORE.heavy>
24

>  <SCORE.norm>
-0.35536

>  <RMSD>
2.148

$$$$
lig.pdb
 OpenBabel11021811453D
libRbt.so/2013.1/901 2013/11/27
 24 24  0  0  0  0  0  0  0  0999 V2000
    6.9139   -2.4331   -1.1539 C   0  0  0  0  0  0  0  0  0  0  0  0
    5.5806   -2.6878   -0.6865 C   0  0  0  0  0  0  0  0  0  0  0  0
    4.4934   -2.0241   -1.2038 C   0  0  0  0  0  0  0  0  0  0  0  0
    4.6310   -1.0499   -2.2437 C   0  0  0  0  0  0  0  0  0  0  0  0
    5.9664   -0.7722   -2.6859 C   0  0  0  0  0  0  0  0  0  0  0  0
    7.0533   -1.4284   -2.1645 C   0  0  0  0  0  0  0  0  0  0  0  0
    7.9968   -3.1093   -0.6695 C   0  0  0  0  0  0  0  0  0  0  0  0
    7.9941   -4.4442   -0.4664 N   0  0  0  0  0  0  0  0  0  0  0  0
    3.3373   -0.3299   -4.1189 N   0  0  0  0  0  0  0  0  0  0  0  0
    3.5563   -0.4121   -2.7894 C   0  0  0  0  0  0  0  0  0  0  0  0
    9.1620   -2.4889   -0.3588 N   0  0  0  0  0  0  0  0  0  0  0  0
    2.6116    0.1991   -2.0358 N   0  0  0  0  0  0  0  0  0  0  0  0
   10.5105   -3.0254   -0.5322 C   0  0  0  0  0  0  0  0  0  0  0  0
    1.2468    0.5089   -2.4504 C   0  0  0  0  0  0  0  0  0  0  0  0
   11.1803   -2.2624   -1.6864 C   0  0  0  0  0  0  0  0  0  0  0  0
    0.3527    0.4765   -1.1969 C   0  0  0  0  0  0  0  0  0  0  0  0
   11.8205   -0.9605   -1.1853 C   0  0  0  0  0  0  0  0  0  0  0  0
    0.5810    1.6867   -0.2732 C   0  0  0  0  0  0  0  0  0  0  0  0
   13.1771   -1.2648   -0.6029 N   0  0  0  0  0  0  0  0  0  0  0  0
   -0.0858    1.4948    1.0655 N   0  0  0  0  0  0  0  0  0  0  0  0
   13.2366   -0.8034    0.8279 C   0  0  0  0  0  0  0  0  0  0  0  0
   -0.1875    2.8297    1.7533 C   0  0  0  0  0  0  0  0  0  0  0  0
   14.2673   -0.5898   -1.3978 C   0  0  0  0  0  0  0  0  0  0  0  0
    0.6763    0.5471    1.9492 C   0  0  0  0  0  0  0  0  0  0  0  0
  1  6  2  0  0  0  0
  2  3  2  0  0  0  0
  2  1  1  0  0  0  0
  3  4  1  0  0  0  0
  4 10  1  0  0  0  0
  4  5  2  0  0  0  0
  6  5  1  0  0  0  0
  7  1  1  0  0  0  0
  7 11  1  0  0  0  0
  8  7  2  0  0  0  0
  9 10  2  0  0  0  0
 10 12  1  0  0  0  0
 12 14  1  0  0  0  0
 13 11  1  0  0  0  0
 13 15  1  0  0  0  0
 14 16  1  0  0  0  0
 16 18  1  0  0  0  0
 17 15  1  0  0  0  0
 17 19  1  0  0  0  0
 18 20  1  0  0  0  0
 19 23  1  0  0  0  0
 20 22  1  0  0  0  0
 20 24  1  0  0  0  0
 21 19  1  0  0  0  0
M  END
>  <CHROM.1>
-129.34152748,43.62377405,150.27194798,108.72981273,85.10773200,72.72118162
-168.33251724,82.42440703,-122.32410089,-163.21719327,6.10265108,-0.90057396
-0.97450970,0.15654280,0.19157443,-2.14008572

>  <Name>
lig.pdb

>  <RI>
1.09765e+07

>  <Rbt.Current_Directory>
/home/itssahil/PROJECTS/Mol_Feturizer/New_Systems/rnas/2l94

>  <Rbt.Executable>
rbdock ($Id: //depot/dev/client3/rdock/2013.1/src/exe/rbdock.cxx#4 $)

>  <Rbt.Library>
libRbt.so (2013.1, Build901 2013/11/27)

>  <Rbt.Parameter_File>
/export/apps/rDock/src/rDock_2013.1_src/data/scripts/dock_solv.prm

>  <Rbt.Receptor>
prm/pocket_docking_3.prm

>  <SCORE>
-9.35847

>  <SCORE.INTER>
-15.6707

>  <SCORE.INTER.CONST>
1

>  <SCORE.INTER.POLAR>
-2.11258

>  <SCORE.INTER.ROT>
10

>  <SCORE.INTER.SOLV>
9.14999

>  <SCORE.INTER.VDW>
-16.7218

>  <SCORE.INTER.norm>
-0.652944

>  <SCORE.INTRA>
6.31218

>  <SCORE.INTRA.DIHEDRAL>
20.0612

>  <SCORE.INTRA.DIHEDRAL.0>
7.52971

>  <SCORE.INTRA.POLAR>
0

>  <SCORE.INTRA.POLAR.0>
0

>  <SCORE.INTRA.REPUL>
0

>  <SCORE.INTRA.REPUL.0>
0

>  <SCORE.INTRA.SOLV>
0.0740748

>  <SCORE.INTRA.SOLV.lig_0>
-22.1084

>  <SCORE.INTRA.VDW>
-3.75544

>  <SCORE.INTRA.VDW.0>
2.4256

>  <SCORE.INTRA.norm>
0.263008

>  <SCORE.RESTR>
0

>  <SCORE.RESTR.CAVITY>
0

>  <SCORE.RESTR.norm>
0

>  <SCORE.SYSTEM>
0

>  <SCORE.SYSTEM.CONST>
0

>  <SCORE.SYSTEM.DIHEDRAL>
0

>  <SCORE.SYSTEM.SOLV>
0

>  <SCORE.SYSTEM.norm>
0

>  <SCORE.heavy>
24

>  <SCORE.norm>
-0.389936

>  <RMSD>
2.151

$$$$
lig.pdb
 OpenBabel11021811453D
libRbt.so/2013.1/901 2013/11/27
 24 24  0  0  0  0  0  0  0  0999 V2000
    6.6273   -2.4314   -1.0992 C   0  0  0  0  0  0  0  0  0  0  0  0
    6.3601   -1.0348   -0.9016 C   0  0  0  0  0  0  0  0  0  0  0  0
    5.2402   -0.4315   -1.4231 C   0  0  0  0  0  0  0  0  0  0  0  0
    4.2746   -1.1657   -2.1832 C   0  0  0  0  0  0  0  0  0  0  0  0
    4.5597   -2.5527   -2.4083 C   0  0  0  0  0  0  0  0  0  0  0  0
    5.6815   -3.1542   -1.8950 C   0  0  0  0  0  0  0  0  0  0  0  0
    7.7198   -3.0473   -0.5590 C   0  0  0  0  0  0  0  0  0  0  0  0
    7.7983   -4.3853   -0.3955 N   0  0  0  0  0  0  0  0  0  0  0  0
    2.3546   -1.1647   -3.6052 N   0  0  0  0  0  0  0  0  0  0  0  0
    3.1422   -0.5858   -2.6743 C   0  0  0  0  0  0  0  0  0  0  0  0
    8.8136   -2.3587   -0.1484 N   0  0  0  0  0  0  0  0  0  0  0  0
    2.7107    0.6312   -2.2660 N   0  0  0  0  0  0  0  0  0  0  0  0
   10.2056   -2.7945   -0.2411 C   0  0  0  0  0  0  0  0  0  0  0  0
    1.3467    1.1406   -2.3693 C   0  0  0  0  0  0  0  0  0  0  0  0
   11.0488   -1.5954   -0.7039 C   0  0  0  0  0  0  0  0  0  0  0  0
    0.7308    1.1333   -0.9578 C   0  0  0  0  0  0  0  0  0  0  0  0
   12.5100   -2.0070   -0.9311 C   0  0  0  0  0  0  0  0  0  0  0  0
    1.3100    2.2347   -0.0515 C   0  0  0  0  0  0  0  0  0  0  0  0
   13.3430   -0.7740   -1.1710 N   0  0  0  0  0  0  0  0  0  0  0  0
    0.7438    2.1578    1.3438 N   0  0  0  0  0  0  0  0  0  0  0  0
   13.1685   -0.3047   -2.5897 C   0  0  0  0  0  0  0  0  0  0  0  0
   -0.6452    2.7377    1.3370 C   0  0  0  0  0  0  0  0  0  0  0  0
   14.8021   -1.0507   -0.9056 C   0  0  0  0  0  0  0  0  0  0  0  0
    1.5820    2.9103    2.3393 C   0  0  0  0  0  0  0  0  0  0  0  0
  1  6  2  0  0  0  0
  2  3  2  0  0  0  0
  2  1  1  0  0  0  0
  3  4  1  0  0  0  0
  4 10  1  0  0  0  0
  4  5  2  0  0  0  0
  6  5  1  0  0  0  0
  7  1  1  0  0  0  0
  7 11  1  0  0  0  0
  8  7  2  0  0  0  0
  9 10  2  0  0  0  0
 10 12  1  0  0  0  0
 12 14  1  0  0  0  0
 13 11  1  0  0  0  0
 13 15  1  0  0  0  0
 14 16  1  0  0  0  0
 16 18  1  0  0  0  0
 17 15  1  0  0  0  0
 17 19  1  0  0  0  0
 18 20  1  0  0  0  0
 19 23  1  0  0  0  0
 20 22  1  0  0  0  0
 20 24  1  0  0  0  0
 21 19  1  0  0  0  0
M  END
>  <CHROM.1>
166.31109066,160.26430190,106.50282018,137.55354660,-175.53112635,72.63182816
-176.96524223,-171.19797848,-79.13930089,-77.36019580,6.08666113,-0.70264790
-0.98693085,0.26424439,0.11500209,-2.53135665

>  <Name>
lig.pdb

>  <RI>
1.09765e+07

>  <Rbt.Current_Directory>
/home/itssahil/PROJECTS/Mol_Feturizer/New_Systems/rnas/2l94

>  <Rbt.Executable>
rbdock ($Id: //depot/dev/client3/rdock/2013.1/src/exe/rbdock.cxx#4 $)

>  <Rbt.Library>
libRbt.so (2013.1, Build901 2013/11/27)

>  <Rbt.Parameter_File>
/export/apps/rDock/src/rDock_2013.1_src/data/scripts/dock_solv.prm

>  <Rbt.Receptor>
prm/pocket_docking_3.prm

>  <SCORE>
-14.2603

>  <SCORE.INTER>
-13.2006

>  <SCORE.INTER.CONST>
1

>  <SCORE.INTER.POLAR>
-1.60316

>  <SCORE.INTER.ROT>
10

>  <SCORE.INTER.SOLV>
10.7855

>  <SCORE.INTER.VDW>
-17.3184

>  <SCORE.INTER.norm>
-0.550025

>  <SCORE.INTRA>
-1.10508

>  <SCORE.INTRA.DIHEDRAL>
2.05256

>  <SCORE.INTRA.DIHEDRAL.0>
7.52971

>  <SCORE.INTRA.POLAR>
0

>  <SCORE.INTRA.POLAR.0>
0

>  <SCORE.INTRA.REPUL>
0

>  <SCORE.INTRA.REPUL.0>
0

>  <SCORE.INTRA.SOLV>
-0.123696

>  <SCORE.INTRA.SOLV.lig_0>
-22.1084

>  <SCORE.INTRA.VDW>
-2.06951

>  <SCORE.INTRA.VDW.0>
2.4256

>  <SCORE.INTRA.norm>
-0.0460452

>  <SCORE.RESTR>
0.0453534

>  <SCORE.RESTR.CAVITY>
0.0453534

>  <SCORE.RESTR.norm>
0.00188972

>  <SCORE.SYSTEM>
0

>  <SCORE.SYSTEM.CONST>
0

>  <SCORE.SYSTEM.DIHEDRAL>
0

>  <SCORE.SYSTEM.SOLV>
0

>  <SCORE.SYSTEM.norm>
0

>  <SCORE.heavy>
24

>  <SCORE.norm>
-0.594181

>  <RMSD>
2.161

$$$$
lig.pdb
 OpenBabel11021811453D
libRbt.so/2013.1/901 2013/11/27
 24 24  0  0  0  0  0  0  0  0999 V2000
    7.0589   -2.3834   -1.0966 C   0  0  0  0  0  0  0  0  0  0  0  0
    6.9088   -0.9891   -0.7895 C   0  0  0  0  0  0  0  0  0  0  0  0
    5.8876   -0.2372   -1.3205 C   0  0  0  0  0  0  0  0  0  0  0  0
    4.9127   -0.8064   -2.2008 C   0  0  0  0  0  0  0  0  0  0  0  0
    5.0835   -2.1907   -2.5331 C   0  0  0  0  0  0  0  0  0  0  0  0
    6.1073   -2.9403   -2.0100 C   0  0  0  0  0  0  0  0  0  0  0  0
    8.0505   -3.1467   -0.5497 C   0  0  0  0  0  0  0  0  0  0  0  0
    7.9886   -4.4943   -0.4933 N   0  0  0  0  0  0  0  0  0  0  0  0
    3.1521   -0.4610   -3.7784 N   0  0  0  0  0  0  0  0  0  0  0  0
    3.8749   -0.0791   -2.7043 C   0  0  0  0  0  0  0  0  0  0  0  0
    9.1777   -2.6063   -0.0240 N   0  0  0  0  0  0  0  0  0  0  0  0
    3.4808    1.0988   -2.1646 N   0  0  0  0  0  0  0  0  0  0  0  0
   10.5241   -3.1728   -0.0755 C   0  0  0  0  0  0  0  0  0  0  0  0
    2.1690    1.7203   -2.3179 C   0  0  0  0  0  0  0  0  0  0  0  0
   11.2963   -2.4605   -1.1976 C   0  0  0  0  0  0  0  0  0  0  0  0
    1.1678    0.9313   -1.4538 C   0  0  0  0  0  0  0  0  0  0  0  0
   12.4181   -1.5852   -0.6219 C   0  0  0  0  0  0  0  0  0  0  0  0
    0.1462    1.8415   -0.7482 C   0  0  0  0  0  0  0  0  0  0  0  0
   13.4379   -1.3115   -1.6975 N   0  0  0  0  0  0  0  0  0  0  0  0
    0.6802    2.3605    0.5629 N   0  0  0  0  0  0  0  0  0  0  0  0
   14.7680   -0.9881   -1.0733 C   0  0  0  0  0  0  0  0  0  0  0  0
   -0.4759    2.8170    1.4117 C   0  0  0  0  0  0  0  0  0  0  0  0
   12.9992   -0.1658   -2.5755 C   0  0  0  0  0  0  0  0  0  0  0  0
    1.6309    3.5097    0.3742 C   0  0  0  0  0  0  0  0  0  0  0  0
  1  6  2  0  0  0  0
  2  3  2  0  0  0  0
  2  1  1  0  0  0  0
  3  4  1  0  0  0  0
  4 10  1  0  0  0  0
  4  5  2  0  0  0  0
  6  5  1  0  0  0  0
  7  1  1  0  0  0  0
  7 11  1  0  0  0  0
  8  7  2  0  0  0  0
  9 10  2  0  0  0  0
 10 12  1  0  0  0  0
 12 14  1  0  0  0  0
 13 11  1  0  0  0  0
 13 15  1  0  0  0  0
 14 16  1  0  0  0  0
 16 18  1  0  0  0  0
 17 15  1  0  0  0  0
 17 19  1  0  0  0  0
 18 20  1  0  0  0  0
 19 23  1  0  0  0  0
 20 22  1  0  0  0  0
 20 24  1  0  0  0  0
 21 19  1  0  0  0  0
M  END
>  <CHROM.1>
162.33621492,159.67031353,73.83492427,100.16860794,111.70644647,140.90965283
-85.97497947,159.73326119,-156.17855323,-160.33035725,6.37216862,-0.61849975
-1.19300360,0.33221945,0.04542051,-2.91019633

>  <Name>
lig.pdb

>  <RI>
1.09765e+07

>  <Rbt.Current_Directory>
/home/itssahil/PROJECTS/Mol_Feturizer/New_Systems/rnas/2l94

>  <Rbt.Executable>
rbdock ($Id: //depot/dev/client3/rdock/2013.1/src/exe/rbdock.cxx#4 $)

>  <Rbt.Library>
libRbt.so (2013.1, Build901 2013/11/27)

>  <Rbt.Parameter_File>
/export/apps/rDock/src/rDock_2013.1_src/data/scripts/dock_solv.prm

>  <Rbt.Receptor>
prm/pocket_docking_3.prm

>  <SCORE>
-17.1103

>  <SCORE.INTER>
-21.7659

>  <SCORE.INTER.CONST>
1

>  <SCORE.INTER.POLAR>
-3.29311

>  <SCORE.INTER.ROT>
10

>  <SCORE.INTER.SOLV>
9.41

>  <SCORE.INTER.VDW>
-16.9369

>  <SCORE.INTER.norm>
-0.906911

>  <SCORE.INTRA>
4.65552

>  <SCORE.INTRA.DIHEDRAL>
14.8725

>  <SCORE.INTRA.DIHEDRAL.0>
7.52971

>  <SCORE.INTRA.POLAR>
0

>  <SCORE.INTRA.POLAR.0>
0

>  <SCORE.INTRA.REPUL>
0

>  <SCORE.INTRA.REPUL.0>
0

>  <SCORE.INTRA.SOLV>
0.19308

>  <SCORE.INTRA.SOLV.lig_0>
-22.1084

>  <SCORE.INTRA.VDW>
-2.87726

>  <SCORE.INTRA.VDW.0>
2.4256

>  <SCORE.INTRA.norm>
0.19398

>  <SCORE.RESTR>
0

>  <SCORE.RESTR.CAVITY>
0

>  <SCORE.RESTR.norm>
0

>  <SCORE.SYSTEM>
0

>  <SCORE.SYSTEM.CONST>
0

>  <SCORE.SYSTEM.DIHEDRAL>
0

>  <SCORE.SYSTEM.SOLV>
0

>  <SCORE.SYSTEM.norm>
0

>  <SCORE.heavy>
24

>  <SCORE.norm>
-0.712931

>  <RMSD>
2.178

$$$$
lig.pdb
 OpenBabel11021811453D
libRbt.so/2013.1/901 2013/11/27
 24 24  0  0  0  0  0  0  0  0999 V2000
    3.1344    0.2603   -2.2558 C   0  0  0  0  0  0  0  0  0  0  0  0
    3.1514   -1.0857   -2.7548 C   0  0  0  0  0  0  0  0  0  0  0  0
    4.3115   -1.6812   -3.1905 C   0  0  0  0  0  0  0  0  0  0  0  0
    5.5672   -0.9945   -3.1609 C   0  0  0  0  0  0  0  0  0  0  0  0
    5.5430    0.3609   -2.6940 C   0  0  0  0  0  0  0  0  0  0  0  0
    4.3841    0.9591   -2.2664 C   0  0  0  0  0  0  0  0  0  0  0  0
    1.9939    0.8501   -1.7910 C   0  0  0  0  0  0  0  0  0  0  0  0
    0.8508    0.1639   -1.5778 N   0  0  0  0  0  0  0  0  0  0  0  0
    6.7863   -2.8200   -4.1042 N   0  0  0  0  0  0  0  0  0  0  0  0
    6.7298   -1.5876   -3.5565 C   0  0  0  0  0  0  0  0  0  0  0  0
    1.9250    2.1737   -1.5037 N   0  0  0  0  0  0  0  0  0  0  0  0
    7.9356   -0.9843   -3.4298 N   0  0  0  0  0  0  0  0  0  0  0  0
    1.1616    2.7943   -0.4228 C   0  0  0  0  0  0  0  0  0  0  0  0
    9.1416   -1.3025   -4.1880 C   0  0  0  0  0  0  0  0  0  0  0  0
    2.0078    2.7219    0.8585 C   0  0  0  0  0  0  0  0  0  0  0  0
   10.0887   -2.0885   -3.2623 C   0  0  0  0  0  0  0  0  0  0  0  0
    1.2415    3.3010    2.0557 C   0  0  0  0  0  0  0  0  0  0  0  0
   10.8590   -1.1778   -2.2892 C   0  0  0  0  0  0  0  0  0  0  0  0
    0.0482    2.4292    2.3519 N   0  0  0  0  0  0  0  0  0  0  0  0
   11.9299   -0.3891   -2.9995 N   0  0  0  0  0  0  0  0  0  0  0  0
   -1.1977    3.0555    1.7871 C   0  0  0  0  0  0  0  0  0  0  0  0
   13.2721   -0.7814   -2.4427 C   0  0  0  0  0  0  0  0  0  0  0  0
   -0.1156    2.2285    3.8382 C   0  0  0  0  0  0  0  0  0  0  0  0
   11.7473    1.0939   -2.8341 C   0  0  0  0  0  0  0  0  0  0  0  0
  1  6  2  0  0  0  0
  2  3  2  0  0  0  0
  2  1  1  0  0  0  0
  3  4  1  0  0  0  0
  4 10  1  0  0  0  0
  4  5  2  0  0  0  0
  6  5  1  0  0  0  0
  7  1  1  0  0  0  0
  7 11  1  0  0  0  0
  8  7  2  0  0  0  0
  9 10  2  0  0  0  0
 10 12  1  0  0  0  0
 12 14  1  0  0  0  0
 13 11  1  0  0  0  0
 13 15  1  0  0  0  0
 14 16  1  0  0  0  0
 16 18  1  0  0  0  0
 17 15  1  0  0  0  0
 17 19  1  0  0  0  0
 18 20  1  0  0  0  0
 19 23  1  0  0  0  0
 20 22  1  0  0  0  0
 20 24  1  0  0  0  0
 21 19  1  0  0  0  0
M  END
>  <CHROM.1>
5.43594214,10.13803951,-104.71260825,83.83189428,-177.46043021,-79.34435346
-72.71530077,65.68615247,-100.71513520,-117.56680519,5.12952256,0.33243219
-1.61707026,2.64698319,0.01576822,0.88506612

>  <Name>
lig.pdb

>  <RI>
0

>  <Rbt.Current_Directory>
/home/itssahil/PROJECTS/Mol_Feturizer/New_Systems/rnas/2l94

>  <Rbt.Executable>
rbdock ($Id: //depot/dev/client3/rdock/2013.1/src/exe/rbdock.cxx#4 $)

>  <Rbt.Library>
libRbt.so (2013.1, Build901 2013/11/27)

>  <Rbt.Parameter_File>
/export/apps/rDock/src/rDock_2013.1_src/data/scripts/dock_solv.prm

>  <Rbt.Receptor>
prm/pocket_docking_4.prm

>  <SCORE>
-12.7114

>  <SCORE.INTER>
-13.0379

>  <SCORE.INTER.CONST>
1

>  <SCORE.INTER.POLAR>
-2.34755

>  <SCORE.INTER.ROT>
10

>  <SCORE.INTER.SOLV>
9.09533

>  <SCORE.INTER.VDW>
-14.1652

>  <SCORE.INTER.norm>
-0.543246

>  <SCORE.INTRA>
0.326531

>  <SCORE.INTRA.DIHEDRAL>
6.26006

>  <SCORE.INTRA.DIHEDRAL.0>
7.52971

>  <SCORE.INTRA.POLAR>
0

>  <SCORE.INTRA.POLAR.0>
0

>  <SCORE.INTRA.REPUL>
0

>  <SCORE.INTRA.REPUL.0>
0

>  <SCORE.INTRA.SOLV>
0.344864

>  <SCORE.INTRA.SOLV.lig_0>
-22.1084

>  <SCORE.INTRA.VDW>
-2.97593

>  <SCORE.INTRA.VDW.0>
2.4256

>  <SCORE.INTRA.norm>
0.0136054

>  <SCORE.RESTR>
0

>  <SCORE.RESTR.CAVITY>
0

>  <SCORE.RESTR.norm>
0

>  <SCORE.SYSTEM>
0

>  <SCORE.SYSTEM.CONST>
0

>  <SCORE.SYSTEM.DIHEDRAL>
0

>  <SCORE.SYSTEM.SOLV>
0

>  <SCORE.SYSTEM.norm>
0

>  <SCORE.heavy>
24

>  <SCORE.norm>
-0.52964

>  <RMSD>
2.208

$$$$
lig.pdb
 OpenBabel11021811453D
libRbt.so/2013.1/901 2013/11/27
 24 24  0  0  0  0  0  0  0  0999 V2000
    5.6102   -2.2499   -2.6106 C   0  0  0  0  0  0  0  0  0  0  0  0
    4.6553   -2.7084   -1.6416 C   0  0  0  0  0  0  0  0  0  0  0  0
    3.5137   -1.9968   -1.3579 C   0  0  0  0  0  0  0  0  0  0  0  0
    3.2104   -0.7648   -2.0209 C   0  0  0  0  0  0  0  0  0  0  0  0
    4.1812   -0.2912   -2.9638 C   0  0  0  0  0  0  0  0  0  0  0  0
    5.3252   -0.9967   -3.2418 C   0  0  0  0  0  0  0  0  0  0  0  0
    6.7311   -2.9646   -2.9229 C   0  0  0  0  0  0  0  0  0  0  0  0
    7.5798   -2.5998   -3.9077 N   0  0  0  0  0  0  0  0  0  0  0  0
    1.1725   -0.4196   -0.8225 N   0  0  0  0  0  0  0  0  0  0  0  0
    2.0637   -0.0693   -1.7740 C   0  0  0  0  0  0  0  0  0  0  0  0
    7.0792   -4.0964   -2.2619 N   0  0  0  0  0  0  0  0  0  0  0  0
    1.7197    1.0400   -2.4705 N   0  0  0  0  0  0  0  0  0  0  0  0
    8.4351   -4.5413   -1.9459 C   0  0  0  0  0  0  0  0  0  0  0  0
    0.7983    2.0826   -2.0293 C   0  0  0  0  0  0  0  0  0  0  0  0
    8.8447   -3.9035   -0.6086 C   0  0  0  0  0  0  0  0  0  0  0  0
    1.5626    3.0149   -1.0710 C   0  0  0  0  0  0  0  0  0  0  0  0
    9.4845   -2.5261   -0.8306 C   0  0  0  0  0  0  0  0  0  0  0  0
    1.8761    2.3490    0.2811 C   0  0  0  0  0  0  0  0  0  0  0  0
   10.9451   -2.7025   -1.1580 N   0  0  0  0  0  0  0  0  0  0  0  0
    0.6239    2.1226    1.0901 N   0  0  0  0  0  0  0  0  0  0  0  0
   11.7406   -1.5600   -0.5875 C   0  0  0  0  0  0  0  0  0  0  0  0
    0.3459    3.3541    1.9097 C   0  0  0  0  0  0  0  0  0  0  0  0
   11.1574   -2.7714   -2.6500 C   0  0  0  0  0  0  0  0  0  0  0  0
    0.7485    0.9411    2.0111 C   0  0  0  0  0  0  0  0  0  0  0  0
  1  6  2  0  0  0  0
  2  3  2  0  0  0  0
  2  1  1  0  0  0  0
  3  4  1  0  0  0  0
  4 10  1  0  0  0  0
  4  5  2  0  0  0  0
  6  5  1  0  0  0  0
  7  1  1  0  0  0  0
  7 11  1  0  0  0  0
  8  7  2  0  0  0  0
  9 10  2  0  0  0  0
 10 12  1  0  0  0  0
 12 14  1  0  0  0  0
 13 11  1  0  0  0  0
 13 15  1  0  0  0  0
 14 16  1  0  0  0  0
 16 18  1  0  0  0  0
 17 15  1  0  0  0  0
 17 19  1  0  0  0  0
 18 20  1  0  0  0  0
 19 23  1  0  0  0  0
 20 22  1  0  0  0  0
 20 24  1  0  0  0  0
 21 19  1  0  0  0  0
M  END
>  <CHROM.1>
5.20336620,174.46818236,80.15041924,87.10929731,-88.17925882,-70.67314541
-68.77376486,-83.65048937,-145.86203783,-87.93551337,4.99958009,-0.90672934
-1.35901214,0.44840526,0.31458696,-2.22439815

>  <Name>
lig.pdb

>  <RI>
1.09765e+07

>  <Rbt.Current_Directory>
/home/itssahil/PROJECTS/Mol_Feturizer/New_Systems/rnas/2l94

>  <Rbt.Executable>
rbdock ($Id: //depot/dev/client3/rdock/2013.1/src/exe/rbdock.cxx#4 $)

>  <Rbt.Library>
libRbt.so (2013.1, Build901 2013/11/27)

>  <Rbt.Parameter_File>
/export/apps/rDock/src/rDock_2013.1_src/data/scripts/dock_solv.prm

>  <Rbt.Receptor>
prm/pocket_docking_3.prm

>  <SCORE>
-22.4275

>  <SCORE.INTER>
-22.9608

>  <SCORE.INTER.CONST>
1

>  <SCORE.INTER.POLAR>
-3.17438

>  <SCORE.INTER.ROT>
10

>  <SCORE.INTER.SOLV>
11.8767

>  <SCORE.INTER.VDW>
-18.9515

>  <SCORE.INTER.norm>
-0.956698

>  <SCORE.INTRA>
0.176393

>  <SCORE.INTRA.DIHEDRAL>
6.38395

>  <SCORE.INTRA.DIHEDRAL.0>
7.52971

>  <SCORE.INTRA.POLAR>
0

>  <SCORE.INTRA.POLAR.0>
0

>  <SCORE.INTRA.REPUL>
0

>  <SCORE.INTRA.REPUL.0>
0

>  <SCORE.INTRA.SOLV>
2.04843

>  <SCORE.INTRA.SOLV.lig_0>
-22.1084

>  <SCORE.INTRA.VDW>
-4.0398

>  <SCORE.INTRA.VDW.0>
2.4256

>  <SCORE.INTRA.norm>
0.00734971

>  <SCORE.RESTR>
0.356855

>  <SCORE.RESTR.CAVITY>
0.356855

>  <SCORE.RESTR.norm>
0.0148689

>  <SCORE.SYSTEM>
0

>  <SCORE.SYSTEM.CONST>
0

>  <SCORE.SYSTEM.DIHEDRAL>
0

>  <SCORE.SYSTEM.SOLV>
0

>  <SCORE.SYSTEM.norm>
0

>  <SCORE.heavy>
24

>  <SCORE.norm>
-0.93448

>  <RMSD>
2.215

$$$$
lig.pdb
 OpenBabel11021811453D
libRbt.so/2013.1/901 2013/11/27
 24 24  0  0  0  0  0  0  0  0999 V2000
    3.8877   -0.3046   -1.7314 C   0  0  0  0  0  0  0  0  0  0  0  0
    3.6582   -1.6329   -1.2375 C   0  0  0  0  0  0  0  0  0  0  0  0
    4.6882   -2.4274   -0.7926 C   0  0  0  0  0  0  0  0  0  0  0  0
    6.0445   -1.9695   -0.7886 C   0  0  0  0  0  0  0  0  0  0  0  0
    6.2763   -0.6555   -1.3134 C   0  0  0  0  0  0  0  0  0  0  0  0
    5.2498    0.1356   -1.7654 C   0  0  0  0  0  0  0  0  0  0  0  0
    2.8686    0.5044   -2.1457 C   0  0  0  0  0  0  0  0  0  0  0  0
    1.5794    0.1037   -2.1660 N   0  0  0  0  0  0  0  0  0  0  0  0
    6.8859   -3.8254    0.4587 N   0  0  0  0  0  0  0  0  0  0  0  0
    7.0691   -2.7352   -0.3159 C   0  0  0  0  0  0  0  0  0  0  0  0
    3.0755    1.7772   -2.5656 N   0  0  0  0  0  0  0  0  0  0  0  0
    8.3678   -2.4620   -0.5856 N   0  0  0  0  0  0  0  0  0  0  0  0
    2.1912    2.9215   -2.3537 C   0  0  0  0  0  0  0  0  0  0  0  0
    9.4776   -3.4080   -0.5243 C   0  0  0  0  0  0  0  0  0  0  0  0
    2.4463    3.4630   -0.9378 C   0  0  0  0  0  0  0  0  0  0  0  0
   10.6051   -2.8738   -1.4271 C   0  0  0  0  0  0  0  0  0  0  0  0
    1.6340    2.6809    0.1036 C   0  0  0  0  0  0  0  0  0  0  0  0
   11.6130   -1.9968   -0.6624 C   0  0  0  0  0  0  0  0  0  0  0  0
    2.2273    2.9075    1.4705 N   0  0  0  0  0  0  0  0  0  0  0  0
   12.8206   -1.6769   -1.5067 N   0  0  0  0  0  0  0  0  0  0  0  0
    3.3997    1.9881    1.6799 C   0  0  0  0  0  0  0  0  0  0  0  0
   13.8835   -1.0763   -0.6264 C   0  0  0  0  0  0  0  0  0  0  0  0
    1.1995    2.6703    2.5490 C   0  0  0  0  0  0  0  0  0  0  0  0
   12.5003   -0.7112   -2.6134 C   0  0  0  0  0  0  0  0  0  0  0  0
  1  6  2  0  0  0  0
  2  3  2  0  0  0  0
  2  1  1  0  0  0  0
  3  4  1  0  0  0  0
  4 10  1  0  0  0  0
  4  5  2  0  0  0  0
  6  5  1  0  0  0  0
  7  1  1  0  0  0  0
  7 11  1  0  0  0  0
  8  7  2  0  0  0  0
  9 10  2  0  0  0  0
 10 12  1  0  0  0  0
 12 14  1  0  0  0  0
 13 11  1  0  0  0  0
 13 15  1  0  0  0  0
 14 16  1  0  0  0  0
 16 18  1  0  0  0  0
 17 15  1  0  0  0  0
 17 19  1  0  0  0  0
 18 20  1  0  0  0  0
 19 23  1  0  0  0  0
 20 22  1  0  0  0  0
 20 24  1  0  0  0  0
 21 19  1  0  0  0  0
M  END
>  <CHROM.1>
-16.02747728,-2.33631771,157.05593866,81.41651724,-84.13100139,92.01721325
170.57483142,161.40927788,-82.27525807,-168.18098775,6.03169935,-0.32953801
-0.79822547,2.72351459,0.06312957,0.03939170

>  <Name>
lig.pdb

>  <RI>
1.09765e+07

>  <Rbt.Current_Directory>
/home/itssahil/PROJECTS/Mol_Feturizer/New_Systems/rnas/2l94

>  <Rbt.Executable>
rbdock ($Id: //depot/dev/client3/rdock/2013.1/src/exe/rbdock.cxx#4 $)

>  <Rbt.Library>
libRbt.so (2013.1, Build901 2013/11/27)

>  <Rbt.Parameter_File>
/export/apps/rDock/src/rDock_2013.1_src/data/scripts/dock_solv.prm

>  <Rbt.Receptor>
prm/pocket_docking_3.prm

>  <SCORE>
-24.4682

>  <SCORE.INTER>
-25.0416

>  <SCORE.INTER.CONST>
1

>  <SCORE.INTER.POLAR>
-3.9637

>  <SCORE.INTER.ROT>
10

>  <SCORE.INTER.SOLV>
8.6486

>  <SCORE.INTER.VDW>
-16.6316

>  <SCORE.INTER.norm>
-1.0434

>  <SCORE.INTRA>
0.493547

>  <SCORE.INTRA.DIHEDRAL>
6.25147

>  <SCORE.INTRA.DIHEDRAL.0>
7.52971

>  <SCORE.INTRA.POLAR>
0

>  <SCORE.INTRA.POLAR.0>
0

>  <SCORE.INTRA.REPUL>
0

>  <SCORE.INTRA.REPUL.0>
0

>  <SCORE.INTRA.SOLV>
0.484085

>  <SCORE.INTRA.SOLV.lig_0>
-22.1084

>  <SCORE.INTRA.VDW>
-2.87423

>  <SCORE.INTRA.VDW.0>
2.4256

>  <SCORE.INTRA.norm>
0.0205645

>  <SCORE.RESTR>
0.0798898

>  <SCORE.RESTR.CAVITY>
0.0798898

>  <SCORE.RESTR.norm>
0.00332874

>  <SCORE.SYSTEM>
0

>  <SCORE.SYSTEM.CONST>
0

>  <SCORE.SYSTEM.DIHEDRAL>
0

>  <SCORE.SYSTEM.SOLV>
0

>  <SCORE.SYSTEM.norm>
0

>  <SCORE.heavy>
24

>  <SCORE.norm>
-1.01951

>  <RMSD>
2.236

$$$$
lig.pdb
 OpenBabel11021811453D
libRbt.so/2013.1/901 2013/11/27
 24 24  0  0  0  0  0  0  0  0999 V2000
    6.7625   -2.3422   -0.8877 C   0  0  0  0  0  0  0  0  0  0  0  0
    5.3934   -2.7590   -0.7739 C   0  0  0  0  0  0  0  0  0  0  0  0
    4.3612   -1.9948   -1.2645 C   0  0  0  0  0  0  0  0  0  0  0  0
    4.5966   -0.7463   -1.9244 C   0  0  0  0  0  0  0  0  0  0  0  0
    5.9615   -0.3153   -2.0074 C   0  0  0  0  0  0  0  0  0  0  0  0
    6.9921   -1.0736   -1.5108 C   0  0  0  0  0  0  0  0  0  0  0  0
    7.7971   -3.1084   -0.4325 C   0  0  0  0  0  0  0  0  0  0  0  0
    7.7148   -4.4507   -0.3124 N   0  0  0  0  0  0  0  0  0  0  0  0
    3.7247    0.7863   -3.5365 N   0  0  0  0  0  0  0  0  0  0  0  0
    3.5835    0.0022   -2.4469 C   0  0  0  0  0  0  0  0  0  0  0  0
    8.9907   -2.5767   -0.0695 N   0  0  0  0  0  0  0  0  0  0  0  0
    2.3405    0.0226   -1.9098 N   0  0  0  0  0  0  0  0  0  0  0  0
   10.3089   -3.1789   -0.2588 C   0  0  0  0  0  0  0  0  0  0  0  0
    1.1112    0.4042   -2.5981 C   0  0  0  0  0  0  0  0  0  0  0  0
   11.2317   -2.1169   -0.8780 C   0  0  0  0  0  0  0  0  0  0  0  0
    0.7855    1.8593   -2.2130 C   0  0  0  0  0  0  0  0  0  0  0  0
   11.7775   -1.1689    0.1987 C   0  0  0  0  0  0  0  0  0  0  0  0
    0.3204    1.9970   -0.7519 C   0  0  0  0  0  0  0  0  0  0  0  0
   12.7697   -0.2227   -0.4275 N   0  0  0  0  0  0  0  0  0  0  0  0
    1.4861    2.1960    0.1835 N   0  0  0  0  0  0  0  0  0  0  0  0
   14.0608   -0.9432   -0.7056 C   0  0  0  0  0  0  0  0  0  0  0  0
    1.0127    1.9980    1.5985 C   0  0  0  0  0  0  0  0  0  0  0  0
   13.0329    0.9563    0.4763 C   0  0  0  0  0  0  0  0  0  0  0  0
    2.0878    3.5679    0.0576 C   0  0  0  0  0  0  0  0  0  0  0  0
  1  6  2  0  0  0  0
  2  3  2  0  0  0  0
  2  1  1  0  0  0  0
  3  4  1  0  0  0  0
  4 10  1  0  0  0  0
  4  5  2  0  0  0  0
  6  5  1  0  0  0  0
  7  1  1  0  0  0  0
  7 11  1  0  0  0  0
  8  7  2  0  0  0  0
  9 10  2  0  0  0  0
 10 12  1  0  0  0  0
 12 14  1  0  0  0  0
 13 11  1  0  0  0  0
 13 15  1  0  0  0  0
 14 16  1  0  0  0  0
 16 18  1  0  0  0  0
 17 15  1  0  0  0  0
 17 19  1  0  0  0  0
 18 20  1  0  0  0  0
 19 23  1  0  0  0  0
 20 22  1  0  0  0  0
 20 24  1  0  0  0  0
 21 19  1  0  0  0  0
M  END
>  <CHROM.1>
-148.52424785,25.42457266,-99.45481729,131.64999115,81.25107021,-70.83892963
88.31768984,175.01595748,-74.77576201,-166.75359898,6.20735895,-0.50223370
-0.90916484,0.26077484,0.13792970,-2.93582654

>  <Name>
lig.pdb

>  <RI>
1.09765e+07

>  <Rbt.Current_Directory>
/home/itssahil/PROJECTS/Mol_Feturizer/New_Systems/rnas/2l94

>  <Rbt.Executable>
rbdock ($Id: //depot/dev/client3/rdock/2013.1/src/exe/rbdock.cxx#4 $)

>  <Rbt.Library>
libRbt.so (2013.1, Build901 2013/11/27)

>  <Rbt.Parameter_File>
/export/apps/rDock/src/rDock_2013.1_src/data/scripts/dock_solv.prm

>  <Rbt.Receptor>
prm/pocket_docking_3.prm

>  <SCORE>
-11.9134

>  <SCORE.INTER>
-13.4648

>  <SCORE.INTER.CONST>
1

>  <SCORE.INTER.POLAR>
-1.98054

>  <SCORE.INTER.ROT>
10

>  <SCORE.INTER.SOLV>
9.02475

>  <SCORE.INTER.VDW>
-15.6496

>  <SCORE.INTER.norm>
-0.561033

>  <SCORE.INTRA>
1.51525

>  <SCORE.INTRA.DIHEDRAL>
8.63816

>  <SCORE.INTRA.DIHEDRAL.0>
7.52971

>  <SCORE.INTRA.POLAR>
0

>  <SCORE.INTRA.POLAR.0>
0

>  <SCORE.INTRA.REPUL>
0

>  <SCORE.INTRA.REPUL.0>
0

>  <SCORE.INTRA.SOLV>
0.961205

>  <SCORE.INTRA.SOLV.lig_0>
-22.1084

>  <SCORE.INTRA.VDW>
-3.28443

>  <SCORE.INTRA.VDW.0>
2.4256

>  <SCORE.INTRA.norm>
0.0631356

>  <SCORE.RESTR>
0.0361743

>  <SCORE.RESTR.CAVITY>
0.0361743

>  <SCORE.RESTR.norm>
0.00150726

>  <SCORE.SYSTEM>
0

>  <SCORE.SYSTEM.CONST>
0

>  <SCORE.SYSTEM.DIHEDRAL>
0

>  <SCORE.SYSTEM.SOLV>
0

>  <SCORE.SYSTEM.norm>
0

>  <SCORE.heavy>
24

>  <SCORE.norm>
-0.49639

>  <RMSD>
2.277

$$$$
lig.pdb
 OpenBabel11021811453D
libRbt.so/2013.1/901 2013/11/27
 24 24  0  0  0  0  0  0  0  0999 V2000
    2.8149   -0.8664   -1.7919 C   0  0  0  0  0  0  0  0  0  0  0  0
    3.2698   -1.9594   -0.9799 C   0  0  0  0  0  0  0  0  0  0  0  0
    4.4275   -2.6424   -1.2686 C   0  0  0  0  0  0  0  0  0  0  0  0
    5.2474   -2.2941   -2.3893 C   0  0  0  0  0  0  0  0  0  0  0  0
    4.7744   -1.2244   -3.2186 C   0  0  0  0  0  0  0  0  0  0  0  0
    3.6146   -0.5471   -2.9359 C   0  0  0  0  0  0  0  0  0  0  0  0
    1.6838   -0.1610   -1.4960 C   0  0  0  0  0  0  0  0  0  0  0  0
    0.8464   -0.5086   -0.4954 N   0  0  0  0  0  0  0  0  0  0  0  0
    7.2735   -2.5480   -3.6298 N   0  0  0  0  0  0  0  0  0  0  0  0
    6.4161   -2.9409   -2.6640 C   0  0  0  0  0  0  0  0  0  0  0  0
    1.3176    0.9482   -2.1850 N   0  0  0  0  0  0  0  0  0  0  0  0
    6.8166   -4.0423   -1.9855 N   0  0  0  0  0  0  0  0  0  0  0  0
    0.6637    2.1374   -1.6422 C   0  0  0  0  0  0  0  0  0  0  0  0
    8.1855   -4.5375   -1.8784 C   0  0  0  0  0  0  0  0  0  0  0  0
    1.5368    2.6793   -0.4990 C   0  0  0  0  0  0  0  0  0  0  0  0
    8.9095   -3.6990   -0.8086 C   0  0  0  0  0  0  0  0  0  0  0  0
    0.9568    2.2883    0.8673 C   0  0  0  0  0  0  0  0  0  0  0  0
    9.1241   -2.2381   -1.2440 C   0  0  0  0  0  0  0  0  0  0  0  0
    1.8164    2.8728    1.9588 N   0  0  0  0  0  0  0  0  0  0  0  0
    9.8904   -1.4580   -0.2058 N   0  0  0  0  0  0  0  0  0  0  0  0
    3.1611    2.1981    1.9697 C   0  0  0  0  0  0  0  0  0  0  0  0
    9.7216    0.0122   -0.4804 C   0  0  0  0  0  0  0  0  0  0  0  0
    1.1582    2.7108    3.3066 C   0  0  0  0  0  0  0  0  0  0  0  0
   11.3564   -1.7907   -0.2128 C   0  0  0  0  0  0  0  0  0  0  0  0
  1  6  2  0  0  0  0
  2  3  2  0  0  0  0
  2  1  1  0  0  0  0
  3  4  1  0  0  0  0
  4 10  1  0  0  0  0
  4  5  2  0  0  0  0
  6  5  1  0  0  0  0
  7  1  1  0  0  0  0
  7 11  1  0  0  0  0
  8  7  2  0  0  0  0
  9 10  2  0  0  0  0
 10 12  1  0  0  0  0
 12 14  1  0  0  0  0
 13 11  1  0  0  0  0
 13 15  1  0  0  0  0
 14 16  1  0  0  0  0
 16 18  1  0  0  0  0
 17 15  1  0  0  0  0
 17 19  1  0  0  0  0
 18 20  1  0  0  0  0
 19 23  1  0  0  0  0
 20 22  1  0  0  0  0
 20 24  1  0  0  0  0
 21 19  1  0  0  0  0
M  END
>  <CHROM.1>
-173.08058495,-6.11899910,79.72834066,55.90362833,-101.81505507,-67.89412819
-177.36439955,-178.29094350,-68.18540417,-163.56664774,4.82797377,-0.69017886
-0.93844037,2.63301187,-0.26421116,0.81160319

>  <Name>
lig.pdb

>  <RI>
1.71133e+07

>  <Rbt.Current_Directory>
/home/itssahil/PROJECTS/Mol_Feturizer/New_Systems/rnas/2l94

>  <Rbt.Executable>
rbdock ($Id: //depot/dev/client3/rdock/2013.1/src/exe/rbdock.cxx#4 $)

>  <Rbt.Library>
libRbt.so (2013.1, Build901 2013/11/27)

>  <Rbt.Parameter_File>
/export/apps/rDock/src/rDock_2013.1_src/data/scripts/dock_solv.prm

>  <Rbt.Receptor>
prm/pocket_docking_5.prm

>  <SCORE>
-19.2991

>  <SCORE.INTER>
-19.0475

>  <SCORE.INTER.CONST>
1

>  <SCORE.INTER.POLAR>
-2.84067

>  <SCORE.INTER.ROT>
10

>  <SCORE.INTER.SOLV>
10.4015

>  <SCORE.INTER.VDW>
-16.9633

>  <SCORE.INTER.norm>
-0.793645

>  <SCORE.INTRA>
-0.251622

>  <SCORE.INTRA.DIHEDRAL>
3.02816

>  <SCORE.INTRA.DIHEDRAL.0>
7.52971

>  <SCORE.INTRA.POLAR>
0

>  <SCORE.INTRA.POLAR.0>
0

>  <SCORE.INTRA.REPUL>
0

>  <SCORE.INTRA.REPUL.0>
0

>  <SCORE.INTRA.SOLV>
1.13412

>  <SCORE.INTRA.SOLV.lig_0>
-22.1084

>  <SCORE.INTRA.VDW>
-2.33276

>  <SCORE.INTRA.VDW.0>
2.4256

>  <SCORE.INTRA.norm>
-0.0104842

>  <SCORE.RESTR>
0

>  <SCORE.RESTR.CAVITY>
0

>  <SCORE.RESTR.norm>
0

>  <SCORE.SYSTEM>
0

>  <SCORE.SYSTEM.CONST>
0

>  <SCORE.SYSTEM.DIHEDRAL>
0

>  <SCORE.SYSTEM.SOLV>
0

>  <SCORE.SYSTEM.norm>
0

>  <SCORE.heavy>
24

>  <SCORE.norm>
-0.80413

>  <RMSD>
2.309

$$$$
lig.pdb
 OpenBabel11021811453D
libRbt.so/2013.1/901 2013/11/27
 24 24  0  0  0  0  0  0  0  0999 V2000
    4.5562   -1.2914   -2.7333 C   0  0  0  0  0  0  0  0  0  0  0  0
    5.7315   -0.6013   -2.2824 C   0  0  0  0  0  0  0  0  0  0  0  0
    6.9263   -1.2547   -2.0932 C   0  0  0  0  0  0  0  0  0  0  0  0
    7.0655   -2.6571   -2.3451 C   0  0  0  0  0  0  0  0  0  0  0  0
    5.8826   -3.3513   -2.7628 C   0  0  0  0  0  0  0  0  0  0  0  0
    4.6873   -2.7016   -2.9443 C   0  0  0  0  0  0  0  0  0  0  0  0
    3.3732   -0.6464   -2.9550 C   0  0  0  0  0  0  0  0  0  0  0  0
    2.3929   -1.1622   -3.7270 N   0  0  0  0  0  0  0  0  0  0  0  0
    8.3562   -4.6472   -2.0594 N   0  0  0  0  0  0  0  0  0  0  0  0
    8.2544   -3.3081   -2.1957 C   0  0  0  0  0  0  0  0  0  0  0  0
    3.0918    0.5635   -2.4108 N   0  0  0  0  0  0  0  0  0  0  0  0
    9.4426   -2.6590   -2.1697 N   0  0  0  0  0  0  0  0  0  0  0  0
    1.7876    1.0287   -1.9428 C   0  0  0  0  0  0  0  0  0  0  0  0
   10.7493   -3.2428   -2.4569 C   0  0  0  0  0  0  0  0  0  0  0  0
    1.4250    0.2325   -0.6789 C   0  0  0  0  0  0  0  0  0  0  0  0
   11.4203   -2.3872   -3.5475 C   0  0  0  0  0  0  0  0  0  0  0  0
    0.1542    0.7913   -0.0239 C   0  0  0  0  0  0  0  0  0  0  0  0
   11.9971   -1.0700   -2.9978 C   0  0  0  0  0  0  0  0  0  0  0  0
    0.4352    2.1728    0.5094 N   0  0  0  0  0  0  0  0  0  0  0  0
   13.1559   -1.3196   -2.0659 N   0  0  0  0  0  0  0  0  0  0  0  0
    1.4572    2.0995    1.6111 C   0  0  0  0  0  0  0  0  0  0  0  0
   12.6730   -1.1942   -0.6459 C   0  0  0  0  0  0  0  0  0  0  0  0
   -0.8263    2.8146    1.0315 C   0  0  0  0  0  0  0  0  0  0  0  0
   14.2815   -0.3478   -2.2863 C   0  0  0  0  0  0  0  0  0  0  0  0
  1  6  2  0  0  0  0
  2  3  2  0  0  0  0
  2  1  1  0  0  0  0
  3  4  1  0  0  0  0
  4 10  1  0  0  0  0
  4  5  2  0  0  0  0
  6  5  1  0  0  0  0
  7  1  1  0  0  0  0
  7 11  1  0  0  0  0
  8  7  2  0  0  0  0
  9 10  2  0  0  0  0
 10 12  1  0  0  0  0
 12 14  1  0  0  0  0
 13 11  1  0  0  0  0
 13 15  1  0  0  0  0
 14 16  1  0  0  0  0
 16 18  1  0  0  0  0
 17 15  1  0  0  0  0
 17 19  1  0  0  0  0
 18 20  1  0  0  0  0
 19 23  1  0  0  0  0
 20 22  1  0  0  0  0
 20 24  1  0  0  0  0
 21 19  1  0  0  0  0
M  END
>  <CHROM.1>
161.01006166,160.13003549,126.20058312,69.44213614,172.56805064,77.13389364
66.92754452,-66.90006016,-64.61634687,-101.09615864,6.20516331,-0.96370221
-1.80610336,2.81468904,-0.03017191,0.60757477

>  <Name>
lig.pdb

>  <RI>
2.48096e+07

>  <Rbt.Current_Directory>
/home/itssahil/PROJECTS/Mol_Feturizer/New_Systems/rnas/2l94

>  <Rbt.Executable>
rbdock ($Id: //depot/dev/client3/rdock/2013.1/src/exe/rbdock.cxx#4 $)

>  <Rbt.Library>
libRbt.so (2013.1, Build901 2013/11/27)

>  <Rbt.Parameter_File>
/export/apps/rDock/src/rDock_2013.1_src/data/scripts/dock_solv.prm

>  <Rbt.Receptor>
prm/pocket_docking_6.prm

>  <SCORE>
-15.5598

>  <SCORE.INTER>
-16.4941

>  <SCORE.INTER.CONST>
1

>  <SCORE.INTER.POLAR>
-2.00644

>  <SCORE.INTER.ROT>
10

>  <SCORE.INTER.SOLV>
14.0255

>  <SCORE.INTER.VDW>
-19.2498

>  <SCORE.INTER.norm>
-0.687254

>  <SCORE.INTRA>
0.934272

>  <SCORE.INTRA.DIHEDRAL>
4.62071

>  <SCORE.INTRA.DIHEDRAL.0>
7.52971

>  <SCORE.INTRA.POLAR>
0

>  <SCORE.INTRA.POLAR.0>
0

>  <SCORE.INTRA.REPUL>
0

>  <SCORE.INTRA.REPUL.0>
0

>  <SCORE.INTRA.SOLV>
0.377642

>  <SCORE.INTRA.SOLV.lig_0>
-22.1084

>  <SCORE.INTRA.VDW>
-1.5649

>  <SCORE.INTRA.VDW.0>
2.4256

>  <SCORE.INTRA.norm>
0.038928

>  <SCORE.RESTR>
0

>  <SCORE.RESTR.CAVITY>
0

>  <SCORE.RESTR.norm>
0

>  <SCORE.SYSTEM>
0

>  <SCORE.SYSTEM.CONST>
0

>  <SCORE.SYSTEM.DIHEDRAL>
0

>  <SCORE.SYSTEM.SOLV>
0

>  <SCORE.SYSTEM.norm>
0

>  <SCORE.heavy>
24

>  <SCORE.norm>
-0.648326

>  <RMSD>
2.324

$$$$
lig.pdb
 OpenBabel11021811453D
libRbt.so/2013.1/901 2013/11/27
 24 24  0  0  0  0  0  0  0  0999 V2000
    7.1217   -1.5414   -0.8019 C   0  0  0  0  0  0  0  0  0  0  0  0
    7.2106   -0.1276   -1.0350 C   0  0  0  0  0  0  0  0  0  0  0  0
    6.1821    0.5760   -1.6158 C   0  0  0  0  0  0  0  0  0  0  0  0
    4.9626   -0.0616   -2.0105 C   0  0  0  0  0  0  0  0  0  0  0  0
    4.8886   -1.4790   -1.8080 C   0  0  0  0  0  0  0  0  0  0  0  0
    5.9179   -2.1838   -1.2357 C   0  0  0  0  0  0  0  0  0  0  0  0
    8.1243   -2.2440   -0.1969 C   0  0  0  0  0  0  0  0  0  0  0  0
    7.9333   -3.4608    0.3563 N   0  0  0  0  0  0  0  0  0  0  0  0
    3.1035    0.1246   -3.4995 N   0  0  0  0  0  0  0  0  0  0  0  0
    3.9221    0.6325   -2.5540 C   0  0  0  0  0  0  0  0  0  0  0  0
    9.3926   -1.7719   -0.1096 N   0  0  0  0  0  0  0  0  0  0  0  0
    3.6220    1.9013   -2.1879 N   0  0  0  0  0  0  0  0  0  0  0  0
   10.6236   -2.5563   -0.1857 C   0  0  0  0  0  0  0  0  0  0  0  0
    2.3307    2.5619   -2.3507 C   0  0  0  0  0  0  0  0  0  0  0  0
   11.0887   -2.5691   -1.6508 C   0  0  0  0  0  0  0  0  0  0  0  0
    1.3508    1.9416   -1.3375 C   0  0  0  0  0  0  0  0  0  0  0  0
   11.7822   -1.2499   -2.0180 C   0  0  0  0  0  0  0  0  0  0  0  0
    1.3337    2.6908    0.0072 C   0  0  0  0  0  0  0  0  0  0  0  0
   13.2617   -1.3763   -1.7592 N   0  0  0  0  0  0  0  0  0  0  0  0
    2.5062    2.3027    0.8720 N   0  0  0  0  0  0  0  0  0  0  0  0
   13.5456   -1.1765   -0.2953 C   0  0  0  0  0  0  0  0  0  0  0  0
    2.0608    2.2728    2.3095 C   0  0  0  0  0  0  0  0  0  0  0  0
   14.0373   -0.3657   -2.5674 C   0  0  0  0  0  0  0  0  0  0  0  0
    3.6546    3.2634    0.7367 C   0  0  0  0  0  0  0  0  0  0  0  0
  1  6  2  0  0  0  0
  2  3  2  0  0  0  0
  2  1  1  0  0  0  0
  3  4  1  0  0  0  0
  4 10  1  0  0  0  0
  4  5  2  0  0  0  0
  6  5  1  0  0  0  0
  7  1  1  0  0  0  0
  7 11  1  0  0  0  0
  8  7  2  0  0  0  0
  9 10  2  0  0  0  0
 10 12  1  0  0  0  0
 12 14  1  0  0  0  0
 13 11  1  0  0  0  0
 13 15  1  0  0  0  0
 14 16  1  0  0  0  0
 16 18  1  0  0  0  0
 17 15  1  0  0  0  0
 17 19  1  0  0  0  0
 18 20  1  0  0  0  0
 19 23  1  0  0  0  0
 20 22  1  0  0  0  0
 20 24  1  0  0  0  0
 21 19  1  0  0  0  0
M  END
>  <CHROM.1>
145.75186717,161.38974021,71.81438665,92.57194139,78.39152977,90.92861490
-79.57349028,91.03978184,-80.52200166,-143.67892317,6.70197015,-0.14332329
-1.01737776,0.15532185,0.33683349,-1.87428690

>  <Name>
lig.pdb

>  <RI>
1.09765e+07

>  <Rbt.Current_Directory>
/home/itssahil/PROJECTS/Mol_Feturizer/New_Systems/rnas/2l94

>  <Rbt.Executable>
rbdock ($Id: //depot/dev/client3/rdock/2013.1/src/exe/rbdock.cxx#4 $)

>  <Rbt.Library>
libRbt.so (2013.1, Build901 2013/11/27)

>  <Rbt.Parameter_File>
/export/apps/rDock/src/rDock_2013.1_src/data/scripts/dock_solv.prm

>  <Rbt.Receptor>
prm/pocket_docking_3.prm

>  <SCORE>
-13.7824

>  <SCORE.INTER>
-17.7889

>  <SCORE.INTER.CONST>
1

>  <SCORE.INTER.POLAR>
-2.98189

>  <SCORE.INTER.ROT>
10

>  <SCORE.INTER.SOLV>
7.16198

>  <SCORE.INTER.VDW>
-14.5736

>  <SCORE.INTER.norm>
-0.741202

>  <SCORE.INTRA>
4.00646

>  <SCORE.INTRA.DIHEDRAL>
14.3089

>  <SCORE.INTRA.DIHEDRAL.0>
7.52971

>  <SCORE.INTRA.POLAR>
0

>  <SCORE.INTRA.POLAR.0>
0

>  <SCORE.INTRA.REPUL>
0

>  <SCORE.INTRA.REPUL.0>
0

>  <SCORE.INTRA.SOLV>
1.15183

>  <SCORE.INTRA.SOLV.lig_0>
-22.1084

>  <SCORE.INTRA.VDW>
-3.72389

>  <SCORE.INTRA.VDW.0>
2.4256

>  <SCORE.INTRA.norm>
0.166936

>  <SCORE.RESTR>
0

>  <SCORE.RESTR.CAVITY>
0

>  <SCORE.RESTR.norm>
0

>  <SCORE.SYSTEM>
0

>  <SCORE.SYSTEM.CONST>
0

>  <SCORE.SYSTEM.DIHEDRAL>
0

>  <SCORE.SYSTEM.SOLV>
0

>  <SCORE.SYSTEM.norm>
0

>  <SCORE.heavy>
24

>  <SCORE.norm>
-0.574267

>  <RMSD>
2.347

$$$$
lig.pdb
 OpenBabel11021811453D
libRbt.so/2013.1/901 2013/11/27
 24 24  0  0  0  0  0  0  0  0999 V2000
    6.9613   -2.6596   -1.2076 C   0  0  0  0  0  0  0  0  0  0  0  0
    6.2254   -1.6380   -0.5177 C   0  0  0  0  0  0  0  0  0  0  0  0
    5.1752   -0.9777   -1.1102 C   0  0  0  0  0  0  0  0  0  0  0  0
    4.7521   -1.2800   -2.4440 C   0  0  0  0  0  0  0  0  0  0  0  0
    5.5091   -2.2766   -3.1436 C   0  0  0  0  0  0  0  0  0  0  0  0
    6.5629   -2.9308   -2.5559 C   0  0  0  0  0  0  0  0  0  0  0  0
    7.9852   -3.3437   -0.6175 C   0  0  0  0  0  0  0  0  0  0  0  0
    8.0253   -4.6921   -0.5587 N   0  0  0  0  0  0  0  0  0  0  0  0
    3.4518   -0.6819   -4.3570 N   0  0  0  0  0  0  0  0  0  0  0  0
    3.6891   -0.6571   -3.0284 C   0  0  0  0  0  0  0  0  0  0  0  0
    9.0446   -2.7176   -0.0476 N   0  0  0  0  0  0  0  0  0  0  0  0
    2.7755    0.0461   -2.3179 N   0  0  0  0  0  0  0  0  0  0  0  0
   10.4317   -3.1784   -0.0415 C   0  0  0  0  0  0  0  0  0  0  0  0
    1.4146    0.3629   -2.7398 C   0  0  0  0  0  0  0  0  0  0  0  0
   11.1617   -2.5028   -1.2134 C   0  0  0  0  0  0  0  0  0  0  0  0
    0.6059    0.7405   -1.4847 C   0  0  0  0  0  0  0  0  0  0  0  0
   12.0328   -1.3393   -0.7199 C   0  0  0  0  0  0  0  0  0  0  0  0
    1.0592    2.0751   -0.8656 C   0  0  0  0  0  0  0  0  0  0  0  0
   13.2538   -1.2249   -1.5962 N   0  0  0  0  0  0  0  0  0  0  0  0
    0.7711    2.1251    0.6136 N   0  0  0  0  0  0  0  0  0  0  0  0
   14.4758   -1.0025   -0.7473 C   0  0  0  0  0  0  0  0  0  0  0  0
   -0.6576    2.5534    0.8160 C   0  0  0  0  0  0  0  0  0  0  0  0
   13.1066   -0.0891   -2.5783 C   0  0  0  0  0  0  0  0  0  0  0  0
    1.6752    3.0844    1.3363 C   0  0  0  0  0  0  0  0  0  0  0  0
  1  6  2  0  0  0  0
  2  3  2  0  0  0  0
  2  1  1  0  0  0  0
  3  4  1  0  0  0  0
  4 10  1  0  0  0  0
  4  5  2  0  0  0  0
  6  5  1  0  0  0  0
  7  1  1  0  0  0  0
  7 11  1  0  0  0  0
  8  7  2  0  0  0  0
  9 10  2  0  0  0  0
 10 12  1  0  0  0  0
 12 14  1  0  0  0  0
 13 11  1  0  0  0  0
 13 15  1  0  0  0  0
 14 16  1  0  0  0  0
 16 18  1  0  0  0  0
 17 15  1  0  0  0  0
 17 19  1  0  0  0  0
 18 20  1  0  0  0  0
 19 23  1  0  0  0  0
 20 22  1  0  0  0  0
 20 24  1  0  0  0  0
 21 19  1  0  0  0  0
M  END
>  <CHROM.1>
164.12370436,125.81729844,161.31846831,95.19117251,102.38278998,68.54553054
-153.25353381,147.47623008,-136.32734182,-83.66270670,6.25065904,-0.88301175
-1.27345425,0.26054320,0.15368715,-2.54677772

>  <Name>
lig.pdb

>  <RI>
1.09765e+07

>  <Rbt.Current_Directory>
/home/itssahil/PROJECTS/Mol_Feturizer/New_Systems/rnas/2l94

>  <Rbt.Executable>
rbdock ($Id: //depot/dev/client3/rdock/2013.1/src/exe/rbdock.cxx#4 $)

>  <Rbt.Library>
libRbt.so (2013.1, Build901 2013/11/27)

>  <Rbt.Parameter_File>
/export/apps/rDock/src/rDock_2013.1_src/data/scripts/dock_solv.prm

>  <Rbt.Receptor>
prm/pocket_docking_3.prm

>  <SCORE>
-14.5519

>  <SCORE.INTER>
-22.1922

>  <SCORE.INTER.CONST>
1

>  <SCORE.INTER.POLAR>
-3.22979

>  <SCORE.INTER.ROT>
10

>  <SCORE.INTER.SOLV>
10.7033

>  <SCORE.INTER.VDW>
-17.8633

>  <SCORE.INTER.norm>
-0.924676

>  <SCORE.INTRA>
7.64033

>  <SCORE.INTRA.DIHEDRAL>
20.9562

>  <SCORE.INTRA.DIHEDRAL.0>
7.52971

>  <SCORE.INTRA.POLAR>
0

>  <SCORE.INTRA.POLAR.0>
0

>  <SCORE.INTRA.REPUL>
0

>  <SCORE.INTRA.REPUL.0>
0

>  <SCORE.INTRA.SOLV>
0.00487532

>  <SCORE.INTRA.SOLV.lig_0>
-22.1084

>  <SCORE.INTRA.VDW>
-2.8402

>  <SCORE.INTRA.VDW.0>
2.4256

>  <SCORE.INTRA.norm>
0.318347

>  <SCORE.RESTR>
0

>  <SCORE.RESTR.CAVITY>
0

>  <SCORE.RESTR.norm>
0

>  <SCORE.SYSTEM>
0

>  <SCORE.SYSTEM.CONST>
0

>  <SCORE.SYSTEM.DIHEDRAL>
0

>  <SCORE.SYSTEM.SOLV>
0

>  <SCORE.SYSTEM.norm>
0

>  <SCORE.heavy>
24

>  <SCORE.norm>
-0.606329

>  <RMSD>
2.362

$$$$
lig.pdb
 OpenBabel11021811453D
libRbt.so/2013.1/901 2013/11/27
 24 24  0  0  0  0  0  0  0  0999 V2000
    6.8563   -2.7222   -1.0622 C   0  0  0  0  0  0  0  0  0  0  0  0
    5.9894   -3.3049   -2.0471 C   0  0  0  0  0  0  0  0  0  0  0  0
    4.9194   -2.6161   -2.5673 C   0  0  0  0  0  0  0  0  0  0  0  0
    4.6174   -1.2767   -2.1622 C   0  0  0  0  0  0  0  0  0  0  0  0
    5.4638   -0.7084   -1.1540 C   0  0  0  0  0  0  0  0  0  0  0  0
    6.5275   -1.3980   -0.6281 C   0  0  0  0  0  0  0  0  0  0  0  0
    7.9403   -3.3857   -0.5625 C   0  0  0  0  0  0  0  0  0  0  0  0
    8.0510   -4.7310   -0.5914 N   0  0  0  0  0  0  0  0  0  0  0  0
    3.1506   -0.7311   -3.9675 N   0  0  0  0  0  0  0  0  0  0  0  0
    3.5807   -0.5712   -2.6980 C   0  0  0  0  0  0  0  0  0  0  0  0
    8.9926   -2.7400   -0.0014 N   0  0  0  0  0  0  0  0  0  0  0  0
    2.8911    0.3582   -1.9948 N   0  0  0  0  0  0  0  0  0  0  0  0
   10.3998   -3.1258   -0.0858 C   0  0  0  0  0  0  0  0  0  0  0  0
    1.5426    0.8340   -2.2877 C   0  0  0  0  0  0  0  0  0  0  0  0
   11.0909   -2.1854   -1.0863 C   0  0  0  0  0  0  0  0  0  0  0  0
    1.5170    2.3562   -2.0550 C   0  0  0  0  0  0  0  0  0  0  0  0
   12.3331   -1.5358   -0.4611 C   0  0  0  0  0  0  0  0  0  0  0  0
    1.9477    2.7463   -0.6295 C   0  0  0  0  0  0  0  0  0  0  0  0
   13.3621   -1.2932   -1.5354 N   0  0  0  0  0  0  0  0  0  0  0  0
    1.1226    2.0342    0.4124 N   0  0  0  0  0  0  0  0  0  0  0  0
   14.6975   -0.9963   -0.9093 C   0  0  0  0  0  0  0  0  0  0  0  0
   -0.2730    2.5979    0.3954 C   0  0  0  0  0  0  0  0  0  0  0  0
   12.9527   -0.1438   -2.4227 C   0  0  0  0  0  0  0  0  0  0  0  0
    1.6948    2.1894    1.7938 C   0  0  0  0  0  0  0  0  0  0  0  0
  1  6  2  0  0  0  0
  2  3  2  0  0  0  0
  2  1  1  0  0  0  0
  3  4  1  0  0  0  0
  4 10  1  0  0  0  0
  4  5  2  0  0  0  0
  6  5  1  0  0  0  0
  7  1  1  0  0  0  0
  7 11  1  0  0  0  0
  8  7  2  0  0  0  0
  9 10  2  0  0  0  0
 10 12  1  0  0  0  0
 12 14  1  0  0  0  0
 13 11  1  0  0  0  0
 13 15  1  0  0  0  0
 14 16  1  0  0  0  0
 16 18  1  0  0  0  0
 17 15  1  0  0  0  0
 17 19  1  0  0  0  0
 18 20  1  0  0  0  0
 19 23  1  0  0  0  0
 20 22  1  0  0  0  0
 20 24  1  0  0  0  0
 21 19  1  0  0  0  0
M  END
>  <CHROM.1>
-31.34024631,-22.29125621,-139.46905543,104.12962292,126.91945730,-56.84825136
-54.78208596,148.44863953,-165.42673988,-70.53101033,6.33398043,-0.80813861
-1.16297747,0.30865718,0.09129324,-2.83052716

>  <Name>
lig.pdb

>  <RI>
1.09765e+07

>  <Rbt.Current_Directory>
/home/itssahil/PROJECTS/Mol_Feturizer/New_Systems/rnas/2l94

>  <Rbt.Executable>
rbdock ($Id: //depot/dev/client3/rdock/2013.1/src/exe/rbdock.cxx#4 $)

>  <Rbt.Library>
libRbt.so (2013.1, Build901 2013/11/27)

>  <Rbt.Parameter_File>
/export/apps/rDock/src/rDock_2013.1_src/data/scripts/dock_solv.prm

>  <Rbt.Receptor>
prm/pocket_docking_3.prm

>  <SCORE>
-15.9107

>  <SCORE.INTER>
-20.8564

>  <SCORE.INTER.CONST>
1

>  <SCORE.INTER.POLAR>
-3.00762

>  <SCORE.INTER.ROT>
10

>  <SCORE.INTER.SOLV>
9.9542

>  <SCORE.INTER.VDW>
-17.4636

>  <SCORE.INTER.norm>
-0.869016

>  <SCORE.INTRA>
4.9457

>  <SCORE.INTRA.DIHEDRAL>
11.8023

>  <SCORE.INTRA.DIHEDRAL.0>
7.52971

>  <SCORE.INTRA.POLAR>
0

>  <SCORE.INTRA.POLAR.0>
0

>  <SCORE.INTRA.REPUL>
0

>  <SCORE.INTRA.REPUL.0>
0

>  <SCORE.INTRA.SOLV>
0.477376

>  <SCORE.INTRA.SOLV.lig_0>
-22.1084

>  <SCORE.INTRA.VDW>
-1.19413

>  <SCORE.INTRA.VDW.0>
2.4256

>  <SCORE.INTRA.norm>
0.206071

>  <SCORE.RESTR>
0

>  <SCORE.RESTR.CAVITY>
0

>  <SCORE.RESTR.norm>
0

>  <SCORE.SYSTEM>
0

>  <SCORE.SYSTEM.CONST>
0

>  <SCORE.SYSTEM.DIHEDRAL>
0

>  <SCORE.SYSTEM.SOLV>
0

>  <SCORE.SYSTEM.norm>
0

>  <SCORE.heavy>
24

>  <SCORE.norm>
-0.662945

>  <RMSD>
2.373

$$$$
lig.pdb
 OpenBabel11021811453D
libRbt.so/2013.1/901 2013/11/27
 24 24  0  0  0  0  0  0  0  0999 V2000
    3.4181   -0.0742   -2.4901 C   0  0  0  0  0  0  0  0  0  0  0  0
    3.3960   -1.4429   -2.0574 C   0  0  0  0  0  0  0  0  0  0  0  0
    4.4798   -2.2720   -2.2243 C   0  0  0  0  0  0  0  0  0  0  0  0
    5.6930   -1.8126   -2.8297 C   0  0  0  0  0  0  0  0  0  0  0  0
    5.7018   -0.4553   -3.2917 C   0  0  0  0  0  0  0  0  0  0  0  0
    4.6175    0.3711   -3.1329 C   0  0  0  0  0  0  0  0  0  0  0  0
    2.3589    0.7666   -2.3004 C   0  0  0  0  0  0  0  0  0  0  0  0
    1.1558    0.3390   -1.8613 N   0  0  0  0  0  0  0  0  0  0  0  0
    7.8155   -2.3344   -3.7945 N   0  0  0  0  0  0  0  0  0  0  0  0
    6.7865   -2.6156   -2.9674 C   0  0  0  0  0  0  0  0  0  0  0  0
    2.4378    2.0998   -2.5359 N   0  0  0  0  0  0  0  0  0  0  0  0
    6.9314   -3.7737   -2.2805 N   0  0  0  0  0  0  0  0  0  0  0  0
    1.7730    3.1607   -1.7818 C   0  0  0  0  0  0  0  0  0  0  0  0
    8.1896   -4.4615   -2.0076 C   0  0  0  0  0  0  0  0  0  0  0  0
    2.5864    3.4153   -0.5025 C   0  0  0  0  0  0  0  0  0  0  0  0
    8.7197   -3.9580   -0.6522 C   0  0  0  0  0  0  0  0  0  0  0  0
    2.2495    2.3780    0.5776 C   0  0  0  0  0  0  0  0  0  0  0  0
    9.4688   -2.6181   -0.7683 C   0  0  0  0  0  0  0  0  0  0  0  0
    2.7983    2.8425    1.9024 N   0  0  0  0  0  0  0  0  0  0  0  0
   10.9081   -2.8216   -1.1689 N   0  0  0  0  0  0  0  0  0  0  0  0
    4.2285    2.3992    2.0492 C   0  0  0  0  0  0  0  0  0  0  0  0
   11.7309   -1.6888   -0.6164 C   0  0  0  0  0  0  0  0  0  0  0  0
    1.9793    2.2957    3.0453 C   0  0  0  0  0  0  0  0  0  0  0  0
   11.0812   -2.8679   -2.6615 C   0  0  0  0  0  0  0  0  0  0  0  0
  1  6  2  0  0  0  0
  2  3  2  0  0  0  0
  2  1  1  0  0  0  0
  3  4  1  0  0  0  0
  4 10  1  0  0  0  0
  4  5  2  0  0  0  0
  6  5  1  0  0  0  0
  7  1  1  0  0  0  0
  7 11  1  0  0  0  0
  8  7  2  0  0  0  0
  9 10  2  0  0  0  0
 10 12  1  0  0  0  0
 12 14  1  0  0  0  0
 13 11  1  0  0  0  0
 13 15  1  0  0  0  0
 14 16  1  0  0  0  0
 16 18  1  0  0  0  0
 17 15  1  0  0  0  0
 17 19  1  0  0  0  0
 18 20  1  0  0  0  0
 19 23  1  0  0  0  0
 20 22  1  0  0  0  0
 20 24  1  0  0  0  0
 21 19  1  0  0  0  0
M  END
>  <CHROM.1>
163.88273148,-9.15135472,91.66928711,79.75799673,-81.05850491,-81.92850543
-83.91485328,-166.47439706,-86.53781638,-151.66222496,5.48347776,-0.53006063
-1.37719934,2.64187138,-0.43756101,0.97451741

>  <Name>
lig.pdb

>  <RI>
1.71133e+07

>  <Rbt.Current_Directory>
/home/itssahil/PROJECTS/Mol_Feturizer/New_Systems/rnas/2l94

>  <Rbt.Executable>
rbdock ($Id: //depot/dev/client3/rdock/2013.1/src/exe/rbdock.cxx#4 $)

>  <Rbt.Library>
libRbt.so (2013.1, Build901 2013/11/27)

>  <Rbt.Parameter_File>
/export/apps/rDock/src/rDock_2013.1_src/data/scripts/dock_solv.prm

>  <Rbt.Receptor>
prm/pocket_docking_5.prm

>  <SCORE>
-25.6158

>  <SCORE.INTER>
-25.9712

>  <SCORE.INTER.CONST>
1

>  <SCORE.INTER.POLAR>
-3.82041

>  <SCORE.INTER.ROT>
10

>  <SCORE.INTER.SOLV>
11.9329

>  <SCORE.INTER.VDW>
-18.8237

>  <SCORE.INTER.norm>
-1.08213

>  <SCORE.INTRA>
0.355396

>  <SCORE.INTRA.DIHEDRAL>
7.45726

>  <SCORE.INTRA.DIHEDRAL.0>
7.52971

>  <SCORE.INTRA.POLAR>
0

>  <SCORE.INTRA.POLAR.0>
0

>  <SCORE.INTRA.REPUL>
0

>  <SCORE.INTRA.REPUL.0>
0

>  <SCORE.INTRA.SOLV>
1.21025

>  <SCORE.INTRA.SOLV.lig_0>
-22.1084

>  <SCORE.INTRA.VDW>
-3.97836

>  <SCORE.INTRA.VDW.0>
2.4256

>  <SCORE.INTRA.norm>
0.0148082

>  <SCORE.RESTR>
0

>  <SCORE.RESTR.CAVITY>
0

>  <SCORE.RESTR.norm>
0

>  <SCORE.SYSTEM>
0

>  <SCORE.SYSTEM.CONST>
0

>  <SCORE.SYSTEM.DIHEDRAL>
0

>  <SCORE.SYSTEM.SOLV>
0

>  <SCORE.SYSTEM.norm>
0

>  <SCORE.heavy>
24

>  <SCORE.norm>
-1.06732

>  <RMSD>
2.379

$$$$
lig.pdb
 OpenBabel11021811453D
libRbt.so/2013.1/901 2013/11/27
 24 24  0  0  0  0  0  0  0  0999 V2000
    4.3217   -1.1433   -2.3912 C   0  0  0  0  0  0  0  0  0  0  0  0
    5.1663   -0.4759   -1.4413 C   0  0  0  0  0  0  0  0  0  0  0  0
    6.2562   -1.0980   -0.8797 C   0  0  0  0  0  0  0  0  0  0  0  0
    6.6136   -2.4420   -1.2194 C   0  0  0  0  0  0  0  0  0  0  0  0
    5.7499   -3.1186   -2.1425 C   0  0  0  0  0  0  0  0  0  0  0  0
    4.6570   -2.5012   -2.6975 C   0  0  0  0  0  0  0  0  0  0  0  0
    3.2558   -0.5242   -2.9788 C   0  0  0  0  0  0  0  0  0  0  0  0
    2.8877   -0.7586   -4.2565 N   0  0  0  0  0  0  0  0  0  0  0  0
    7.7825   -4.3844   -0.4651 N   0  0  0  0  0  0  0  0  0  0  0  0
    7.7130   -3.0563   -0.6963 C   0  0  0  0  0  0  0  0  0  0  0  0
    2.4818    0.3728   -2.3190 N   0  0  0  0  0  0  0  0  0  0  0  0
    8.8362   -2.3783   -0.3606 N   0  0  0  0  0  0  0  0  0  0  0  0
    1.0396    0.5580   -2.4675 C   0  0  0  0  0  0  0  0  0  0  0  0
   10.1749   -2.9437   -0.2238 C   0  0  0  0  0  0  0  0  0  0  0  0
    0.7148    2.0275   -2.1543 C   0  0  0  0  0  0  0  0  0  0  0  0
   10.8746   -2.8392   -1.5917 C   0  0  0  0  0  0  0  0  0  0  0  0
    0.1772    2.1781   -0.7245 C   0  0  0  0  0  0  0  0  0  0  0  0
   11.3999   -1.4218   -1.8832 C   0  0  0  0  0  0  0  0  0  0  0  0
    1.3147    2.0305    0.2533 N   0  0  0  0  0  0  0  0  0  0  0  0
   12.9003   -1.4074   -2.0326 N   0  0  0  0  0  0  0  0  0  0  0  0
    0.7743    1.8233    1.6419 C   0  0  0  0  0  0  0  0  0  0  0  0
   13.5233   -1.2937   -0.6672 C   0  0  0  0  0  0  0  0  0  0  0  0
    2.2031    3.2497    0.2329 C   0  0  0  0  0  0  0  0  0  0  0  0
   13.3756   -0.2625   -2.8829 C   0  0  0  0  0  0  0  0  0  0  0  0
  1  6  2  0  0  0  0
  2  3  2  0  0  0  0
  2  1  1  0  0  0  0
  3  4  1  0  0  0  0
  4 10  1  0  0  0  0
  4  5  2  0  0  0  0
  6  5  1  0  0  0  0
  7  1  1  0  0  0  0
  7 11  1  0  0  0  0
  8  7  2  0  0  0  0
  9 10  2  0  0  0  0
 10 12  1  0  0  0  0
 12 14  1  0  0  0  0
 13 11  1  0  0  0  0
 13 15  1  0  0  0  0
 14 16  1  0  0  0  0
 16 18  1  0  0  0  0
 17 15  1  0  0  0  0
 17 19  1  0  0  0  0
 18 20  1  0  0  0  0
 19 23  1  0  0  0  0
 20 22  1  0  0  0  0
 20 24  1  0  0  0  0
 21 19  1  0  0  0  0
M  END
>  <CHROM.1>
148.53075992,144.43032839,90.70094736,-151.07372084,-99.91486889,78.17463403
117.71643952,74.26486070,-165.61425077,-84.82374281,6.04439588,-0.78927550
-1.41466558,2.84213637,-0.11698187,0.44557434

>  <Name>
lig.pdb

>  <RI>
1.71133e+07

>  <Rbt.Current_Directory>
/home/itssahil/PROJECTS/Mol_Feturizer/New_Systems/rnas/2l94

>  <Rbt.Executable>
rbdock ($Id: //depot/dev/client3/rdock/2013.1/src/exe/rbdock.cxx#4 $)

>  <Rbt.Library>
libRbt.so (2013.1, Build901 2013/11/27)

>  <Rbt.Parameter_File>
/export/apps/rDock/src/rDock_2013.1_src/data/scripts/dock_solv.prm

>  <Rbt.Receptor>
prm/pocket_docking_5.prm

>  <SCORE>
-16.8463

>  <SCORE.INTER>
-23.2874

>  <SCORE.INTER.CONST>
1

>  <SCORE.INTER.POLAR>
-3.20457

>  <SCORE.INTER.ROT>
10

>  <SCORE.INTER.SOLV>
10.4812

>  <SCORE.INTER.VDW>
-18.6034

>  <SCORE.INTER.norm>
-0.970308

>  <SCORE.INTRA>
6.44112

>  <SCORE.INTRA.DIHEDRAL>
18.4552

>  <SCORE.INTRA.DIHEDRAL.0>
7.52971

>  <SCORE.INTRA.POLAR>
0

>  <SCORE.INTRA.POLAR.0>
0

>  <SCORE.INTRA.REPUL>
0

>  <SCORE.INTRA.REPUL.0>
0

>  <SCORE.INTRA.SOLV>
0.726299

>  <SCORE.INTRA.SOLV.lig_0>
-22.1084

>  <SCORE.INTRA.VDW>
-3.1496

>  <SCORE.INTRA.VDW.0>
2.4256

>  <SCORE.INTRA.norm>
0.26838

>  <SCORE.RESTR>
0

>  <SCORE.RESTR.CAVITY>
0

>  <SCORE.RESTR.norm>
0

>  <SCORE.SYSTEM>
0

>  <SCORE.SYSTEM.CONST>
0

>  <SCORE.SYSTEM.DIHEDRAL>
0

>  <SCORE.SYSTEM.SOLV>
0

>  <SCORE.SYSTEM.norm>
0

>  <SCORE.heavy>
24

>  <SCORE.norm>
-0.701928

>  <RMSD>
2.381

$$$$
lig.pdb
 OpenBabel11021811453D
libRbt.so/2013.1/901 2013/11/27
 24 24  0  0  0  0  0  0  0  0999 V2000
    4.6385   -2.6063   -1.8183 C   0  0  0  0  0  0  0  0  0  0  0  0
    3.7512   -2.5077   -2.9425 C   0  0  0  0  0  0  0  0  0  0  0  0
    2.9042   -1.4369   -3.1039 C   0  0  0  0  0  0  0  0  0  0  0  0
    2.8684   -0.3571   -2.1646 C   0  0  0  0  0  0  0  0  0  0  0  0
    3.7307   -0.4732   -1.0251 C   0  0  0  0  0  0  0  0  0  0  0  0
    4.5709   -1.5457   -0.8587 C   0  0  0  0  0  0  0  0  0  0  0  0
    5.5063   -3.6495   -1.6650 C   0  0  0  0  0  0  0  0  0  0  0  0
    5.8906   -4.4375   -2.6918 N   0  0  0  0  0  0  0  0  0  0  0  0
    0.8214    0.6543   -2.8683 N   0  0  0  0  0  0  0  0  0  0  0  0
    2.0587    0.7271   -2.3336 C   0  0  0  0  0  0  0  0  0  0  0  0
    6.0522   -3.9708   -0.4659 N   0  0  0  0  0  0  0  0  0  0  0  0
    2.4330    1.9789   -1.9772 N   0  0  0  0  0  0  0  0  0  0  0  0
    7.4012   -4.4810   -0.2290 C   0  0  0  0  0  0  0  0  0  0  0  0
    1.5389    3.0984   -1.6984 C   0  0  0  0  0  0  0  0  0  0  0  0
    8.3946   -3.3387   -0.4960 C   0  0  0  0  0  0  0  0  0  0  0  0
    1.8077    3.5709   -0.2575 C   0  0  0  0  0  0  0  0  0  0  0  0
    9.2670   -3.6452   -1.7213 C   0  0  0  0  0  0  0  0  0  0  0  0
    1.0412    2.7447    0.7911 C   0  0  0  0  0  0  0  0  0  0  0  0
   10.2330   -2.5093   -1.9413 N   0  0  0  0  0  0  0  0  0  0  0  0
    1.3811    3.1791    2.1944 N   0  0  0  0  0  0  0  0  0  0  0  0
    9.5221   -1.3473   -2.5798 C   0  0  0  0  0  0  0  0  0  0  0  0
    2.5285    2.3444    2.6968 C   0  0  0  0  0  0  0  0  0  0  0  0
   11.3821   -2.9427   -2.8175 C   0  0  0  0  0  0  0  0  0  0  0  0
    0.2178    3.0256    3.1341 C   0  0  0  0  0  0  0  0  0  0  0  0
  1  6  2  0  0  0  0
  2  3  2  0  0  0  0
  2  1  1  0  0  0  0
  3  4  1  0  0  0  0
  4 10  1  0  0  0  0
  4  5  2  0  0  0  0
  6  5  1  0  0  0  0
  7  1  1  0  0  0  0
  7 11  1  0  0  0  0
  8  7  2  0  0  0  0
  9 10  2  0  0  0  0
 10 12  1  0  0  0  0
 12 14  1  0  0  0  0
 13 11  1  0  0  0  0
 13 15  1  0  0  0  0
 14 16  1  0  0  0  0
 16 18  1  0  0  0  0
 17 15  1  0  0  0  0
 17 19  1  0  0  0  0
 18 20  1  0  0  0  0
 19 23  1  0  0  0  0
 20 22  1  0  0  0  0
 20 24  1  0  0  0  0
 21 19  1  0  0  0  0
M  END
>  <CHROM.1>
36.03644289,20.06861626,121.09277191,70.53506155,-113.51508904,-83.78342129
176.86887817,-179.50619284,-77.19203078,-91.75395349,4.61831779,-0.71425487
-1.08343422,0.59682646,0.41118020,-2.24691116

>  <Name>
lig.pdb

>  <RI>
1.09765e+07

>  <Rbt.Current_Directory>
/home/itssahil/PROJECTS/Mol_Feturizer/New_Systems/rnas/2l94

>  <Rbt.Executable>
rbdock ($Id: //depot/dev/client3/rdock/2013.1/src/exe/rbdock.cxx#4 $)

>  <Rbt.Library>
libRbt.so (2013.1, Build901 2013/11/27)

>  <Rbt.Parameter_File>
/export/apps/rDock/src/rDock_2013.1_src/data/scripts/dock_solv.prm

>  <Rbt.Receptor>
prm/pocket_docking_3.prm

>  <SCORE>
-15.6122

>  <SCORE.INTER>
-18.7033

>  <SCORE.INTER.CONST>
1

>  <SCORE.INTER.POLAR>
-2.4662

>  <SCORE.INTER.ROT>
10

>  <SCORE.INTER.SOLV>
14.0578

>  <SCORE.INTER.VDW>
-19.2008

>  <SCORE.INTER.norm>
-0.779302

>  <SCORE.INTRA>
2.90388

>  <SCORE.INTRA.DIHEDRAL>
13.3053

>  <SCORE.INTRA.DIHEDRAL.0>
7.52971

>  <SCORE.INTRA.POLAR>
0

>  <SCORE.INTRA.POLAR.0>
0

>  <SCORE.INTRA.REPUL>
0

>  <SCORE.INTRA.REPUL.0>
0

>  <SCORE.INTRA.SOLV>
0.393627

>  <SCORE.INTRA.SOLV.lig_0>
-22.1084

>  <SCORE.INTRA.VDW>
-3.9456

>  <SCORE.INTRA.VDW.0>
2.4256

>  <SCORE.INTRA.norm>
0.120995

>  <SCORE.RESTR>
0.187177

>  <SCORE.RESTR.CAVITY>
0.187177

>  <SCORE.RESTR.norm>
0.00779904

>  <SCORE.SYSTEM>
0

>  <SCORE.SYSTEM.CONST>
0

>  <SCORE.SYSTEM.DIHEDRAL>
0

>  <SCORE.SYSTEM.SOLV>
0

>  <SCORE.SYSTEM.norm>
0

>  <SCORE.heavy>
24

>  <SCORE.norm>
-0.650508

>  <RMSD>
2.416

$$$$
lig.pdb
 OpenBabel11021811453D
libRbt.so/2013.1/901 2013/11/27
 24 24  0  0  0  0  0  0  0  0999 V2000
    5.1011   -2.2489   -2.7888 C   0  0  0  0  0  0  0  0  0  0  0  0
    4.4613   -1.3486   -3.7060 C   0  0  0  0  0  0  0  0  0  0  0  0
    3.3857   -0.5782   -3.3321 C   0  0  0  0  0  0  0  0  0  0  0  0
    2.8516   -0.6248   -2.0047 C   0  0  0  0  0  0  0  0  0  0  0  0
    3.4701   -1.5490   -1.0996 C   0  0  0  0  0  0  0  0  0  0  0  0
    4.5388   -2.3244   -1.4741 C   0  0  0  0  0  0  0  0  0  0  0  0
    6.1895   -2.9947   -3.1405 C   0  0  0  0  0  0  0  0  0  0  0  0
    6.9105   -2.7545   -4.2566 N   0  0  0  0  0  0  0  0  0  0  0  0
    1.0697    0.8973   -2.4697 N   0  0  0  0  0  0  0  0  0  0  0  0
    1.8085    0.1612   -1.6126 C   0  0  0  0  0  0  0  0  0  0  0  0
    6.6319   -4.0340   -2.3900 N   0  0  0  0  0  0  0  0  0  0  0  0
    1.4247    0.2709   -0.3186 N   0  0  0  0  0  0  0  0  0  0  0  0
    8.0229   -4.4329   -2.1841 C   0  0  0  0  0  0  0  0  0  0  0  0
    0.1123    0.6972    0.1573 C   0  0  0  0  0  0  0  0  0  0  0  0
    8.3000   -4.4263   -0.6721 C   0  0  0  0  0  0  0  0  0  0  0  0
    0.1381    2.2298    0.3066 C   0  0  0  0  0  0  0  0  0  0  0  0
    9.0646   -3.1608   -0.2598 C   0  0  0  0  0  0  0  0  0  0  0  0
   -1.0237    2.7624    1.1647 C   0  0  0  0  0  0  0  0  0  0  0  0
    8.1261   -1.9816   -0.2850 N   0  0  0  0  0  0  0  0  0  0  0  0
   -0.7997    2.4893    2.6305 N   0  0  0  0  0  0  0  0  0  0  0  0
    8.3335   -1.1875   -1.5459 C   0  0  0  0  0  0  0  0  0  0  0  0
   -2.0456    2.8597    3.3896 C   0  0  0  0  0  0  0  0  0  0  0  0
    8.3464   -1.0933    0.9143 C   0  0  0  0  0  0  0  0  0  0  0  0
    0.3592    3.2711    3.1834 C   0  0  0  0  0  0  0  0  0  0  0  0
  1  6  2  0  0  0  0
  2  3  2  0  0  0  0
  2  1  1  0  0  0  0
  3  4  1  0  0  0  0
  4 10  1  0  0  0  0
  4  5  2  0  0  0  0
  6  5  1  0  0  0  0
  7  1  1  0  0  0  0
  7 11  1  0  0  0  0
  8  7  2  0  0  0  0
  9 10  2  0  0  0  0
 10 12  1  0  0  0  0
 12 14  1  0  0  0  0
 13 11  1  0  0  0  0
 13 15  1  0  0  0  0
 14 16  1  0  0  0  0
 16 18  1  0  0  0  0
 17 15  1  0  0  0  0
 17 19  1  0  0  0  0
 18 20  1  0  0  0  0
 19 23  1  0  0  0  0
 20 22  1  0  0  0  0
 20 24  1  0  0  0  0
 21 19  1  0  0  0  0
M  END
>  <CHROM.1>
9.92518181,13.95743937,-89.05272388,122.99019833,-101.45653207,-163.73532273
74.79769865,73.97129781,-100.78502142,-172.29443011,3.94234563,-0.75779726
-0.84616075,0.50643467,0.43845586,-1.92811036

>  <Name>
lig.pdb

>  <RI>
1.09765e+07

>  <Rbt.Current_Directory>
/home/itssahil/PROJECTS/Mol_Feturizer/New_Systems/rnas/2l94

>  <Rbt.Executable>
rbdock ($Id: //depot/dev/client3/rdock/2013.1/src/exe/rbdock.cxx#4 $)

>  <Rbt.Library>
libRbt.so (2013.1, Build901 2013/11/27)

>  <Rbt.Parameter_File>
/export/apps/rDock/src/rDock_2013.1_src/data/scripts/dock_solv.prm

>  <Rbt.Receptor>
prm/pocket_docking_3.prm

>  <SCORE>
-13.1354

>  <SCORE.INTER>
-14.2602

>  <SCORE.INTER.CONST>
1

>  <SCORE.INTER.POLAR>
-1.76977

>  <SCORE.INTER.ROT>
10

>  <SCORE.INTER.SOLV>
11.5139

>  <SCORE.INTER.VDW>
-17.7122

>  <SCORE.INTER.norm>
-0.594173

>  <SCORE.INTRA>
1.12124

>  <SCORE.INTRA.DIHEDRAL>
8.08859

>  <SCORE.INTRA.DIHEDRAL.0>
7.52971

>  <SCORE.INTRA.POLAR>
0

>  <SCORE.INTRA.POLAR.0>
0

>  <SCORE.INTRA.REPUL>
0

>  <SCORE.INTRA.REPUL.0>
0

>  <SCORE.INTRA.SOLV>
1.24846

>  <SCORE.INTRA.SOLV.lig_0>
-22.1084

>  <SCORE.INTRA.VDW>
-3.54728

>  <SCORE.INTRA.VDW.0>
2.4256

>  <SCORE.INTRA.norm>
0.0467183

>  <SCORE.RESTR>
0.00356335

>  <SCORE.RESTR.CAVITY>
0.00356335

>  <SCORE.RESTR.norm>
0.000148473

>  <SCORE.SYSTEM>
0

>  <SCORE.SYSTEM.CONST>
0

>  <SCORE.SYSTEM.DIHEDRAL>
0

>  <SCORE.SYSTEM.SOLV>
0

>  <SCORE.SYSTEM.norm>
0

>  <SCORE.heavy>
24

>  <SCORE.norm>
-0.547307

>  <RMSD>
2.422

$$$$
lig.pdb
 OpenBabel11021811453D
libRbt.so/2013.1/901 2013/11/27
 24 24  0  0  0  0  0  0  0  0999 V2000
    3.0907   -0.5995   -2.0965 C   0  0  0  0  0  0  0  0  0  0  0  0
    3.4443   -1.7218   -1.2740 C   0  0  0  0  0  0  0  0  0  0  0  0
    4.5807   -2.4597   -1.5066 C   0  0  0  0  0  0  0  0  0  0  0  0
    5.4784   -2.1427   -2.5757 C   0  0  0  0  0  0  0  0  0  0  0  0
    5.1067   -1.0426   -3.4167 C   0  0  0  0  0  0  0  0  0  0  0  0
    3.9682   -0.3102   -3.1904 C   0  0  0  0  0  0  0  0  0  0  0  0
    1.9815    0.1595   -1.8550 C   0  0  0  0  0  0  0  0  0  0  0  0
    1.0959   -0.1307   -0.8779 N   0  0  0  0  0  0  0  0  0  0  0  0
    7.5901   -2.4471   -3.6510 N   0  0  0  0  0  0  0  0  0  0  0  0
    6.6268   -2.8452   -2.7933 C   0  0  0  0  0  0  0  0  0  0  0  0
    1.6874    1.2680   -2.5787 N   0  0  0  0  0  0  0  0  0  0  0  0
    6.8980   -4.0123   -2.1621 N   0  0  0  0  0  0  0  0  0  0  0  0
    1.0671    2.4953   -2.0834 C   0  0  0  0  0  0  0  0  0  0  0  0
    8.2198   -4.6017   -1.9721 C   0  0  0  0  0  0  0  0  0  0  0  0
    1.9633    3.0654   -0.9722 C   0  0  0  0  0  0  0  0  0  0  0  0
    8.7442   -4.1533   -0.5953 C   0  0  0  0  0  0  0  0  0  0  0  0
    1.6588    2.3969    0.3756 C   0  0  0  0  0  0  0  0  0  0  0  0
    9.3859   -2.7545   -0.6310 C   0  0  0  0  0  0  0  0  0  0  0  0
    2.6189    2.9141    1.4160 N   0  0  0  0  0  0  0  0  0  0  0  0
   10.8479   -2.8253   -0.9932 N   0  0  0  0  0  0  0  0  0  0  0  0
    4.0189    2.4721    1.0873 C   0  0  0  0  0  0  0  0  0  0  0  0
   11.5570   -1.6459   -0.3836 C   0  0  0  0  0  0  0  0  0  0  0  0
    2.2414    2.4184    2.7900 C   0  0  0  0  0  0  0  0  0  0  0  0
   11.0661   -2.8108   -2.4805 C   0  0  0  0  0  0  0  0  0  0  0  0
  1  6  2  0  0  0  0
  2  3  2  0  0  0  0
  2  1  1  0  0  0  0
  3  4  1  0  0  0  0
  4 10  1  0  0  0  0
  4  5  2  0  0  0  0
  6  5  1  0  0  0  0
  7  1  1  0  0  0  0
  7 11  1  0  0  0  0
  8  7  2  0  0  0  0
  9 10  2  0  0  0  0
 10 12  1  0  0  0  0
 12 14  1  0  0  0  0
 13 11  1  0  0  0  0
 13 15  1  0  0  0  0
 14 16  1  0  0  0  0
 16 18  1  0  0  0  0
 17 15  1  0  0  0  0
 17 19  1  0  0  0  0
 18 20  1  0  0  0  0
 19 23  1  0  0  0  0
 20 22  1  0  0  0  0
 20 24  1  0  0  0  0
 21 19  1  0  0  0  0
M  END
>  <CHROM.1>
-169.23363015,-3.89938067,93.93192561,58.92464451,-83.89780395,-82.73837293
-87.34185485,176.18654409,-65.98125935,-152.44632616,5.25598251,-0.77854412
-1.30424268,2.64521954,-0.36180302,0.83475447

>  <Name>
lig.pdb

>  <RI>
1.09765e+07

>  <Rbt.Current_Directory>
/home/itssahil/PROJECTS/Mol_Feturizer/New_Systems/rnas/2l94

>  <Rbt.Executable>
rbdock ($Id: //depot/dev/client3/rdock/2013.1/src/exe/rbdock.cxx#4 $)

>  <Rbt.Library>
libRbt.so (2013.1, Build901 2013/11/27)

>  <Rbt.Parameter_File>
/export/apps/rDock/src/rDock_2013.1_src/data/scripts/dock_solv.prm

>  <Rbt.Receptor>
prm/pocket_docking_3.prm

>  <SCORE>
-25.4126

>  <SCORE.INTER>
-26.3467

>  <SCORE.INTER.CONST>
1

>  <SCORE.INTER.POLAR>
-3.94906

>  <SCORE.INTER.ROT>
10

>  <SCORE.INTER.SOLV>
12.0409

>  <SCORE.INTER.VDW>
-18.6812

>  <SCORE.INTER.norm>
-1.09778

>  <SCORE.INTRA>
0.886301

>  <SCORE.INTRA.DIHEDRAL>
5.48701

>  <SCORE.INTRA.DIHEDRAL.0>
7.52971

>  <SCORE.INTRA.POLAR>
0

>  <SCORE.INTRA.POLAR.0>
0

>  <SCORE.INTRA.REPUL>
0

>  <SCORE.INTRA.REPUL.0>
0

>  <SCORE.INTRA.SOLV>
1.46254

>  <SCORE.INTRA.SOLV.lig_0>
-22.1084

>  <SCORE.INTRA.VDW>
-2.58848

>  <SCORE.INTRA.VDW.0>
2.4256

>  <SCORE.INTRA.norm>
0.0369292

>  <SCORE.RESTR>
0.0477832

>  <SCORE.RESTR.CAVITY>
0.0477832

>  <SCORE.RESTR.norm>
0.00199097

>  <SCORE.SYSTEM>
0

>  <SCORE.SYSTEM.CONST>
0

>  <SCORE.SYSTEM.DIHEDRAL>
0

>  <SCORE.SYSTEM.SOLV>
0

>  <SCORE.SYSTEM.norm>
0

>  <SCORE.heavy>
24

>  <SCORE.norm>
-1.05886

>  <RMSD>
2.443

$$$$
lig.pdb
 OpenBabel11021811453D
libRbt.so/2013.1/901 2013/11/27
 24 24  0  0  0  0  0  0  0  0999 V2000
    7.9926   -2.0406   -1.8425 C   0  0  0  0  0  0  0  0  0  0  0  0
    7.2555   -1.1417   -0.9999 C   0  0  0  0  0  0  0  0  0  0  0  0
    6.0684   -0.5794   -1.4055 C   0  0  0  0  0  0  0  0  0  0  0  0
    5.4977   -0.8675   -2.6864 C   0  0  0  0  0  0  0  0  0  0  0  0
    6.2516   -1.7387   -3.5399 C   0  0  0  0  0  0  0  0  0  0  0  0
    7.4409   -2.2943   -3.1392 C   0  0  0  0  0  0  0  0  0  0  0  0
    9.1561   -2.6294   -1.4371 C   0  0  0  0  0  0  0  0  0  0  0  0
    9.7137   -3.6717   -2.0896 N   0  0  0  0  0  0  0  0  0  0  0  0
    3.8222   -0.4612   -4.3404 N   0  0  0  0  0  0  0  0  0  0  0  0
    4.3031   -0.3442   -3.0846 C   0  0  0  0  0  0  0  0  0  0  0  0
    9.8433   -2.2069   -0.3470 N   0  0  0  0  0  0  0  0  0  0  0  0
    3.4931    0.3444   -2.2456 N   0  0  0  0  0  0  0  0  0  0  0  0
   11.2958   -2.1800   -0.1867 C   0  0  0  0  0  0  0  0  0  0  0  0
    2.0585    0.5546   -2.4131 C   0  0  0  0  0  0  0  0  0  0  0  0
   11.7744   -0.7404   -0.4351 C   0  0  0  0  0  0  0  0  0  0  0  0
    1.3504    0.0041   -1.1611 C   0  0  0  0  0  0  0  0  0  0  0  0
   13.1775   -0.7282   -1.0573 C   0  0  0  0  0  0  0  0  0  0  0  0
    1.5101    0.9229    0.0637 C   0  0  0  0  0  0  0  0  0  0  0  0
   14.2089   -0.8072    0.0390 N   0  0  0  0  0  0  0  0  0  0  0  0
    0.8470    2.2590   -0.1564 N   0  0  0  0  0  0  0  0  0  0  0  0
   14.1525    0.4341    0.8872 C   0  0  0  0  0  0  0  0  0  0  0  0
    1.9123    3.3134   -0.2932 C   0  0  0  0  0  0  0  0  0  0  0  0
   15.5946   -0.9640   -0.5366 C   0  0  0  0  0  0  0  0  0  0  0  0
   -0.0674    2.6330    0.9767 C   0  0  0  0  0  0  0  0  0  0  0  0
  1  6  2  0  0  0  0
  2  3  2  0  0  0  0
  2  1  1  0  0  0  0
  3  4  1  0  0  0  0
  4 10  1  0  0  0  0
  4  5  2  0  0  0  0
  6  5  1  0  0  0  0
  7  1  1  0  0  0  0
  7 11  1  0  0  0  0
  8  7  2  0  0  0  0
  9 10  2  0  0  0  0
 10 12  1  0  0  0  0
 12 14  1  0  0  0  0
 13 11  1  0  0  0  0
 13 15  1  0  0  0  0
 14 16  1  0  0  0  0
 16 18  1  0  0  0  0
 17 15  1  0  0  0  0
 17 19  1  0  0  0  0
 18 20  1  0  0  0  0
 19 23  1  0  0  0  0
 20 22  1  0  0  0  0
 20 24  1  0  0  0  0
 21 19  1  0  0  0  0
M  END
>  <CHROM.1>
171.43137580,166.03900265,122.74646020,100.19248944,-148.05023659,75.09410874
64.10624574,-85.33159271,-65.43240471,-109.97885843,7.04311557,-0.49896317
-1.27210063,0.11565319,0.19656452,-2.34930707

>  <Name>
lig.pdb

>  <RI>
1.09765e+07

>  <Rbt.Current_Directory>
/home/itssahil/PROJECTS/Mol_Feturizer/New_Systems/rnas/2l94

>  <Rbt.Executable>
rbdock ($Id: //depot/dev/client3/rdock/2013.1/src/exe/rbdock.cxx#4 $)

>  <Rbt.Library>
libRbt.so (2013.1, Build901 2013/11/27)

>  <Rbt.Parameter_File>
/export/apps/rDock/src/rDock_2013.1_src/data/scripts/dock_solv.prm

>  <Rbt.Receptor>
prm/pocket_docking_3.prm

>  <SCORE>
-12.8577

>  <SCORE.INTER>
-14.9834

>  <SCORE.INTER.CONST>
1

>  <SCORE.INTER.POLAR>
-2.70355

>  <SCORE.INTER.ROT>
10

>  <SCORE.INTER.SOLV>
8.32543

>  <SCORE.INTER.VDW>
-14.0189

>  <SCORE.INTER.norm>
-0.62431

>  <SCORE.INTRA>
2.12319

>  <SCORE.INTRA.DIHEDRAL>
7.82321

>  <SCORE.INTRA.DIHEDRAL.0>
7.52971

>  <SCORE.INTRA.POLAR>
0

>  <SCORE.INTRA.POLAR.0>
0

>  <SCORE.INTRA.REPUL>
0

>  <SCORE.INTRA.REPUL.0>
0

>  <SCORE.INTRA.SOLV>
0.293453

>  <SCORE.INTRA.SOLV.lig_0>
-22.1084

>  <SCORE.INTRA.VDW>
-1.93514

>  <SCORE.INTRA.VDW.0>
2.4256

>  <SCORE.INTRA.norm>
0.0884663

>  <SCORE.RESTR>
0.00253343

>  <SCORE.RESTR.CAVITY>
0.00253343

>  <SCORE.RESTR.norm>
0.000105559

>  <SCORE.SYSTEM>
0

>  <SCORE.SYSTEM.CONST>
0

>  <SCORE.SYSTEM.DIHEDRAL>
0

>  <SCORE.SYSTEM.SOLV>
0

>  <SCORE.SYSTEM.norm>
0

>  <SCORE.heavy>
24

>  <SCORE.norm>
-0.535739

>  <RMSD>
2.486

$$$$
lig.pdb
 OpenBabel11021811453D
libRbt.so/2013.1/901 2013/11/27
 24 24  0  0  0  0  0  0  0  0999 V2000
    8.0104   -1.9884   -1.7920 C   0  0  0  0  0  0  0  0  0  0  0  0
    7.6008   -0.7353   -1.2237 C   0  0  0  0  0  0  0  0  0  0  0  0
    6.4399   -0.1097   -1.6124 C   0  0  0  0  0  0  0  0  0  0  0  0
    5.5715   -0.6790   -2.5977 C   0  0  0  0  0  0  0  0  0  0  0  0
    5.9987   -1.9136   -3.1886 C   0  0  0  0  0  0  0  0  0  0  0  0
    7.1615   -2.5350   -2.8072 C   0  0  0  0  0  0  0  0  0  0  0  0
    9.1448   -2.6339   -1.3904 C   0  0  0  0  0  0  0  0  0  0  0  0
    9.6607   -3.6886   -2.0571 N   0  0  0  0  0  0  0  0  0  0  0  0
    3.7057   -0.4311   -4.0694 N   0  0  0  0  0  0  0  0  0  0  0  0
    4.3998   -0.0855   -2.9644 C   0  0  0  0  0  0  0  0  0  0  0  0
    9.8432   -2.2597   -0.2897 N   0  0  0  0  0  0  0  0  0  0  0  0
    3.8307    0.9104   -2.2444 N   0  0  0  0  0  0  0  0  0  0  0  0
   11.2945   -2.2985   -0.1212 C   0  0  0  0  0  0  0  0  0  0  0  0
    2.4245    1.3005   -2.2756 C   0  0  0  0  0  0  0  0  0  0  0  0
   11.7120   -1.0598    0.6877 C   0  0  0  0  0  0  0  0  0  0  0  0
    1.6307    0.2754   -1.4445 C   0  0  0  0  0  0  0  0  0  0  0  0
   13.2153   -1.0868    0.9963 C   0  0  0  0  0  0  0  0  0  0  0  0
    0.3741    0.8829   -0.7950 C   0  0  0  0  0  0  0  0  0  0  0  0
   13.5442    0.0179    1.9674 N   0  0  0  0  0  0  0  0  0  0  0  0
    0.7326    1.8690    0.2879 N   0  0  0  0  0  0  0  0  0  0  0  0
   13.4372    1.3528    1.2817 C   0  0  0  0  0  0  0  0  0  0  0  0
    1.3000    1.1167    1.4616 C   0  0  0  0  0  0  0  0  0  0  0  0
   14.9349   -0.1536    2.5264 C   0  0  0  0  0  0  0  0  0  0  0  0
   -0.4568    2.6654    0.7475 C   0  0  0  0  0  0  0  0  0  0  0  0
  1  6  2  0  0  0  0
  2  3  2  0  0  0  0
  2  1  1  0  0  0  0
  3  4  1  0  0  0  0
  4 10  1  0  0  0  0
  4  5  2  0  0  0  0
  6  5  1  0  0  0  0
  7  1  1  0  0  0  0
  7 11  1  0  0  0  0
  8  7  2  0  0  0  0
  9 10  2  0  0  0  0
 10 12  1  0  0  0  0
 12 14  1  0  0  0  0
 13 11  1  0  0  0  0
 13 15  1  0  0  0  0
 14 16  1  0  0  0  0
 16 18  1  0  0  0  0
 17 15  1  0  0  0  0
 17 19  1  0  0  0  0
 18 20  1  0  0  0  0
 19 23  1  0  0  0  0
 20 22  1  0  0  0  0
 20 24  1  0  0  0  0
 21 19  1  0  0  0  0
M  END
>  <CHROM.1>
165.46896509,-168.76028770,77.42754684,142.45950289,175.72033913,150.52078290
-68.69240727,-171.09303147,-70.95174851,-70.45978604,6.90349953,-0.42818348
-0.81078196,-0.01699383,0.24129850,-2.23682746

>  <Name>
lig.pdb

>  <RI>
1.09765e+07

>  <Rbt.Current_Directory>
/home/itssahil/PROJECTS/Mol_Feturizer/New_Systems/rnas/2l94

>  <Rbt.Executable>
rbdock ($Id: //depot/dev/client3/rdock/2013.1/src/exe/rbdock.cxx#4 $)

>  <Rbt.Library>
libRbt.so (2013.1, Build901 2013/11/27)

>  <Rbt.Parameter_File>
/export/apps/rDock/src/rDock_2013.1_src/data/scripts/dock_solv.prm

>  <Rbt.Receptor>
prm/pocket_docking_3.prm

>  <SCORE>
-19.3844

>  <SCORE.INTER>
-20.1042

>  <SCORE.INTER.CONST>
1

>  <SCORE.INTER.POLAR>
-3.70377

>  <SCORE.INTER.ROT>
10

>  <SCORE.INTER.SOLV>
8.15719

>  <SCORE.INTER.VDW>
-14.0426

>  <SCORE.INTER.norm>
-0.837675

>  <SCORE.INTRA>
-0.0995996

>  <SCORE.INTRA.DIHEDRAL>
2.49578

>  <SCORE.INTRA.DIHEDRAL.0>
7.52971

>  <SCORE.INTRA.POLAR>
0

>  <SCORE.INTRA.POLAR.0>
0

>  <SCORE.INTRA.REPUL>
0

>  <SCORE.INTRA.REPUL.0>
0

>  <SCORE.INTRA.SOLV>
-0.0398596

>  <SCORE.INTRA.SOLV.lig_0>
-22.1084

>  <SCORE.INTRA.VDW>
-1.32756

>  <SCORE.INTRA.VDW.0>
2.4256

>  <SCORE.INTRA.norm>
-0.00414998

>  <SCORE.RESTR>
0.819389

>  <SCORE.RESTR.CAVITY>
0.819389

>  <SCORE.RESTR.norm>
0.0341412

>  <SCORE.SYSTEM>
0

>  <SCORE.SYSTEM.CONST>
0

>  <SCORE.SYSTEM.DIHEDRAL>
0

>  <SCORE.SYSTEM.SOLV>
0

>  <SCORE.SYSTEM.norm>
0

>  <SCORE.heavy>
24

>  <SCORE.norm>
-0.807684

>  <RMSD>
2.516

$$$$
lig.pdb
 OpenBabel11021811453D
libRbt.so/2013.1/901 2013/11/27
 24 24  0  0  0  0  0  0  0  0999 V2000
    5.3519   -0.9786   -2.7864 C   0  0  0  0  0  0  0  0  0  0  0  0
    5.7979   -0.7972   -1.4340 C   0  0  0  0  0  0  0  0  0  0  0  0
    6.9546   -1.3773   -0.9696 C   0  0  0  0  0  0  0  0  0  0  0  0
    7.7823   -2.1858   -1.8126 C   0  0  0  0  0  0  0  0  0  0  0  0
    7.3182   -2.3937   -3.1532 C   0  0  0  0  0  0  0  0  0  0  0  0
    6.1594   -1.8216   -3.6155 C   0  0  0  0  0  0  0  0  0  0  0  0
    4.2218   -0.3812   -3.2667 C   0  0  0  0  0  0  0  0  0  0  0  0
    3.9389   -0.3053   -4.5848 N   0  0  0  0  0  0  0  0  0  0  0  0
    9.5431   -3.7933   -1.9672 N   0  0  0  0  0  0  0  0  0  0  0  0
    8.9500   -2.7361   -1.3731 C   0  0  0  0  0  0  0  0  0  0  0  0
    3.2935    0.1793   -2.4523 N   0  0  0  0  0  0  0  0  0  0  0  0
    9.6170   -2.2643   -0.2931 N   0  0  0  0  0  0  0  0  0  0  0  0
    1.8461    0.1895   -2.6548 C   0  0  0  0  0  0  0  0  0  0  0  0
   11.0337   -2.4613   -0.0021 C   0  0  0  0  0  0  0  0  0  0  0  0
    1.1730    0.1175   -1.2747 C   0  0  0  0  0  0  0  0  0  0  0  0
   11.8228   -1.3498   -0.7188 C   0  0  0  0  0  0  0  0  0  0  0  0
    0.8597    1.5228   -0.7428 C   0  0  0  0  0  0  0  0  0  0  0  0
   13.3440   -1.5831   -0.6817 C   0  0  0  0  0  0  0  0  0  0  0  0
    0.1816    1.4078    0.5984 N   0  0  0  0  0  0  0  0  0  0  0  0
   14.1033   -0.3525   -1.1092 N   0  0  0  0  0  0  0  0  0  0  0  0
   -0.5709    2.6744    0.9032 C   0  0  0  0  0  0  0  0  0  0  0  0
   13.9310   -0.1664   -2.5928 C   0  0  0  0  0  0  0  0  0  0  0  0
    1.1891    1.1428    1.6896 C   0  0  0  0  0  0  0  0  0  0  0  0
   15.5703   -0.4531   -0.7969 C   0  0  0  0  0  0  0  0  0  0  0  0
  1  6  2  0  0  0  0
  2  3  2  0  0  0  0
  2  1  1  0  0  0  0
  3  4  1  0  0  0  0
  4 10  1  0  0  0  0
  4  5  2  0  0  0  0
  6  5  1  0  0  0  0
  7  1  1  0  0  0  0
  7 11  1  0  0  0  0
  8  7  2  0  0  0  0
  9 10  2  0  0  0  0
 10 12  1  0  0  0  0
 12 14  1  0  0  0  0
 13 11  1  0  0  0  0
 13 15  1  0  0  0  0
 14 16  1  0  0  0  0
 16 18  1  0  0  0  0
 17 15  1  0  0  0  0
 17 19  1  0  0  0  0
 18 20  1  0  0  0  0
 19 23  1  0  0  0  0
 20 22  1  0  0  0  0
 20 24  1  0  0  0  0
 21 19  1  0  0  0  0
M  END
>  <CHROM.1>
159.58809805,165.61295878,86.37536355,146.36730303,93.22669793,-170.46071401
-167.35225979,179.06977297,-159.37982304,-71.86681842,6.82211813,-0.71736026
-1.42920774,3.01536572,-0.15807130,1.05777087

>  <Name>
lig.pdb

>  <RI>
1.09765e+07

>  <Rbt.Current_Directory>
/home/itssahil/PROJECTS/Mol_Feturizer/New_Systems/rnas/2l94

>  <Rbt.Executable>
rbdock ($Id: //depot/dev/client3/rdock/2013.1/src/exe/rbdock.cxx#4 $)

>  <Rbt.Library>
libRbt.so (2013.1, Build901 2013/11/27)

>  <Rbt.Parameter_File>
/export/apps/rDock/src/rDock_2013.1_src/data/scripts/dock_solv.prm

>  <Rbt.Receptor>
prm/pocket_docking_3.prm

>  <SCORE>
-15.9209

>  <SCORE.INTER>
-16.3601

>  <SCORE.INTER.CONST>
1

>  <SCORE.INTER.POLAR>
-2.71277

>  <SCORE.INTER.ROT>
10

>  <SCORE.INTER.SOLV>
9.44222

>  <SCORE.INTER.VDW>
-15.2782

>  <SCORE.INTER.norm>
-0.68167

>  <SCORE.INTRA>
0.439208

>  <SCORE.INTRA.DIHEDRAL>
4.98584

>  <SCORE.INTRA.DIHEDRAL.0>
7.52971

>  <SCORE.INTRA.POLAR>
0

>  <SCORE.INTRA.POLAR.0>
0

>  <SCORE.INTRA.REPUL>
0

>  <SCORE.INTRA.REPUL.0>
0

>  <SCORE.INTRA.SOLV>
-0.114437

>  <SCORE.INTRA.SOLV.lig_0>
-22.1084

>  <SCORE.INTRA.VDW>
-1.99649

>  <SCORE.INTRA.VDW.0>
2.4256

>  <SCORE.INTRA.norm>
0.0183003

>  <SCORE.RESTR>
0

>  <SCORE.RESTR.CAVITY>
0

>  <SCORE.RESTR.norm>
0

>  <SCORE.SYSTEM>
0

>  <SCORE.SYSTEM.CONST>
0

>  <SCORE.SYSTEM.DIHEDRAL>
0

>  <SCORE.SYSTEM.SOLV>
0

>  <SCORE.SYSTEM.norm>
0

>  <SCORE.heavy>
24

>  <SCORE.norm>
-0.663369

>  <RMSD>
2.526

$$$$
lig.pdb
 OpenBabel11021811453D
libRbt.so/2013.1/901 2013/11/27
 24 24  0  0  0  0  0  0  0  0999 V2000
    5.5503   -2.2384   -2.6029 C   0  0  0  0  0  0  0  0  0  0  0  0
    4.6364   -2.6230   -1.5646 C   0  0  0  0  0  0  0  0  0  0  0  0
    3.5120   -1.8847   -1.2805 C   0  0  0  0  0  0  0  0  0  0  0  0
    3.1863   -0.6976   -2.0113 C   0  0  0  0  0  0  0  0  0  0  0  0
    4.1173   -0.2963   -3.0252 C   0  0  0  0  0  0  0  0  0  0  0  0
    5.2444   -1.0282   -3.3043 C   0  0  0  0  0  0  0  0  0  0  0  0
    6.6527   -2.9816   -2.9145 C   0  0  0  0  0  0  0  0  0  0  0  0
    7.4672   -2.6826   -3.9490 N   0  0  0  0  0  0  0  0  0  0  0  0
    1.1783   -0.2865   -0.7835 N   0  0  0  0  0  0  0  0  0  0  0  0
    2.0551    0.0222   -1.7624 C   0  0  0  0  0  0  0  0  0  0  0  0
    7.0156   -4.0774   -2.2028 N   0  0  0  0  0  0  0  0  0  0  0  0
    1.7134    1.1158   -2.4844 N   0  0  0  0  0  0  0  0  0  0  0  0
    8.3785   -4.5179   -1.9117 C   0  0  0  0  0  0  0  0  0  0  0  0
    0.8165    2.1847   -2.0562 C   0  0  0  0  0  0  0  0  0  0  0  0
    8.9205   -3.6557   -0.7603 C   0  0  0  0  0  0  0  0  0  0  0  0
    1.5357    2.9959   -0.9623 C   0  0  0  0  0  0  0  0  0  0  0  0
    9.0136   -2.1809   -1.1757 C   0  0  0  0  0  0  0  0  0  0  0  0
    1.4183    2.3498    0.4300 C   0  0  0  0  0  0  0  0  0  0  0  0
    9.4977   -1.3637   -0.0054 N   0  0  0  0  0  0  0  0  0  0  0  0
    2.3766    2.9743    1.4125 N   0  0  0  0  0  0  0  0  0  0  0  0
    8.3851   -1.1859    0.9916 C   0  0  0  0  0  0  0  0  0  0  0  0
    3.7829    2.6125    1.0163 C   0  0  0  0  0  0  0  0  0  0  0  0
    9.9901   -0.0121   -0.4602 C   0  0  0  0  0  0  0  0  0  0  0  0
    2.1309    2.5080    2.8204 C   0  0  0  0  0  0  0  0  0  0  0  0
  1  6  2  0  0  0  0
  2  3  2  0  0  0  0
  2  1  1  0  0  0  0
  3  4  1  0  0  0  0
  4 10  1  0  0  0  0
  4  5  2  0  0  0  0
  6  5  1  0  0  0  0
  7  1  1  0  0  0  0
  7 11  1  0  0  0  0
  8  7  2  0  0  0  0
  9 10  2  0  0  0  0
 10 12  1  0  0  0  0
 12 14  1  0  0  0  0
 13 11  1  0  0  0  0
 13 15  1  0  0  0  0
 14 16  1  0  0  0  0
 16 18  1  0  0  0  0
 17 15  1  0  0  0  0
 17 19  1  0  0  0  0
 18 20  1  0  0  0  0
 19 23  1  0  0  0  0
 20 22  1  0  0  0  0
 20 24  1  0  0  0  0
 21 19  1  0  0  0  0
M  END
>  <CHROM.1>
2.59720077,175.18213992,70.82279230,78.62317682,-63.42466238,-82.56194849
166.98027330,177.84845775,-75.42387395,-68.20510134,4.97081383,-0.58000490
-1.13180654,0.53467556,0.36709090,-2.31729461

>  <Name>
lig.pdb

>  <RI>
1.09765e+07

>  <Rbt.Current_Directory>
/home/itssahil/PROJECTS/Mol_Feturizer/New_Systems/rnas/2l94

>  <Rbt.Executable>
rbdock ($Id: //depot/dev/client3/rdock/2013.1/src/exe/rbdock.cxx#4 $)

>  <Rbt.Library>
libRbt.so (2013.1, Build901 2013/11/27)

>  <Rbt.Parameter_File>
/export/apps/rDock/src/rDock_2013.1_src/data/scripts/dock_solv.prm

>  <Rbt.Receptor>
prm/pocket_docking_3.prm

>  <SCORE>
-18.7099

>  <SCORE.INTER>
-17.8166

>  <SCORE.INTER.CONST>
1

>  <SCORE.INTER.POLAR>
-2.92239

>  <SCORE.INTER.ROT>
10

>  <SCORE.INTER.SOLV>
10.9265

>  <SCORE.INTER.VDW>
-16.0453

>  <SCORE.INTER.norm>
-0.74236

>  <SCORE.INTRA>
-1.14462

>  <SCORE.INTRA.DIHEDRAL>
0.631744

>  <SCORE.INTRA.DIHEDRAL.0>
7.52971

>  <SCORE.INTRA.POLAR>
0

>  <SCORE.INTRA.POLAR.0>
0

>  <SCORE.INTRA.REPUL>
0

>  <SCORE.INTRA.REPUL.0>
0

>  <SCORE.INTRA.SOLV>
1.40035

>  <SCORE.INTRA.SOLV.lig_0>
-22.1084

>  <SCORE.INTRA.VDW>
-2.16067

>  <SCORE.INTRA.VDW.0>
2.4256

>  <SCORE.INTRA.norm>
-0.0476926

>  <SCORE.RESTR>
0.251352

>  <SCORE.RESTR.CAVITY>
0.251352

>  <SCORE.RESTR.norm>
0.010473

>  <SCORE.SYSTEM>
0

>  <SCORE.SYSTEM.CONST>
0

>  <SCORE.SYSTEM.DIHEDRAL>
0

>  <SCORE.SYSTEM.SOLV>
0

>  <SCORE.SYSTEM.norm>
0

>  <SCORE.heavy>
24

>  <SCORE.norm>
-0.77958

>  <RMSD>
2.540

$$$$
lig.pdb
 OpenBabel11021811453D
libRbt.so/2013.1/901 2013/11/27
 24 24  0  0  0  0  0  0  0  0999 V2000
    7.7549   -2.2673   -1.8162 C   0  0  0  0  0  0  0  0  0  0  0  0
    6.8544   -1.5696   -0.9424 C   0  0  0  0  0  0  0  0  0  0  0  0
    5.6893   -1.0053   -1.4052 C   0  0  0  0  0  0  0  0  0  0  0  0
    5.3060   -1.0914   -2.7818 C   0  0  0  0  0  0  0  0  0  0  0  0
    6.2226   -1.7591   -3.6592 C   0  0  0  0  0  0  0  0  0  0  0  0
    7.3899   -2.3158   -3.1998 C   0  0  0  0  0  0  0  0  0  0  0  0
    8.8986   -2.8588   -1.3614 C   0  0  0  0  0  0  0  0  0  0  0  0
    9.5204   -3.8556   -2.0268 N   0  0  0  0  0  0  0  0  0  0  0  0
    3.8699   -0.3850   -4.5558 N   0  0  0  0  0  0  0  0  0  0  0  0
    4.1354   -0.5670   -3.2448 C   0  0  0  0  0  0  0  0  0  0  0  0
    9.5000   -2.4850   -0.2048 N   0  0  0  0  0  0  0  0  0  0  0  0
    3.1334   -0.1802   -2.4201 N   0  0  0  0  0  0  0  0  0  0  0  0
   10.9370   -2.4440    0.0589 C   0  0  0  0  0  0  0  0  0  0  0  0
    1.7271   -0.0345   -2.7830 C   0  0  0  0  0  0  0  0  0  0  0  0
   11.4950   -1.1482   -0.5515 C   0  0  0  0  0  0  0  0  0  0  0  0
    1.1980    1.2506   -2.1194 C   0  0  0  0  0  0  0  0  0  0  0  0
   13.0011   -1.0199   -0.2845 C   0  0  0  0  0  0  0  0  0  0  0  0
    1.0062    1.0985   -0.5995 C   0  0  0  0  0  0  0  0  0  0  0  0
   13.5884    0.0005   -1.2257 N   0  0  0  0  0  0  0  0  0  0  0  0
    0.4201    2.3458    0.0120 N   0  0  0  0  0  0  0  0  0  0  0  0
   13.6008   -0.5427   -2.6287 C   0  0  0  0  0  0  0  0  0  0  0  0
    1.5249    3.3439    0.2328 C   0  0  0  0  0  0  0  0  0  0  0  0
   14.9922    0.3677   -0.8130 C   0  0  0  0  0  0  0  0  0  0  0  0
   -0.2583    2.0702    1.3249 C   0  0  0  0  0  0  0  0  0  0  0  0
  1  6  2  0  0  0  0
  2  3  2  0  0  0  0
  2  1  1  0  0  0  0
  3  4  1  0  0  0  0
  4 10  1  0  0  0  0
  4  5  2  0  0  0  0
  6  5  1  0  0  0  0
  7  1  1  0  0  0  0
  7 11  1  0  0  0  0
  8  7  2  0  0  0  0
  9 10  2  0  0  0  0
 10 12  1  0  0  0  0
 12 14  1  0  0  0  0
 13 11  1  0  0  0  0
 13 15  1  0  0  0  0
 14 16  1  0  0  0  0
 16 18  1  0  0  0  0
 17 15  1  0  0  0  0
 17 19  1  0  0  0  0
 18 20  1  0  0  0  0
 19 23  1  0  0  0  0
 20 22  1  0  0  0  0
 20 24  1  0  0  0  0
 21 19  1  0  0  0  0
M  END
>  <CHROM.1>
165.87005094,157.87548527,-138.30562827,80.18761069,178.68635923,-73.19802328
-177.01476317,162.76816077,-70.44812362,-81.47034547,6.74014920,-0.57386453
-1.51660718,0.16239538,0.15752112,-2.36747605

>  <Name>
lig.pdb

>  <RI>
1.09765e+07

>  <Rbt.Current_Directory>
/home/itssahil/PROJECTS/Mol_Feturizer/New_Systems/rnas/2l94

>  <Rbt.Executable>
rbdock ($Id: //depot/dev/client3/rdock/2013.1/src/exe/rbdock.cxx#4 $)

>  <Rbt.Library>
libRbt.so (2013.1, Build901 2013/11/27)

>  <Rbt.Parameter_File>
/export/apps/rDock/src/rDock_2013.1_src/data/scripts/dock_solv.prm

>  <Rbt.Receptor>
prm/pocket_docking_3.prm

>  <SCORE>
-16.9672

>  <SCORE.INTER>
-16.5741

>  <SCORE.INTER.CONST>
1

>  <SCORE.INTER.POLAR>
-2.71277

>  <SCORE.INTER.ROT>
10

>  <SCORE.INTER.SOLV>
9.84317

>  <SCORE.INTER.VDW>
-15.5546

>  <SCORE.INTER.norm>
-0.690588

>  <SCORE.INTRA>
-0.451962

>  <SCORE.INTRA.DIHEDRAL>
2.9982

>  <SCORE.INTRA.DIHEDRAL.0>
7.52971

>  <SCORE.INTRA.POLAR>
0

>  <SCORE.INTRA.POLAR.0>
0

>  <SCORE.INTRA.REPUL>
0

>  <SCORE.INTRA.REPUL.0>
0

>  <SCORE.INTRA.SOLV>
-0.0121312

>  <SCORE.INTRA.SOLV.lig_0>
-22.1084

>  <SCORE.INTRA.VDW>
-1.945

>  <SCORE.INTRA.VDW.0>
2.4256

>  <SCORE.INTRA.norm>
-0.0188318

>  <SCORE.RESTR>
0.0588672

>  <SCORE.RESTR.CAVITY>
0.0588672

>  <SCORE.RESTR.norm>
0.0024528

>  <SCORE.SYSTEM>
0

>  <SCORE.SYSTEM.CONST>
0

>  <SCORE.SYSTEM.DIHEDRAL>
0

>  <SCORE.SYSTEM.SOLV>
0

>  <SCORE.SYSTEM.norm>
0

>  <SCORE.heavy>
24

>  <SCORE.norm>
-0.706967

>  <RMSD>
2.555

$$$$
lig.pdb
 OpenBabel11021811453D
libRbt.so/2013.1/901 2013/11/27
 24 24  0  0  0  0  0  0  0  0999 V2000
    6.8313   -2.5500   -2.0496 C   0  0  0  0  0  0  0  0  0  0  0  0
    6.4495   -1.2173   -1.6764 C   0  0  0  0  0  0  0  0  0  0  0  0
    5.2493   -0.6724   -2.0672 C   0  0  0  0  0  0  0  0  0  0  0  0
    4.3108   -1.4081   -2.8591 C   0  0  0  0  0  0  0  0  0  0  0  0
    4.7079   -2.7264   -3.2592 C   0  0  0  0  0  0  0  0  0  0  0  0
    5.9093   -3.2685   -2.8765 C   0  0  0  0  0  0  0  0  0  0  0  0
    8.0066   -3.1122   -1.6404 C   0  0  0  0  0  0  0  0  0  0  0  0
    8.2205   -4.4454   -1.6473 N   0  0  0  0  0  0  0  0  0  0  0  0
    2.4200   -1.2925   -4.3151 N   0  0  0  0  0  0  0  0  0  0  0  0
    3.1022   -0.8909   -3.2217 C   0  0  0  0  0  0  0  0  0  0  0  0
    9.0523   -2.3704   -1.1986 N   0  0  0  0  0  0  0  0  0  0  0  0
    2.4811    0.0789   -2.5092 N   0  0  0  0  0  0  0  0  0  0  0  0
   10.4715   -2.6495   -1.4083 C   0  0  0  0  0  0  0  0  0  0  0  0
    1.0538    0.3836   -2.5314 C   0  0  0  0  0  0  0  0  0  0  0  0
   11.0100   -1.6326   -2.4276 C   0  0  0  0  0  0  0  0  0  0  0  0
    0.8391    1.7001   -1.7616 C   0  0  0  0  0  0  0  0  0  0  0  0
   12.5239   -1.4399   -2.2633 C   0  0  0  0  0  0  0  0  0  0  0  0
    1.2079    1.5836   -0.2715 C   0  0  0  0  0  0  0  0  0  0  0  0
   13.0105   -0.4346   -3.2755 N   0  0  0  0  0  0  0  0  0  0  0  0
    0.7654    2.7981    0.5048 N   0  0  0  0  0  0  0  0  0  0  0  0
   14.5143   -0.4388   -3.3209 C   0  0  0  0  0  0  0  0  0  0  0  0
    1.6409    2.9431    1.7205 C   0  0  0  0  0  0  0  0  0  0  0  0
   12.5185    0.9508   -2.9369 C   0  0  0  0  0  0  0  0  0  0  0  0
   -0.6686    2.6995    0.9450 C   0  0  0  0  0  0  0  0  0  0  0  0
  1  6  2  0  0  0  0
  2  3  2  0  0  0  0
  2  1  1  0  0  0  0
  3  4  1  0  0  0  0
  4 10  1  0  0  0  0
  4  5  2  0  0  0  0
  6  5  1  0  0  0  0
  7  1  1  0  0  0  0
  7 11  1  0  0  0  0
  8  7  2  0  0  0  0
  9 10  2  0  0  0  0
 10 12  1  0  0  0  0
 12 14  1  0  0  0  0
 13 11  1  0  0  0  0
 13 15  1  0  0  0  0
 14 16  1  0  0  0  0
 16 18  1  0  0  0  0
 17 15  1  0  0  0  0
 17 19  1  0  0  0  0
 18 20  1  0  0  0  0
 19 23  1  0  0  0  0
 20 22  1  0  0  0  0
 20 24  1  0  0  0  0
 21 19  1  0  0  0  0
M  END
>  <CHROM.1>
154.75599997,160.71118865,-170.50791507,107.65789286,155.45721696,-64.11626813
-170.01688296,-179.81408321,-168.54368984,-154.61192320,6.09036614,-0.66791056
-1.91259285,0.30070937,-0.02234280,-2.67121035

>  <Name>
lig.pdb

>  <RI>
0

>  <Rbt.Current_Directory>
/home/itssahil/PROJECTS/Mol_Feturizer/New_Systems/rnas/2l94

>  <Rbt.Executable>
rbdock ($Id: //depot/dev/client3/rdock/2013.1/src/exe/rbdock.cxx#4 $)

>  <Rbt.Library>
libRbt.so (2013.1, Build901 2013/11/27)

>  <Rbt.Parameter_File>
/export/apps/rDock/src/rDock_2013.1_src/data/scripts/dock_solv.prm

>  <Rbt.Receptor>
prm/pocket_docking_4.prm

>  <SCORE>
-15.3259

>  <SCORE.INTER>
-16.0813

>  <SCORE.INTER.CONST>
1

>  <SCORE.INTER.POLAR>
-1.51457

>  <SCORE.INTER.ROT>
10

>  <SCORE.INTER.SOLV>
13.435

>  <SCORE.INTER.VDW>
-20.4173

>  <SCORE.INTER.norm>
-0.670054

>  <SCORE.INTRA>
0.755404

>  <SCORE.INTRA.DIHEDRAL>
4.99593

>  <SCORE.INTRA.DIHEDRAL.0>
7.52971

>  <SCORE.INTRA.POLAR>
0

>  <SCORE.INTRA.POLAR.0>
0

>  <SCORE.INTRA.REPUL>
0

>  <SCORE.INTRA.REPUL.0>
0

>  <SCORE.INTRA.SOLV>
-0.131779

>  <SCORE.INTRA.SOLV.lig_0>
-22.1084

>  <SCORE.INTRA.VDW>
-1.67667

>  <SCORE.INTRA.VDW.0>
2.4256

>  <SCORE.INTRA.norm>
0.0314752

>  <SCORE.RESTR>
0

>  <SCORE.RESTR.CAVITY>
0

>  <SCORE.RESTR.norm>
0

>  <SCORE.SYSTEM>
0

>  <SCORE.SYSTEM.CONST>
0

>  <SCORE.SYSTEM.DIHEDRAL>
0

>  <SCORE.SYSTEM.SOLV>
0

>  <SCORE.SYSTEM.norm>
0

>  <SCORE.heavy>
24

>  <SCORE.norm>
-0.638579

>  <RMSD>
2.563

$$$$
lig.pdb
 OpenBabel11021811453D
libRbt.so/2013.1/901 2013/11/27
 24 24  0  0  0  0  0  0  0  0999 V2000
    7.8136   -2.2584   -1.7763 C   0  0  0  0  0  0  0  0  0  0  0  0
    7.2853   -2.5342   -3.0825 C   0  0  0  0  0  0  0  0  0  0  0  0
    6.1041   -1.9809   -3.5168 C   0  0  0  0  0  0  0  0  0  0  0  0
    5.3418   -1.0917   -2.6936 C   0  0  0  0  0  0  0  0  0  0  0  0
    5.8532   -0.8439   -1.3773 C   0  0  0  0  0  0  0  0  0  0  0  0
    7.0282   -1.4021   -0.9396 C   0  0  0  0  0  0  0  0  0  0  0  0
    9.0015   -2.7773   -1.3470 C   0  0  0  0  0  0  0  0  0  0  0  0
    9.6465   -3.7663   -2.0019 N   0  0  0  0  0  0  0  0  0  0  0  0
    3.7765   -0.5413   -4.4127 N   0  0  0  0  0  0  0  0  0  0  0  0
    4.1879   -0.5087   -3.1275 C   0  0  0  0  0  0  0  0  0  0  0  0
    9.6268   -2.3334   -0.2284 N   0  0  0  0  0  0  0  0  0  0  0  0
    3.3519    0.1591   -2.2974 N   0  0  0  0  0  0  0  0  0  0  0  0
   11.0689   -2.2136   -0.0232 C   0  0  0  0  0  0  0  0  0  0  0  0
    1.9359    0.4248   -2.5322 C   0  0  0  0  0  0  0  0  0  0  0  0
   11.6023   -1.1581   -1.0053 C   0  0  0  0  0  0  0  0  0  0  0  0
    1.5650    1.7146   -1.7768 C   0  0  0  0  0  0  0  0  0  0  0  0
   13.1369   -1.1610   -1.0340 C   0  0  0  0  0  0  0  0  0  0  0  0
    1.6883    1.5647   -0.2497 C   0  0  0  0  0  0  0  0  0  0  0  0
   13.6199   -0.0620   -1.9455 N   0  0  0  0  0  0  0  0  0  0  0  0
    1.0859    2.7433    0.4725 N   0  0  0  0  0  0  0  0  0  0  0  0
   13.5033   -0.4974   -3.3808 C   0  0  0  0  0  0  0  0  0  0  0  0
    1.7721    2.9002    1.8029 C   0  0  0  0  0  0  0  0  0  0  0  0
   15.0528    0.2985   -1.6409 C   0  0  0  0  0  0  0  0  0  0  0  0
   -0.3903    2.5753    0.7015 C   0  0  0  0  0  0  0  0  0  0  0  0
  1  6  2  0  0  0  0
  2  3  2  0  0  0  0
  2  1  1  0  0  0  0
  3  4  1  0  0  0  0
  4 10  1  0  0  0  0
  4  5  2  0  0  0  0
  6  5  1  0  0  0  0
  7  1  1  0  0  0  0
  7 11  1  0  0  0  0
  8  7  2  0  0  0  0
  9 10  2  0  0  0  0
 10 12  1  0  0  0  0
 12 14  1  0  0  0  0
 13 11  1  0  0  0  0
 13 15  1  0  0  0  0
 14 16  1  0  0  0  0
 16 18  1  0  0  0  0
 17 15  1  0  0  0  0
 17 19  1  0  0  0  0
 18 20  1  0  0  0  0
 19 23  1  0  0  0  0
 20 22  1  0  0  0  0
 20 24  1  0  0  0  0
 21 19  1  0  0  0  0
M  END
>  <CHROM.1>
-10.82768537,-12.35050196,-152.42409004,64.62027425,-169.47753549,-64.82348779
-169.63563935,-176.74916237,-78.83971540,-153.04350669,6.87586496,-0.47504932
-1.53730346,0.23572618,0.12707301,-2.35408858

>  <Name>
lig.pdb

>  <RI>
0

>  <Rbt.Current_Directory>
/home/itssahil/PROJECTS/Mol_Feturizer/New_Systems/rnas/2l94

>  <Rbt.Executable>
rbdock ($Id: //depot/dev/client3/rdock/2013.1/src/exe/rbdock.cxx#4 $)

>  <Rbt.Library>
libRbt.so (2013.1, Build901 2013/11/27)

>  <Rbt.Parameter_File>
/export/apps/rDock/src/rDock_2013.1_src/data/scripts/dock_solv.prm

>  <Rbt.Receptor>
prm/pocket_docking_4.prm

>  <SCORE>
-17.3947

>  <SCORE.INTER>
-16.3771

>  <SCORE.INTER.CONST>
1

>  <SCORE.INTER.POLAR>
-2.70592

>  <SCORE.INTER.ROT>
10

>  <SCORE.INTER.SOLV>
9.27878

>  <SCORE.INTER.VDW>
-15.2579

>  <SCORE.INTER.norm>
-0.682377

>  <SCORE.INTRA>
-1.01765

>  <SCORE.INTRA.DIHEDRAL>
1.59038

>  <SCORE.INTRA.DIHEDRAL.0>
7.52971

>  <SCORE.INTRA.POLAR>
0

>  <SCORE.INTRA.POLAR.0>
0

>  <SCORE.INTRA.REPUL>
0

>  <SCORE.INTRA.REPUL.0>
0

>  <SCORE.INTRA.SOLV>
0.0923097

>  <SCORE.INTRA.SOLV.lig_0>
-22.1084

>  <SCORE.INTRA.VDW>
-1.859

>  <SCORE.INTRA.VDW.0>
2.4256

>  <SCORE.INTRA.norm>
-0.0424021

>  <SCORE.RESTR>
0

>  <SCORE.RESTR.CAVITY>
0

>  <SCORE.RESTR.norm>
0

>  <SCORE.SYSTEM>
0

>  <SCORE.SYSTEM.CONST>
0

>  <SCORE.SYSTEM.DIHEDRAL>
0

>  <SCORE.SYSTEM.SOLV>
0

>  <SCORE.SYSTEM.norm>
0

>  <SCORE.heavy>
24

>  <SCORE.norm>
-0.724779

>  <RMSD>
2.569

$$$$
lig.pdb
 OpenBabel11021811453D
libRbt.so/2013.1/901 2013/11/27
 24 24  0  0  0  0  0  0  0  0999 V2000
    7.5057   -0.0553   -0.0206 C   0  0  0  0  0  0  0  0  0  0  0  0
    6.2970   -0.1388    0.7495 C   0  0  0  0  0  0  0  0  0  0  0  0
    5.3789    0.8844    0.7682 C   0  0  0  0  0  0  0  0  0  0  0  0
    5.5739    2.0847    0.0128 C   0  0  0  0  0  0  0  0  0  0  0  0
    6.7972    2.1806   -0.7290 C   0  0  0  0  0  0  0  0  0  0  0  0
    7.7182    1.1631   -0.7420 C   0  0  0  0  0  0  0  0  0  0  0  0
    8.4087   -1.0785   -0.0715 C   0  0  0  0  0  0  0  0  0  0  0  0
    8.3336   -2.1603    0.7329 N   0  0  0  0  0  0  0  0  0  0  0  0
    4.8965    4.3115   -0.5264 N   0  0  0  0  0  0  0  0  0  0  0  0
    4.6532    3.0904   -0.0047 C   0  0  0  0  0  0  0  0  0  0  0  0
    9.4501   -1.0864   -0.9401 N   0  0  0  0  0  0  0  0  0  0  0  0
    3.4072    2.9469    0.5060 N   0  0  0  0  0  0  0  0  0  0  0  0
   10.0162   -2.2531   -1.6144 C   0  0  0  0  0  0  0  0  0  0  0  0
    2.2380    3.7503    0.1626 C   0  0  0  0  0  0  0  0  0  0  0  0
   10.9708   -1.7517   -2.7100 C   0  0  0  0  0  0  0  0  0  0  0  0
    1.1039    2.7883   -0.2375 C   0  0  0  0  0  0  0  0  0  0  0  0
   12.2909   -1.2564   -2.1032 C   0  0  0  0  0  0  0  0  0  0  0  0
    0.4552    2.0978    0.9758 C   0  0  0  0  0  0  0  0  0  0  0  0
   13.0046   -0.3867   -3.1062 N   0  0  0  0  0  0  0  0  0  0  0  0
   -0.0657    3.1030    1.9716 N   0  0  0  0  0  0  0  0  0  0  0  0
   14.4811   -0.3762   -2.8176 C   0  0  0  0  0  0  0  0  0  0  0  0
    0.9177    3.2181    3.1053 C   0  0  0  0  0  0  0  0  0  0  0  0
   12.4719    1.0243   -3.0699 C   0  0  0  0  0  0  0  0  0  0  0  0
   -1.4066    2.7107    2.5265 C   0  0  0  0  0  0  0  0  0  0  0  0
  1  6  2  0  0  0  0
  2  3  2  0  0  0  0
  2  1  1  0  0  0  0
  3  4  1  0  0  0  0
  4 10  1  0  0  0  0
  4  5  2  0  0  0  0
  6  5  1  0  0  0  0
  7  1  1  0  0  0  0
  7 11  1  0  0  0  0
  8  7  2  0  0  0  0
  9 10  2  0  0  0  0
 10 12  1  0  0  0  0
 12 14  1  0  0  0  0
 13 11  1  0  0  0  0
 13 15  1  0  0  0  0
 14 16  1  0  0  0  0
 16 18  1  0  0  0  0
 17 15  1  0  0  0  0
 17 19  1  0  0  0  0
 18 20  1  0  0  0  0
 19 23  1  0  0  0  0
 20 22  1  0  0  0  0
 20 24  1  0  0  0  0
 21 19  1  0  0  0  0
M  END
>  <CHROM.1>
169.02357897,-9.48641339,127.19343076,168.34232809,75.83869053,75.94569924
56.36908614,-162.02323551,-155.82262259,-100.84106169,6.45533444,1.04597516
-0.30530060,0.18273652,-0.41442701,2.75177158

>  <Name>
lig.pdb

>  <RI>
0

>  <Rbt.Current_Directory>
/home/itssahil/PROJECTS/Mol_Feturizer/New_Systems/rnas/2l94

>  <Rbt.Executable>
rbdock ($Id: //depot/dev/client3/rdock/2013.1/src/exe/rbdock.cxx#4 $)

>  <Rbt.Library>
libRbt.so (2013.1, Build901 2013/11/27)

>  <Rbt.Parameter_File>
/export/apps/rDock/src/rDock_2013.1_src/data/scripts/dock_solv.prm

>  <Rbt.Receptor>
prm/pocket_docking_4.prm

>  <SCORE>
-17.8514

>  <SCORE.INTER>
-18.7307

>  <SCORE.INTER.CONST>
1

>  <SCORE.INTER.POLAR>
-2.89588

>  <SCORE.INTER.ROT>
10

>  <SCORE.INTER.SOLV>
7.30736

>  <SCORE.INTER.VDW>
-15.5366

>  <SCORE.INTER.norm>
-0.780445

>  <SCORE.INTRA>
0.879326

>  <SCORE.INTRA.DIHEDRAL>
5.03492

>  <SCORE.INTRA.DIHEDRAL.0>
7.52971

>  <SCORE.INTRA.POLAR>
0

>  <SCORE.INTRA.POLAR.0>
0

>  <SCORE.INTRA.REPUL>
0

>  <SCORE.INTRA.REPUL.0>
0

>  <SCORE.INTRA.SOLV>
0.516304

>  <SCORE.INTRA.SOLV.lig_0>
-22.1084

>  <SCORE.INTRA.VDW>
-1.89629

>  <SCORE.INTRA.VDW.0>
2.4256

>  <SCORE.INTRA.norm>
0.0366386

>  <SCORE.RESTR>
0

>  <SCORE.RESTR.CAVITY>
0

>  <SCORE.RESTR.norm>
0

>  <SCORE.SYSTEM>
0

>  <SCORE.SYSTEM.CONST>
0

>  <SCORE.SYSTEM.DIHEDRAL>
0

>  <SCORE.SYSTEM.SOLV>
0

>  <SCORE.SYSTEM.norm>
0

>  <SCORE.heavy>
24

>  <SCORE.norm>
-0.743807

>  <RMSD>
2.590

$$$$
lig.pdb
 OpenBabel11021811453D
libRbt.so/2013.1/901 2013/11/27
 24 24  0  0  0  0  0  0  0  0999 V2000
    5.1477   -1.9121   -3.0785 C   0  0  0  0  0  0  0  0  0  0  0  0
    3.7751   -2.2887   -3.2660 C   0  0  0  0  0  0  0  0  0  0  0  0
    2.7423   -1.4343   -2.9604 C   0  0  0  0  0  0  0  0  0  0  0  0
    2.9800   -0.1189   -2.4479 C   0  0  0  0  0  0  0  0  0  0  0  0
    4.3500    0.2433   -2.2295 C   0  0  0  0  0  0  0  0  0  0  0  0
    5.3816   -0.6118   -2.5267 C   0  0  0  0  0  0  0  0  0  0  0  0
    6.1817   -2.7408   -3.4087 C   0  0  0  0  0  0  0  0  0  0  0  0
    7.1092   -2.4188   -4.3355 N   0  0  0  0  0  0  0  0  0  0  0  0
    0.6913    0.5542   -2.5785 N   0  0  0  0  0  0  0  0  0  0  0  0
    1.9647    0.7498   -2.1757 C   0  0  0  0  0  0  0  0  0  0  0  0
    6.3571   -3.9523   -2.8251 N   0  0  0  0  0  0  0  0  0  0  0  0
    2.1519    1.8925   -1.4734 N   0  0  0  0  0  0  0  0  0  0  0  0
    7.6321   -4.5893   -2.5011 C   0  0  0  0  0  0  0  0  0  0  0  0
    1.1232    2.6430   -0.7598 C   0  0  0  0  0  0  0  0  0  0  0  0
    7.9316   -4.3245   -1.0168 C   0  0  0  0  0  0  0  0  0  0  0  0
    1.5849    2.8077    0.7002 C   0  0  0  0  0  0  0  0  0  0  0  0
    8.1426   -2.8262   -0.7583 C   0  0  0  0  0  0  0  0  0  0  0  0
    0.5246    3.4877    1.5851 C   0  0  0  0  0  0  0  0  0  0  0  0
    8.0370   -2.5565    0.7208 N   0  0  0  0  0  0  0  0  0  0  0  0
   -0.7432    2.6744    1.6538 N   0  0  0  0  0  0  0  0  0  0  0  0
    6.6207   -2.7693    1.1814 C   0  0  0  0  0  0  0  0  0  0  0  0
   -1.7924    3.4708    2.3823 C   0  0  0  0  0  0  0  0  0  0  0  0
    8.4672   -1.1467    1.0425 C   0  0  0  0  0  0  0  0  0  0  0  0
   -0.5411    1.3663    2.3665 C   0  0  0  0  0  0  0  0  0  0  0  0
  1  6  2  0  0  0  0
  2  3  2  0  0  0  0
  2  1  1  0  0  0  0
  3  4  1  0  0  0  0
  4 10  1  0  0  0  0
  4  5  2  0  0  0  0
  6  5  1  0  0  0  0
  7  1  1  0  0  0  0
  7 11  1  0  0  0  0
  8  7  2  0  0  0  0
  9 10  2  0  0  0  0
 10 12  1  0  0  0  0
 12 14  1  0  0  0  0
 13 11  1  0  0  0  0
 13 15  1  0  0  0  0
 14 16  1  0  0  0  0
 16 18  1  0  0  0  0
 17 15  1  0  0  0  0
 17 19  1  0  0  0  0
 18 20  1  0  0  0  0
 19 23  1  0  0  0  0
 20 22  1  0  0  0  0
 20 24  1  0  0  0  0
 21 19  1  0  0  0  0
M  END
>  <CHROM.1>
-12.27605139,118.65866378,125.11682785,97.70157214,-64.77031344,-175.30872543
61.60433650,163.84097418,-68.26194918,-172.83912018,3.97894164,-0.55556510
-1.04318645,0.44286399,0.56925366,-1.86345452

>  <Name>
lig.pdb

>  <RI>
1.09765e+07

>  <Rbt.Current_Directory>
/home/itssahil/PROJECTS/Mol_Feturizer/New_Systems/rnas/2l94

>  <Rbt.Executable>
rbdock ($Id: //depot/dev/client3/rdock/2013.1/src/exe/rbdock.cxx#4 $)

>  <Rbt.Library>
libRbt.so (2013.1, Build901 2013/11/27)

>  <Rbt.Parameter_File>
/export/apps/rDock/src/rDock_2013.1_src/data/scripts/dock_solv.prm

>  <Rbt.Receptor>
prm/pocket_docking_3.prm

>  <SCORE>
-17.391

>  <SCORE.INTER>
-19.6282

>  <SCORE.INTER.CONST>
1

>  <SCORE.INTER.POLAR>
-2.82448

>  <SCORE.INTER.ROT>
10

>  <SCORE.INTER.SOLV>
14.0216

>  <SCORE.INTER.VDW>
-18.6111

>  <SCORE.INTER.norm>
-0.817842

>  <SCORE.INTRA>
1.97729

>  <SCORE.INTRA.DIHEDRAL>
9.14067

>  <SCORE.INTRA.DIHEDRAL.0>
7.52971

>  <SCORE.INTRA.POLAR>
0

>  <SCORE.INTRA.POLAR.0>
0

>  <SCORE.INTRA.REPUL>
0

>  <SCORE.INTRA.REPUL.0>
0

>  <SCORE.INTRA.SOLV>
0.298284

>  <SCORE.INTRA.SOLV.lig_0>
-22.1084

>  <SCORE.INTRA.VDW>
-2.74218

>  <SCORE.INTRA.VDW.0>
2.4256

>  <SCORE.INTRA.norm>
0.0823872

>  <SCORE.RESTR>
0.259891

>  <SCORE.RESTR.CAVITY>
0.259891

>  <SCORE.RESTR.norm>
0.0108288

>  <SCORE.SYSTEM>
0

>  <SCORE.SYSTEM.CONST>
0

>  <SCORE.SYSTEM.DIHEDRAL>
0

>  <SCORE.SYSTEM.SOLV>
0

>  <SCORE.SYSTEM.norm>
0

>  <SCORE.heavy>
24

>  <SCORE.norm>
-0.724626

>  <RMSD>
2.675

$$$$
lig.pdb
 OpenBabel11021811453D
libRbt.so/2013.1/901 2013/11/27
 24 24  0  0  0  0  0  0  0  0999 V2000
    5.9701   -2.0807   -0.6191 C   0  0  0  0  0  0  0  0  0  0  0  0
    6.1940   -0.7686   -1.1570 C   0  0  0  0  0  0  0  0  0  0  0  0
    5.1587    0.0130   -1.6122 C   0  0  0  0  0  0  0  0  0  0  0  0
    3.7999   -0.4353   -1.5653 C   0  0  0  0  0  0  0  0  0  0  0  0
    3.5814   -1.7588   -1.0591 C   0  0  0  0  0  0  0  0  0  0  0  0
    4.6150   -2.5432   -0.6119 C   0  0  0  0  0  0  0  0  0  0  0  0
    6.9873   -2.8525   -0.1349 C   0  0  0  0  0  0  0  0  0  0  0  0
    6.7757   -4.0159    0.5169 N   0  0  0  0  0  0  0  0  0  0  0  0
    1.5030   -0.1149   -2.1394 N   0  0  0  0  0  0  0  0  0  0  0  0
    2.7618    0.3456   -1.9802 C   0  0  0  0  0  0  0  0  0  0  0  0
    8.2915   -2.5087   -0.2767 N   0  0  0  0  0  0  0  0  0  0  0  0
    2.9095    1.6599   -2.2714 N   0  0  0  0  0  0  0  0  0  0  0  0
    9.4155   -3.4173   -0.4945 C   0  0  0  0  0  0  0  0  0  0  0  0
    1.8491    2.6628   -2.2874 C   0  0  0  0  0  0  0  0  0  0  0  0
   10.5821   -2.5996   -1.0719 C   0  0  0  0  0  0  0  0  0  0  0  0
    2.3341    3.8772   -1.4739 C   0  0  0  0  0  0  0  0  0  0  0  0
   11.1547   -1.6411   -0.0186 C   0  0  0  0  0  0  0  0  0  0  0  0
    2.4864    3.5648    0.0258 C   0  0  0  0  0  0  0  0  0  0  0  0
   12.1372   -0.7069   -0.6774 N   0  0  0  0  0  0  0  0  0  0  0  0
    3.8524    3.0087    0.3393 N   0  0  0  0  0  0  0  0  0  0  0  0
   13.4080   -1.4440   -1.0017 C   0  0  0  0  0  0  0  0  0  0  0  0
    3.8165    2.3720    1.7027 C   0  0  0  0  0  0  0  0  0  0  0  0
   12.4475    0.4664    0.2187 C   0  0  0  0  0  0  0  0  0  0  0  0
    4.9155    4.0715    0.3249 C   0  0  0  0  0  0  0  0  0  0  0  0
  1  6  2  0  0  0  0
  2  3  2  0  0  0  0
  2  1  1  0  0  0  0
  3  4  1  0  0  0  0
  4 10  1  0  0  0  0
  4  5  2  0  0  0  0
  6  5  1  0  0  0  0
  7  1  1  0  0  0  0
  7 11  1  0  0  0  0
  8  7  2  0  0  0  0
  9 10  2  0  0  0  0
 10 12  1  0  0  0  0
 12 14  1  0  0  0  0
 13 11  1  0  0  0  0
 13 15  1  0  0  0  0
 14 16  1  0  0  0  0
 16 18  1  0  0  0  0
 17 15  1  0  0  0  0
 17 19  1  0  0  0  0
 18 20  1  0  0  0  0
 19 23  1  0  0  0  0
 20 22  1  0  0  0  0
 20 24  1  0  0  0  0
 21 19  1  0  0  0  0
M  END
>  <CHROM.1>
169.56564891,171.86438272,131.07063101,160.60834838,69.29873695,-67.18045449
87.51402680,-170.91234307,-73.53898752,-164.26668411,6.18152260,-0.16156079
-0.70158898,0.42911038,0.12334149,-3.03937880

>  <Name>
lig.pdb

>  <RI>
0

>  <Rbt.Current_Directory>
/home/itssahil/PROJECTS/Mol_Feturizer/New_Systems/rnas/2l94

>  <Rbt.Executable>
rbdock ($Id: //depot/dev/client3/rdock/2013.1/src/exe/rbdock.cxx#4 $)

>  <Rbt.Library>
libRbt.so (2013.1, Build901 2013/11/27)

>  <Rbt.Parameter_File>
/export/apps/rDock/src/rDock_2013.1_src/data/scripts/dock_solv.prm

>  <Rbt.Receptor>
prm/pocket_docking_4.prm

>  <SCORE>
-13.7433

>  <SCORE.INTER>
-12.7651

>  <SCORE.INTER.CONST>
1

>  <SCORE.INTER.POLAR>
-1.8334

>  <SCORE.INTER.ROT>
10

>  <SCORE.INTER.SOLV>
8.43163

>  <SCORE.INTER.VDW>
-15.476

>  <SCORE.INTER.norm>
-0.53188

>  <SCORE.INTRA>
-0.978191

>  <SCORE.INTRA.DIHEDRAL>
2.14514

>  <SCORE.INTRA.DIHEDRAL.0>
7.52971

>  <SCORE.INTRA.POLAR>
0

>  <SCORE.INTRA.POLAR.0>
0

>  <SCORE.INTRA.REPUL>
0

>  <SCORE.INTRA.REPUL.0>
0

>  <SCORE.INTRA.SOLV>
1.11418

>  <SCORE.INTRA.SOLV.lig_0>
-22.1084

>  <SCORE.INTRA.VDW>
-2.60785

>  <SCORE.INTRA.VDW.0>
2.4256

>  <SCORE.INTRA.norm>
-0.040758

>  <SCORE.RESTR>
0

>  <SCORE.RESTR.CAVITY>
0

>  <SCORE.RESTR.norm>
0

>  <SCORE.SYSTEM>
0

>  <SCORE.SYSTEM.CONST>
0

>  <SCORE.SYSTEM.DIHEDRAL>
0

>  <SCORE.SYSTEM.SOLV>
0

>  <SCORE.SYSTEM.norm>
0

>  <SCORE.heavy>
24

>  <SCORE.norm>
-0.572638

>  <RMSD>
2.690

$$$$
lig.pdb
 OpenBabel11021811453D
libRbt.so/2013.1/901 2013/11/27
 24 24  0  0  0  0  0  0  0  0999 V2000
    6.1433   -0.3638   -2.9770 C   0  0  0  0  0  0  0  0  0  0  0  0
    6.6999   -1.4430   -3.7430 C   0  0  0  0  0  0  0  0  0  0  0  0
    7.8788   -2.0524   -3.3839 C   0  0  0  0  0  0  0  0  0  0  0  0
    8.6101   -1.6505   -2.2208 C   0  0  0  0  0  0  0  0  0  0  0  0
    8.0707   -0.5505   -1.4758 C   0  0  0  0  0  0  0  0  0  0  0  0
    6.8981    0.0640   -1.8380 C   0  0  0  0  0  0  0  0  0  0  0  0
    4.9572    0.2271   -3.3068 C   0  0  0  0  0  0  0  0  0  0  0  0
    4.2798   -0.0735   -4.4354 N   0  0  0  0  0  0  0  0  0  0  0  0
   10.1765   -3.4502   -2.3454 N   0  0  0  0  0  0  0  0  0  0  0  0
    9.7611   -2.2717   -1.8349 C   0  0  0  0  0  0  0  0  0  0  0  0
    4.3668    1.1608   -2.5202 N   0  0  0  0  0  0  0  0  0  0  0  0
   10.5899   -1.7538   -0.8974 N   0  0  0  0  0  0  0  0  0  0  0  0
    2.9323    1.3431   -2.3077 C   0  0  0  0  0  0  0  0  0  0  0  0
   12.0045   -2.0712   -0.7286 C   0  0  0  0  0  0  0  0  0  0  0  0
    2.6940    1.5172   -0.7991 C   0  0  0  0  0  0  0  0  0  0  0  0
   12.8067   -0.7696   -0.9127 C   0  0  0  0  0  0  0  0  0  0  0  0
    1.1960    1.6494   -0.4916 C   0  0  0  0  0  0  0  0  0  0  0  0
   13.6770   -0.4302    0.3109 C   0  0  0  0  0  0  0  0  0  0  0  0
    1.0059    1.8214    0.9937 N   0  0  0  0  0  0  0  0  0  0  0  0
   15.0056   -1.1413    0.2594 N   0  0  0  0  0  0  0  0  0  0  0  0
   -0.3973    1.4395    1.3790 C   0  0  0  0  0  0  0  0  0  0  0  0
   15.5987   -1.1634    1.6426 C   0  0  0  0  0  0  0  0  0  0  0  0
    1.2743    3.2468    1.4088 C   0  0  0  0  0  0  0  0  0  0  0  0
   15.9730   -0.4709   -0.6758 C   0  0  0  0  0  0  0  0  0  0  0  0
  1  6  2  0  0  0  0
  2  3  2  0  0  0  0
  2  1  1  0  0  0  0
  3  4  1  0  0  0  0
  4 10  1  0  0  0  0
  4  5  2  0  0  0  0
  6  5  1  0  0  0  0
  7  1  1  0  0  0  0
  7 11  1  0  0  0  0
  8  7  2  0  0  0  0
  9 10  2  0  0  0  0
 10 12  1  0  0  0  0
 12 14  1  0  0  0  0
 13 11  1  0  0  0  0
 13 15  1  0  0  0  0
 14 16  1  0  0  0  0
 16 18  1  0  0  0  0
 17 15  1  0  0  0  0
 17 19  1  0  0  0  0
 18 20  1  0  0  0  0
 19 23  1  0  0  0  0
 20 22  1  0  0  0  0
 20 24  1  0  0  0  0
 21 19  1  0  0  0  0
M  END
>  <CHROM.1>
-12.79956722,-6.01628994,119.46653863,134.03314991,-177.36857042,122.62891541
84.84251102,-179.85731214,-158.76564896,-160.81449322,7.60488717,-0.27916528
-1.22988693,3.05333736,-0.22250016,1.09705339

>  <Name>
lig.pdb

>  <RI>
1.09765e+07

>  <Rbt.Current_Directory>
/home/itssahil/PROJECTS/Mol_Feturizer/New_Systems/rnas/2l94

>  <Rbt.Executable>
rbdock ($Id: //depot/dev/client3/rdock/2013.1/src/exe/rbdock.cxx#4 $)

>  <Rbt.Library>
libRbt.so (2013.1, Build901 2013/11/27)

>  <Rbt.Parameter_File>
/export/apps/rDock/src/rDock_2013.1_src/data/scripts/dock_solv.prm

>  <Rbt.Receptor>
prm/pocket_docking_3.prm

>  <SCORE>
-17.7263

>  <SCORE.INTER>
-18.8929

>  <SCORE.INTER.CONST>
1

>  <SCORE.INTER.POLAR>
-3.77212

>  <SCORE.INTER.ROT>
10

>  <SCORE.INTER.SOLV>
7.10075

>  <SCORE.INTER.VDW>
-12.6551

>  <SCORE.INTER.norm>
-0.787203

>  <SCORE.INTRA>
1.16659

>  <SCORE.INTRA.DIHEDRAL>
7.25693

>  <SCORE.INTRA.DIHEDRAL.0>
7.52971

>  <SCORE.INTRA.POLAR>
0

>  <SCORE.INTRA.POLAR.0>
0

>  <SCORE.INTRA.REPUL>
0

>  <SCORE.INTRA.REPUL.0>
0

>  <SCORE.INTRA.SOLV>
-0.249928

>  <SCORE.INTRA.SOLV.lig_0>
-22.1084

>  <SCORE.INTRA.VDW>
-2.33691

>  <SCORE.INTRA.VDW.0>
2.4256

>  <SCORE.INTRA.norm>
0.0486078

>  <SCORE.RESTR>
0

>  <SCORE.RESTR.CAVITY>
0

>  <SCORE.RESTR.norm>
0

>  <SCORE.SYSTEM>
0

>  <SCORE.SYSTEM.CONST>
0

>  <SCORE.SYSTEM.DIHEDRAL>
0

>  <SCORE.SYSTEM.SOLV>
0

>  <SCORE.SYSTEM.norm>
0

>  <SCORE.heavy>
24

>  <SCORE.norm>
-0.738595

>  <RMSD>
2.693

$$$$
lig.pdb
 OpenBabel11021811453D
libRbt.so/2013.1/901 2013/11/27
 24 24  0  0  0  0  0  0  0  0999 V2000
    6.8174   -2.3733   -0.8450 C   0  0  0  0  0  0  0  0  0  0  0  0
    5.6643   -2.9137   -1.5077 C   0  0  0  0  0  0  0  0  0  0  0  0
    4.6784   -2.1039   -2.0199 C   0  0  0  0  0  0  0  0  0  0  0  0
    4.7532   -0.6772   -1.9287 C   0  0  0  0  0  0  0  0  0  0  0  0
    5.8885   -0.1402   -1.2370 C   0  0  0  0  0  0  0  0  0  0  0  0
    6.8693   -0.9481   -0.7182 C   0  0  0  0  0  0  0  0  0  0  0  0
    7.8177   -3.1671   -0.3610 C   0  0  0  0  0  0  0  0  0  0  0  0
    7.7572   -4.5157   -0.3856 N   0  0  0  0  0  0  0  0  0  0  0  0
    2.8401   -0.2986   -3.3090 N   0  0  0  0  0  0  0  0  0  0  0  0
    3.7994    0.1367   -2.4649 C   0  0  0  0  0  0  0  0  0  0  0  0
    8.9528   -2.6581    0.1788 N   0  0  0  0  0  0  0  0  0  0  0  0
    3.7360    1.4621   -2.1940 N   0  0  0  0  0  0  0  0  0  0  0  0
   10.2984   -3.2187    0.0719 C   0  0  0  0  0  0  0  0  0  0  0  0
    2.5590    2.3141   -2.3331 C   0  0  0  0  0  0  0  0  0  0  0  0
   10.9773   -2.5928   -1.1570 C   0  0  0  0  0  0  0  0  0  0  0  0
    2.3223    3.0178   -0.9839 C   0  0  0  0  0  0  0  0  0  0  0  0
    9.9841   -2.4477   -2.3183 C   0  0  0  0  0  0  0  0  0  0  0  0
    1.9739    2.0327    0.1466 C   0  0  0  0  0  0  0  0  0  0  0  0
   10.6570   -1.7338   -3.4626 N   0  0  0  0  0  0  0  0  0  0  0  0
    0.5680    1.5058    0.0079 N   0  0  0  0  0  0  0  0  0  0  0  0
   11.1140   -0.3706   -3.0195 C   0  0  0  0  0  0  0  0  0  0  0  0
   -0.3821    2.4822    0.6477 C   0  0  0  0  0  0  0  0  0  0  0  0
    9.7195   -1.5962   -4.6365 C   0  0  0  0  0  0  0  0  0  0  0  0
    0.3983    0.1615    0.6591 C   0  0  0  0  0  0  0  0  0  0  0  0
  1  6  2  0  0  0  0
  2  3  2  0  0  0  0
  2  1  1  0  0  0  0
  3  4  1  0  0  0  0
  4 10  1  0  0  0  0
  4  5  2  0  0  0  0
  6  5  1  0  0  0  0
  7  1  1  0  0  0  0
  7 11  1  0  0  0  0
  8  7  2  0  0  0  0
  9 10  2  0  0  0  0
 10 12  1  0  0  0  0
 12 14  1  0  0  0  0
 13 11  1  0  0  0  0
 13 15  1  0  0  0  0
 14 16  1  0  0  0  0
 16 18  1  0  0  0  0
 17 15  1  0  0  0  0
 17 19  1  0  0  0  0
 18 20  1  0  0  0  0
 19 23  1  0  0  0  0
 20 22  1  0  0  0  0
 20 24  1  0  0  0  0
 21 19  1  0  0  0  0
M  END
>  <CHROM.1>
-11.60528977,-4.67294540,125.70973629,91.47540467,-39.32316161,-64.38410585
-73.86108995,175.59031546,-59.79770064,-84.87765407,5.81467157,-0.75514468
-1.39293061,0.21863441,-0.40856071,2.36446152

>  <Name>
lig.pdb

>  <RI>
1.09765e+07

>  <Rbt.Current_Directory>
/home/itssahil/PROJECTS/Mol_Feturizer/New_Systems/rnas/2l94

>  <Rbt.Executable>
rbdock ($Id: //depot/dev/client3/rdock/2013.1/src/exe/rbdock.cxx#4 $)

>  <Rbt.Library>
libRbt.so (2013.1, Build901 2013/11/27)

>  <Rbt.Parameter_File>
/export/apps/rDock/src/rDock_2013.1_src/data/scripts/dock_solv.prm

>  <Rbt.Receptor>
prm/pocket_docking_3.prm

>  <SCORE>
-9.58932

>  <SCORE.INTER>
-10.8396

>  <SCORE.INTER.CONST>
1

>  <SCORE.INTER.POLAR>
-2.04564

>  <SCORE.INTER.ROT>
10

>  <SCORE.INTER.SOLV>
10.7861

>  <SCORE.INTER.VDW>
-14.2696

>  <SCORE.INTER.norm>
-0.451648

>  <SCORE.INTRA>
0.387382

>  <SCORE.INTRA.DIHEDRAL>
1.58684

>  <SCORE.INTRA.DIHEDRAL.0>
7.52971

>  <SCORE.INTRA.POLAR>
0

>  <SCORE.INTRA.POLAR.0>
0

>  <SCORE.INTRA.REPUL>
0

>  <SCORE.INTRA.REPUL.0>
0

>  <SCORE.INTRA.SOLV>
0.991673

>  <SCORE.INTRA.SOLV.lig_0>
-22.1084

>  <SCORE.INTRA.VDW>
-0.901877

>  <SCORE.INTRA.VDW.0>
2.4256

>  <SCORE.INTRA.norm>
0.0161409

>  <SCORE.RESTR>
0.862858

>  <SCORE.RESTR.CAVITY>
0.862858

>  <SCORE.RESTR.norm>
0.0359524

>  <SCORE.SYSTEM>
0

>  <SCORE.SYSTEM.CONST>
0

>  <SCORE.SYSTEM.DIHEDRAL>
0

>  <SCORE.SYSTEM.SOLV>
0

>  <SCORE.SYSTEM.norm>
0

>  <SCORE.heavy>
24

>  <SCORE.norm>
-0.399555

>  <RMSD>
2.776

$$$$
lig.pdb
 OpenBabel11021811453D
libRbt.so/2013.1/901 2013/11/27
 24 24  0  0  0  0  0  0  0  0999 V2000
    6.1530   -0.1842   -2.6296 C   0  0  0  0  0  0  0  0  0  0  0  0
    7.0084    0.2261   -1.5521 C   0  0  0  0  0  0  0  0  0  0  0  0
    8.1524   -0.4663   -1.2326 C   0  0  0  0  0  0  0  0  0  0  0  0
    8.5579   -1.6283   -1.9637 C   0  0  0  0  0  0  0  0  0  0  0  0
    7.6852   -2.0564   -3.0177 C   0  0  0  0  0  0  0  0  0  0  0  0
    6.5386   -1.3706   -3.3323 C   0  0  0  0  0  0  0  0  0  0  0  0
    5.0318    0.5144   -2.9756 C   0  0  0  0  0  0  0  0  0  0  0  0
    4.1772    0.0968   -3.9339 N   0  0  0  0  0  0  0  0  0  0  0  0
   10.0297   -3.4915   -2.2297 N   0  0  0  0  0  0  0  0  0  0  0  0
    9.7092   -2.3015   -1.6790 C   0  0  0  0  0  0  0  0  0  0  0  0
    4.6894    1.6822   -2.3773 N   0  0  0  0  0  0  0  0  0  0  0  0
   10.6344   -1.8283   -0.8106 N   0  0  0  0  0  0  0  0  0  0  0  0
    3.3361    2.1471   -2.0797 C   0  0  0  0  0  0  0  0  0  0  0  0
   12.0432   -2.2069   -0.7623 C   0  0  0  0  0  0  0  0  0  0  0  0
    3.4251    3.1623   -0.9288 C   0  0  0  0  0  0  0  0  0  0  0  0
   12.8162   -1.0668   -0.0735 C   0  0  0  0  0  0  0  0  0  0  0  0
    2.0287    3.5106   -0.3950 C   0  0  0  0  0  0  0  0  0  0  0  0
   13.3724   -0.0374   -1.0739 C   0  0  0  0  0  0  0  0  0  0  0  0
    1.5805    2.4377    0.5641 N   0  0  0  0  0  0  0  0  0  0  0  0
   14.4607   -0.6315   -1.9319 N   0  0  0  0  0  0  0  0  0  0  0  0
    0.0786    2.4231    0.6523 C   0  0  0  0  0  0  0  0  0  0  0  0
   15.7300   -0.7028   -1.1261 C   0  0  0  0  0  0  0  0  0  0  0  0
    2.1657    2.6640    1.9361 C   0  0  0  0  0  0  0  0  0  0  0  0
   14.7142    0.1808   -3.1712 C   0  0  0  0  0  0  0  0  0  0  0  0
  1  6  2  0  0  0  0
  2  3  2  0  0  0  0
  2  1  1  0  0  0  0
  3  4  1  0  0  0  0
  4 10  1  0  0  0  0
  4  5  2  0  0  0  0
  6  5  1  0  0  0  0
  7  1  1  0  0  0  0
  7 11  1  0  0  0  0
  8  7  2  0  0  0  0
  9 10  2  0  0  0  0
 10 12  1  0  0  0  0
 12 14  1  0  0  0  0
 13 11  1  0  0  0  0
 13 15  1  0  0  0  0
 14 16  1  0  0  0  0
 16 18  1  0  0  0  0
 17 15  1  0  0  0  0
 17 19  1  0  0  0  0
 18 20  1  0  0  0  0
 19 23  1  0  0  0  0
 20 22  1  0  0  0  0
 20 24  1  0  0  0  0
 21 19  1  0  0  0  0
M  END
>  <CHROM.1>
171.07573365,-175.97978017,156.97047829,156.58186190,-170.05542118,-92.30084329
-67.70790372,81.58097527,-156.49102247,-77.31736479,7.68439774,0.07017705
-1.48052719,2.86636397,-0.15960653,0.79394121

>  <Name>
lig.pdb

>  <RI>
1.09765e+07

>  <Rbt.Current_Directory>
/home/itssahil/PROJECTS/Mol_Feturizer/New_Systems/rnas/2l94

>  <Rbt.Executable>
rbdock ($Id: //depot/dev/client3/rdock/2013.1/src/exe/rbdock.cxx#4 $)

>  <Rbt.Library>
libRbt.so (2013.1, Build901 2013/11/27)

>  <Rbt.Parameter_File>
/export/apps/rDock/src/rDock_2013.1_src/data/scripts/dock_solv.prm

>  <Rbt.Receptor>
prm/pocket_docking_3.prm

>  <SCORE>
-18.6739

>  <SCORE.INTER>
-20.4606

>  <SCORE.INTER.CONST>
1

>  <SCORE.INTER.POLAR>
-3.79545

>  <SCORE.INTER.ROT>
10

>  <SCORE.INTER.SOLV>
7.47095

>  <SCORE.INTER.VDW>
-13.7459

>  <SCORE.INTER.norm>
-0.852523

>  <SCORE.INTRA>
0.909097

>  <SCORE.INTRA.DIHEDRAL>
4.70761

>  <SCORE.INTRA.DIHEDRAL.0>
7.52971

>  <SCORE.INTRA.POLAR>
0

>  <SCORE.INTRA.POLAR.0>
0

>  <SCORE.INTRA.REPUL>
0

>  <SCORE.INTRA.REPUL.0>
0

>  <SCORE.INTRA.SOLV>
-0.114106

>  <SCORE.INTRA.SOLV.lig_0>
-22.1084

>  <SCORE.INTRA.VDW>
-1.38765

>  <SCORE.INTRA.VDW.0>
2.4256

>  <SCORE.INTRA.norm>
0.037879

>  <SCORE.RESTR>
0.877598

>  <SCORE.RESTR.CAVITY>
0.877598

>  <SCORE.RESTR.norm>
0.0365666

>  <SCORE.SYSTEM>
0

>  <SCORE.SYSTEM.CONST>
0

>  <SCORE.SYSTEM.DIHEDRAL>
0

>  <SCORE.SYSTEM.SOLV>
0

>  <SCORE.SYSTEM.norm>
0

>  <SCORE.heavy>
24

>  <SCORE.norm>
-0.778077

>  <RMSD>
2.811

$$$$
lig.pdb
 OpenBabel11021811453D
libRbt.so/2013.1/901 2013/11/27
 24 24  0  0  0  0  0  0  0  0999 V2000
    7.7291   -0.8182   -2.9633 C   0  0  0  0  0  0  0  0  0  0  0  0
    7.8798   -0.0096   -4.1400 C   0  0  0  0  0  0  0  0  0  0  0  0
    7.1648    1.1513   -4.3165 C   0  0  0  0  0  0  0  0  0  0  0  0
    6.2385    1.6221   -3.3318 C   0  0  0  0  0  0  0  0  0  0  0  0
    6.0642    0.7963   -2.1728 C   0  0  0  0  0  0  0  0  0  0  0  0
    6.7714   -0.3671   -1.9992 C   0  0  0  0  0  0  0  0  0  0  0  0
    8.4574   -1.9559   -2.7635 C   0  0  0  0  0  0  0  0  0  0  0  0
    9.5419   -2.2690   -3.5043 N   0  0  0  0  0  0  0  0  0  0  0  0
    5.5410    3.5067   -4.6241 N   0  0  0  0  0  0  0  0  0  0  0  0
    5.5512    2.7905   -3.4799 C   0  0  0  0  0  0  0  0  0  0  0  0
    8.1470   -2.8579   -1.7995 N   0  0  0  0  0  0  0  0  0  0  0  0
    4.8162    3.3353   -2.4815 N   0  0  0  0  0  0  0  0  0  0  0  0
    9.0875   -3.6447   -1.0042 C   0  0  0  0  0  0  0  0  0  0  0  0
    3.7243    4.2912   -2.6387 C   0  0  0  0  0  0  0  0  0  0  0  0
    9.9790   -2.6685   -0.2199 C   0  0  0  0  0  0  0  0  0  0  0  0
    2.4112    3.4947   -2.7538 C   0  0  0  0  0  0  0  0  0  0  0  0
   11.1902   -2.2370   -1.0582 C   0  0  0  0  0  0  0  0  0  0  0  0
    2.0925    2.6882   -1.4819 C   0  0  0  0  0  0  0  0  0  0  0  0
   12.0854   -1.3572   -0.2235 N   0  0  0  0  0  0  0  0  0  0  0  0
    0.8135    1.9035   -1.6302 N   0  0  0  0  0  0  0  0  0  0  0  0
   11.5563    0.0511   -0.2138 C   0  0  0  0  0  0  0  0  0  0  0  0
    0.2764    1.5866   -0.2603 C   0  0  0  0  0  0  0  0  0  0  0  0
   13.4961   -1.3640   -0.7581 C   0  0  0  0  0  0  0  0  0  0  0  0
    1.0193    0.6187   -2.3830 C   0  0  0  0  0  0  0  0  0  0  0  0
  1  6  2  0  0  0  0
  2  3  2  0  0  0  0
  2  1  1  0  0  0  0
  3  4  1  0  0  0  0
  4 10  1  0  0  0  0
  4  5  2  0  0  0  0
  6  5  1  0  0  0  0
  7  1  1  0  0  0  0
  7 11  1  0  0  0  0
  8  7  2  0  0  0  0
  9 10  2  0  0  0  0
 10 12  1  0  0  0  0
 12 14  1  0  0  0  0
 13 11  1  0  0  0  0
 13 15  1  0  0  0  0
 14 16  1  0  0  0  0
 16 18  1  0  0  0  0
 17 15  1  0  0  0  0
 17 19  1  0  0  0  0
 18 20  1  0  0  0  0
 19 23  1  0  0  0  0
 20 22  1  0  0  0  0
 20 24  1  0  0  0  0
 21 19  1  0  0  0  0
M  END
>  <CHROM.1>
9.20208253,13.37723374,91.36790044,60.36488660,-86.69357332,63.21159919,-179.17327178
-176.19313510,-81.54128601,-158.24169721,6.72848373,0.34428092,-2.13951060
0.46821838,-0.15090298,2.62457280

>  <Name>
lig.pdb

>  <RI>
1.71133e+07

>  <Rbt.Current_Directory>
/home/itssahil/PROJECTS/Mol_Feturizer/New_Systems/rnas/2l94

>  <Rbt.Executable>
rbdock ($Id: //depot/dev/client3/rdock/2013.1/src/exe/rbdock.cxx#4 $)

>  <Rbt.Library>
libRbt.so (2013.1, Build901 2013/11/27)

>  <Rbt.Parameter_File>
/export/apps/rDock/src/rDock_2013.1_src/data/scripts/dock_solv.prm

>  <Rbt.Receptor>
prm/pocket_docking_5.prm

>  <SCORE>
-11.3843

>  <SCORE.INTER>
-10.0257

>  <SCORE.INTER.CONST>
1

>  <SCORE.INTER.POLAR>
-0.859706

>  <SCORE.INTER.ROT>
10

>  <SCORE.INTER.SOLV>
9.20475

>  <SCORE.INTER.VDW>
-17.153

>  <SCORE.INTER.norm>
-0.417737

>  <SCORE.INTRA>
-1.35861

>  <SCORE.INTRA.DIHEDRAL>
2.78654

>  <SCORE.INTRA.DIHEDRAL.0>
7.52971

>  <SCORE.INTRA.POLAR>
0

>  <SCORE.INTRA.POLAR.0>
0

>  <SCORE.INTRA.REPUL>
0

>  <SCORE.INTRA.REPUL.0>
0

>  <SCORE.INTRA.SOLV>
0.825088

>  <SCORE.INTRA.SOLV.lig_0>
-22.1084

>  <SCORE.INTRA.VDW>
-3.16443

>  <SCORE.INTRA.VDW.0>
2.4256

>  <SCORE.INTRA.norm>
-0.0566089

>  <SCORE.RESTR>
0

>  <SCORE.RESTR.CAVITY>
0

>  <SCORE.RESTR.norm>
0

>  <SCORE.SYSTEM>
0

>  <SCORE.SYSTEM.CONST>
0

>  <SCORE.SYSTEM.DIHEDRAL>
0

>  <SCORE.SYSTEM.SOLV>
0

>  <SCORE.SYSTEM.norm>
0

>  <SCORE.heavy>
24

>  <SCORE.norm>
-0.474346

>  <RMSD>
2.821

$$$$
lig.pdb
 OpenBabel11021811453D
libRbt.so/2013.1/901 2013/11/27
 24 24  0  0  0  0  0  0  0  0999 V2000
    8.3587   -1.9232   -0.2732 C   0  0  0  0  0  0  0  0  0  0  0  0
    7.4219   -2.6552    0.5314 C   0  0  0  0  0  0  0  0  0  0  0  0
    6.1304   -2.2206    0.7140 C   0  0  0  0  0  0  0  0  0  0  0  0
    5.6469   -1.0194    0.1034 C   0  0  0  0  0  0  0  0  0  0  0  0
    6.5931   -0.2719   -0.6723 C   0  0  0  0  0  0  0  0  0  0  0  0
    7.8850   -0.7006   -0.8486 C   0  0  0  0  0  0  0  0  0  0  0  0
    9.6339   -2.3624   -0.4870 C   0  0  0  0  0  0  0  0  0  0  0  0
   10.1031   -3.5211    0.0232 N   0  0  0  0  0  0  0  0  0  0  0  0
    3.4077   -1.3177    0.8814 N   0  0  0  0  0  0  0  0  0  0  0  0
    4.3581   -0.5981    0.2480 C   0  0  0  0  0  0  0  0  0  0  0  0
   10.5267   -1.6668   -1.2341 N   0  0  0  0  0  0  0  0  0  0  0  0
    3.9200    0.5876   -0.2380 N   0  0  0  0  0  0  0  0  0  0  0  0
   11.5506   -2.2246   -2.1154 C   0  0  0  0  0  0  0  0  0  0  0  0
    2.7449    1.3238    0.2177 C   0  0  0  0  0  0  0  0  0  0  0  0
   12.8509   -2.3597   -1.3067 C   0  0  0  0  0  0  0  0  0  0  0  0
    3.0861    1.9660    1.5753 C   0  0  0  0  0  0  0  0  0  0  0  0
   13.5448   -0.9994   -1.1517 C   0  0  0  0  0  0  0  0  0  0  0  0
    1.8574    2.1038    2.4925 C   0  0  0  0  0  0  0  0  0  0  0  0
   14.7957   -1.1694   -0.3283 N   0  0  0  0  0  0  0  0  0  0  0  0
    0.9581    3.2292    2.0474 N   0  0  0  0  0  0  0  0  0  0  0  0
   14.4711   -1.0267    1.1338 C   0  0  0  0  0  0  0  0  0  0  0  0
    0.0094    3.5646    3.1668 C   0  0  0  0  0  0  0  0  0  0  0  0
   15.8381   -0.1504   -0.7169 C   0  0  0  0  0  0  0  0  0  0  0  0
    0.1618    2.8702    0.8239 C   0  0  0  0  0  0  0  0  0  0  0  0
  1  6  2  0  0  0  0
  2  3  2  0  0  0  0
  2  1  1  0  0  0  0
  3  4  1  0  0  0  0
  4 10  1  0  0  0  0
  4  5  2  0  0  0  0
  6  5  1  0  0  0  0
  7  1  1  0  0  0  0
  7 11  1  0  0  0  0
  8  7  2  0  0  0  0
  9 10  2  0  0  0  0
 10 12  1  0  0  0  0
 12 14  1  0  0  0  0
 13 11  1  0  0  0  0
 13 15  1  0  0  0  0
 14 16  1  0  0  0  0
 16 18  1  0  0  0  0
 17 15  1  0  0  0  0
 17 19  1  0  0  0  0
 18 20  1  0  0  0  0
 19 23  1  0  0  0  0
 20 22  1  0  0  0  0
 20 24  1  0  0  0  0
 21 19  1  0  0  0  0
M  END
>  <CHROM.1>
-5.38017185,0.95690810,74.59116536,-92.80816869,-77.45264249,-149.33553532
-74.95921750,178.71793641,-88.19239092,-164.31154694,7.34148553,-0.39701821
0.21318822,0.33734873,-0.07824308,-2.81531794

>  <Name>
lig.pdb

>  <RI>
1.09765e+07

>  <Rbt.Current_Directory>
/home/itssahil/PROJECTS/Mol_Feturizer/New_Systems/rnas/2l94

>  <Rbt.Executable>
rbdock ($Id: //depot/dev/client3/rdock/2013.1/src/exe/rbdock.cxx#4 $)

>  <Rbt.Library>
libRbt.so (2013.1, Build901 2013/11/27)

>  <Rbt.Parameter_File>
/export/apps/rDock/src/rDock_2013.1_src/data/scripts/dock_solv.prm

>  <Rbt.Receptor>
prm/pocket_docking_3.prm

>  <SCORE>
-23.6167

>  <SCORE.INTER>
-24.3358

>  <SCORE.INTER.CONST>
1

>  <SCORE.INTER.POLAR>
-4.09867

>  <SCORE.INTER.ROT>
10

>  <SCORE.INTER.SOLV>
6.95222

>  <SCORE.INTER.VDW>
-15.1457

>  <SCORE.INTER.norm>
-1.01399

>  <SCORE.INTRA>
0.71915

>  <SCORE.INTRA.DIHEDRAL>
4.34531

>  <SCORE.INTRA.DIHEDRAL.0>
7.52971

>  <SCORE.INTRA.POLAR>
0

>  <SCORE.INTRA.POLAR.0>
0

>  <SCORE.INTRA.REPUL>
0

>  <SCORE.INTRA.REPUL.0>
0

>  <SCORE.INTRA.SOLV>
0.479098

>  <SCORE.INTRA.SOLV.lig_0>
-22.1084

>  <SCORE.INTRA.VDW>
-1.69305

>  <SCORE.INTRA.VDW.0>
2.4256

>  <SCORE.INTRA.norm>
0.0299646

>  <SCORE.RESTR>
0

>  <SCORE.RESTR.CAVITY>
0

>  <SCORE.RESTR.norm>
0

>  <SCORE.SYSTEM>
0

>  <SCORE.SYSTEM.CONST>
0

>  <SCORE.SYSTEM.DIHEDRAL>
0

>  <SCORE.SYSTEM.SOLV>
0

>  <SCORE.SYSTEM.norm>
0

>  <SCORE.heavy>
24

>  <SCORE.norm>
-0.984029

>  <RMSD>
2.846

$$$$
lig.pdb
 OpenBabel11021811453D
libRbt.so/2013.1/901 2013/11/27
 24 24  0  0  0  0  0  0  0  0999 V2000
    2.9631   -0.6319   -1.8520 C   0  0  0  0  0  0  0  0  0  0  0  0
    3.4109   -1.5725   -0.8641 C   0  0  0  0  0  0  0  0  0  0  0  0
    4.5802   -2.2794   -1.0159 C   0  0  0  0  0  0  0  0  0  0  0  0
    5.4198   -2.1085   -2.1627 C   0  0  0  0  0  0  0  0  0  0  0  0
    4.9545   -1.1939   -3.1641 C   0  0  0  0  0  0  0  0  0  0  0  0
    3.7832   -0.4936   -3.0175 C   0  0  0  0  0  0  0  0  0  0  0  0
    1.8200    0.0987   -1.6962 C   0  0  0  0  0  0  0  0  0  0  0  0
    0.9298   -0.1385   -0.7091 N   0  0  0  0  0  0  0  0  0  0  0  0
    7.3479   -2.7310   -3.4289 N   0  0  0  0  0  0  0  0  0  0  0  0
    6.5995   -2.7773   -2.3064 C   0  0  0  0  0  0  0  0  0  0  0  0
    1.4941    1.1237   -2.5222 N   0  0  0  0  0  0  0  0  0  0  0  0
    7.1222   -3.5520   -1.3263 N   0  0  0  0  0  0  0  0  0  0  0  0
    0.8159    2.3637   -2.1499 C   0  0  0  0  0  0  0  0  0  0  0  0
    8.5233   -3.9371   -1.1880 C   0  0  0  0  0  0  0  0  0  0  0  0
    1.8834    3.3679   -1.6861 C   0  0  0  0  0  0  0  0  0  0  0  0
    9.1991   -2.9308   -0.2382 C   0  0  0  0  0  0  0  0  0  0  0  0
    2.4125    3.0021   -0.2925 C   0  0  0  0  0  0  0  0  0  0  0  0
   10.7359   -2.9903   -0.3056 C   0  0  0  0  0  0  0  0  0  0  0  0
    3.8155    2.4657   -0.4177 N   0  0  0  0  0  0  0  0  0  0  0  0
   11.2692   -2.2067   -1.4782 N   0  0  0  0  0  0  0  0  0  0  0  0
    4.1733    1.6731    0.8100 C   0  0  0  0  0  0  0  0  0  0  0  0
   11.2510   -3.0867   -2.6992 C   0  0  0  0  0  0  0  0  0  0  0  0
    4.8062    3.5886   -0.6014 C   0  0  0  0  0  0  0  0  0  0  0  0
   12.6734   -1.7224   -1.2464 C   0  0  0  0  0  0  0  0  0  0  0  0
  1  6  2  0  0  0  0
  2  3  2  0  0  0  0
  2  1  1  0  0  0  0
  3  4  1  0  0  0  0
  4 10  1  0  0  0  0
  4  5  2  0  0  0  0
  6  5  1  0  0  0  0
  7  1  1  0  0  0  0
  7 11  1  0  0  0  0
  8  7  2  0  0  0  0
  9 10  2  0  0  0  0
 10 12  1  0  0  0  0
 12 14  1  0  0  0  0
 13 11  1  0  0  0  0
 13 15  1  0  0  0  0
 14 16  1  0  0  0  0
 16 18  1  0  0  0  0
 17 15  1  0  0  0  0
 17 19  1  0  0  0  0
 18 20  1  0  0  0  0
 19 23  1  0  0  0  0
 20 22  1  0  0  0  0
 20 24  1  0  0  0  0
 21 19  1  0  0  0  0
M  END
>  <CHROM.1>
173.60879895,-9.74391665,94.53178167,86.88472053,-74.23657422,-164.44032708
81.52783280,107.88765839,-160.38281554,-85.28462424,5.56463019,-0.66896585
-1.46663949,2.65167501,-0.15091550,0.32176829

>  <Name>
lig.pdb

>  <RI>
1.09765e+07

>  <Rbt.Current_Directory>
/home/itssahil/PROJECTS/Mol_Feturizer/New_Systems/rnas/2l94

>  <Rbt.Executable>
rbdock ($Id: //depot/dev/client3/rdock/2013.1/src/exe/rbdock.cxx#4 $)

>  <Rbt.Library>
libRbt.so (2013.1, Build901 2013/11/27)

>  <Rbt.Parameter_File>
/export/apps/rDock/src/rDock_2013.1_src/data/scripts/dock_solv.prm

>  <Rbt.Receptor>
prm/pocket_docking_3.prm

>  <SCORE>
-12.4868

>  <SCORE.INTER>
-12.7953

>  <SCORE.INTER.CONST>
1

>  <SCORE.INTER.POLAR>
-1.57586

>  <SCORE.INTER.ROT>
10

>  <SCORE.INTER.SOLV>
10.1641

>  <SCORE.INTER.VDW>
-16.932

>  <SCORE.INTER.norm>
-0.533136

>  <SCORE.INTRA>
0.281313

>  <SCORE.INTRA.DIHEDRAL>
8.21875

>  <SCORE.INTRA.DIHEDRAL.0>
7.52971

>  <SCORE.INTRA.POLAR>
0

>  <SCORE.INTRA.POLAR.0>
0

>  <SCORE.INTRA.REPUL>
0

>  <SCORE.INTRA.REPUL.0>
0

>  <SCORE.INTRA.SOLV>
1.5911

>  <SCORE.INTRA.SOLV.lig_0>
-22.1084

>  <SCORE.INTRA.VDW>
-4.62361

>  <SCORE.INTRA.VDW.0>
2.4256

>  <SCORE.INTRA.norm>
0.0117214

>  <SCORE.RESTR>
0.027146

>  <SCORE.RESTR.CAVITY>
0.027146

>  <SCORE.RESTR.norm>
0.00113108

>  <SCORE.SYSTEM>
0

>  <SCORE.SYSTEM.CONST>
0

>  <SCORE.SYSTEM.DIHEDRAL>
0

>  <SCORE.SYSTEM.SOLV>
0

>  <SCORE.SYSTEM.norm>
0

>  <SCORE.heavy>
24

>  <SCORE.norm>
-0.520284

>  <RMSD>
2.855

$$$$
lig.pdb
 OpenBabel11021811453D
libRbt.so/2013.1/901 2013/11/27
 24 24  0  0  0  0  0  0  0  0999 V2000
    7.6891   -0.8970   -3.8960 C   0  0  0  0  0  0  0  0  0  0  0  0
    6.7816    0.1664   -4.2225 C   0  0  0  0  0  0  0  0  0  0  0  0
    5.4635    0.1379   -3.8330 C   0  0  0  0  0  0  0  0  0  0  0  0
    4.9268   -0.9494   -3.0720 C   0  0  0  0  0  0  0  0  0  0  0  0
    5.8257   -2.0264   -2.7757 C   0  0  0  0  0  0  0  0  0  0  0  0
    7.1398   -2.0028   -3.1710 C   0  0  0  0  0  0  0  0  0  0  0  0
    9.0075   -0.8637   -4.2504 C   0  0  0  0  0  0  0  0  0  0  0  0
    9.5569    0.1683   -4.9258 N   0  0  0  0  0  0  0  0  0  0  0  0
    3.0988   -1.9853   -1.9346 N   0  0  0  0  0  0  0  0  0  0  0  0
    3.6305   -0.9710   -2.6492 C   0  0  0  0  0  0  0  0  0  0  0  0
    9.8677   -1.8668   -3.9457 N   0  0  0  0  0  0  0  0  0  0  0  0
    2.7603    0.0321   -2.9152 N   0  0  0  0  0  0  0  0  0  0  0  0
   11.2789   -1.7295   -3.5906 C   0  0  0  0  0  0  0  0  0  0  0  0
    1.5383    0.3309   -2.1750 C   0  0  0  0  0  0  0  0  0  0  0  0
   11.3674   -0.8671   -2.3212 C   0  0  0  0  0  0  0  0  0  0  0  0
    1.8859    1.3606   -1.0839 C   0  0  0  0  0  0  0  0  0  0  0  0
   12.6911   -0.0912   -2.2760 C   0  0  0  0  0  0  0  0  0  0  0  0
    0.6778    2.2220   -0.6737 C   0  0  0  0  0  0  0  0  0  0  0  0
   13.7911   -1.0101   -1.8096 N   0  0  0  0  0  0  0  0  0  0  0  0
    0.9723    3.0365    0.5605 N   0  0  0  0  0  0  0  0  0  0  0  0
   13.6228   -1.3099   -0.3450 C   0  0  0  0  0  0  0  0  0  0  0  0
    2.2375    3.8199    0.3351 C   0  0  0  0  0  0  0  0  0  0  0  0
   15.1461   -0.3905   -2.0467 C   0  0  0  0  0  0  0  0  0  0  0  0
    1.1418    2.1763    1.7817 C   0  0  0  0  0  0  0  0  0  0  0  0
  1  6  2  0  0  0  0
  2  3  2  0  0  0  0
  2  1  1  0  0  0  0
  3  4  1  0  0  0  0
  4 10  1  0  0  0  0
  4  5  2  0  0  0  0
  6  5  1  0  0  0  0
  7  1  1  0  0  0  0
  7 11  1  0  0  0  0
  8  7  2  0  0  0  0
  9 10  2  0  0  0  0
 10 12  1  0  0  0  0
 12 14  1  0  0  0  0
 13 11  1  0  0  0  0
 13 15  1  0  0  0  0
 14 16  1  0  0  0  0
 16 18  1  0  0  0  0
 17 15  1  0  0  0  0
 17 19  1  0  0  0  0
 18 20  1  0  0  0  0
 19 23  1  0  0  0  0
 20 22  1  0  0  0  0
 20 24  1  0  0  0  0
 21 19  1  0  0  0  0
M  END
>  <CHROM.1>
179.77910646,0.29892036,92.22188124,60.33191031,-150.98562405,153.86415741
169.43014010,-79.37470493,-71.52048253,53.24402913,6.77853763,-0.11207156
-2.24596148,0.26530005,0.07792361,-2.21687330

>  <Name>
lig.pdb

>  <RI>
1.71133e+07

>  <Rbt.Current_Directory>
/home/itssahil/PROJECTS/Mol_Feturizer/New_Systems/rnas/2l94

>  <Rbt.Executable>
rbdock ($Id: //depot/dev/client3/rdock/2013.1/src/exe/rbdock.cxx#4 $)

>  <Rbt.Library>
libRbt.so (2013.1, Build901 2013/11/27)

>  <Rbt.Parameter_File>
/export/apps/rDock/src/rDock_2013.1_src/data/scripts/dock_solv.prm

>  <Rbt.Receptor>
prm/pocket_docking_5.prm

>  <SCORE>
-22.0025

>  <SCORE.INTER>
-25.4218

>  <SCORE.INTER.CONST>
1

>  <SCORE.INTER.POLAR>
-4.6983

>  <SCORE.INTER.ROT>
10

>  <SCORE.INTER.SOLV>
10.8018

>  <SCORE.INTER.VDW>
-15.1541

>  <SCORE.INTER.norm>
-1.05924

>  <SCORE.INTRA>
3.41932

>  <SCORE.INTRA.DIHEDRAL>
4.33194

>  <SCORE.INTRA.DIHEDRAL.0>
7.52971

>  <SCORE.INTRA.POLAR>
0

>  <SCORE.INTRA.POLAR.0>
0

>  <SCORE.INTRA.REPUL>
0

>  <SCORE.INTRA.REPUL.0>
0

>  <SCORE.INTRA.SOLV>
0.113791

>  <SCORE.INTRA.SOLV.lig_0>
-22.1084

>  <SCORE.INTRA.VDW>
1.19646

>  <SCORE.INTRA.VDW.0>
2.4256

>  <SCORE.INTRA.norm>
0.142472

>  <SCORE.RESTR>
0

>  <SCORE.RESTR.CAVITY>
0

>  <SCORE.RESTR.norm>
0

>  <SCORE.SYSTEM>
0

>  <SCORE.SYSTEM.CONST>
0

>  <SCORE.SYSTEM.DIHEDRAL>
0

>  <SCORE.SYSTEM.SOLV>
0

>  <SCORE.SYSTEM.norm>
0

>  <SCORE.heavy>
24

>  <SCORE.norm>
-0.916771

>  <RMSD>
2.860

$$$$
lig.pdb
 OpenBabel11021811453D
libRbt.so/2013.1/901 2013/11/27
 24 24  0  0  0  0  0  0  0  0999 V2000
    5.6713   -0.8842   -2.8126 C   0  0  0  0  0  0  0  0  0  0  0  0
    6.1712   -0.6554   -1.4864 C   0  0  0  0  0  0  0  0  0  0  0  0
    7.3716   -1.1771   -1.0657 C   0  0  0  0  0  0  0  0  0  0  0  0
    8.1929   -1.9687   -1.9308 C   0  0  0  0  0  0  0  0  0  0  0  0
    7.6765   -2.2244   -3.2437 C   0  0  0  0  0  0  0  0  0  0  0  0
    6.4745   -1.7108   -3.6621 C   0  0  0  0  0  0  0  0  0  0  0  0
    4.4959   -0.3444   -3.2508 C   0  0  0  0  0  0  0  0  0  0  0  0
    4.2557   -0.0745   -4.5517 N   0  0  0  0  0  0  0  0  0  0  0  0
   10.0339   -3.4731   -2.1667 N   0  0  0  0  0  0  0  0  0  0  0  0
    9.4019   -2.4607   -1.5360 C   0  0  0  0  0  0  0  0  0  0  0  0
    3.4765   -0.0418   -2.4092 N   0  0  0  0  0  0  0  0  0  0  0  0
   10.0744   -1.9709   -0.4674 N   0  0  0  0  0  0  0  0  0  0  0  0
    2.0472   -0.1605   -2.6904 C   0  0  0  0  0  0  0  0  0  0  0  0
   11.5080   -2.0938   -0.2219 C   0  0  0  0  0  0  0  0  0  0  0  0
    1.3673    1.1477   -2.2552 C   0  0  0  0  0  0  0  0  0  0  0  0
   12.0026   -0.7607    0.3695 C   0  0  0  0  0  0  0  0  0  0  0  0
    1.2991    1.2481   -0.7251 C   0  0  0  0  0  0  0  0  0  0  0  0
   13.2325   -0.9345    1.2790 C   0  0  0  0  0  0  0  0  0  0  0  0
    2.3749    2.1852   -0.2392 N   0  0  0  0  0  0  0  0  0  0  0  0
   14.4701   -1.2573    0.4806 N   0  0  0  0  0  0  0  0  0  0  0  0
    2.7673    1.8300    1.1691 C   0  0  0  0  0  0  0  0  0  0  0  0
   15.6425   -1.3536    1.4195 C   0  0  0  0  0  0  0  0  0  0  0  0
    1.9025    3.6172   -0.2868 C   0  0  0  0  0  0  0  0  0  0  0  0
   14.7630   -0.2131   -0.5604 C   0  0  0  0  0  0  0  0  0  0  0  0
  1  6  2  0  0  0  0
  2  3  2  0  0  0  0
  2  1  1  0  0  0  0
  3  4  1  0  0  0  0
  4 10  1  0  0  0  0
  4  5  2  0  0  0  0
  6  5  1  0  0  0  0
  7  1  1  0  0  0  0
  7 11  1  0  0  0  0
  8  7  2  0  0  0  0
  9 10  2  0  0  0  0
 10 12  1  0  0  0  0
 12 14  1  0  0  0  0
 13 11  1  0  0  0  0
 13 15  1  0  0  0  0
 14 16  1  0  0  0  0
 16 18  1  0  0  0  0
 17 15  1  0  0  0  0
 17 19  1  0  0  0  0
 18 20  1  0  0  0  0
 19 23  1  0  0  0  0
 20 22  1  0  0  0  0
 20 24  1  0  0  0  0
 21 19  1  0  0  0  0
M  END
>  <CHROM.1>
162.10922450,152.59699448,140.66925715,-132.32625239,-72.69704706,151.96955968
71.90252021,102.22017897,-153.41122988,177.51756410,7.39598681,-0.53605959
-1.24545708,3.11947040,-0.27899391,0.88851745

>  <Name>
lig.pdb

>  <RI>
1.09765e+07

>  <Rbt.Current_Directory>
/home/itssahil/PROJECTS/Mol_Feturizer/New_Systems/rnas/2l94

>  <Rbt.Executable>
rbdock ($Id: //depot/dev/client3/rdock/2013.1/src/exe/rbdock.cxx#4 $)

>  <Rbt.Library>
libRbt.so (2013.1, Build901 2013/11/27)

>  <Rbt.Parameter_File>
/export/apps/rDock/src/rDock_2013.1_src/data/scripts/dock_solv.prm

>  <Rbt.Receptor>
prm/pocket_docking_3.prm

>  <SCORE>
-14.762

>  <SCORE.INTER>
-18.555

>  <SCORE.INTER.CONST>
1

>  <SCORE.INTER.POLAR>
-3.21636

>  <SCORE.INTER.ROT>
10

>  <SCORE.INTER.SOLV>
9.20329

>  <SCORE.INTER.VDW>
-14.9832

>  <SCORE.INTER.norm>
-0.773124

>  <SCORE.INTRA>
3.7667

>  <SCORE.INTRA.DIHEDRAL>
10.5936

>  <SCORE.INTRA.DIHEDRAL.0>
7.52971

>  <SCORE.INTRA.POLAR>
0

>  <SCORE.INTRA.POLAR.0>
0

>  <SCORE.INTRA.REPUL>
0

>  <SCORE.INTRA.REPUL.0>
0

>  <SCORE.INTRA.SOLV>
0.555003

>  <SCORE.INTRA.SOLV.lig_0>
-22.1084

>  <SCORE.INTRA.VDW>
-1.8076

>  <SCORE.INTRA.VDW.0>
2.4256

>  <SCORE.INTRA.norm>
0.156946

>  <SCORE.RESTR>
0.026314

>  <SCORE.RESTR.CAVITY>
0.026314

>  <SCORE.RESTR.norm>
0.00109642

>  <SCORE.SYSTEM>
0

>  <SCORE.SYSTEM.CONST>
0

>  <SCORE.SYSTEM.DIHEDRAL>
0

>  <SCORE.SYSTEM.SOLV>
0

>  <SCORE.SYSTEM.norm>
0

>  <SCORE.heavy>
24

>  <SCORE.norm>
-0.615082

>  <RMSD>
2.891

$$$$
lig.pdb
 OpenBabel11021811453D
libRbt.so/2013.1/901 2013/11/27
 24 24  0  0  0  0  0  0  0  0999 V2000
    7.8785   -2.4401   -1.1933 C   0  0  0  0  0  0  0  0  0  0  0  0
    6.8492   -3.4388   -1.1286 C   0  0  0  0  0  0  0  0  0  0  0  0
    5.5250   -3.1270   -1.3269 C   0  0  0  0  0  0  0  0  0  0  0  0
    5.1018   -1.7909   -1.6185 C   0  0  0  0  0  0  0  0  0  0  0  0
    6.1268   -0.7888   -1.6494 C   0  0  0  0  0  0  0  0  0  0  0  0
    7.4482   -1.0976   -1.4436 C   0  0  0  0  0  0  0  0  0  0  0  0
    9.1996   -2.7444   -1.0295 C   0  0  0  0  0  0  0  0  0  0  0  0
    9.6403   -4.0055   -0.8330 N   0  0  0  0  0  0  0  0  0  0  0  0
    2.7771   -2.3409   -1.6582 N   0  0  0  0  0  0  0  0  0  0  0  0
    3.7957   -1.4767   -1.8528 C   0  0  0  0  0  0  0  0  0  0  0  0
   10.1720   -1.7995   -1.0561 N   0  0  0  0  0  0  0  0  0  0  0  0
    3.4085   -0.2607   -2.3061 N   0  0  0  0  0  0  0  0  0  0  0  0
   11.5210   -1.9495   -1.5982 C   0  0  0  0  0  0  0  0  0  0  0  0
    2.0779    0.3244   -2.1730 C   0  0  0  0  0  0  0  0  0  0  0  0
   11.7272   -0.8634   -2.6663 C   0  0  0  0  0  0  0  0  0  0  0  0
    1.8859    0.7329   -0.7006 C   0  0  0  0  0  0  0  0  0  0  0  0
   13.1980   -0.7916   -3.0993 C   0  0  0  0  0  0  0  0  0  0  0  0
    0.5135    1.3791   -0.4378 C   0  0  0  0  0  0  0  0  0  0  0  0
   13.9977   -0.0901   -2.0315 N   0  0  0  0  0  0  0  0  0  0  0  0
    0.3217    1.6959    1.0238 N   0  0  0  0  0  0  0  0  0  0  0  0
   15.0913    0.7276   -2.6633 C   0  0  0  0  0  0  0  0  0  0  0  0
   -0.0696    0.4351    1.7468 C   0  0  0  0  0  0  0  0  0  0  0  0
   14.6006   -1.0845   -1.0704 C   0  0  0  0  0  0  0  0  0  0  0  0
   -0.7414    2.7354    1.2451 C   0  0  0  0  0  0  0  0  0  0  0  0
  1  6  2  0  0  0  0
  2  3  2  0  0  0  0
  2  1  1  0  0  0  0
  3  4  1  0  0  0  0
  4 10  1  0  0  0  0
  4  5  2  0  0  0  0
  6  5  1  0  0  0  0
  7  1  1  0  0  0  0
  7 11  1  0  0  0  0
  8  7  2  0  0  0  0
  9 10  2  0  0  0  0
 10 12  1  0  0  0  0
 12 14  1  0  0  0  0
 13 11  1  0  0  0  0
 13 15  1  0  0  0  0
 14 16  1  0  0  0  0
 16 18  1  0  0  0  0
 17 15  1  0  0  0  0
 17 19  1  0  0  0  0
 18 20  1  0  0  0  0
 19 23  1  0  0  0  0
 20 22  1  0  0  0  0
 20 24  1  0  0  0  0
 21 19  1  0  0  0  0
M  END
>  <CHROM.1>
9.14905934,1.91268921,72.78771787,123.19523686,169.67136456,179.46206358
176.71245182,-76.19720478,-145.10102869,-79.77356816,6.76391576,-0.87164292
-1.20619089,0.16441270,-0.13319454,-3.01049349

>  <Name>
lig.pdb

>  <RI>
0

>  <Rbt.Current_Directory>
/home/itssahil/PROJECTS/Mol_Feturizer/New_Systems/rnas/2l94

>  <Rbt.Executable>
rbdock ($Id: //depot/dev/client3/rdock/2013.1/src/exe/rbdock.cxx#4 $)

>  <Rbt.Library>
libRbt.so (2013.1, Build901 2013/11/27)

>  <Rbt.Parameter_File>
/export/apps/rDock/src/rDock_2013.1_src/data/scripts/dock_solv.prm

>  <Rbt.Receptor>
prm/pocket_docking_4.prm

>  <SCORE>
-12.9657

>  <SCORE.INTER>
-11.776

>  <SCORE.INTER.CONST>
1

>  <SCORE.INTER.POLAR>
-1.82496

>  <SCORE.INTER.ROT>
10

>  <SCORE.INTER.SOLV>
8.46534

>  <SCORE.INTER.VDW>
-14.8559

>  <SCORE.INTER.norm>
-0.490667

>  <SCORE.INTRA>
-1.19352

>  <SCORE.INTRA.DIHEDRAL>
2.10176

>  <SCORE.INTRA.DIHEDRAL.0>
7.52971

>  <SCORE.INTRA.POLAR>
0

>  <SCORE.INTRA.POLAR.0>
0

>  <SCORE.INTRA.REPUL>
0

>  <SCORE.INTRA.REPUL.0>
0

>  <SCORE.INTRA.SOLV>
-0.0448251

>  <SCORE.INTRA.SOLV.lig_0>
-22.1084

>  <SCORE.INTRA.VDW>
-2.22199

>  <SCORE.INTRA.VDW.0>
2.4256

>  <SCORE.INTRA.norm>
-0.0497302

>  <SCORE.RESTR>
0.00387277

>  <SCORE.RESTR.CAVITY>
0.00387277

>  <SCORE.RESTR.norm>
0.000161365

>  <SCORE.SYSTEM>
0

>  <SCORE.SYSTEM.CONST>
0

>  <SCORE.SYSTEM.DIHEDRAL>
0

>  <SCORE.SYSTEM.SOLV>
0

>  <SCORE.SYSTEM.norm>
0

>  <SCORE.heavy>
24

>  <SCORE.norm>
-0.540236

>  <RMSD>
2.916

$$$$
lig.pdb
 OpenBabel11021811453D
libRbt.so/2013.1/901 2013/11/27
 24 24  0  0  0  0  0  0  0  0999 V2000
    8.6292   -1.6749   -0.3115 C   0  0  0  0  0  0  0  0  0  0  0  0
    7.3212   -2.1960   -0.0311 C   0  0  0  0  0  0  0  0  0  0  0  0
    6.2631   -1.3715    0.2699 C   0  0  0  0  0  0  0  0  0  0  0  0
    6.4060    0.0523    0.3102 C   0  0  0  0  0  0  0  0  0  0  0  0
    7.7202    0.5694    0.0631 C   0  0  0  0  0  0  0  0  0  0  0  0
    8.7792   -0.2533   -0.2295 C   0  0  0  0  0  0  0  0  0  0  0  0
    9.6792   -2.4827   -0.6427 C   0  0  0  0  0  0  0  0  0  0  0  0
    9.5171   -3.6906   -1.2239 N   0  0  0  0  0  0  0  0  0  0  0  0
    5.2641    2.1395    0.0910 N   0  0  0  0  0  0  0  0  0  0  0  0
    5.3553    0.8815    0.5717 C   0  0  0  0  0  0  0  0  0  0  0  0
   10.9685   -2.1289   -0.4154 N   0  0  0  0  0  0  0  0  0  0  0  0
    4.3073    0.5085    1.3441 N   0  0  0  0  0  0  0  0  0  0  0  0
   12.1208   -2.4378   -1.2598 C   0  0  0  0  0  0  0  0  0  0  0  0
    2.9745    1.1035    1.3328 C   0  0  0  0  0  0  0  0  0  0  0  0
   12.8943   -1.1321   -1.5040 C   0  0  0  0  0  0  0  0  0  0  0  0
    2.8355    1.9768    2.5936 C   0  0  0  0  0  0  0  0  0  0  0  0
   13.5533   -0.6344   -0.2101 C   0  0  0  0  0  0  0  0  0  0  0  0
    1.3697    2.1746    3.0204 C   0  0  0  0  0  0  0  0  0  0  0  0
   14.9177   -1.2603   -0.0736 N   0  0  0  0  0  0  0  0  0  0  0  0
    0.6975    3.2526    2.2083 N   0  0  0  0  0  0  0  0  0  0  0  0
   15.3752   -1.1868    1.3577 C   0  0  0  0  0  0  0  0  0  0  0  0
   -0.6140    3.6037    2.8581 C   0  0  0  0  0  0  0  0  0  0  0  0
   15.9197   -0.5646   -0.9613 C   0  0  0  0  0  0  0  0  0  0  0  0
    0.4400    2.8196    0.7919 C   0  0  0  0  0  0  0  0  0  0  0  0
  1  6  2  0  0  0  0
  2  3  2  0  0  0  0
  2  1  1  0  0  0  0
  3  4  1  0  0  0  0
  4 10  1  0  0  0  0
  4  5  2  0  0  0  0
  6  5  1  0  0  0  0
  7  1  1  0  0  0  0
  7 11  1  0  0  0  0
  8  7  2  0  0  0  0
  9 10  2  0  0  0  0
 10 12  1  0  0  0  0
 12 14  1  0  0  0  0
 13 11  1  0  0  0  0
 13 15  1  0  0  0  0
 14 16  1  0  0  0  0
 16 18  1  0  0  0  0
 17 15  1  0  0  0  0
 17 19  1  0  0  0  0
 18 20  1  0  0  0  0
 19 23  1  0  0  0  0
 20 22  1  0  0  0  0
 20 24  1  0  0  0  0
 21 19  1  0  0  0  0
M  END
>  <CHROM.1>
-150.82740682,26.12862316,-105.03874379,129.86210253,68.36279334,-155.85441843
-80.82082104,88.06938981,-160.36789431,-167.89340458,7.61833482,-0.04658644
0.43043029,0.36775588,-0.03908029,-2.69962884

>  <Name>
lig.pdb

>  <RI>
1.09765e+07

>  <Rbt.Current_Directory>
/home/itssahil/PROJECTS/Mol_Feturizer/New_Systems/rnas/2l94

>  <Rbt.Executable>
rbdock ($Id: //depot/dev/client3/rdock/2013.1/src/exe/rbdock.cxx#4 $)

>  <Rbt.Library>
libRbt.so (2013.1, Build901 2013/11/27)

>  <Rbt.Parameter_File>
/export/apps/rDock/src/rDock_2013.1_src/data/scripts/dock_solv.prm

>  <Rbt.Receptor>
prm/pocket_docking_3.prm

>  <SCORE>
-16.6549

>  <SCORE.INTER>
-19.8692

>  <SCORE.INTER.CONST>
1

>  <SCORE.INTER.POLAR>
-3.04191

>  <SCORE.INTER.ROT>
10

>  <SCORE.INTER.SOLV>
6.50491

>  <SCORE.INTER.VDW>
-15.5414

>  <SCORE.INTER.norm>
-0.827882

>  <SCORE.INTRA>
2.85678

>  <SCORE.INTRA.DIHEDRAL>
10.0472

>  <SCORE.INTRA.DIHEDRAL.0>
7.52971

>  <SCORE.INTRA.POLAR>
0

>  <SCORE.INTRA.POLAR.0>
0

>  <SCORE.INTRA.REPUL>
0

>  <SCORE.INTRA.REPUL.0>
0

>  <SCORE.INTRA.SOLV>
0.123653

>  <SCORE.INTRA.SOLV.lig_0>
-22.1084

>  <SCORE.INTRA.VDW>
-2.22867

>  <SCORE.INTRA.VDW.0>
2.4256

>  <SCORE.INTRA.norm>
0.119033

>  <SCORE.RESTR>
0.357488

>  <SCORE.RESTR.CAVITY>
0.357488

>  <SCORE.RESTR.norm>
0.0148953

>  <SCORE.SYSTEM>
0

>  <SCORE.SYSTEM.CONST>
0

>  <SCORE.SYSTEM.DIHEDRAL>
0

>  <SCORE.SYSTEM.SOLV>
0

>  <SCORE.SYSTEM.norm>
0

>  <SCORE.heavy>
24

>  <SCORE.norm>
-0.693954

>  <RMSD>
2.918

$$$$
lig.pdb
 OpenBabel11021811453D
libRbt.so/2013.1/901 2013/11/27
 24 24  0  0  0  0  0  0  0  0999 V2000
    5.7067   -2.3796   -2.4504 C   0  0  0  0  0  0  0  0  0  0  0  0
    4.8432   -2.8063   -1.3858 C   0  0  0  0  0  0  0  0  0  0  0  0
    3.6761   -2.1423   -1.0907 C   0  0  0  0  0  0  0  0  0  0  0  0
    3.2537   -0.9951   -1.8356 C   0  0  0  0  0  0  0  0  0  0  0  0
    4.1336   -0.5501   -2.8765 C   0  0  0  0  0  0  0  0  0  0  0  0
    5.3030   -1.2074   -3.1667 C   0  0  0  0  0  0  0  0  0  0  0  0
    6.8517   -3.0505   -2.7724 C   0  0  0  0  0  0  0  0  0  0  0  0
    7.6937   -2.6355   -3.7429 N   0  0  0  0  0  0  0  0  0  0  0  0
    1.2764   -0.6619   -0.5365 N   0  0  0  0  0  0  0  0  0  0  0  0
    2.0804   -0.3507   -1.5753 C   0  0  0  0  0  0  0  0  0  0  0  0
    7.2323   -4.1861   -2.1362 N   0  0  0  0  0  0  0  0  0  0  0  0
    1.6193    0.6633   -2.3454 N   0  0  0  0  0  0  0  0  0  0  0  0
    8.6000   -4.5948   -1.8222 C   0  0  0  0  0  0  0  0  0  0  0  0
    0.6591    1.6850   -1.9396 C   0  0  0  0  0  0  0  0  0  0  0  0
    9.1249   -3.6786   -0.7052 C   0  0  0  0  0  0  0  0  0  0  0  0
    1.4500    2.9410   -1.5290 C   0  0  0  0  0  0  0  0  0  0  0  0
    9.3458   -2.2511   -1.2245 C   0  0  0  0  0  0  0  0  0  0  0  0
    2.5166    2.6475   -0.4584 C   0  0  0  0  0  0  0  0  0  0  0  0
    9.8992   -1.3969   -0.1128 N   0  0  0  0  0  0  0  0  0  0  0  0
    3.4580    3.8119   -0.2812 N   0  0  0  0  0  0  0  0  0  0  0  0
    9.5643    0.0487   -0.3611 C   0  0  0  0  0  0  0  0  0  0  0  0
    4.3037    3.9456   -1.5192 C   0  0  0  0  0  0  0  0  0  0  0  0
   11.3953   -1.5582   -0.0044 C   0  0  0  0  0  0  0  0  0  0  0  0
    4.3593    3.6376    0.9092 C   0  0  0  0  0  0  0  0  0  0  0  0
  1  6  2  0  0  0  0
  2  3  2  0  0  0  0
  2  1  1  0  0  0  0
  3  4  1  0  0  0  0
  4 10  1  0  0  0  0
  4  5  2  0  0  0  0
  6  5  1  0  0  0  0
  7  1  1  0  0  0  0
  7 11  1  0  0  0  0
  8  7  2  0  0  0  0
  9 10  2  0  0  0  0
 10 12  1  0  0  0  0
 12 14  1  0  0  0  0
 13 11  1  0  0  0  0
 13 15  1  0  0  0  0
 14 16  1  0  0  0  0
 16 18  1  0  0  0  0
 17 15  1  0  0  0  0
 17 19  1  0  0  0  0
 18 20  1  0  0  0  0
 19 23  1  0  0  0  0
 20 22  1  0  0  0  0
 20 24  1  0  0  0  0
 21 19  1  0  0  0  0
M  END
>  <CHROM.1>
5.64732083,-177.83511390,97.69772658,71.10279570,-69.66859548,-54.13471270
168.24682461,-178.28002930,-155.08221818,-68.82308843,5.39178117,-0.57154012
-1.42142718,0.58082629,0.21499366,-2.78634937

>  <Name>
lig.pdb

>  <RI>
1.71133e+07

>  <Rbt.Current_Directory>
/home/itssahil/PROJECTS/Mol_Feturizer/New_Systems/rnas/2l94

>  <Rbt.Executable>
rbdock ($Id: //depot/dev/client3/rdock/2013.1/src/exe/rbdock.cxx#4 $)

>  <Rbt.Library>
libRbt.so (2013.1, Build901 2013/11/27)

>  <Rbt.Parameter_File>
/export/apps/rDock/src/rDock_2013.1_src/data/scripts/dock_solv.prm

>  <Rbt.Receptor>
prm/pocket_docking_5.prm

>  <SCORE>
-22.4991

>  <SCORE.INTER>
-20.5763

>  <SCORE.INTER.CONST>
1

>  <SCORE.INTER.POLAR>
-3.2302

>  <SCORE.INTER.ROT>
10

>  <SCORE.INTER.SOLV>
11.5437

>  <SCORE.INTER.VDW>
-17.0648

>  <SCORE.INTER.norm>
-0.857345

>  <SCORE.INTRA>
-1.92278

>  <SCORE.INTRA.DIHEDRAL>
-0.0911108

>  <SCORE.INTRA.DIHEDRAL.0>
7.52971

>  <SCORE.INTRA.POLAR>
0

>  <SCORE.INTRA.POLAR.0>
0

>  <SCORE.INTRA.REPUL>
0

>  <SCORE.INTRA.REPUL.0>
0

>  <SCORE.INTRA.SOLV>
1.12623

>  <SCORE.INTRA.SOLV.lig_0>
-22.1084

>  <SCORE.INTRA.VDW>
-2.44034

>  <SCORE.INTRA.VDW.0>
2.4256

>  <SCORE.INTRA.norm>
-0.0801157

>  <SCORE.RESTR>
0

>  <SCORE.RESTR.CAVITY>
0

>  <SCORE.RESTR.norm>
0

>  <SCORE.SYSTEM>
0

>  <SCORE.SYSTEM.CONST>
0

>  <SCORE.SYSTEM.DIHEDRAL>
0

>  <SCORE.SYSTEM.SOLV>
0

>  <SCORE.SYSTEM.norm>
0

>  <SCORE.heavy>
24

>  <SCORE.norm>
-0.937461

>  <RMSD>
2.928

$$$$
lig.pdb
 OpenBabel11021811453D
libRbt.so/2013.1/901 2013/11/27
 24 24  0  0  0  0  0  0  0  0999 V2000
    4.6689    1.5737    0.7567 C   0  0  0  0  0  0  0  0  0  0  0  0
    4.7803    0.6662    1.8636 C   0  0  0  0  0  0  0  0  0  0  0  0
    5.6066   -0.4317    1.8187 C   0  0  0  0  0  0  0  0  0  0  0  0
    6.4084   -0.7239    0.6694 C   0  0  0  0  0  0  0  0  0  0  0  0
    6.2708    0.1642   -0.4478 C   0  0  0  0  0  0  0  0  0  0  0  0
    5.4401    1.2560   -0.4071 C   0  0  0  0  0  0  0  0  0  0  0  0
    3.8757    2.6843    0.8028 C   0  0  0  0  0  0  0  0  0  0  0  0
    4.1458    3.8050    0.0999 N   0  0  0  0  0  0  0  0  0  0  0  0
    7.5967   -2.5131    1.7158 N   0  0  0  0  0  0  0  0  0  0  0  0
    7.2585   -1.7894    0.6277 C   0  0  0  0  0  0  0  0  0  0  0  0
    2.7508    2.7434    1.5578 N   0  0  0  0  0  0  0  0  0  0  0  0
    7.8409   -2.2127   -0.5194 N   0  0  0  0  0  0  0  0  0  0  0  0
    1.5085    3.4360    1.2213 C   0  0  0  0  0  0  0  0  0  0  0  0
    8.3834   -3.5445   -0.7692 C   0  0  0  0  0  0  0  0  0  0  0  0
    0.3899    2.3858    1.1264 C   0  0  0  0  0  0  0  0  0  0  0  0
    9.8116   -3.3778   -1.3206 C   0  0  0  0  0  0  0  0  0  0  0  0
    0.3156    1.7893   -0.2859 C   0  0  0  0  0  0  0  0  0  0  0  0
   10.7663   -2.7204   -0.3075 C   0  0  0  0  0  0  0  0  0  0  0  0
    1.3519    0.7034   -0.4229 N   0  0  0  0  0  0  0  0  0  0  0  0
   10.8038   -1.2223   -0.4740 N   0  0  0  0  0  0  0  0  0  0  0  0
    1.6871    0.4941   -1.8746 C   0  0  0  0  0  0  0  0  0  0  0  0
   11.6135   -0.8897   -1.6985 C   0  0  0  0  0  0  0  0  0  0  0  0
    0.8568   -0.5908    0.1736 C   0  0  0  0  0  0  0  0  0  0  0  0
   11.4124   -0.5335    0.7155 C   0  0  0  0  0  0  0  0  0  0  0  0
  1  6  2  0  0  0  0
  2  3  2  0  0  0  0
  2  1  1  0  0  0  0
  3  4  1  0  0  0  0
  4 10  1  0  0  0  0
  4  5  2  0  0  0  0
  6  5  1  0  0  0  0
  7  1  1  0  0  0  0
  7 11  1  0  0  0  0
  8  7  2  0  0  0  0
  9 10  2  0  0  0  0
 10 12  1  0  0  0  0
 12 14  1  0  0  0  0
 13 11  1  0  0  0  0
 13 15  1  0  0  0  0
 14 16  1  0  0  0  0
 16 18  1  0  0  0  0
 17 15  1  0  0  0  0
 17 19  1  0  0  0  0
 18 20  1  0  0  0  0
 19 23  1  0  0  0  0
 20 22  1  0  0  0  0
 20 24  1  0  0  0  0
 21 19  1  0  0  0  0
M  END
>  <CHROM.1>
-11.97317153,150.96002830,-129.32953775,117.72958906,-87.31292086,63.60571790
-91.90669710,82.13917571,-157.27938300,-75.13768588,5.66479637,0.03909841
0.17254648,-2.69207391,0.02460036,-2.90065824

>  <Name>
lig.pdb

>  <RI>
0

>  <Rbt.Current_Directory>
/home/itssahil/PROJECTS/Mol_Feturizer/New_Systems/rnas/2l94

>  <Rbt.Executable>
rbdock ($Id: //depot/dev/client3/rdock/2013.1/src/exe/rbdock.cxx#4 $)

>  <Rbt.Library>
libRbt.so (2013.1, Build901 2013/11/27)

>  <Rbt.Parameter_File>
/export/apps/rDock/src/rDock_2013.1_src/data/scripts/dock_solv.prm

>  <Rbt.Receptor>
prm/pocket_docking_4.prm

>  <SCORE>
-17.3327

>  <SCORE.INTER>
-18.4042

>  <SCORE.INTER.CONST>
1

>  <SCORE.INTER.POLAR>
-2.56186

>  <SCORE.INTER.ROT>
10

>  <SCORE.INTER.SOLV>
7.90174

>  <SCORE.INTER.VDW>
-16.6305

>  <SCORE.INTER.norm>
-0.76684

>  <SCORE.INTRA>
1.0715

>  <SCORE.INTRA.DIHEDRAL>
9.58986

>  <SCORE.INTRA.DIHEDRAL.0>
7.52971

>  <SCORE.INTRA.POLAR>
0

>  <SCORE.INTRA.POLAR.0>
0

>  <SCORE.INTRA.REPUL>
0

>  <SCORE.INTRA.REPUL.0>
0

>  <SCORE.INTRA.SOLV>
2.44188

>  <SCORE.INTRA.SOLV.lig_0>
-22.1084

>  <SCORE.INTRA.VDW>
-4.94437

>  <SCORE.INTRA.VDW.0>
2.4256

>  <SCORE.INTRA.norm>
0.0446458

>  <SCORE.RESTR>
0

>  <SCORE.RESTR.CAVITY>
0

>  <SCORE.RESTR.norm>
0

>  <SCORE.SYSTEM>
0

>  <SCORE.SYSTEM.CONST>
0

>  <SCORE.SYSTEM.DIHEDRAL>
0

>  <SCORE.SYSTEM.SOLV>
0

>  <SCORE.SYSTEM.norm>
0

>  <SCORE.heavy>
24

>  <SCORE.norm>
-0.722194

>  <RMSD>
2.934

$$$$
lig.pdb
 OpenBabel11021811453D
libRbt.so/2013.1/901 2013/11/27
 24 24  0  0  0  0  0  0  0  0999 V2000
    8.3879   -1.6925   -1.9207 C   0  0  0  0  0  0  0  0  0  0  0  0
    8.3295   -0.2864   -2.2044 C   0  0  0  0  0  0  0  0  0  0  0  0
    7.1497    0.3362   -2.5372 C   0  0  0  0  0  0  0  0  0  0  0  0
    5.9137   -0.3823   -2.6092 C   0  0  0  0  0  0  0  0  0  0  0  0
    5.9793   -1.7925   -2.3587 C   0  0  0  0  0  0  0  0  0  0  0  0
    7.1578   -2.4166   -2.0342 C   0  0  0  0  0  0  0  0  0  0  0  0
    9.5482   -2.3145   -1.5581 C   0  0  0  0  0  0  0  0  0  0  0  0
    9.9548   -3.4798   -2.1056 N   0  0  0  0  0  0  0  0  0  0  0  0
    4.5797    1.1010   -3.9240 N   0  0  0  0  0  0  0  0  0  0  0  0
    4.7318    0.2315   -2.9027 C   0  0  0  0  0  0  0  0  0  0  0  0
   10.3842   -1.8042   -0.6201 N   0  0  0  0  0  0  0  0  0  0  0  0
    3.6025    0.0190   -2.1862 N   0  0  0  0  0  0  0  0  0  0  0  0
   11.8440   -1.8765   -0.6192 C   0  0  0  0  0  0  0  0  0  0  0  0
    2.2358    0.2487   -2.6445 C   0  0  0  0  0  0  0  0  0  0  0  0
   12.3762   -0.7415   -1.5090 C   0  0  0  0  0  0  0  0  0  0  0  0
    1.5914    1.2882   -1.7086 C   0  0  0  0  0  0  0  0  0  0  0  0
   13.8778   -0.9128   -1.7775 C   0  0  0  0  0  0  0  0  0  0  0  0
    2.0272    2.7289   -2.0316 C   0  0  0  0  0  0  0  0  0  0  0  0
   14.6597   -0.2756   -0.6575 N   0  0  0  0  0  0  0  0  0  0  0  0
    2.4095    3.4844   -0.7840 N   0  0  0  0  0  0  0  0  0  0  0  0
   16.0670    0.0055   -1.1092 C   0  0  0  0  0  0  0  0  0  0  0  0
    3.6962    2.9167   -0.2475 C   0  0  0  0  0  0  0  0  0  0  0  0
   14.6874   -1.1709    0.5564 C   0  0  0  0  0  0  0  0  0  0  0  0
    1.3535    3.3924    0.2819 C   0  0  0  0  0  0  0  0  0  0  0  0
  1  6  2  0  0  0  0
  2  3  2  0  0  0  0
  2  1  1  0  0  0  0
  3  4  1  0  0  0  0
  4 10  1  0  0  0  0
  4  5  2  0  0  0  0
  6  5  1  0  0  0  0
  7  1  1  0  0  0  0
  7 11  1  0  0  0  0
  8  7  2  0  0  0  0
  9 10  2  0  0  0  0
 10 12  1  0  0  0  0
 12 14  1  0  0  0  0
 13 11  1  0  0  0  0
 13 15  1  0  0  0  0
 14 16  1  0  0  0  0
 16 18  1  0  0  0  0
 17 15  1  0  0  0  0
 17 19  1  0  0  0  0
 18 20  1  0  0  0  0
 19 23  1  0  0  0  0
 20 22  1  0  0  0  0
 20 24  1  0  0  0  0
 21 19  1  0  0  0  0
M  END
>  <CHROM.1>
47.02976268,-133.40691703,-119.92665956,82.94439765,-169.03189102,78.80912962
-133.73704086,-86.32634089,-160.05420572,69.78318544,7.63515706,-0.09319223
-1.60142663,0.21554849,0.17493183,-2.69937192

>  <Name>
lig.pdb

>  <RI>
1.09765e+07

>  <Rbt.Current_Directory>
/home/itssahil/PROJECTS/Mol_Feturizer/New_Systems/rnas/2l94

>  <Rbt.Executable>
rbdock ($Id: //depot/dev/client3/rdock/2013.1/src/exe/rbdock.cxx#4 $)

>  <Rbt.Library>
libRbt.so (2013.1, Build901 2013/11/27)

>  <Rbt.Parameter_File>
/export/apps/rDock/src/rDock_2013.1_src/data/scripts/dock_solv.prm

>  <Rbt.Receptor>
prm/pocket_docking_3.prm

>  <SCORE>
-10.388

>  <SCORE.INTER>
-19.8416

>  <SCORE.INTER.CONST>
1

>  <SCORE.INTER.POLAR>
-3.70336

>  <SCORE.INTER.ROT>
10

>  <SCORE.INTER.SOLV>
8.15688

>  <SCORE.INTER.VDW>
-13.8688

>  <SCORE.INTER.norm>
-0.826732

>  <SCORE.INTRA>
9.45356

>  <SCORE.INTRA.DIHEDRAL>
20.7017

>  <SCORE.INTRA.DIHEDRAL.0>
7.52971

>  <SCORE.INTRA.POLAR>
0

>  <SCORE.INTRA.POLAR.0>
0

>  <SCORE.INTRA.REPUL>
0

>  <SCORE.INTRA.REPUL.0>
0

>  <SCORE.INTRA.SOLV>
0.661175

>  <SCORE.INTRA.SOLV.lig_0>
-22.1084

>  <SCORE.INTRA.VDW>
-1.22789

>  <SCORE.INTRA.VDW.0>
2.4256

>  <SCORE.INTRA.norm>
0.393898

>  <SCORE.RESTR>
0

>  <SCORE.RESTR.CAVITY>
0

>  <SCORE.RESTR.norm>
0

>  <SCORE.SYSTEM>
0

>  <SCORE.SYSTEM.CONST>
0

>  <SCORE.SYSTEM.DIHEDRAL>
0

>  <SCORE.SYSTEM.SOLV>
0

>  <SCORE.SYSTEM.norm>
0

>  <SCORE.heavy>
24

>  <SCORE.norm>
-0.432833

>  <RMSD>
2.986

$$$$
lig.pdb
 OpenBabel11021811453D
libRbt.so/2013.1/901 2013/11/27
 24 24  0  0  0  0  0  0  0  0999 V2000
    5.3197   -2.0445   -1.5247 C   0  0  0  0  0  0  0  0  0  0  0  0
    6.2411   -1.1221   -0.9236 C   0  0  0  0  0  0  0  0  0  0  0  0
    7.5870   -1.3913   -0.8456 C   0  0  0  0  0  0  0  0  0  0  0  0
    8.1442   -2.6018   -1.3685 C   0  0  0  0  0  0  0  0  0  0  0  0
    7.2185   -3.5369   -1.9382 C   0  0  0  0  0  0  0  0  0  0  0  0
    5.8735   -3.2728   -2.0094 C   0  0  0  0  0  0  0  0  0  0  0  0
    3.9860   -1.7731   -1.6360 C   0  0  0  0  0  0  0  0  0  0  0  0
    3.0559   -2.7366   -1.8080 N   0  0  0  0  0  0  0  0  0  0  0  0
   10.0887   -3.7571   -2.1383 N   0  0  0  0  0  0  0  0  0  0  0  0
    9.4820   -2.8629   -1.3292 C   0  0  0  0  0  0  0  0  0  0  0  0
    3.4938   -0.5108   -1.5778 N   0  0  0  0  0  0  0  0  0  0  0  0
   10.3207   -2.2422   -0.4659 N   0  0  0  0  0  0  0  0  0  0  0  0
    2.2249   -0.0947   -0.9837 C   0  0  0  0  0  0  0  0  0  0  0  0
   11.7656   -2.1027   -0.6189 C   0  0  0  0  0  0  0  0  0  0  0  0
    1.6860    1.0927   -1.7978 C   0  0  0  0  0  0  0  0  0  0  0  0
   12.0636   -0.6357   -0.9806 C   0  0  0  0  0  0  0  0  0  0  0  0
    0.4461    1.7003   -1.1274 C   0  0  0  0  0  0  0  0  0  0  0  0
   13.5401   -0.2585   -0.7628 C   0  0  0  0  0  0  0  0  0  0  0  0
    0.8244    2.2298    0.2321 N   0  0  0  0  0  0  0  0  0  0  0  0
   14.4137   -0.7761   -1.8774 N   0  0  0  0  0  0  0  0  0  0  0  0
   -0.4156    2.5604    1.0174 C   0  0  0  0  0  0  0  0  0  0  0  0
   15.8504   -0.7272   -1.4312 C   0  0  0  0  0  0  0  0  0  0  0  0
    1.6881    3.4606    0.1087 C   0  0  0  0  0  0  0  0  0  0  0  0
   14.2660    0.0315   -3.1367 C   0  0  0  0  0  0  0  0  0  0  0  0
  1  6  2  0  0  0  0
  2  3  2  0  0  0  0
  2  1  1  0  0  0  0
  3  4  1  0  0  0  0
  4 10  1  0  0  0  0
  4  5  2  0  0  0  0
  6  5  1  0  0  0  0
  7  1  1  0  0  0  0
  7 11  1  0  0  0  0
  8  7  2  0  0  0  0
  9 10  2  0  0  0  0
 10 12  1  0  0  0  0
 12 14  1  0  0  0  0
 13 11  1  0  0  0  0
 13 15  1  0  0  0  0
 14 16  1  0  0  0  0
 16 18  1  0  0  0  0
 17 15  1  0  0  0  0
 17 19  1  0  0  0  0
 18 20  1  0  0  0  0
 19 23  1  0  0  0  0
 20 22  1  0  0  0  0
 20 24  1  0  0  0  0
 21 19  1  0  0  0  0
M  END
>  <CHROM.1>
-159.25872687,-159.27393716,107.06905413,-146.90682510,-172.73528060,162.97686073
77.69678891,62.10500409,-168.05564018,-164.14785717,7.06690145,-0.83968419
-1.19796286,2.92818398,0.02941906,0.24811185

>  <Name>
lig.pdb

>  <RI>
1.71133e+07

>  <Rbt.Current_Directory>
/home/itssahil/PROJECTS/Mol_Feturizer/New_Systems/rnas/2l94

>  <Rbt.Executable>
rbdock ($Id: //depot/dev/client3/rdock/2013.1/src/exe/rbdock.cxx#4 $)

>  <Rbt.Library>
libRbt.so (2013.1, Build901 2013/11/27)

>  <Rbt.Parameter_File>
/export/apps/rDock/src/rDock_2013.1_src/data/scripts/dock_solv.prm

>  <Rbt.Receptor>
prm/pocket_docking_5.prm

>  <SCORE>
-22.369

>  <SCORE.INTER>
-22.3198

>  <SCORE.INTER.CONST>
1

>  <SCORE.INTER.POLAR>
-3.24604

>  <SCORE.INTER.ROT>
10

>  <SCORE.INTER.SOLV>
9.61428

>  <SCORE.INTER.VDW>
-17.5311

>  <SCORE.INTER.norm>
-0.92999

>  <SCORE.INTRA>
-0.0492714

>  <SCORE.INTRA.DIHEDRAL>
3.71202

>  <SCORE.INTRA.DIHEDRAL.0>
7.52971

>  <SCORE.INTRA.POLAR>
0

>  <SCORE.INTRA.POLAR.0>
0

>  <SCORE.INTRA.REPUL>
0

>  <SCORE.INTRA.REPUL.0>
0

>  <SCORE.INTRA.SOLV>
-0.145249

>  <SCORE.INTRA.SOLV.lig_0>
-22.1084

>  <SCORE.INTRA.VDW>
-1.83266

>  <SCORE.INTRA.VDW.0>
2.4256

>  <SCORE.INTRA.norm>
-0.00205298

>  <SCORE.RESTR>
0

>  <SCORE.RESTR.CAVITY>
0

>  <SCORE.RESTR.norm>
0

>  <SCORE.SYSTEM>
0

>  <SCORE.SYSTEM.CONST>
0

>  <SCORE.SYSTEM.DIHEDRAL>
0

>  <SCORE.SYSTEM.SOLV>
0

>  <SCORE.SYSTEM.norm>
0

>  <SCORE.heavy>
24

>  <SCORE.norm>
-0.932043

>  <RMSD>
3.003

$$$$
lig.pdb
 OpenBabel11021811453D
libRbt.so/2013.1/901 2013/11/27
 24 24  0  0  0  0  0  0  0  0999 V2000
    8.2312   -1.7398   -1.9134 C   0  0  0  0  0  0  0  0  0  0  0  0
    7.4500   -2.1332   -3.0519 C   0  0  0  0  0  0  0  0  0  0  0  0
    6.4615   -1.3269   -3.5646 C   0  0  0  0  0  0  0  0  0  0  0  0
    6.1643   -0.0468   -2.9969 C   0  0  0  0  0  0  0  0  0  0  0  0
    6.9222    0.3301   -1.8396 C   0  0  0  0  0  0  0  0  0  0  0  0
    7.9038   -0.4776   -1.3220 C   0  0  0  0  0  0  0  0  0  0  0  0
    9.2364   -2.5188   -1.4159 C   0  0  0  0  0  0  0  0  0  0  0  0
    9.6471   -3.6551   -2.0186 N   0  0  0  0  0  0  0  0  0  0  0  0
    4.3704    0.4065   -4.5084 N   0  0  0  0  0  0  0  0  0  0  0  0
    5.2111    0.7767   -3.5193 C   0  0  0  0  0  0  0  0  0  0  0  0
    9.9027   -2.2058   -0.2769 N   0  0  0  0  0  0  0  0  0  0  0  0
    5.0281    2.0467   -3.0861 N   0  0  0  0  0  0  0  0  0  0  0  0
   11.3202   -2.4346   -0.0034 C   0  0  0  0  0  0  0  0  0  0  0  0
    3.8125    2.8408   -3.2353 C   0  0  0  0  0  0  0  0  0  0  0  0
   12.1330   -1.4345   -0.8413 C   0  0  0  0  0  0  0  0  0  0  0  0
    3.3140    3.2120   -1.8263 C   0  0  0  0  0  0  0  0  0  0  0  0
   12.3968   -0.1445   -0.0525 C   0  0  0  0  0  0  0  0  0  0  0  0
    1.8575    2.7793   -1.5785 C   0  0  0  0  0  0  0  0  0  0  0  0
   13.2447   -0.4622    1.1525 N   0  0  0  0  0  0  0  0  0  0  0  0
    1.7257    1.2778   -1.5369 N   0  0  0  0  0  0  0  0  0  0  0  0
   13.2269    0.6961    2.1124 C   0  0  0  0  0  0  0  0  0  0  0  0
    0.4889    0.8776   -2.2955 C   0  0  0  0  0  0  0  0  0  0  0  0
   14.6666   -0.7607    0.7461 C   0  0  0  0  0  0  0  0  0  0  0  0
    1.6265    0.7551   -0.1309 C   0  0  0  0  0  0  0  0  0  0  0  0
  1  6  2  0  0  0  0
  2  3  2  0  0  0  0
  2  1  1  0  0  0  0
  3  4  1  0  0  0  0
  4 10  1  0  0  0  0
  4  5  2  0  0  0  0
  6  5  1  0  0  0  0
  7  1  1  0  0  0  0
  7 11  1  0  0  0  0
  8  7  2  0  0  0  0
  9 10  2  0  0  0  0
 10 12  1  0  0  0  0
 12 14  1  0  0  0  0
 13 11  1  0  0  0  0
 13 15  1  0  0  0  0
 14 16  1  0  0  0  0
 16 18  1  0  0  0  0
 17 15  1  0  0  0  0
 17 19  1  0  0  0  0
 18 20  1  0  0  0  0
 19 23  1  0  0  0  0
 20 22  1  0  0  0  0
 20 24  1  0  0  0  0
 21 19  1  0  0  0  0
M  END
>  <CHROM.1>
7.65782536,5.81593667,119.74220442,72.25157622,91.34528412,-124.72040118
67.52879479,63.47748951,-165.82883209,-137.83760494,7.35314911,-0.12457829
-1.50251036,0.07242099,0.36112511,-2.52087439

>  <Name>
lig.pdb

>  <RI>
1.09765e+07

>  <Rbt.Current_Directory>
/home/itssahil/PROJECTS/Mol_Feturizer/New_Systems/rnas/2l94

>  <Rbt.Executable>
rbdock ($Id: //depot/dev/client3/rdock/2013.1/src/exe/rbdock.cxx#4 $)

>  <Rbt.Library>
libRbt.so (2013.1, Build901 2013/11/27)

>  <Rbt.Parameter_File>
/export/apps/rDock/src/rDock_2013.1_src/data/scripts/dock_solv.prm

>  <Rbt.Receptor>
prm/pocket_docking_3.prm

>  <SCORE>
-11.2435

>  <SCORE.INTER>
-13.6231

>  <SCORE.INTER.CONST>
1

>  <SCORE.INTER.POLAR>
-2.71277

>  <SCORE.INTER.ROT>
10

>  <SCORE.INTER.SOLV>
9.05176

>  <SCORE.INTER.VDW>
-13.3234

>  <SCORE.INTER.norm>
-0.567628

>  <SCORE.INTRA>
2.35695

>  <SCORE.INTRA.DIHEDRAL>
9.53826

>  <SCORE.INTRA.DIHEDRAL.0>
7.52971

>  <SCORE.INTRA.POLAR>
0

>  <SCORE.INTRA.POLAR.0>
0

>  <SCORE.INTRA.REPUL>
0

>  <SCORE.INTRA.REPUL.0>
0

>  <SCORE.INTRA.SOLV>
0.827239

>  <SCORE.INTRA.SOLV.lig_0>
-22.1084

>  <SCORE.INTRA.VDW>
-2.8258

>  <SCORE.INTRA.VDW.0>
2.4256

>  <SCORE.INTRA.norm>
0.0982062

>  <SCORE.RESTR>
0.0226729

>  <SCORE.RESTR.CAVITY>
0.0226729

>  <SCORE.RESTR.norm>
0.000944705

>  <SCORE.SYSTEM>
0

>  <SCORE.SYSTEM.CONST>
0

>  <SCORE.SYSTEM.DIHEDRAL>
0

>  <SCORE.SYSTEM.SOLV>
0

>  <SCORE.SYSTEM.norm>
0

>  <SCORE.heavy>
24

>  <SCORE.norm>
-0.468477

>  <RMSD>
3.025

$$$$
lig.pdb
 OpenBabel11021811453D
libRbt.so/2013.1/901 2013/11/27
 24 24  0  0  0  0  0  0  0  0999 V2000
    6.3662   -0.1015   -3.2868 C   0  0  0  0  0  0  0  0  0  0  0  0
    6.5327   -1.5022   -3.5538 C   0  0  0  0  0  0  0  0  0  0  0  0
    7.6450   -2.1918   -3.1326 C   0  0  0  0  0  0  0  0  0  0  0  0
    8.6930   -1.5524   -2.3962 C   0  0  0  0  0  0  0  0  0  0  0  0
    8.5412   -0.1464   -2.1596 C   0  0  0  0  0  0  0  0  0  0  0  0
    7.4350    0.5447   -2.5867 C   0  0  0  0  0  0  0  0  0  0  0  0
    5.2510    0.5857   -3.6727 C   0  0  0  0  0  0  0  0  0  0  0  0
    4.1788   -0.0155   -4.2314 N   0  0  0  0  0  0  0  0  0  0  0  0
   10.0884   -3.4906   -2.3300 N   0  0  0  0  0  0  0  0  0  0  0  0
    9.7832   -2.2342   -1.9421 C   0  0  0  0  0  0  0  0  0  0  0  0
    5.1349    1.9281   -3.5193 N   0  0  0  0  0  0  0  0  0  0  0  0
   10.6574   -1.7031   -1.0547 N   0  0  0  0  0  0  0  0  0  0  0  0
    3.9177    2.6677   -3.1914 C   0  0  0  0  0  0  0  0  0  0  0  0
   12.0375   -2.1295   -0.8448 C   0  0  0  0  0  0  0  0  0  0  0  0
    3.3974    2.1508   -1.8404 C   0  0  0  0  0  0  0  0  0  0  0  0
   12.9547   -0.9309   -1.1509 C   0  0  0  0  0  0  0  0  0  0  0  0
    1.9967    2.7042   -1.5436 C   0  0  0  0  0  0  0  0  0  0  0  0
   13.7809   -0.4883    0.0703 C   0  0  0  0  0  0  0  0  0  0  0  0
    1.5843    2.2954   -0.1527 N   0  0  0  0  0  0  0  0  0  0  0  0
   15.0818   -1.2451    0.1622 N   0  0  0  0  0  0  0  0  0  0  0  0
    0.0846    2.2137   -0.0653 C   0  0  0  0  0  0  0  0  0  0  0  0
   15.5891   -1.1690    1.5773 C   0  0  0  0  0  0  0  0  0  0  0  0
    2.0980    3.2772    0.8710 C   0  0  0  0  0  0  0  0  0  0  0  0
   16.1289   -0.6894   -0.7623 C   0  0  0  0  0  0  0  0  0  0  0  0
  1  6  2  0  0  0  0
  2  3  2  0  0  0  0
  2  1  1  0  0  0  0
  3  4  1  0  0  0  0
  4 10  1  0  0  0  0
  4  5  2  0  0  0  0
  6  5  1  0  0  0  0
  7  1  1  0  0  0  0
  7 11  1  0  0  0  0
  8  7  2  0  0  0  0
  9 10  2  0  0  0  0
 10 12  1  0  0  0  0
 12 14  1  0  0  0  0
 13 11  1  0  0  0  0
 13 15  1  0  0  0  0
 14 16  1  0  0  0  0
 16 18  1  0  0  0  0
 17 15  1  0  0  0  0
 17 19  1  0  0  0  0
 18 20  1  0  0  0  0
 19 23  1  0  0  0  0
 20 22  1  0  0  0  0
 20 24  1  0  0  0  0
 21 19  1  0  0  0  0
M  END
>  <CHROM.1>
11.74101656,5.63868477,119.49152230,59.32443645,-170.22072076,118.50105878
87.96214375,-174.04330973,-152.71988489,-159.14842762,7.88737113,-0.03363925
-1.64443617,3.04704584,-0.30024369,0.93442665

>  <Name>
lig.pdb

>  <RI>
1.09765e+07

>  <Rbt.Current_Directory>
/home/itssahil/PROJECTS/Mol_Feturizer/New_Systems/rnas/2l94

>  <Rbt.Executable>
rbdock ($Id: //depot/dev/client3/rdock/2013.1/src/exe/rbdock.cxx#4 $)

>  <Rbt.Library>
libRbt.so (2013.1, Build901 2013/11/27)

>  <Rbt.Parameter_File>
/export/apps/rDock/src/rDock_2013.1_src/data/scripts/dock_solv.prm

>  <Rbt.Receptor>
prm/pocket_docking_3.prm

>  <SCORE>
-19.0601

>  <SCORE.INTER>
-20.6366

>  <SCORE.INTER.CONST>
1

>  <SCORE.INTER.POLAR>
-3.7872

>  <SCORE.INTER.ROT>
10

>  <SCORE.INTER.SOLV>
7.83289

>  <SCORE.INTER.VDW>
-14.0114

>  <SCORE.INTER.norm>
-0.859858

>  <SCORE.INTRA>
1.57328

>  <SCORE.INTRA.DIHEDRAL>
8.77149

>  <SCORE.INTRA.DIHEDRAL.0>
7.52971

>  <SCORE.INTRA.POLAR>
0

>  <SCORE.INTRA.POLAR.0>
0

>  <SCORE.INTRA.REPUL>
0

>  <SCORE.INTRA.REPUL.0>
0

>  <SCORE.INTRA.SOLV>
0.0287619

>  <SCORE.INTRA.SOLV.lig_0>
-22.1084

>  <SCORE.INTRA.VDW>
-2.82684

>  <SCORE.INTRA.VDW.0>
2.4256

>  <SCORE.INTRA.norm>
0.0655534

>  <SCORE.RESTR>
0.00326136

>  <SCORE.RESTR.CAVITY>
0.00326136

>  <SCORE.RESTR.norm>
0.00013589

>  <SCORE.SYSTEM>
0

>  <SCORE.SYSTEM.CONST>
0

>  <SCORE.SYSTEM.DIHEDRAL>
0

>  <SCORE.SYSTEM.SOLV>
0

>  <SCORE.SYSTEM.norm>
0

>  <SCORE.heavy>
24

>  <SCORE.norm>
-0.794169

>  <RMSD>
3.046

$$$$
lig.pdb
 OpenBabel11021811453D
libRbt.so/2013.1/901 2013/11/27
 24 24  0  0  0  0  0  0  0  0999 V2000
    4.4606    2.0891   -1.5311 C   0  0  0  0  0  0  0  0  0  0  0  0
    4.6388    1.0537   -2.5095 C   0  0  0  0  0  0  0  0  0  0  0  0
    5.7851    0.2964   -2.5609 C   0  0  0  0  0  0  0  0  0  0  0  0
    6.8592    0.4928   -1.6352 C   0  0  0  0  0  0  0  0  0  0  0  0
    6.6940    1.5495   -0.6803 C   0  0  0  0  0  0  0  0  0  0  0  0
    5.5535    2.3115   -0.6331 C   0  0  0  0  0  0  0  0  0  0  0  0
    3.3134    2.8255   -1.4510 C   0  0  0  0  0  0  0  0  0  0  0  0
    2.3724    2.8202   -2.4193 N   0  0  0  0  0  0  0  0  0  0  0  0
    9.1484    0.0950   -1.0786 N   0  0  0  0  0  0  0  0  0  0  0  0
    7.9851   -0.2764   -1.6539 C   0  0  0  0  0  0  0  0  0  0  0  0
    3.0305    3.6171   -0.3869 N   0  0  0  0  0  0  0  0  0  0  0  0
    8.0305   -1.4874   -2.2584 N   0  0  0  0  0  0  0  0  0  0  0  0
    1.7117    3.8610    0.1941 C   0  0  0  0  0  0  0  0  0  0  0  0
    8.9848   -2.5553   -1.9767 C   0  0  0  0  0  0  0  0  0  0  0  0
    1.5192    2.8817    1.3632 C   0  0  0  0  0  0  0  0  0  0  0  0
    8.8174   -2.9622   -0.5008 C   0  0  0  0  0  0  0  0  0  0  0  0
    0.1137    3.0154    1.9655 C   0  0  0  0  0  0  0  0  0  0  0  0
    7.3917   -3.4435   -0.1756 C   0  0  0  0  0  0  0  0  0  0  0  0
   -0.0631    1.9843    3.0505 N   0  0  0  0  0  0  0  0  0  0  0  0
    7.1183   -3.4022    1.3066 N   0  0  0  0  0  0  0  0  0  0  0  0
   -1.5102    1.9077    3.4548 C   0  0  0  0  0  0  0  0  0  0  0  0
    5.8842   -4.2140    1.5957 C   0  0  0  0  0  0  0  0  0  0  0  0
    0.7814    2.3203    4.2547 C   0  0  0  0  0  0  0  0  0  0  0  0
    6.9084   -2.0001    1.8066 C   0  0  0  0  0  0  0  0  0  0  0  0
  1  6  2  0  0  0  0
  2  3  2  0  0  0  0
  2  1  1  0  0  0  0
  3  4  1  0  0  0  0
  4 10  1  0  0  0  0
  4  5  2  0  0  0  0
  6  5  1  0  0  0  0
  7  1  1  0  0  0  0
  7 11  1  0  0  0  0
  8  7  2  0  0  0  0
  9 10  2  0  0  0  0
 10 12  1  0  0  0  0
 12 14  1  0  0  0  0
 13 11  1  0  0  0  0
 13 15  1  0  0  0  0
 14 16  1  0  0  0  0
 16 18  1  0  0  0  0
 17 15  1  0  0  0  0
 17 19  1  0  0  0  0
 18 20  1  0  0  0  0
 19 23  1  0  0  0  0
 20 22  1  0  0  0  0
 20 24  1  0  0  0  0
 21 19  1  0  0  0  0
M  END
>  <CHROM.1>
160.67060679,-12.81012594,60.66978587,94.99401869,-176.19835379,58.82890533
-161.30656748,176.61458993,-168.38121721,-164.89855076,4.77372794,0.49739350
-0.02955552,-2.95629382,-0.61304731,2.37509708

>  <Name>
lig.pdb

>  <RI>
0

>  <Rbt.Current_Directory>
/home/itssahil/PROJECTS/Mol_Feturizer/New_Systems/rnas/2l94

>  <Rbt.Executable>
rbdock ($Id: //depot/dev/client3/rdock/2013.1/src/exe/rbdock.cxx#4 $)

>  <Rbt.Library>
libRbt.so (2013.1, Build901 2013/11/27)

>  <Rbt.Parameter_File>
/export/apps/rDock/src/rDock_2013.1_src/data/scripts/dock_solv.prm

>  <Rbt.Receptor>
prm/pocket_docking_4.prm

>  <SCORE>
-13.4954

>  <SCORE.INTER>
-11.8904

>  <SCORE.INTER.CONST>
1

>  <SCORE.INTER.POLAR>
-1.86974

>  <SCORE.INTER.ROT>
10

>  <SCORE.INTER.SOLV>
6.83998

>  <SCORE.INTER.VDW>
-14.2411

>  <SCORE.INTER.norm>
-0.495432

>  <SCORE.INTRA>
-1.60507

>  <SCORE.INTRA.DIHEDRAL>
1.40909

>  <SCORE.INTRA.DIHEDRAL.0>
7.52971

>  <SCORE.INTRA.POLAR>
0

>  <SCORE.INTRA.POLAR.0>
0

>  <SCORE.INTRA.REPUL>
0

>  <SCORE.INTRA.REPUL.0>
0

>  <SCORE.INTRA.SOLV>
0.563857

>  <SCORE.INTRA.SOLV.lig_0>
-22.1084

>  <SCORE.INTRA.VDW>
-2.59154

>  <SCORE.INTRA.VDW.0>
2.4256

>  <SCORE.INTRA.norm>
-0.0668777

>  <SCORE.RESTR>
0

>  <SCORE.RESTR.CAVITY>
0

>  <SCORE.RESTR.norm>
0

>  <SCORE.SYSTEM>
0

>  <SCORE.SYSTEM.CONST>
0

>  <SCORE.SYSTEM.DIHEDRAL>
0

>  <SCORE.SYSTEM.SOLV>
0

>  <SCORE.SYSTEM.norm>
0

>  <SCORE.heavy>
24

>  <SCORE.norm>
-0.56231

>  <RMSD>
3.074

$$$$
lig.pdb
 OpenBabel11021811453D
libRbt.so/2013.1/901 2013/11/27
 24 24  0  0  0  0  0  0  0  0999 V2000
    6.1652    0.0151   -2.8291 C   0  0  0  0  0  0  0  0  0  0  0  0
    6.2083   -1.4121   -2.9783 C   0  0  0  0  0  0  0  0  0  0  0  0
    7.3056   -2.1468   -2.5959 C   0  0  0  0  0  0  0  0  0  0  0  0
    8.4610   -1.5293   -2.0188 C   0  0  0  0  0  0  0  0  0  0  0  0
    8.4300   -0.1006   -1.9015 C   0  0  0  0  0  0  0  0  0  0  0  0
    7.3383    0.6346   -2.2904 C   0  0  0  0  0  0  0  0  0  0  0  0
    5.0683    0.7507   -3.1761 C   0  0  0  0  0  0  0  0  0  0  0  0
    3.8659    0.1930   -3.4336 N   0  0  0  0  0  0  0  0  0  0  0  0
    9.8520   -3.4704   -2.0920 N   0  0  0  0  0  0  0  0  0  0  0  0
    9.5401   -2.2517   -1.6024 C   0  0  0  0  0  0  0  0  0  0  0  0
    5.1037    2.1020   -3.2844 N   0  0  0  0  0  0  0  0  0  0  0  0
   10.3954   -1.8030   -0.6532 N   0  0  0  0  0  0  0  0  0  0  0  0
    4.0334    3.0345   -2.9363 C   0  0  0  0  0  0  0  0  0  0  0  0
   11.7699   -2.2506   -0.4515 C   0  0  0  0  0  0  0  0  0  0  0  0
    4.3810    3.6719   -1.5814 C   0  0  0  0  0  0  0  0  0  0  0  0
   12.7024   -1.2470   -1.1551 C   0  0  0  0  0  0  0  0  0  0  0  0
    3.5902    3.0101   -0.4444 C   0  0  0  0  0  0  0  0  0  0  0  0
   13.6240   -0.5028   -0.1719 C   0  0  0  0  0  0  0  0  0  0  0  0
    2.1690    3.5116   -0.4689 N   0  0  0  0  0  0  0  0  0  0  0  0
   14.9771   -1.1611   -0.0755 N   0  0  0  0  0  0  0  0  0  0  0  0
    1.5826    3.4599    0.9156 C   0  0  0  0  0  0  0  0  0  0  0  0
   15.5411   -0.9132    1.2978 C   0  0  0  0  0  0  0  0  0  0  0  0
    1.3236    2.6867   -1.4075 C   0  0  0  0  0  0  0  0  0  0  0  0
   15.9404   -0.6325   -1.1015 C   0  0  0  0  0  0  0  0  0  0  0  0
  1  6  2  0  0  0  0
  2  3  2  0  0  0  0
  2  1  1  0  0  0  0
  3  4  1  0  0  0  0
  4 10  1  0  0  0  0
  4  5  2  0  0  0  0
  6  5  1  0  0  0  0
  7  1  1  0  0  0  0
  7 11  1  0  0  0  0
  8  7  2  0  0  0  0
  9 10  2  0  0  0  0
 10 12  1  0  0  0  0
 12 14  1  0  0  0  0
 13 11  1  0  0  0  0
 13 15  1  0  0  0  0
 14 16  1  0  0  0  0
 16 18  1  0  0  0  0
 17 15  1  0  0  0  0
 17 19  1  0  0  0  0
 18 20  1  0  0  0  0
 19 23  1  0  0  0  0
 20 22  1  0  0  0  0
 20 24  1  0  0  0  0
 21 19  1  0  0  0  0
M  END
>  <CHROM.1>
24.51987356,13.26608244,97.24025555,102.42370131,-100.91644941,116.03038252
95.88479278,-76.37184778,-152.16685398,-150.75258082,7.90970924,0.18046634
-1.48085801,2.90362703,-0.28760927,0.59855178

>  <Name>
lig.pdb

>  <RI>
1.09765e+07

>  <Rbt.Current_Directory>
/home/itssahil/PROJECTS/Mol_Feturizer/New_Systems/rnas/2l94

>  <Rbt.Executable>
rbdock ($Id: //depot/dev/client3/rdock/2013.1/src/exe/rbdock.cxx#4 $)

>  <Rbt.Library>
libRbt.so (2013.1, Build901 2013/11/27)

>  <Rbt.Parameter_File>
/export/apps/rDock/src/rDock_2013.1_src/data/scripts/dock_solv.prm

>  <Rbt.Receptor>
prm/pocket_docking_3.prm

>  <SCORE>
-18.8534

>  <SCORE.INTER>
-24.7209

>  <SCORE.INTER.CONST>
1

>  <SCORE.INTER.POLAR>
-4.82087

>  <SCORE.INTER.ROT>
10

>  <SCORE.INTER.SOLV>
7.7414

>  <SCORE.INTER.VDW>
-13.2581

>  <SCORE.INTER.norm>
-1.03004

>  <SCORE.INTRA>
5.7306

>  <SCORE.INTRA.DIHEDRAL>
17.65

>  <SCORE.INTRA.DIHEDRAL.0>
7.52971

>  <SCORE.INTRA.POLAR>
0

>  <SCORE.INTRA.POLAR.0>
0

>  <SCORE.INTRA.REPUL>
0

>  <SCORE.INTRA.REPUL.0>
0

>  <SCORE.INTRA.SOLV>
0.39262

>  <SCORE.INTRA.SOLV.lig_0>
-22.1084

>  <SCORE.INTRA.VDW>
-3.2907

>  <SCORE.INTRA.VDW.0>
2.4256

>  <SCORE.INTRA.norm>
0.238775

>  <SCORE.RESTR>
0.136852

>  <SCORE.RESTR.CAVITY>
0.136852

>  <SCORE.RESTR.norm>
0.00570216

>  <SCORE.SYSTEM>
0

>  <SCORE.SYSTEM.CONST>
0

>  <SCORE.SYSTEM.DIHEDRAL>
0

>  <SCORE.SYSTEM.SOLV>
0

>  <SCORE.SYSTEM.norm>
0

>  <SCORE.heavy>
24

>  <SCORE.norm>
-0.785559

>  <RMSD>
3.082

$$$$
lig.pdb
 OpenBabel11021811453D
libRbt.so/2013.1/901 2013/11/27
 24 24  0  0  0  0  0  0  0  0999 V2000
    5.1957   -2.2930    0.6802 C   0  0  0  0  0  0  0  0  0  0  0  0
    4.3445   -2.2750   -0.4758 C   0  0  0  0  0  0  0  0  0  0  0  0
    3.1276   -1.6353   -0.4684 C   0  0  0  0  0  0  0  0  0  0  0  0
    2.6477   -0.9439    0.6896 C   0  0  0  0  0  0  0  0  0  0  0  0
    3.4834   -0.9913    1.8537 C   0  0  0  0  0  0  0  0  0  0  0  0
    4.6948   -1.6365    1.8499 C   0  0  0  0  0  0  0  0  0  0  0  0
    6.4199   -2.8979    0.6735 C   0  0  0  0  0  0  0  0  0  0  0  0
    7.1183   -3.1468    1.8020 N   0  0  0  0  0  0  0  0  0  0  0  0
    0.5007   -0.4538   -0.2369 N   0  0  0  0  0  0  0  0  0  0  0  0
    1.4591   -0.2755    0.6968 C   0  0  0  0  0  0  0  0  0  0  0  0
    7.0263   -3.2991   -0.4712 N   0  0  0  0  0  0  0  0  0  0  0  0
    1.1392    0.6324    1.6494 N   0  0  0  0  0  0  0  0  0  0  0  0
    7.8588   -4.4873   -0.6483 C   0  0  0  0  0  0  0  0  0  0  0  0
   -0.2079    1.0616    2.0123 C   0  0  0  0  0  0  0  0  0  0  0  0
    8.9526   -4.1520   -1.6751 C   0  0  0  0  0  0  0  0  0  0  0  0
   -0.2435    2.6004    1.9632 C   0  0  0  0  0  0  0  0  0  0  0  0
    9.8274   -2.9897   -1.1854 C   0  0  0  0  0  0  0  0  0  0  0  0
   -1.6247    3.1744    2.3274 C   0  0  0  0  0  0  0  0  0  0  0  0
   10.4103   -2.2699   -2.3745 N   0  0  0  0  0  0  0  0  0  0  0  0
   -2.0126    2.8274    3.7426 N   0  0  0  0  0  0  0  0  0  0  0  0
   11.4879   -3.1095   -3.0049 C   0  0  0  0  0  0  0  0  0  0  0  0
   -3.4659    3.1631    3.9441 C   0  0  0  0  0  0  0  0  0  0  0  0
   10.9824   -0.9346   -1.9675 C   0  0  0  0  0  0  0  0  0  0  0  0
   -1.1934    3.5770    4.7560 C   0  0  0  0  0  0  0  0  0  0  0  0
  1  6  2  0  0  0  0
  2  3  2  0  0  0  0
  2  1  1  0  0  0  0
  3  4  1  0  0  0  0
  4 10  1  0  0  0  0
  4  5  2  0  0  0  0
  6  5  1  0  0  0  0
  7  1  1  0  0  0  0
  7 11  1  0  0  0  0
  8  7  2  0  0  0  0
  9 10  2  0  0  0  0
 10 12  1  0  0  0  0
 12 14  1  0  0  0  0
 13 11  1  0  0  0  0
 13 15  1  0  0  0  0
 14 16  1  0  0  0  0
 16 18  1  0  0  0  0
 17 15  1  0  0  0  0
 17 19  1  0  0  0  0
 18 20  1  0  0  0  0
 19 23  1  0  0  0  0
 20 22  1  0  0  0  0
 20 24  1  0  0  0  0
 21 19  1  0  0  0  0
M  END
>  <CHROM.1>
16.03159095,-167.06768679,-127.86837878,-146.08238662,60.29376051,179.89308933
62.55921931,-153.40204155,-72.90996046,-168.48514589,4.08728798,-0.82719174
0.67357047,0.46080904,-0.35114229,-3.06738874

>  <Name>
lig.pdb

>  <RI>
0

>  <Rbt.Current_Directory>
/home/itssahil/PROJECTS/Mol_Feturizer/New_Systems/rnas/2l94

>  <Rbt.Executable>
rbdock ($Id: //depot/dev/client3/rdock/2013.1/src/exe/rbdock.cxx#4 $)

>  <Rbt.Library>
libRbt.so (2013.1, Build901 2013/11/27)

>  <Rbt.Parameter_File>
/export/apps/rDock/src/rDock_2013.1_src/data/scripts/dock_solv.prm

>  <Rbt.Receptor>
prm/pocket_docking_4.prm

>  <SCORE>
-18.1425

>  <SCORE.INTER>
-17.5841

>  <SCORE.INTER.CONST>
1

>  <SCORE.INTER.POLAR>
-2.51359

>  <SCORE.INTER.ROT>
10

>  <SCORE.INTER.SOLV>
9.80393

>  <SCORE.INTER.VDW>
-16.8787

>  <SCORE.INTER.norm>
-0.73267

>  <SCORE.INTRA>
-0.558426

>  <SCORE.INTRA.DIHEDRAL>
1.97126

>  <SCORE.INTRA.DIHEDRAL.0>
7.52971

>  <SCORE.INTRA.POLAR>
0

>  <SCORE.INTRA.POLAR.0>
0

>  <SCORE.INTRA.REPUL>
0

>  <SCORE.INTRA.REPUL.0>
0

>  <SCORE.INTRA.SOLV>
0.218597

>  <SCORE.INTRA.SOLV.lig_0>
-22.1084

>  <SCORE.INTRA.VDW>
-1.65336

>  <SCORE.INTRA.VDW.0>
2.4256

>  <SCORE.INTRA.norm>
-0.0232678

>  <SCORE.RESTR>
0

>  <SCORE.RESTR.CAVITY>
0

>  <SCORE.RESTR.norm>
0

>  <SCORE.SYSTEM>
0

>  <SCORE.SYSTEM.CONST>
0

>  <SCORE.SYSTEM.DIHEDRAL>
0

>  <SCORE.SYSTEM.SOLV>
0

>  <SCORE.SYSTEM.norm>
0

>  <SCORE.heavy>
24

>  <SCORE.norm>
-0.755938

>  <RMSD>
3.082

$$$$
lig.pdb
 OpenBabel11021811453D
libRbt.so/2013.1/901 2013/11/27
 24 24  0  0  0  0  0  0  0  0999 V2000
    5.0222   -2.2074   -0.8771 C   0  0  0  0  0  0  0  0  0  0  0  0
    5.7284   -2.0242   -2.1135 C   0  0  0  0  0  0  0  0  0  0  0  0
    7.0788   -2.2604   -2.2172 C   0  0  0  0  0  0  0  0  0  0  0  0
    7.8521   -2.7116   -1.1002 C   0  0  0  0  0  0  0  0  0  0  0  0
    7.1520   -2.8617    0.1421 C   0  0  0  0  0  0  0  0  0  0  0  0
    5.8055   -2.6184    0.2488 C   0  0  0  0  0  0  0  0  0  0  0  0
    3.6756   -2.0064   -0.7711 C   0  0  0  0  0  0  0  0  0  0  0  0
    2.8260   -2.1873   -1.8047 N   0  0  0  0  0  0  0  0  0  0  0  0
    9.8719   -3.6838   -0.2735 N   0  0  0  0  0  0  0  0  0  0  0  0
    9.1845   -2.9838   -1.2006 C   0  0  0  0  0  0  0  0  0  0  0  0
    3.0883   -1.6125    0.3861 N   0  0  0  0  0  0  0  0  0  0  0  0
    9.9362   -2.5691   -2.2480 N   0  0  0  0  0  0  0  0  0  0  0  0
    1.7750   -2.0196    0.8817 C   0  0  0  0  0  0  0  0  0  0  0  0
   11.2041   -3.1483   -2.6809 C   0  0  0  0  0  0  0  0  0  0  0  0
    0.7582   -0.9416    0.4732 C   0  0  0  0  0  0  0  0  0  0  0  0
   11.8942   -2.1341   -3.6120 C   0  0  0  0  0  0  0  0  0  0  0  0
    1.1806    0.4380    0.9971 C   0  0  0  0  0  0  0  0  0  0  0  0
   12.4201   -0.8988   -2.8588 C   0  0  0  0  0  0  0  0  0  0  0  0
    0.1839    1.4714    0.5383 N   0  0  0  0  0  0  0  0  0  0  0  0
   13.6077   -1.2414   -1.9951 N   0  0  0  0  0  0  0  0  0  0  0  0
    0.4368    1.8242   -0.9022 C   0  0  0  0  0  0  0  0  0  0  0  0
   13.1601   -1.3123   -0.5598 C   0  0  0  0  0  0  0  0  0  0  0  0
    0.2703    2.7159    1.3867 C   0  0  0  0  0  0  0  0  0  0  0  0
   14.7084   -0.2244   -2.1135 C   0  0  0  0  0  0  0  0  0  0  0  0
  1  6  2  0  0  0  0
  2  3  2  0  0  0  0
  2  1  1  0  0  0  0
  3  4  1  0  0  0  0
  4 10  1  0  0  0  0
  4  5  2  0  0  0  0
  6  5  1  0  0  0  0
  7  1  1  0  0  0  0
  7 11  1  0  0  0  0
  8  7  2  0  0  0  0
  9 10  2  0  0  0  0
 10 12  1  0  0  0  0
 12 14  1  0  0  0  0
 13 11  1  0  0  0  0
 13 15  1  0  0  0  0
 14 16  1  0  0  0  0
 16 18  1  0  0  0  0
 17 15  1  0  0  0  0
 17 19  1  0  0  0  0
 18 20  1  0  0  0  0
 19 23  1  0  0  0  0
 20 22  1  0  0  0  0
 20 24  1  0  0  0  0
 21 19  1  0  0  0  0
M  END
>  <CHROM.1>
-164.60898114,29.14487945,-163.49614761,-95.93743733,-56.33085114,71.03907312
70.63400291,178.16754268,-78.13809681,-103.71538243,6.62661856,-1.41770868
-0.92230575,2.95474320,0.19110184,0.07756382

>  <Name>
lig.pdb

>  <RI>
2.48096e+07

>  <Rbt.Current_Directory>
/home/itssahil/PROJECTS/Mol_Feturizer/New_Systems/rnas/2l94

>  <Rbt.Executable>
rbdock ($Id: //depot/dev/client3/rdock/2013.1/src/exe/rbdock.cxx#4 $)

>  <Rbt.Library>
libRbt.so (2013.1, Build901 2013/11/27)

>  <Rbt.Parameter_File>
/export/apps/rDock/src/rDock_2013.1_src/data/scripts/dock_solv.prm

>  <Rbt.Receptor>
prm/pocket_docking_6.prm

>  <SCORE>
-22.8232

>  <SCORE.INTER>
-23.6082

>  <SCORE.INTER.CONST>
1

>  <SCORE.INTER.POLAR>
-3.6385

>  <SCORE.INTER.ROT>
10

>  <SCORE.INTER.SOLV>
10.2027

>  <SCORE.INTER.VDW>
-17.278

>  <SCORE.INTER.norm>
-0.983673

>  <SCORE.INTRA>
0.784958

>  <SCORE.INTRA.DIHEDRAL>
5.98408

>  <SCORE.INTRA.DIHEDRAL.0>
7.52971

>  <SCORE.INTRA.POLAR>
0

>  <SCORE.INTRA.POLAR.0>
0

>  <SCORE.INTRA.REPUL>
0

>  <SCORE.INTRA.REPUL.0>
0

>  <SCORE.INTRA.SOLV>
0.854558

>  <SCORE.INTRA.SOLV.lig_0>
-22.1084

>  <SCORE.INTRA.VDW>
-2.63436

>  <SCORE.INTRA.VDW.0>
2.4256

>  <SCORE.INTRA.norm>
0.0327066

>  <SCORE.RESTR>
0

>  <SCORE.RESTR.CAVITY>
0

>  <SCORE.RESTR.norm>
0

>  <SCORE.SYSTEM>
0

>  <SCORE.SYSTEM.CONST>
0

>  <SCORE.SYSTEM.DIHEDRAL>
0

>  <SCORE.SYSTEM.SOLV>
0

>  <SCORE.SYSTEM.norm>
0

>  <SCORE.heavy>
24

>  <SCORE.norm>
-0.950966

>  <RMSD>
3.087

$$$$
lig.pdb
 OpenBabel11021811453D
libRbt.so/2013.1/901 2013/11/27
 24 24  0  0  0  0  0  0  0  0999 V2000
    3.2613   -1.1754   -0.2577 C   0  0  0  0  0  0  0  0  0  0  0  0
    4.2594   -1.6923    0.6354 C   0  0  0  0  0  0  0  0  0  0  0  0
    5.3853   -2.3300    0.1708 C   0  0  0  0  0  0  0  0  0  0  0  0
    5.6282   -2.5044   -1.2291 C   0  0  0  0  0  0  0  0  0  0  0  0
    4.6144   -2.0176   -2.1186 C   0  0  0  0  0  0  0  0  0  0  0  0
    3.4861   -1.3880   -1.6557 C   0  0  0  0  0  0  0  0  0  0  0  0
    2.1553   -0.5124    0.1918 C   0  0  0  0  0  0  0  0  0  0  0  0
    1.9639   -0.2087    1.4935 N   0  0  0  0  0  0  0  0  0  0  0  0
    7.0004   -3.3016   -3.0151 N   0  0  0  0  0  0  0  0  0  0  0  0
    6.7586   -3.1029   -1.7020 C   0  0  0  0  0  0  0  0  0  0  0  0
    1.1645   -0.1042   -0.6394 N   0  0  0  0  0  0  0  0  0  0  0  0
    7.7408   -3.5534   -0.8858 N   0  0  0  0  0  0  0  0  0  0  0  0
    0.3736    1.1191   -0.5208 C   0  0  0  0  0  0  0  0  0  0  0  0
    9.1316   -3.7892   -1.2608 C   0  0  0  0  0  0  0  0  0  0  0  0
    1.3387    2.3148   -0.5642 C   0  0  0  0  0  0  0  0  0  0  0  0
   10.0251   -3.0061   -0.2809 C   0  0  0  0  0  0  0  0  0  0  0  0
    1.6093    2.7495   -2.0112 C   0  0  0  0  0  0  0  0  0  0  0  0
   11.3357   -2.5235   -0.9284 C   0  0  0  0  0  0  0  0  0  0  0  0
    2.6186    3.8690   -2.0142 N   0  0  0  0  0  0  0  0  0  0  0  0
   11.0918   -1.3915   -1.8941 N   0  0  0  0  0  0  0  0  0  0  0  0
    2.6025    4.5709   -3.3448 C   0  0  0  0  0  0  0  0  0  0  0  0
   12.3129   -1.2174   -2.7568 C   0  0  0  0  0  0  0  0  0  0  0  0
    4.0053    3.3437   -1.7361 C   0  0  0  0  0  0  0  0  0  0  0  0
   10.8035   -0.0955   -1.1890 C   0  0  0  0  0  0  0  0  0  0  0  0
  1  6  2  0  0  0  0
  2  3  2  0  0  0  0
  2  1  1  0  0  0  0
  3  4  1  0  0  0  0
  4 10  1  0  0  0  0
  4  5  2  0  0  0  0
  6  5  1  0  0  0  0
  7  1  1  0  0  0  0
  7 11  1  0  0  0  0
  8  7  2  0  0  0  0
  9 10  2  0  0  0  0
 10 12  1  0  0  0  0
 12 14  1  0  0  0  0
 13 11  1  0  0  0  0
 13 15  1  0  0  0  0
 14 16  1  0  0  0  0
 16 18  1  0  0  0  0
 17 15  1  0  0  0  0
 17 19  1  0  0  0  0
 18 20  1  0  0  0  0
 19 23  1  0  0  0  0
 20 22  1  0  0  0  0
 20 24  1  0  0  0  0
 21 19  1  0  0  0  0
M  END
>  <CHROM.1>
178.73817345,4.91106155,126.21180391,59.07155347,87.07872638,-148.68699247
72.28190900,-176.76164266,-163.64208454,-164.77397170,5.49075512,-0.60402218
-1.17108806,2.71870113,0.21420927,-0.33609594

>  <Name>
lig.pdb

>  <RI>
1.71133e+07

>  <Rbt.Current_Directory>
/home/itssahil/PROJECTS/Mol_Feturizer/New_Systems/rnas/2l94

>  <Rbt.Executable>
rbdock ($Id: //depot/dev/client3/rdock/2013.1/src/exe/rbdock.cxx#4 $)

>  <Rbt.Library>
libRbt.so (2013.1, Build901 2013/11/27)

>  <Rbt.Parameter_File>
/export/apps/rDock/src/rDock_2013.1_src/data/scripts/dock_solv.prm

>  <Rbt.Receptor>
prm/pocket_docking_5.prm

>  <SCORE>
-17.5506

>  <SCORE.INTER>
-17.2011

>  <SCORE.INTER.CONST>
1

>  <SCORE.INTER.POLAR>
-2.55521

>  <SCORE.INTER.ROT>
10

>  <SCORE.INTER.SOLV>
9.21486

>  <SCORE.INTER.VDW>
-16.2883

>  <SCORE.INTER.norm>
-0.716714

>  <SCORE.INTRA>
-0.349473

>  <SCORE.INTRA.DIHEDRAL>
4.29659

>  <SCORE.INTRA.DIHEDRAL.0>
7.52971

>  <SCORE.INTRA.POLAR>
0

>  <SCORE.INTRA.POLAR.0>
0

>  <SCORE.INTRA.REPUL>
0

>  <SCORE.INTRA.REPUL.0>
0

>  <SCORE.INTRA.SOLV>
0.293016

>  <SCORE.INTRA.SOLV.lig_0>
-22.1084

>  <SCORE.INTRA.VDW>
-2.64428

>  <SCORE.INTRA.VDW.0>
2.4256

>  <SCORE.INTRA.norm>
-0.0145614

>  <SCORE.RESTR>
0

>  <SCORE.RESTR.CAVITY>
0

>  <SCORE.RESTR.norm>
0

>  <SCORE.SYSTEM>
0

>  <SCORE.SYSTEM.CONST>
0

>  <SCORE.SYSTEM.DIHEDRAL>
0

>  <SCORE.SYSTEM.SOLV>
0

>  <SCORE.SYSTEM.norm>
0

>  <SCORE.heavy>
24

>  <SCORE.norm>
-0.731275

>  <RMSD>
3.092

$$$$
lig.pdb
 OpenBabel11021811453D
libRbt.so/2013.1/901 2013/11/27
 24 24  0  0  0  0  0  0  0  0999 V2000
    5.7803   -0.4557   -2.5350 C   0  0  0  0  0  0  0  0  0  0  0  0
    7.0232    0.0019   -3.0890 C   0  0  0  0  0  0  0  0  0  0  0  0
    8.2185   -0.6044   -2.7830 C   0  0  0  0  0  0  0  0  0  0  0  0
    8.2874   -1.7313   -1.9028 C   0  0  0  0  0  0  0  0  0  0  0  0
    7.0498   -2.1659   -1.3239 C   0  0  0  0  0  0  0  0  0  0  0  0
    5.8569   -1.5563   -1.6224 C   0  0  0  0  0  0  0  0  0  0  0  0
    4.5842    0.1190   -2.8571 C   0  0  0  0  0  0  0  0  0  0  0  0
    4.4471    1.0042   -3.8674 N   0  0  0  0  0  0  0  0  0  0  0  0
    9.5313   -3.5975   -1.0793 N   0  0  0  0  0  0  0  0  0  0  0  0
    9.4626   -2.3630   -1.6208 C   0  0  0  0  0  0  0  0  0  0  0  0
    3.4393   -0.1606   -2.1862 N   0  0  0  0  0  0  0  0  0  0  0  0
   10.6697   -1.7981   -1.8615 N   0  0  0  0  0  0  0  0  0  0  0  0
    2.0948   -0.2501   -2.7525 C   0  0  0  0  0  0  0  0  0  0  0  0
   11.9357   -2.5068   -2.0208 C   0  0  0  0  0  0  0  0  0  0  0  0
    1.1456    0.5568   -1.8520 C   0  0  0  0  0  0  0  0  0  0  0  0
   13.0381   -1.6613   -1.3563 C   0  0  0  0  0  0  0  0  0  0  0  0
    1.0400    2.0116   -2.3300 C   0  0  0  0  0  0  0  0  0  0  0  0
   12.6833   -1.2490    0.0838 C   0  0  0  0  0  0  0  0  0  0  0  0
    2.2746    2.7656   -1.9068 N   0  0  0  0  0  0  0  0  0  0  0  0
   13.7532   -0.3757    0.6890 N   0  0  0  0  0  0  0  0  0  0  0  0
    2.1575    3.1729   -0.4632 C   0  0  0  0  0  0  0  0  0  0  0  0
   14.8627   -1.2529    1.2036 C   0  0  0  0  0  0  0  0  0  0  0  0
    2.4766    3.9909   -2.7633 C   0  0  0  0  0  0  0  0  0  0  0  0
   13.2289    0.4629    1.8212 C   0  0  0  0  0  0  0  0  0  0  0  0
  1  6  2  0  0  0  0
  2  3  2  0  0  0  0
  2  1  1  0  0  0  0
  3  4  1  0  0  0  0
  4 10  1  0  0  0  0
  4  5  2  0  0  0  0
  6  5  1  0  0  0  0
  7  1  1  0  0  0  0
  7 11  1  0  0  0  0
  8  7  2  0  0  0  0
  9 10  2  0  0  0  0
 10 12  1  0  0  0  0
 12 14  1  0  0  0  0
 13 11  1  0  0  0  0
 13 15  1  0  0  0  0
 14 16  1  0  0  0  0
 16 18  1  0  0  0  0
 17 15  1  0  0  0  0
 17 19  1  0  0  0  0
 18 20  1  0  0  0  0
 19 23  1  0  0  0  0
 20 22  1  0  0  0  0
 20 24  1  0  0  0  0
 21 19  1  0  0  0  0
M  END
>  <CHROM.1>
-163.03591909,10.92825616,-142.43975074,-132.81449448,90.99339626,51.16786505
-177.64351304,-77.09665002,-80.29851904,-81.86748526,7.31646346,-0.27240966
-1.56599667,2.98158724,-0.30409840,0.46280093

>  <Name>
lig.pdb

>  <RI>
1.09765e+07

>  <Rbt.Current_Directory>
/home/itssahil/PROJECTS/Mol_Feturizer/New_Systems/rnas/2l94

>  <Rbt.Executable>
rbdock ($Id: //depot/dev/client3/rdock/2013.1/src/exe/rbdock.cxx#4 $)

>  <Rbt.Library>
libRbt.so (2013.1, Build901 2013/11/27)

>  <Rbt.Parameter_File>
/export/apps/rDock/src/rDock_2013.1_src/data/scripts/dock_solv.prm

>  <Rbt.Receptor>
prm/pocket_docking_3.prm

>  <SCORE>
-14.7862

>  <SCORE.INTER>
-15.2605

>  <SCORE.INTER.CONST>
1

>  <SCORE.INTER.POLAR>
-1.88815

>  <SCORE.INTER.ROT>
10

>  <SCORE.INTER.SOLV>
9.16212

>  <SCORE.INTER.VDW>
-17.2005

>  <SCORE.INTER.norm>
-0.635853

>  <SCORE.INTRA>
0.474304

>  <SCORE.INTRA.DIHEDRAL>
5.23659

>  <SCORE.INTRA.DIHEDRAL.0>
7.52971

>  <SCORE.INTRA.POLAR>
0

>  <SCORE.INTRA.POLAR.0>
0

>  <SCORE.INTRA.REPUL>
0

>  <SCORE.INTRA.REPUL.0>
0

>  <SCORE.INTRA.SOLV>
1.84992

>  <SCORE.INTRA.SOLV.lig_0>
-22.1084

>  <SCORE.INTRA.VDW>
-3.06895

>  <SCORE.INTRA.VDW.0>
2.4256

>  <SCORE.INTRA.norm>
0.0197626

>  <SCORE.RESTR>
0

>  <SCORE.RESTR.CAVITY>
0

>  <SCORE.RESTR.norm>
0

>  <SCORE.SYSTEM>
0

>  <SCORE.SYSTEM.CONST>
0

>  <SCORE.SYSTEM.DIHEDRAL>
0

>  <SCORE.SYSTEM.SOLV>
0

>  <SCORE.SYSTEM.norm>
0

>  <SCORE.heavy>
24

>  <SCORE.norm>
-0.616091

>  <RMSD>
3.094

$$$$
lig.pdb
 OpenBabel11021811453D
libRbt.so/2013.1/901 2013/11/27
 24 24  0  0  0  0  0  0  0  0999 V2000
    5.2196   -2.2112   -1.7036 C   0  0  0  0  0  0  0  0  0  0  0  0
    5.7965   -3.1595   -0.7931 C   0  0  0  0  0  0  0  0  0  0  0  0
    7.1533   -3.3733   -0.7347 C   0  0  0  0  0  0  0  0  0  0  0  0
    8.0654   -2.6545   -1.5719 C   0  0  0  0  0  0  0  0  0  0  0  0
    7.4853   -1.7324   -2.5041 C   0  0  0  0  0  0  0  0  0  0  0  0
    6.1302   -1.5241   -2.5689 C   0  0  0  0  0  0  0  0  0  0  0  0
    3.8765   -1.9681   -1.7475 C   0  0  0  0  0  0  0  0  0  0  0  0
    2.9747   -2.7256   -1.0872 N   0  0  0  0  0  0  0  0  0  0  0  0
   10.0125   -3.6055   -0.5656 N   0  0  0  0  0  0  0  0  0  0  0  0
    9.4154   -2.8321   -1.4970 C   0  0  0  0  0  0  0  0  0  0  0  0
    3.3464   -0.9412   -2.4571 N   0  0  0  0  0  0  0  0  0  0  0  0
   10.2772   -2.2404   -2.3578 N   0  0  0  0  0  0  0  0  0  0  0  0
    2.1858   -0.1326   -2.0891 C   0  0  0  0  0  0  0  0  0  0  0  0
   11.6361   -2.6822   -2.6558 C   0  0  0  0  0  0  0  0  0  0  0  0
    2.5842    1.3479   -2.1999 C   0  0  0  0  0  0  0  0  0  0  0  0
   12.4506   -1.4486   -3.0878 C   0  0  0  0  0  0  0  0  0  0  0  0
    1.4415    2.2602   -1.7328 C   0  0  0  0  0  0  0  0  0  0  0  0
   12.9100   -0.5924   -1.8938 C   0  0  0  0  0  0  0  0  0  0  0  0
    1.3438    2.2060   -0.2297 N   0  0  0  0  0  0  0  0  0  0  0  0
   14.1757   -1.1341   -1.2789 N   0  0  0  0  0  0  0  0  0  0  0  0
   -0.0714    2.4773    0.2028 C   0  0  0  0  0  0  0  0  0  0  0  0
   14.0365   -1.1105    0.2196 C   0  0  0  0  0  0  0  0  0  0  0  0
    2.2692    3.2137    0.4061 C   0  0  0  0  0  0  0  0  0  0  0  0
   15.3855   -0.3317   -1.6694 C   0  0  0  0  0  0  0  0  0  0  0  0
  1  6  2  0  0  0  0
  2  3  2  0  0  0  0
  2  1  1  0  0  0  0
  3  4  1  0  0  0  0
  4 10  1  0  0  0  0
  4  5  2  0  0  0  0
  6  5  1  0  0  0  0
  7  1  1  0  0  0  0
  7 11  1  0  0  0  0
  8  7  2  0  0  0  0
  9 10  2  0  0  0  0
 10 12  1  0  0  0  0
 12 14  1  0  0  0  0
 13 11  1  0  0  0  0
 13 15  1  0  0  0  0
 14 16  1  0  0  0  0
 16 18  1  0  0  0  0
 17 15  1  0  0  0  0
 17 19  1  0  0  0  0
 18 20  1  0  0  0  0
 19 23  1  0  0  0  0
 20 22  1  0  0  0  0
 20 24  1  0  0  0  0
 21 19  1  0  0  0  0
M  END
>  <CHROM.1>
-5.68211075,-9.80990171,-152.84142983,129.11868499,-176.03857481,79.01249409
83.32432237,74.10421748,-151.84334681,-136.14251866,7.10947462,-0.98760839
-1.45613182,2.90576393,0.00835517,0.17907676

>  <Name>
lig.pdb

>  <RI>
1.09765e+07

>  <Rbt.Current_Directory>
/home/itssahil/PROJECTS/Mol_Feturizer/New_Systems/rnas/2l94

>  <Rbt.Executable>
rbdock ($Id: //depot/dev/client3/rdock/2013.1/src/exe/rbdock.cxx#4 $)

>  <Rbt.Library>
libRbt.so (2013.1, Build901 2013/11/27)

>  <Rbt.Parameter_File>
/export/apps/rDock/src/rDock_2013.1_src/data/scripts/dock_solv.prm

>  <Rbt.Receptor>
prm/pocket_docking_3.prm

>  <SCORE>
-21.7725

>  <SCORE.INTER>
-23.2523

>  <SCORE.INTER.CONST>
1

>  <SCORE.INTER.POLAR>
-3.40121

>  <SCORE.INTER.ROT>
10

>  <SCORE.INTER.SOLV>
9.56505

>  <SCORE.INTER.VDW>
-17.6192

>  <SCORE.INTER.norm>
-0.968846

>  <SCORE.INTRA>
0.612672

>  <SCORE.INTRA.DIHEDRAL>
6.10202

>  <SCORE.INTRA.DIHEDRAL.0>
7.52971

>  <SCORE.INTRA.POLAR>
0

>  <SCORE.INTRA.POLAR.0>
0

>  <SCORE.INTRA.REPUL>
0

>  <SCORE.INTRA.REPUL.0>
0

>  <SCORE.INTRA.SOLV>
0.0344149

>  <SCORE.INTRA.SOLV.lig_0>
-22.1084

>  <SCORE.INTRA.VDW>
-2.45554

>  <SCORE.INTRA.VDW.0>
2.4256

>  <SCORE.INTRA.norm>
0.025528

>  <SCORE.RESTR>
0.867155

>  <SCORE.RESTR.CAVITY>
0.867155

>  <SCORE.RESTR.norm>
0.0361315

>  <SCORE.SYSTEM>
0

>  <SCORE.SYSTEM.CONST>
0

>  <SCORE.SYSTEM.DIHEDRAL>
0

>  <SCORE.SYSTEM.SOLV>
0

>  <SCORE.SYSTEM.norm>
0

>  <SCORE.heavy>
24

>  <SCORE.norm>
-0.907187

>  <RMSD>
3.098

$$$$
lig.pdb
 OpenBabel11021811453D
libRbt.so/2013.1/901 2013/11/27
 24 24  0  0  0  0  0  0  0  0999 V2000
    3.0210   -0.7934   -0.7837 C   0  0  0  0  0  0  0  0  0  0  0  0
    3.9614   -1.1083   -1.8218 C   0  0  0  0  0  0  0  0  0  0  0  0
    5.1712   -1.7005   -1.5467 C   0  0  0  0  0  0  0  0  0  0  0  0
    5.5547   -2.0444   -0.2110 C   0  0  0  0  0  0  0  0  0  0  0  0
    4.6291   -1.6988    0.8280 C   0  0  0  0  0  0  0  0  0  0  0  0
    3.4245   -1.1002    0.5554 C   0  0  0  0  0  0  0  0  0  0  0  0
    1.8036   -0.2346   -1.0491 C   0  0  0  0  0  0  0  0  0  0  0  0
    0.8295   -0.1294   -0.1201 N   0  0  0  0  0  0  0  0  0  0  0  0
    7.0549   -3.1381    1.2927 N   0  0  0  0  0  0  0  0  0  0  0  0
    6.7362   -2.6649    0.0693 C   0  0  0  0  0  0  0  0  0  0  0  0
    1.4823    0.2623   -2.2694 N   0  0  0  0  0  0  0  0  0  0  0  0
    7.6976   -2.8581   -0.8647 N   0  0  0  0  0  0  0  0  0  0  0  0
    0.6509    1.4325   -2.5446 C   0  0  0  0  0  0  0  0  0  0  0  0
    8.7608   -3.8567   -0.8123 C   0  0  0  0  0  0  0  0  0  0  0  0
    1.4812    2.6885   -2.2346 C   0  0  0  0  0  0  0  0  0  0  0  0
   10.0570   -3.1945   -1.3154 C   0  0  0  0  0  0  0  0  0  0  0  0
    2.0175    2.6509   -0.7969 C   0  0  0  0  0  0  0  0  0  0  0  0
   10.7001   -2.2730   -0.2633 C   0  0  0  0  0  0  0  0  0  0  0  0
    3.1674    3.6168   -0.6690 N   0  0  0  0  0  0  0  0  0  0  0  0
    9.9320   -0.9842   -0.1128 N   0  0  0  0  0  0  0  0  0  0  0  0
    4.2799    3.2164   -1.5994 C   0  0  0  0  0  0  0  0  0  0  0  0
   10.0694   -0.1858   -1.3813 C   0  0  0  0  0  0  0  0  0  0  0  0
    3.6825    3.6552    0.7484 C   0  0  0  0  0  0  0  0  0  0  0  0
   10.4292   -0.1579    1.0404 C   0  0  0  0  0  0  0  0  0  0  0  0
  1  6  2  0  0  0  0
  2  3  2  0  0  0  0
  2  1  1  0  0  0  0
  3  4  1  0  0  0  0
  4 10  1  0  0  0  0
  4  5  2  0  0  0  0
  6  5  1  0  0  0  0
  7  1  1  0  0  0  0
  7 11  1  0  0  0  0
  8  7  2  0  0  0  0
  9 10  2  0  0  0  0
 10 12  1  0  0  0  0
 12 14  1  0  0  0  0
 13 11  1  0  0  0  0
 13 15  1  0  0  0  0
 14 16  1  0  0  0  0
 16 18  1  0  0  0  0
 17 15  1  0  0  0  0
 17 19  1  0  0  0  0
 18 20  1  0  0  0  0
 19 23  1  0  0  0  0
 20 22  1  0  0  0  0
 20 24  1  0  0  0  0
 21 19  1  0  0  0  0
M  END
>  <CHROM.1>
-172.07825588,169.12152568,-139.03610037,75.21060118,-55.33362978,76.88741271
-74.07565962,161.25577497,-61.22878700,-67.37178695,5.31562558,-0.38871471
-0.65169308,2.66076857,-0.10256518,-0.03895415

>  <Name>
lig.pdb

>  <RI>
1.09765e+07

>  <Rbt.Current_Directory>
/home/itssahil/PROJECTS/Mol_Feturizer/New_Systems/rnas/2l94

>  <Rbt.Executable>
rbdock ($Id: //depot/dev/client3/rdock/2013.1/src/exe/rbdock.cxx#4 $)

>  <Rbt.Library>
libRbt.so (2013.1, Build901 2013/11/27)

>  <Rbt.Parameter_File>
/export/apps/rDock/src/rDock_2013.1_src/data/scripts/dock_solv.prm

>  <Rbt.Receptor>
prm/pocket_docking_3.prm

>  <SCORE>
-14.8775

>  <SCORE.INTER>
-15.4631

>  <SCORE.INTER.CONST>
1

>  <SCORE.INTER.POLAR>
-2.17025

>  <SCORE.INTER.ROT>
10

>  <SCORE.INTER.SOLV>
9.1585

>  <SCORE.INTER.VDW>
-16.3941

>  <SCORE.INTER.norm>
-0.644297

>  <SCORE.INTRA>
0.513023

>  <SCORE.INTRA.DIHEDRAL>
1.22356

>  <SCORE.INTRA.DIHEDRAL.0>
7.52971

>  <SCORE.INTRA.POLAR>
0

>  <SCORE.INTRA.POLAR.0>
0

>  <SCORE.INTRA.REPUL>
0

>  <SCORE.INTRA.REPUL.0>
0

>  <SCORE.INTRA.SOLV>
2.2512

>  <SCORE.INTRA.SOLV.lig_0>
-22.1084

>  <SCORE.INTRA.VDW>
-1.22435

>  <SCORE.INTRA.VDW.0>
2.4256

>  <SCORE.INTRA.norm>
0.021376

>  <SCORE.RESTR>
0.072564

>  <SCORE.RESTR.CAVITY>
0.072564

>  <SCORE.RESTR.norm>
0.0030235

>  <SCORE.SYSTEM>
0

>  <SCORE.SYSTEM.CONST>
0

>  <SCORE.SYSTEM.DIHEDRAL>
0

>  <SCORE.SYSTEM.SOLV>
0

>  <SCORE.SYSTEM.norm>
0

>  <SCORE.heavy>
24

>  <SCORE.norm>
-0.619898

>  <RMSD>
3.116

$$$$
lig.pdb
 OpenBabel11021811453D
libRbt.so/2013.1/901 2013/11/27
 24 24  0  0  0  0  0  0  0  0999 V2000
    8.2872   -2.4824   -1.2654 C   0  0  0  0  0  0  0  0  0  0  0  0
    7.3900   -3.4840   -1.7682 C   0  0  0  0  0  0  0  0  0  0  0  0
    6.0341   -3.2691   -1.8426 C   0  0  0  0  0  0  0  0  0  0  0  0
    5.4445   -2.0310   -1.4318 C   0  0  0  0  0  0  0  0  0  0  0  0
    6.3377   -1.0443   -0.8985 C   0  0  0  0  0  0  0  0  0  0  0  0
    7.6906   -1.2608   -0.8162 C   0  0  0  0  0  0  0  0  0  0  0  0
    9.6385   -2.6736   -1.2170 C   0  0  0  0  0  0  0  0  0  0  0  0
   10.2710   -3.6105   -1.9553 N   0  0  0  0  0  0  0  0  0  0  0  0
    3.1901   -2.7685   -1.7179 N   0  0  0  0  0  0  0  0  0  0  0  0
    4.1056   -1.7936   -1.5350 C   0  0  0  0  0  0  0  0  0  0  0  0
   10.4498   -1.9309   -0.4237 N   0  0  0  0  0  0  0  0  0  0  0  0
    3.5786   -0.5482   -1.4636 N   0  0  0  0  0  0  0  0  0  0  0  0
   11.8098   -1.4930   -0.7316 C   0  0  0  0  0  0  0  0  0  0  0  0
    2.1992   -0.2151   -1.1217 C   0  0  0  0  0  0  0  0  0  0  0  0
   12.5253   -1.1966    0.5963 C   0  0  0  0  0  0  0  0  0  0  0  0
    2.0495   -0.3309    0.4067 C   0  0  0  0  0  0  0  0  0  0  0  0
   13.7280   -0.2686    0.3765 C   0  0  0  0  0  0  0  0  0  0  0  0
    0.6067   -0.0821    0.8825 C   0  0  0  0  0  0  0  0  0  0  0  0
   14.7838   -1.0003   -0.4121 N   0  0  0  0  0  0  0  0  0  0  0  0
    0.5096   -0.0989    2.3871 N   0  0  0  0  0  0  0  0  0  0  0  0
   16.1517   -0.6200    0.0856 C   0  0  0  0  0  0  0  0  0  0  0  0
   -0.9428   -0.1437    2.7796 C   0  0  0  0  0  0  0  0  0  0  0  0
   14.6739   -0.6818   -1.8827 C   0  0  0  0  0  0  0  0  0  0  0  0
    1.1467    1.1114    3.0110 C   0  0  0  0  0  0  0  0  0  0  0  0
  1  6  2  0  0  0  0
  2  3  2  0  0  0  0
  2  1  1  0  0  0  0
  3  4  1  0  0  0  0
  4 10  1  0  0  0  0
  4  5  2  0  0  0  0
  6  5  1  0  0  0  0
  7  1  1  0  0  0  0
  7 11  1  0  0  0  0
  8  7  2  0  0  0  0
  9 10  2  0  0  0  0
 10 12  1  0  0  0  0
 12 14  1  0  0  0  0
 13 11  1  0  0  0  0
 13 15  1  0  0  0  0
 14 16  1  0  0  0  0
 16 18  1  0  0  0  0
 17 15  1  0  0  0  0
 17 19  1  0  0  0  0
 18 20  1  0  0  0  0
 19 23  1  0  0  0  0
 20 22  1  0  0  0  0
 20 24  1  0  0  0  0
 21 19  1  0  0  0  0
M  END
>  <CHROM.1>
16.36053695,19.26523585,77.96377722,-157.53818038,-159.13755762,-176.60015766
-175.71108506,-67.47932162,-142.63742090,-168.15435633,7.16813780,-1.30557228
-0.37458864,0.13855591,-0.02241336,-2.26181043

>  <Name>
lig.pdb

>  <RI>
0

>  <Rbt.Current_Directory>
/home/itssahil/PROJECTS/Mol_Feturizer/New_Systems/rnas/2l94

>  <Rbt.Executable>
rbdock ($Id: //depot/dev/client3/rdock/2013.1/src/exe/rbdock.cxx#4 $)

>  <Rbt.Library>
libRbt.so (2013.1, Build901 2013/11/27)

>  <Rbt.Parameter_File>
/export/apps/rDock/src/rDock_2013.1_src/data/scripts/dock_solv.prm

>  <Rbt.Receptor>
prm/pocket_docking_4.prm

>  <SCORE>
-13.5711

>  <SCORE.INTER>
-13.7288

>  <SCORE.INTER.CONST>
1

>  <SCORE.INTER.POLAR>
-2.7674

>  <SCORE.INTER.ROT>
10

>  <SCORE.INTER.SOLV>
7.66033

>  <SCORE.INTER.VDW>
-12.748

>  <SCORE.INTER.norm>
-0.572033

>  <SCORE.INTRA>
0.157695

>  <SCORE.INTRA.DIHEDRAL>
4.24321

>  <SCORE.INTRA.DIHEDRAL.0>
7.52971

>  <SCORE.INTRA.POLAR>
0

>  <SCORE.INTRA.POLAR.0>
0

>  <SCORE.INTRA.REPUL>
0

>  <SCORE.INTRA.REPUL.0>
0

>  <SCORE.INTRA.SOLV>
-0.11427

>  <SCORE.INTRA.SOLV.lig_0>
-22.1084

>  <SCORE.INTRA.VDW>
-1.90678

>  <SCORE.INTRA.VDW.0>
2.4256

>  <SCORE.INTRA.norm>
0.00657064

>  <SCORE.RESTR>
0

>  <SCORE.RESTR.CAVITY>
0

>  <SCORE.RESTR.norm>
0

>  <SCORE.SYSTEM>
0

>  <SCORE.SYSTEM.CONST>
0

>  <SCORE.SYSTEM.DIHEDRAL>
0

>  <SCORE.SYSTEM.SOLV>
0

>  <SCORE.SYSTEM.norm>
0

>  <SCORE.heavy>
24

>  <SCORE.norm>
-0.565462

>  <RMSD>
3.128

$$$$
lig.pdb
 OpenBabel11021811453D
libRbt.so/2013.1/901 2013/11/27
 24 24  0  0  0  0  0  0  0  0999 V2000
    5.6938   -0.4109   -2.4825 C   0  0  0  0  0  0  0  0  0  0  0  0
    6.5135    0.1229   -1.4317 C   0  0  0  0  0  0  0  0  0  0  0  0
    7.6484   -0.5223   -1.0007 C   0  0  0  0  0  0  0  0  0  0  0  0
    8.0797   -1.7568   -1.5833 C   0  0  0  0  0  0  0  0  0  0  0  0
    7.2420   -2.3057   -2.6093 C   0  0  0  0  0  0  0  0  0  0  0  0
    6.1044   -1.6665   -3.0348 C   0  0  0  0  0  0  0  0  0  0  0  0
    4.5825    0.2377   -2.9398 C   0  0  0  0  0  0  0  0  0  0  0  0
    3.7309   -0.3117   -3.8321 N   0  0  0  0  0  0  0  0  0  0  0  0
    9.6814   -3.5208   -1.7597 N   0  0  0  0  0  0  0  0  0  0  0  0
    9.2229   -2.3868   -1.1887 C   0  0  0  0  0  0  0  0  0  0  0  0
    4.2476    1.4854   -2.5273 N   0  0  0  0  0  0  0  0  0  0  0  0
    9.9996   -1.9236   -0.1806 N   0  0  0  0  0  0  0  0  0  0  0  0
    2.8969    2.0021   -2.3153 C   0  0  0  0  0  0  0  0  0  0  0  0
   11.4106   -2.2317    0.0307 C   0  0  0  0  0  0  0  0  0  0  0  0
    2.9517    3.0147   -1.1601 C   0  0  0  0  0  0  0  0  0  0  0  0
   12.2046   -0.9173   -0.0866 C   0  0  0  0  0  0  0  0  0  0  0  0
    3.3025    2.3198    0.1628 C   0  0  0  0  0  0  0  0  0  0  0  0
   11.7274    0.1555    0.9090 C   0  0  0  0  0  0  0  0  0  0  0  0
    3.7672    3.3510    1.1590 N   0  0  0  0  0  0  0  0  0  0  0  0
   12.4610    1.4581    0.7127 N   0  0  0  0  0  0  0  0  0  0  0  0
    5.0181    4.0207    0.6587 C   0  0  0  0  0  0  0  0  0  0  0  0
   13.3933    1.6705    1.8751 C   0  0  0  0  0  0  0  0  0  0  0  0
    4.0345    2.7188    2.5025 C   0  0  0  0  0  0  0  0  0  0  0  0
   11.5235    2.6294    0.6185 C   0  0  0  0  0  0  0  0  0  0  0  0
  1  6  2  0  0  0  0
  2  3  2  0  0  0  0
  2  1  1  0  0  0  0
  3  4  1  0  0  0  0
  4 10  1  0  0  0  0
  4  5  2  0  0  0  0
  6  5  1  0  0  0  0
  7  1  1  0  0  0  0
  7 11  1  0  0  0  0
  8  7  2  0  0  0  0
  9 10  2  0  0  0  0
 10 12  1  0  0  0  0
 12 14  1  0  0  0  0
 13 11  1  0  0  0  0
 13 15  1  0  0  0  0
 14 16  1  0  0  0  0
 16 18  1  0  0  0  0
 17 15  1  0  0  0  0
 17 19  1  0  0  0  0
 18 20  1  0  0  0  0
 19 23  1  0  0  0  0
 20 22  1  0  0  0  0
 20 24  1  0  0  0  0
 21 19  1  0  0  0  0
M  END
>  <CHROM.1>
-177.10720959,-173.28378208,117.06741676,147.23669380,-66.32499161,57.51525174
-176.35872243,162.41797034,-62.41588836,-109.05403646,7.41859526,0.36544080
-0.76145718,3.01159410,-0.30539824,0.63707855

>  <Name>
lig.pdb

>  <RI>
9.7521e+06

>  <Rbt.Current_Directory>
/home/itssahil/PROJECTS/Mol_Feturizer/New_Systems/rnas/2l94

>  <Rbt.Executable>
rbdock ($Id: //depot/dev/client3/rdock/2013.1/src/exe/rbdock.cxx#4 $)

>  <Rbt.Library>
libRbt.so (2013.1, Build901 2013/11/27)

>  <Rbt.Parameter_File>
/export/apps/rDock/src/rDock_2013.1_src/data/scripts/dock_solv.prm

>  <Rbt.Receptor>
prm/pocket_docking_7.prm

>  <SCORE>
-15.7631

>  <SCORE.INTER>
-15.8712

>  <SCORE.INTER.CONST>
1

>  <SCORE.INTER.POLAR>
-3.52335

>  <SCORE.INTER.ROT>
10

>  <SCORE.INTER.SOLV>
7.14348

>  <SCORE.INTER.VDW>
-11.4842

>  <SCORE.INTER.norm>
-0.661302

>  <SCORE.INTRA>
0.108181

>  <SCORE.INTRA.DIHEDRAL>
2.13523

>  <SCORE.INTRA.DIHEDRAL.0>
7.52971

>  <SCORE.INTRA.POLAR>
0

>  <SCORE.INTRA.POLAR.0>
0

>  <SCORE.INTRA.REPUL>
0

>  <SCORE.INTRA.REPUL.0>
0

>  <SCORE.INTRA.SOLV>
0.332799

>  <SCORE.INTRA.SOLV.lig_0>
-22.1084

>  <SCORE.INTRA.VDW>
-1.12583

>  <SCORE.INTRA.VDW.0>
2.4256

>  <SCORE.INTRA.norm>
0.00450752

>  <SCORE.RESTR>
0

>  <SCORE.RESTR.CAVITY>
0

>  <SCORE.RESTR.norm>
0

>  <SCORE.SYSTEM>
0

>  <SCORE.SYSTEM.CONST>
0

>  <SCORE.SYSTEM.DIHEDRAL>
0

>  <SCORE.SYSTEM.SOLV>
0

>  <SCORE.SYSTEM.norm>
0

>  <SCORE.heavy>
24

>  <SCORE.norm>
-0.656794

>  <RMSD>
3.133

$$$$
lig.pdb
 OpenBabel11021811453D
libRbt.so/2013.1/901 2013/11/27
 24 24  0  0  0  0  0  0  0  0999 V2000
    5.5324   -2.1177    0.6525 C   0  0  0  0  0  0  0  0  0  0  0  0
    5.2154   -1.1254   -0.3354 C   0  0  0  0  0  0  0  0  0  0  0  0
    4.0088   -0.4664   -0.3375 C   0  0  0  0  0  0  0  0  0  0  0  0
    3.0070   -0.7269    0.6513 C   0  0  0  0  0  0  0  0  0  0  0  0
    3.3116   -1.7420    1.6169 C   0  0  0  0  0  0  0  0  0  0  0  0
    4.5126   -2.4064    1.6152 C   0  0  0  0  0  0  0  0  0  0  0  0
    6.7397   -2.7552    0.6828 C   0  0  0  0  0  0  0  0  0  0  0  0
    7.3540   -3.1028    1.8338 N   0  0  0  0  0  0  0  0  0  0  0  0
    0.7179   -0.4631    0.0200 N   0  0  0  0  0  0  0  0  0  0  0  0
    1.8216   -0.0534    0.6804 C   0  0  0  0  0  0  0  0  0  0  0  0
    7.4127   -3.0917   -0.4455 N   0  0  0  0  0  0  0  0  0  0  0  0
    1.6521    1.0940    1.3794 N   0  0  0  0  0  0  0  0  0  0  0  0
    8.2270   -4.2875   -0.6529 C   0  0  0  0  0  0  0  0  0  0  0  0
    0.3800    1.6423    1.8395 C   0  0  0  0  0  0  0  0  0  0  0  0
    9.0971   -4.0592   -1.8995 C   0  0  0  0  0  0  0  0  0  0  0  0
    0.1860    1.2197    3.3076 C   0  0  0  0  0  0  0  0  0  0  0  0
   10.0642   -2.8865   -1.6865 C   0  0  0  0  0  0  0  0  0  0  0  0
   -1.1499    1.7098    3.8951 C   0  0  0  0  0  0  0  0  0  0  0  0
   10.4598   -2.3180   -3.0252 N   0  0  0  0  0  0  0  0  0  0  0  0
   -1.2088    3.2152    3.9553 N   0  0  0  0  0  0  0  0  0  0  0  0
   11.8925   -1.8607   -2.9855 C   0  0  0  0  0  0  0  0  0  0  0  0
   -1.9150    3.6234    5.2203 C   0  0  0  0  0  0  0  0  0  0  0  0
    9.5694   -1.1598   -3.4020 C   0  0  0  0  0  0  0  0  0  0  0  0
   -1.9368    3.8028    2.7786 C   0  0  0  0  0  0  0  0  0  0  0  0
  1  6  2  0  0  0  0
  2  3  2  0  0  0  0
  2  1  1  0  0  0  0
  3  4  1  0  0  0  0
  4 10  1  0  0  0  0
  4  5  2  0  0  0  0
  6  5  1  0  0  0  0
  7  1  1  0  0  0  0
  7 11  1  0  0  0  0
  8  7  2  0  0  0  0
  9 10  2  0  0  0  0
 10 12  1  0  0  0  0
 12 14  1  0  0  0  0
 13 11  1  0  0  0  0
 13 15  1  0  0  0  0
 14 16  1  0  0  0  0
 16 18  1  0  0  0  0
 17 15  1  0  0  0  0
 17 19  1  0  0  0  0
 18 20  1  0  0  0  0
 19 23  1  0  0  0  0
 20 22  1  0  0  0  0
 20 24  1  0  0  0  0
 21 19  1  0  0  0  0
M  END
>  <CHROM.1>
89.67795771,144.12415671,97.03738391,-164.28035802,62.93150274,-178.39348455
-64.27319164,-156.22752966,-144.60446037,-142.20369009,4.37916586,-0.72291114
0.63522044,0.07244852,-0.60242625,2.47436914

>  <Name>
lig.pdb

>  <RI>
0

>  <Rbt.Current_Directory>
/home/itssahil/PROJECTS/Mol_Feturizer/New_Systems/rnas/2l94

>  <Rbt.Executable>
rbdock ($Id: //depot/dev/client3/rdock/2013.1/src/exe/rbdock.cxx#4 $)

>  <Rbt.Library>
libRbt.so (2013.1, Build901 2013/11/27)

>  <Rbt.Parameter_File>
/export/apps/rDock/src/rDock_2013.1_src/data/scripts/dock_solv.prm

>  <Rbt.Receptor>
prm/pocket_docking_4.prm

>  <SCORE>
-12.0467

>  <SCORE.INTER>
-19.1772

>  <SCORE.INTER.CONST>
1

>  <SCORE.INTER.POLAR>
-3.38685

>  <SCORE.INTER.ROT>
10

>  <SCORE.INTER.SOLV>
9.3175

>  <SCORE.INTER.VDW>
-14.8678

>  <SCORE.INTER.norm>
-0.799051

>  <SCORE.INTRA>
7.13052

>  <SCORE.INTRA.DIHEDRAL>
21.1714

>  <SCORE.INTRA.DIHEDRAL.0>
7.52971

>  <SCORE.INTRA.POLAR>
0

>  <SCORE.INTRA.POLAR.0>
0

>  <SCORE.INTRA.REPUL>
0

>  <SCORE.INTRA.REPUL.0>
0

>  <SCORE.INTRA.SOLV>
0.0608633

>  <SCORE.INTRA.SOLV.lig_0>
-22.1084

>  <SCORE.INTRA.VDW>
-3.4856

>  <SCORE.INTRA.VDW.0>
2.4256

>  <SCORE.INTRA.norm>
0.297105

>  <SCORE.RESTR>
0

>  <SCORE.RESTR.CAVITY>
0

>  <SCORE.RESTR.norm>
0

>  <SCORE.SYSTEM>
0

>  <SCORE.SYSTEM.CONST>
0

>  <SCORE.SYSTEM.DIHEDRAL>
0

>  <SCORE.SYSTEM.SOLV>
0

>  <SCORE.SYSTEM.norm>
0

>  <SCORE.heavy>
24

>  <SCORE.norm>
-0.501946

>  <RMSD>
3.142

$$$$
lig.pdb
 OpenBabel11021811453D
libRbt.so/2013.1/901 2013/11/27
 24 24  0  0  0  0  0  0  0  0999 V2000
    6.2021    1.5386   -2.6585 C   0  0  0  0  0  0  0  0  0  0  0  0
    6.8327    0.3587   -3.1793 C   0  0  0  0  0  0  0  0  0  0  0  0
    7.9291   -0.2045   -2.5703 C   0  0  0  0  0  0  0  0  0  0  0  0
    8.4953    0.3497   -1.3780 C   0  0  0  0  0  0  0  0  0  0  0  0
    7.8853    1.5471   -0.8781 C   0  0  0  0  0  0  0  0  0  0  0  0
    6.7957    2.1147   -1.4899 C   0  0  0  0  0  0  0  0  0  0  0  0
    5.0937    2.0875   -3.2373 C   0  0  0  0  0  0  0  0  0  0  0  0
    4.4038    1.4741   -4.2226 N   0  0  0  0  0  0  0  0  0  0  0  0
    9.9702    0.1376    0.4896 N   0  0  0  0  0  0  0  0  0  0  0  0
    9.5600   -0.2212   -0.7453 C   0  0  0  0  0  0  0  0  0  0  0  0
    4.5987    3.2928   -2.8613 N   0  0  0  0  0  0  0  0  0  0  0  0
   10.3021   -1.2035   -1.3095 N   0  0  0  0  0  0  0  0  0  0  0  0
    3.1902    3.6788   -2.8028 C   0  0  0  0  0  0  0  0  0  0  0  0
   11.1411   -2.1644   -0.6000 C   0  0  0  0  0  0  0  0  0  0  0  0
    2.5498    2.9586   -1.6052 C   0  0  0  0  0  0  0  0  0  0  0  0
   12.4909   -2.2485   -1.3367 C   0  0  0  0  0  0  0  0  0  0  0  0
    3.1729    3.4301   -0.2840 C   0  0  0  0  0  0  0  0  0  0  0  0
   13.3659   -1.0011   -1.1172 C   0  0  0  0  0  0  0  0  0  0  0  0
    2.5744    2.6467    0.8562 N   0  0  0  0  0  0  0  0  0  0  0  0
   14.5887   -1.0206   -1.9992 N   0  0  0  0  0  0  0  0  0  0  0  0
    1.1987    3.1681    1.1708 C   0  0  0  0  0  0  0  0  0  0  0  0
   15.7251   -0.3567   -1.2689 C   0  0  0  0  0  0  0  0  0  0  0  0
    3.4435    2.7379    2.0860 C   0  0  0  0  0  0  0  0  0  0  0  0
   14.3612   -0.3051   -3.3016 C   0  0  0  0  0  0  0  0  0  0  0  0
  1  6  2  0  0  0  0
  2  3  2  0  0  0  0
  2  1  1  0  0  0  0
  3  4  1  0  0  0  0
  4 10  1  0  0  0  0
  4  5  2  0  0  0  0
  6  5  1  0  0  0  0
  7  1  1  0  0  0  0
  7 11  1  0  0  0  0
  8  7  2  0  0  0  0
  9 10  2  0  0  0  0
 10 12  1  0  0  0  0
 12 14  1  0  0  0  0
 13 11  1  0  0  0  0
 13 15  1  0  0  0  0
 14 16  1  0  0  0  0
 16 18  1  0  0  0  0
 17 15  1  0  0  0  0
 17 19  1  0  0  0  0
 18 20  1  0  0  0  0
 19 23  1  0  0  0  0
 20 22  1  0  0  0  0
 20 24  1  0  0  0  0
 21 19  1  0  0  0  0
M  END
>  <CHROM.1>
-168.28765123,9.12964143,-134.43432711,72.21356293,64.23721338,73.05653497
-171.93516134,-176.84264922,-77.14692918,-146.86696720,7.76859038,0.94772321
-1.39966608,3.10015294,-0.36745820,1.63036289

>  <Name>
lig.pdb

>  <RI>
0

>  <Rbt.Current_Directory>
/home/itssahil/PROJECTS/Mol_Feturizer/New_Systems/rnas/2l94

>  <Rbt.Executable>
rbdock ($Id: //depot/dev/client3/rdock/2013.1/src/exe/rbdock.cxx#4 $)

>  <Rbt.Library>
libRbt.so (2013.1, Build901 2013/11/27)

>  <Rbt.Parameter_File>
/export/apps/rDock/src/rDock_2013.1_src/data/scripts/dock_solv.prm

>  <Rbt.Receptor>
prm/pocket_docking_4.prm

>  <SCORE>
-15.7858

>  <SCORE.INTER>
-14.0251

>  <SCORE.INTER.CONST>
1

>  <SCORE.INTER.POLAR>
-1.88815

>  <SCORE.INTER.ROT>
10

>  <SCORE.INTER.SOLV>
7.5257

>  <SCORE.INTER.VDW>
-15.8315

>  <SCORE.INTER.norm>
-0.584379

>  <SCORE.INTRA>
-1.76075

>  <SCORE.INTRA.DIHEDRAL>
1.90791

>  <SCORE.INTRA.DIHEDRAL.0>
7.52971

>  <SCORE.INTRA.POLAR>
0

>  <SCORE.INTRA.POLAR.0>
0

>  <SCORE.INTRA.REPUL>
0

>  <SCORE.INTRA.REPUL.0>
0

>  <SCORE.INTRA.SOLV>
0.510747

>  <SCORE.INTRA.SOLV.lig_0>
-22.1084

>  <SCORE.INTRA.VDW>
-2.97008

>  <SCORE.INTRA.VDW.0>
2.4256

>  <SCORE.INTRA.norm>
-0.0733647

>  <SCORE.RESTR>
0

>  <SCORE.RESTR.CAVITY>
0

>  <SCORE.RESTR.norm>
0

>  <SCORE.SYSTEM>
0

>  <SCORE.SYSTEM.CONST>
0

>  <SCORE.SYSTEM.DIHEDRAL>
0

>  <SCORE.SYSTEM.SOLV>
0

>  <SCORE.SYSTEM.norm>
0

>  <SCORE.heavy>
24

>  <SCORE.norm>
-0.657744

>  <RMSD>
3.159

$$$$
lig.pdb
 OpenBabel11021811453D
libRbt.so/2013.1/901 2013/11/27
 24 24  0  0  0  0  0  0  0  0999 V2000
    7.0074   -0.3298    1.0673 C   0  0  0  0  0  0  0  0  0  0  0  0
    5.8324   -0.2627    1.8894 C   0  0  0  0  0  0  0  0  0  0  0  0
    4.9371    0.7758    1.7885 C   0  0  0  0  0  0  0  0  0  0  0  0
    5.1231    1.8416    0.8510 C   0  0  0  0  0  0  0  0  0  0  0  0
    6.3141    1.7906    0.0543 C   0  0  0  0  0  0  0  0  0  0  0  0
    7.2126    0.7586    0.1599 C   0  0  0  0  0  0  0  0  0  0  0  0
    7.8862   -1.3727    1.1370 C   0  0  0  0  0  0  0  0  0  0  0  0
    7.7133   -2.4197    1.9720 N   0  0  0  0  0  0  0  0  0  0  0  0
    4.4704    3.9806    0.0103 N   0  0  0  0  0  0  0  0  0  0  0  0
    4.2232    2.8574    0.7170 C   0  0  0  0  0  0  0  0  0  0  0  0
    9.0005   -1.4371    0.3669 N   0  0  0  0  0  0  0  0  0  0  0  0
    2.9960    2.8241    1.2887 N   0  0  0  0  0  0  0  0  0  0  0  0
    9.5961   -2.6414   -0.2087 C   0  0  0  0  0  0  0  0  0  0  0  0
    1.8306    3.5979    0.8721 C   0  0  0  0  0  0  0  0  0  0  0  0
    9.6473   -2.4631   -1.7346 C   0  0  0  0  0  0  0  0  0  0  0  0
    0.5921    2.6908    0.9941 C   0  0  0  0  0  0  0  0  0  0  0  0
   10.5568   -1.2882   -2.1198 C   0  0  0  0  0  0  0  0  0  0  0  0
    0.1715    2.0756   -0.3529 C   0  0  0  0  0  0  0  0  0  0  0  0
   11.9966   -1.6872   -1.9211 N   0  0  0  0  0  0  0  0  0  0  0  0
    1.0273    0.8866   -0.7096 N   0  0  0  0  0  0  0  0  0  0  0  0
   12.4374   -1.3402   -0.5251 C   0  0  0  0  0  0  0  0  0  0  0  0
    0.8464    0.5790   -2.1718 C   0  0  0  0  0  0  0  0  0  0  0  0
   12.8895   -0.9944   -2.9205 C   0  0  0  0  0  0  0  0  0  0  0  0
    0.6690   -0.3326    0.0936 C   0  0  0  0  0  0  0  0  0  0  0  0
  1  6  2  0  0  0  0
  2  3  2  0  0  0  0
  2  1  1  0  0  0  0
  3  4  1  0  0  0  0
  4 10  1  0  0  0  0
  4  5  2  0  0  0  0
  6  5  1  0  0  0  0
  7  1  1  0  0  0  0
  7 11  1  0  0  0  0
  8  7  2  0  0  0  0
  9 10  2  0  0  0  0
 10 12  1  0  0  0  0
 12 14  1  0  0  0  0
 13 11  1  0  0  0  0
 13 15  1  0  0  0  0
 14 16  1  0  0  0  0
 16 18  1  0  0  0  0
 17 15  1  0  0  0  0
 17 19  1  0  0  0  0
 18 20  1  0  0  0  0
 19 23  1  0  0  0  0
 20 22  1  0  0  0  0
 20 24  1  0  0  0  0
 21 19  1  0  0  0  0
M  END
>  <CHROM.1>
168.70986862,0.52761456,140.80836250,121.72325372,63.16613675,-99.01252117
79.77664720,73.67037519,-90.30292238,-163.95012654,6.05537817,0.31334077
-0.01481346,0.37963741,-0.11154450,-3.08350365

>  <Name>
lig.pdb

>  <RI>
0

>  <Rbt.Current_Directory>
/home/itssahil/PROJECTS/Mol_Feturizer/New_Systems/rnas/2l94

>  <Rbt.Executable>
rbdock ($Id: //depot/dev/client3/rdock/2013.1/src/exe/rbdock.cxx#4 $)

>  <Rbt.Library>
libRbt.so (2013.1, Build901 2013/11/27)

>  <Rbt.Parameter_File>
/export/apps/rDock/src/rDock_2013.1_src/data/scripts/dock_solv.prm

>  <Rbt.Receptor>
prm/pocket_docking_4.prm

>  <SCORE>
-16.9836

>  <SCORE.INTER>
-18.199

>  <SCORE.INTER.CONST>
1

>  <SCORE.INTER.POLAR>
-2.2688

>  <SCORE.INTER.ROT>
10

>  <SCORE.INTER.SOLV>
10.0278

>  <SCORE.INTER.VDW>
-18.1793

>  <SCORE.INTER.norm>
-0.758292

>  <SCORE.INTRA>
1.2154

>  <SCORE.INTRA.DIHEDRAL>
6.28183

>  <SCORE.INTRA.DIHEDRAL.0>
7.52971

>  <SCORE.INTRA.POLAR>
0

>  <SCORE.INTRA.POLAR.0>
0

>  <SCORE.INTRA.REPUL>
0

>  <SCORE.INTRA.REPUL.0>
0

>  <SCORE.INTRA.SOLV>
1.0625

>  <SCORE.INTRA.SOLV.lig_0>
-22.1084

>  <SCORE.INTRA.VDW>
-2.45677

>  <SCORE.INTRA.VDW.0>
2.4256

>  <SCORE.INTRA.norm>
0.0506415

>  <SCORE.RESTR>
0

>  <SCORE.RESTR.CAVITY>
0

>  <SCORE.RESTR.norm>
0

>  <SCORE.SYSTEM>
0

>  <SCORE.SYSTEM.CONST>
0

>  <SCORE.SYSTEM.DIHEDRAL>
0

>  <SCORE.SYSTEM.SOLV>
0

>  <SCORE.SYSTEM.norm>
0

>  <SCORE.heavy>
24

>  <SCORE.norm>
-0.70765

>  <RMSD>
3.179

$$$$
lig.pdb
 OpenBabel11021811453D
libRbt.so/2013.1/901 2013/11/27
 24 24  0  0  0  0  0  0  0  0999 V2000
    4.7209   -0.7250   -2.2875 C   0  0  0  0  0  0  0  0  0  0  0  0
    4.6726   -2.1593   -2.2497 C   0  0  0  0  0  0  0  0  0  0  0  0
    5.7107   -2.9050   -1.7434 C   0  0  0  0  0  0  0  0  0  0  0  0
    6.8921   -2.2911   -1.2172 C   0  0  0  0  0  0  0  0  0  0  0  0
    6.9532   -0.8603   -1.2865 C   0  0  0  0  0  0  0  0  0  0  0  0
    5.9208   -0.1152   -1.7992 C   0  0  0  0  0  0  0  0  0  0  0  0
    3.6825    0.0263   -2.7588 C   0  0  0  0  0  0  0  0  0  0  0  0
    2.7070   -0.4839   -3.5405 N   0  0  0  0  0  0  0  0  0  0  0  0
    7.8646   -4.3586   -0.5188 N   0  0  0  0  0  0  0  0  0  0  0  0
    7.9120   -3.0192   -0.6795 C   0  0  0  0  0  0  0  0  0  0  0  0
    3.5507    1.3453   -2.4723 N   0  0  0  0  0  0  0  0  0  0  0  0
    9.0674   -2.4533   -0.2565 N   0  0  0  0  0  0  0  0  0  0  0  0
    2.3011    2.0707   -2.2526 C   0  0  0  0  0  0  0  0  0  0  0  0
   10.3487   -3.1325   -0.0906 C   0  0  0  0  0  0  0  0  0  0  0  0
    2.6467    3.4371   -1.6389 C   0  0  0  0  0  0  0  0  0  0  0  0
   11.4532   -2.1916   -0.6067 C   0  0  0  0  0  0  0  0  0  0  0  0
    2.8306    3.3255   -0.1191 C   0  0  0  0  0  0  0  0  0  0  0  0
   11.4977   -2.1149   -2.1436 C   0  0  0  0  0  0  0  0  0  0  0  0
    4.2631    2.9680    0.1841 N   0  0  0  0  0  0  0  0  0  0  0  0
   10.4631   -1.1583   -2.6802 N   0  0  0  0  0  0  0  0  0  0  0  0
    4.3842    2.4969    1.6078 C   0  0  0  0  0  0  0  0  0  0  0  0
   10.1864   -1.4994   -4.1198 C   0  0  0  0  0  0  0  0  0  0  0  0
    5.1712    4.1525   -0.0358 C   0  0  0  0  0  0  0  0  0  0  0  0
   10.9148    0.2730   -2.5958 C   0  0  0  0  0  0  0  0  0  0  0  0
  1  6  2  0  0  0  0
  2  3  2  0  0  0  0
  2  1  1  0  0  0  0
  3  4  1  0  0  0  0
  4 10  1  0  0  0  0
  4  5  2  0  0  0  0
  6  5  1  0  0  0  0
  7  1  1  0  0  0  0
  7 11  1  0  0  0  0
  8  7  2  0  0  0  0
  9 10  2  0  0  0  0
 10 12  1  0  0  0  0
 12 14  1  0  0  0  0
 13 11  1  0  0  0  0
 13 15  1  0  0  0  0
 14 16  1  0  0  0  0
 16 18  1  0  0  0  0
 17 15  1  0  0  0  0
 17 19  1  0  0  0  0
 18 20  1  0  0  0  0
 19 23  1  0  0  0  0
 20 22  1  0  0  0  0
 20 24  1  0  0  0  0
 21 19  1  0  0  0  0
M  END
>  <CHROM.1>
-4.33071592,-18.34760956,139.15558767,166.77445841,-83.52460817,-74.82765078
81.49972806,87.72953133,-164.91871394,-158.61775617,6.53161202,-0.34934922
-1.46420982,2.56360042,-0.16888995,0.33158154

>  <Name>
lig.pdb

>  <RI>
0

>  <Rbt.Current_Directory>
/home/itssahil/PROJECTS/Mol_Feturizer/New_Systems/rnas/2l94

>  <Rbt.Executable>
rbdock ($Id: //depot/dev/client3/rdock/2013.1/src/exe/rbdock.cxx#4 $)

>  <Rbt.Library>
libRbt.so (2013.1, Build901 2013/11/27)

>  <Rbt.Parameter_File>
/export/apps/rDock/src/rDock_2013.1_src/data/scripts/dock_solv.prm

>  <Rbt.Receptor>
prm/pocket_docking_4.prm

>  <SCORE>
-12.2954

>  <SCORE.INTER>
-12.8261

>  <SCORE.INTER.CONST>
1

>  <SCORE.INTER.POLAR>
-2.09715

>  <SCORE.INTER.ROT>
10

>  <SCORE.INTER.SOLV>
10.1139

>  <SCORE.INTER.VDW>
-15.1982

>  <SCORE.INTER.norm>
-0.534421

>  <SCORE.INTRA>
0.530697

>  <SCORE.INTRA.DIHEDRAL>
6.64255

>  <SCORE.INTRA.DIHEDRAL.0>
7.52971

>  <SCORE.INTRA.POLAR>
0

>  <SCORE.INTRA.POLAR.0>
0

>  <SCORE.INTRA.REPUL>
0

>  <SCORE.INTRA.REPUL.0>
0

>  <SCORE.INTRA.SOLV>
1.79394

>  <SCORE.INTRA.SOLV.lig_0>
-22.1084

>  <SCORE.INTRA.VDW>
-3.68755

>  <SCORE.INTRA.VDW.0>
2.4256

>  <SCORE.INTRA.norm>
0.0221124

>  <SCORE.RESTR>
0

>  <SCORE.RESTR.CAVITY>
0

>  <SCORE.RESTR.norm>
0

>  <SCORE.SYSTEM>
0

>  <SCORE.SYSTEM.CONST>
0

>  <SCORE.SYSTEM.DIHEDRAL>
0

>  <SCORE.SYSTEM.SOLV>
0

>  <SCORE.SYSTEM.norm>
0

>  <SCORE.heavy>
24

>  <SCORE.norm>
-0.512309

>  <RMSD>
3.189

$$$$
lig.pdb
 OpenBabel11021811453D
libRbt.so/2013.1/901 2013/11/27
 24 24  0  0  0  0  0  0  0  0999 V2000
    4.6298    1.2423    2.0136 C   0  0  0  0  0  0  0  0  0  0  0  0
    5.8116    1.5565    1.2615 C   0  0  0  0  0  0  0  0  0  0  0  0
    6.7887    0.6189    1.0242 C   0  0  0  0  0  0  0  0  0  0  0  0
    6.6759   -0.7244    1.5059 C   0  0  0  0  0  0  0  0  0  0  0  0
    5.5113   -1.0275    2.2854 C   0  0  0  0  0  0  0  0  0  0  0  0
    4.5390   -0.0901    2.5298 C   0  0  0  0  0  0  0  0  0  0  0  0
    3.6386    2.1569    2.2279 C   0  0  0  0  0  0  0  0  0  0  0  0
    3.8254    3.4857    2.0787 N   0  0  0  0  0  0  0  0  0  0  0  0
    7.7883   -2.7810    1.9969 N   0  0  0  0  0  0  0  0  0  0  0  0
    7.6214   -1.6720    1.2457 C   0  0  0  0  0  0  0  0  0  0  0  0
    2.3864    1.7970    2.6040 N   0  0  0  0  0  0  0  0  0  0  0  0
    8.4805   -1.5774    0.2031 N   0  0  0  0  0  0  0  0  0  0  0  0
    1.1356    2.4373    2.2017 C   0  0  0  0  0  0  0  0  0  0  0  0
    9.2006   -2.6822   -0.4224 C   0  0  0  0  0  0  0  0  0  0  0  0
    0.4749    3.0217    3.4606 C   0  0  0  0  0  0  0  0  0  0  0  0
   10.7079   -2.4393   -0.2202 C   0  0  0  0  0  0  0  0  0  0  0  0
   -0.9836    3.4120    3.1841 C   0  0  0  0  0  0  0  0  0  0  0  0
   11.1955   -1.1421   -0.8905 C   0  0  0  0  0  0  0  0  0  0  0  0
   -1.6358    3.8454    4.4721 N   0  0  0  0  0  0  0  0  0  0  0  0
   12.5597   -0.7395   -0.3901 N   0  0  0  0  0  0  0  0  0  0  0  0
   -1.8660    2.6514    5.3579 C   0  0  0  0  0  0  0  0  0  0  0  0
   12.7382    0.7397   -0.6033 C   0  0  0  0  0  0  0  0  0  0  0  0
   -2.9494    4.5370    4.2036 C   0  0  0  0  0  0  0  0  0  0  0  0
   13.6641   -1.4718   -1.1000 C   0  0  0  0  0  0  0  0  0  0  0  0
  1  6  2  0  0  0  0
  2  3  2  0  0  0  0
  2  1  1  0  0  0  0
  3  4  1  0  0  0  0
  4 10  1  0  0  0  0
  4  5  2  0  0  0  0
  6  5  1  0  0  0  0
  7  1  1  0  0  0  0
  7 11  1  0  0  0  0
  8  7  2  0  0  0  0
  9 10  2  0  0  0  0
 10 12  1  0  0  0  0
 12 14  1  0  0  0  0
 13 11  1  0  0  0  0
 13 15  1  0  0  0  0
 14 16  1  0  0  0  0
 16 18  1  0  0  0  0
 17 15  1  0  0  0  0
 17 19  1  0  0  0  0
 18 20  1  0  0  0  0
 19 23  1  0  0  0  0
 20 22  1  0  0  0  0
 20 24  1  0  0  0  0
 21 19  1  0  0  0  0
M  END
>  <CHROM.1>
158.02344014,-18.18549753,-117.06089379,-116.35858704,-166.49801345,-61.90770226
165.16121711,174.20682815,-71.93342875,-156.75099042,5.49704611,0.65799991
1.68821358,-2.83647443,-0.37975025,2.99207160

>  <Name>
lig.pdb

>  <RI>
1.71133e+07

>  <Rbt.Current_Directory>
/home/itssahil/PROJECTS/Mol_Feturizer/New_Systems/rnas/2l94

>  <Rbt.Executable>
rbdock ($Id: //depot/dev/client3/rdock/2013.1/src/exe/rbdock.cxx#4 $)

>  <Rbt.Library>
libRbt.so (2013.1, Build901 2013/11/27)

>  <Rbt.Parameter_File>
/export/apps/rDock/src/rDock_2013.1_src/data/scripts/dock_solv.prm

>  <Rbt.Receptor>
prm/pocket_docking_5.prm

>  <SCORE>
-21.8557

>  <SCORE.INTER>
-21.2798

>  <SCORE.INTER.CONST>
1

>  <SCORE.INTER.POLAR>
-2.87641

>  <SCORE.INTER.ROT>
10

>  <SCORE.INTER.SOLV>
9.78403

>  <SCORE.INTER.VDW>
-18.1265

>  <SCORE.INTER.norm>
-0.886657

>  <SCORE.INTRA>
-0.575954

>  <SCORE.INTRA.DIHEDRAL>
3.38763

>  <SCORE.INTRA.DIHEDRAL.0>
7.52971

>  <SCORE.INTRA.POLAR>
0

>  <SCORE.INTRA.POLAR.0>
0

>  <SCORE.INTRA.REPUL>
0

>  <SCORE.INTRA.REPUL.0>
0

>  <SCORE.INTRA.SOLV>
0.0826749

>  <SCORE.INTRA.SOLV.lig_0>
-22.1084

>  <SCORE.INTRA.VDW>
-2.3111

>  <SCORE.INTRA.VDW.0>
2.4256

>  <SCORE.INTRA.norm>
-0.0239981

>  <SCORE.RESTR>
0

>  <SCORE.RESTR.CAVITY>
0

>  <SCORE.RESTR.norm>
0

>  <SCORE.SYSTEM>
0

>  <SCORE.SYSTEM.CONST>
0

>  <SCORE.SYSTEM.DIHEDRAL>
0

>  <SCORE.SYSTEM.SOLV>
0

>  <SCORE.SYSTEM.norm>
0

>  <SCORE.heavy>
24

>  <SCORE.norm>
-0.910655

>  <RMSD>
3.214

$$$$
lig.pdb
 OpenBabel11021811453D
libRbt.so/2013.1/901 2013/11/27
 24 24  0  0  0  0  0  0  0  0999 V2000
    7.8203   -2.5748   -1.5708 C   0  0  0  0  0  0  0  0  0  0  0  0
    7.2955   -1.6166   -2.5022 C   0  0  0  0  0  0  0  0  0  0  0  0
    5.9552   -1.3147   -2.5516 C   0  0  0  0  0  0  0  0  0  0  0  0
    5.0115   -1.9322   -1.6699 C   0  0  0  0  0  0  0  0  0  0  0  0
    5.5320   -2.9135   -0.7633 C   0  0  0  0  0  0  0  0  0  0  0  0
    6.8687   -3.2217   -0.7187 C   0  0  0  0  0  0  0  0  0  0  0  0
    9.1538   -2.8585   -1.4918 C   0  0  0  0  0  0  0  0  0  0  0  0
    9.6632   -3.7333   -0.5982 N   0  0  0  0  0  0  0  0  0  0  0  0
    2.7665   -2.2207   -0.9050 N   0  0  0  0  0  0  0  0  0  0  0  0
    3.6856   -1.6138   -1.6854 C   0  0  0  0  0  0  0  0  0  0  0  0
   10.0691   -2.2837   -2.3108 N   0  0  0  0  0  0  0  0  0  0  0  0
    3.1759   -0.6542   -2.4938 N   0  0  0  0  0  0  0  0  0  0  0  0
   11.2719   -2.9120   -2.8537 C   0  0  0  0  0  0  0  0  0  0  0  0
    1.9196    0.0617   -2.2946 C   0  0  0  0  0  0  0  0  0  0  0  0
   12.2595   -1.7973   -3.2343 C   0  0  0  0  0  0  0  0  0  0  0  0
    2.2581    1.5232   -1.9464 C   0  0  0  0  0  0  0  0  0  0  0  0
   12.9088   -1.1887   -1.9837 C   0  0  0  0  0  0  0  0  0  0  0  0
    3.0053    1.6568   -0.6071 C   0  0  0  0  0  0  0  0  0  0  0  0
   14.3743   -0.9546   -2.2474 N   0  0  0  0  0  0  0  0  0  0  0  0
    3.0086    3.0820   -0.1149 N   0  0  0  0  0  0  0  0  0  0  0  0
   15.1023   -0.7439   -0.9478 C   0  0  0  0  0  0  0  0  0  0  0  0
    4.0380    3.2172    0.9748 C   0  0  0  0  0  0  0  0  0  0  0  0
   14.5752    0.2450   -3.1400 C   0  0  0  0  0  0  0  0  0  0  0  0
    1.6690    3.4998    0.4245 C   0  0  0  0  0  0  0  0  0  0  0  0
  1  6  2  0  0  0  0
  2  3  2  0  0  0  0
  2  1  1  0  0  0  0
  3  4  1  0  0  0  0
  4 10  1  0  0  0  0
  4  5  2  0  0  0  0
  6  5  1  0  0  0  0
  7  1  1  0  0  0  0
  7 11  1  0  0  0  0
  8  7  2  0  0  0  0
  9 10  2  0  0  0  0
 10 12  1  0  0  0  0
 12 14  1  0  0  0  0
 13 11  1  0  0  0  0
 13 15  1  0  0  0  0
 14 16  1  0  0  0  0
 16 18  1  0  0  0  0
 17 15  1  0  0  0  0
 17 19  1  0  0  0  0
 18 20  1  0  0  0  0
 19 23  1  0  0  0  0
 20 22  1  0  0  0  0
 20 24  1  0  0  0  0
 21 19  1  0  0  0  0
M  END
>  <CHROM.1>
177.10151994,178.34043723,110.84604094,-157.78346232,74.62584377,-64.71788057
-165.18987816,138.73070010,-163.64990213,-165.18862994,7.26816562,-0.82422995
-1.53500286,0.25952492,-0.07507748,-2.94711235

>  <Name>
lig.pdb

>  <RI>
0

>  <Rbt.Current_Directory>
/home/itssahil/PROJECTS/Mol_Feturizer/New_Systems/rnas/2l94

>  <Rbt.Executable>
rbdock ($Id: //depot/dev/client3/rdock/2013.1/src/exe/rbdock.cxx#4 $)

>  <Rbt.Library>
libRbt.so (2013.1, Build901 2013/11/27)

>  <Rbt.Parameter_File>
/export/apps/rDock/src/rDock_2013.1_src/data/scripts/dock_solv.prm

>  <Rbt.Receptor>
prm/pocket_docking_4.prm

>  <SCORE>
-22.4719

>  <SCORE.INTER>
-22.886

>  <SCORE.INTER.CONST>
1

>  <SCORE.INTER.POLAR>
-3.44667

>  <SCORE.INTER.ROT>
10

>  <SCORE.INTER.SOLV>
10.5333

>  <SCORE.INTER.VDW>
-17.5462

>  <SCORE.INTER.norm>
-0.953583

>  <SCORE.INTRA>
0.381732

>  <SCORE.INTRA.DIHEDRAL>
4.31799

>  <SCORE.INTRA.DIHEDRAL.0>
7.52971

>  <SCORE.INTRA.POLAR>
0

>  <SCORE.INTRA.POLAR.0>
0

>  <SCORE.INTRA.REPUL>
0

>  <SCORE.INTRA.REPUL.0>
0

>  <SCORE.INTRA.SOLV>
0.378468

>  <SCORE.INTRA.SOLV.lig_0>
-22.1084

>  <SCORE.INTRA.VDW>
-1.9665

>  <SCORE.INTRA.VDW.0>
2.4256

>  <SCORE.INTRA.norm>
0.0159055

>  <SCORE.RESTR>
0.0323257

>  <SCORE.RESTR.CAVITY>
0.0323257

>  <SCORE.RESTR.norm>
0.00134691

>  <SCORE.SYSTEM>
0

>  <SCORE.SYSTEM.CONST>
0

>  <SCORE.SYSTEM.DIHEDRAL>
0

>  <SCORE.SYSTEM.SOLV>
0

>  <SCORE.SYSTEM.norm>
0

>  <SCORE.heavy>
24

>  <SCORE.norm>
-0.936331

>  <RMSD>
3.230

$$$$
lig.pdb
 OpenBabel11021811453D
libRbt.so/2013.1/901 2013/11/27
 24 24  0  0  0  0  0  0  0  0999 V2000
    8.2035   -2.6358   -1.4518 C   0  0  0  0  0  0  0  0  0  0  0  0
    7.2339   -3.5726   -1.9451 C   0  0  0  0  0  0  0  0  0  0  0  0
    5.9077   -3.2370   -2.0812 C   0  0  0  0  0  0  0  0  0  0  0  0
    5.4233   -1.9318   -1.7475 C   0  0  0  0  0  0  0  0  0  0  0  0
    6.3864   -1.0081   -1.2233 C   0  0  0  0  0  0  0  0  0  0  0  0
    7.7093   -1.3446   -1.0794 C   0  0  0  0  0  0  0  0  0  0  0  0
    9.5283   -2.9485   -1.3428 C   0  0  0  0  0  0  0  0  0  0  0  0
   10.1385   -3.8379   -2.1551 N   0  0  0  0  0  0  0  0  0  0  0  0
    3.0896   -2.4426   -1.7828 N   0  0  0  0  0  0  0  0  0  0  0  0
    4.1171   -1.5768   -1.9127 C   0  0  0  0  0  0  0  0  0  0  0  0
   10.3342   -2.3839   -0.4097 N   0  0  0  0  0  0  0  0  0  0  0  0
    3.7388   -0.3146   -2.2254 N   0  0  0  0  0  0  0  0  0  0  0  0
   11.7434   -2.0313   -0.5708 C   0  0  0  0  0  0  0  0  0  0  0  0
    2.4217    0.2714   -1.9962 C   0  0  0  0  0  0  0  0  0  0  0  0
   11.8168   -0.7236   -1.3755 C   0  0  0  0  0  0  0  0  0  0  0  0
    2.6123    1.5522   -1.1626 C   0  0  0  0  0  0  0  0  0  0  0  0
   13.1754   -0.0358   -1.1825 C   0  0  0  0  0  0  0  0  0  0  0  0
    3.0530    1.2596    0.2831 C   0  0  0  0  0  0  0  0  0  0  0  0
   14.1940   -0.6836   -2.0851 N   0  0  0  0  0  0  0  0  0  0  0  0
    3.1555    2.5246    1.0972 N   0  0  0  0  0  0  0  0  0  0  0  0
   15.5750   -0.4952   -1.5187 C   0  0  0  0  0  0  0  0  0  0  0  0
    1.7879    3.1436    1.2072 C   0  0  0  0  0  0  0  0  0  0  0  0
   14.1324   -0.0971   -3.4737 C   0  0  0  0  0  0  0  0  0  0  0  0
    4.0949    3.5229    0.4800 C   0  0  0  0  0  0  0  0  0  0  0  0
  1  6  2  0  0  0  0
  2  3  2  0  0  0  0
  2  1  1  0  0  0  0
  3  4  1  0  0  0  0
  4 10  1  0  0  0  0
  4  5  2  0  0  0  0
  6  5  1  0  0  0  0
  7  1  1  0  0  0  0
  7 11  1  0  0  0  0
  8  7  2  0  0  0  0
  9 10  2  0  0  0  0
 10 12  1  0  0  0  0
 12 14  1  0  0  0  0
 13 11  1  0  0  0  0
 13 15  1  0  0  0  0
 14 16  1  0  0  0  0
 16 18  1  0  0  0  0
 17 15  1  0  0  0  0
 17 19  1  0  0  0  0
 18 20  1  0  0  0  0
 19 23  1  0  0  0  0
 20 22  1  0  0  0  0
 20 24  1  0  0  0  0
 21 19  1  0  0  0  0
M  END
>  <CHROM.1>
32.09520527,29.36317508,124.42177691,77.71259289,160.48332261,-69.62388816
-176.74965612,80.99285252,-154.86476665,63.84326220,7.51749827,-0.73808593
-1.21978776,0.24630539,-0.04077491,-2.79269200

>  <Name>
lig.pdb

>  <RI>
0

>  <Rbt.Current_Directory>
/home/itssahil/PROJECTS/Mol_Feturizer/New_Systems/rnas/2l94

>  <Rbt.Executable>
rbdock ($Id: //depot/dev/client3/rdock/2013.1/src/exe/rbdock.cxx#4 $)

>  <Rbt.Library>
libRbt.so (2013.1, Build901 2013/11/27)

>  <Rbt.Parameter_File>
/export/apps/rDock/src/rDock_2013.1_src/data/scripts/dock_solv.prm

>  <Rbt.Receptor>
prm/pocket_docking_4.prm

>  <SCORE>
-13.8708

>  <SCORE.INTER>
-17.2078

>  <SCORE.INTER.CONST>
1

>  <SCORE.INTER.POLAR>
-3.03209

>  <SCORE.INTER.ROT>
10

>  <SCORE.INTER.SOLV>
9.69319

>  <SCORE.INTER.VDW>
-14.8626

>  <SCORE.INTER.norm>
-0.71699

>  <SCORE.INTRA>
3.33588

>  <SCORE.INTRA.DIHEDRAL>
8.50294

>  <SCORE.INTRA.DIHEDRAL.0>
7.52971

>  <SCORE.INTRA.POLAR>
0

>  <SCORE.INTRA.POLAR.0>
0

>  <SCORE.INTRA.REPUL>
0

>  <SCORE.INTRA.REPUL.0>
0

>  <SCORE.INTRA.SOLV>
0.0994736

>  <SCORE.INTRA.SOLV.lig_0>
-22.1084

>  <SCORE.INTRA.VDW>
-0.965332

>  <SCORE.INTRA.VDW.0>
2.4256

>  <SCORE.INTRA.norm>
0.138995

>  <SCORE.RESTR>
0.00107157

>  <SCORE.RESTR.CAVITY>
0.00107157

>  <SCORE.RESTR.norm>
4.46486e-05

>  <SCORE.SYSTEM>
0

>  <SCORE.SYSTEM.CONST>
0

>  <SCORE.SYSTEM.DIHEDRAL>
0

>  <SCORE.SYSTEM.SOLV>
0

>  <SCORE.SYSTEM.norm>
0

>  <SCORE.heavy>
24

>  <SCORE.norm>
-0.57795

>  <RMSD>
3.252

$$$$
lig.pdb
 OpenBabel11021811453D
libRbt.so/2013.1/901 2013/11/27
 24 24  0  0  0  0  0  0  0  0999 V2000
    8.1414   -2.0954    0.0830 C   0  0  0  0  0  0  0  0  0  0  0  0
    7.3623   -1.0058   -0.4335 C   0  0  0  0  0  0  0  0  0  0  0  0
    6.1973   -0.5983    0.1723 C   0  0  0  0  0  0  0  0  0  0  0  0
    5.7033   -1.2322    1.3570 C   0  0  0  0  0  0  0  0  0  0  0  0
    6.4645   -2.3417    1.8524 C   0  0  0  0  0  0  0  0  0  0  0  0
    7.6233   -2.7545    1.2438 C   0  0  0  0  0  0  0  0  0  0  0  0
    9.3161   -2.4874   -0.4924 C   0  0  0  0  0  0  0  0  0  0  0  0
   10.0309   -3.5433   -0.0482 N   0  0  0  0  0  0  0  0  0  0  0  0
    4.0488   -1.4294    3.0693 N   0  0  0  0  0  0  0  0  0  0  0  0
    4.5687   -0.8130    1.9868 C   0  0  0  0  0  0  0  0  0  0  0  0
    9.8527   -1.8455   -1.5596 N   0  0  0  0  0  0  0  0  0  0  0  0
    3.8618    0.2656    1.5735 N   0  0  0  0  0  0  0  0  0  0  0  0
   10.5878   -2.4548   -2.6663 C   0  0  0  0  0  0  0  0  0  0  0  0
    2.9349    1.0498    2.3837 C   0  0  0  0  0  0  0  0  0  0  0  0
   12.0880   -2.3744   -2.3412 C   0  0  0  0  0  0  0  0  0  0  0  0
    1.5164    0.4992    2.1461 C   0  0  0  0  0  0  0  0  0  0  0  0
   12.5971   -0.9306   -2.4519 C   0  0  0  0  0  0  0  0  0  0  0  0
    0.4386    1.2817    2.9180 C   0  0  0  0  0  0  0  0  0  0  0  0
   14.0873   -0.9094   -2.2269 N   0  0  0  0  0  0  0  0  0  0  0  0
    0.2347    2.6594    2.3402 N   0  0  0  0  0  0  0  0  0  0  0  0
   14.3841   -0.9334   -0.7522 C   0  0  0  0  0  0  0  0  0  0  0  0
   -0.5543    3.4854    3.3205 C   0  0  0  0  0  0  0  0  0  0  0  0
   14.7076    0.3176   -2.8479 C   0  0  0  0  0  0  0  0  0  0  0  0
   -0.5009    2.6227    1.0297 C   0  0  0  0  0  0  0  0  0  0  0  0
  1  6  2  0  0  0  0
  2  3  2  0  0  0  0
  2  1  1  0  0  0  0
  3  4  1  0  0  0  0
  4 10  1  0  0  0  0
  4  5  2  0  0  0  0
  6  5  1  0  0  0  0
  7  1  1  0  0  0  0
  7 11  1  0  0  0  0
  8  7  2  0  0  0  0
  9 10  2  0  0  0  0
 10 12  1  0  0  0  0
 12 14  1  0  0  0  0
 13 11  1  0  0  0  0
 13 15  1  0  0  0  0
 14 16  1  0  0  0  0
 16 18  1  0  0  0  0
 17 15  1  0  0  0  0
 17 19  1  0  0  0  0
 18 20  1  0  0  0  0
 19 23  1  0  0  0  0
 20 22  1  0  0  0  0
 20 24  1  0  0  0  0
 21 19  1  0  0  0  0
M  END
>  <CHROM.1>
176.92652593,-177.30753353,-94.61799810,-94.50128780,-71.54297742,-178.13002317
70.63564241,-175.83541941,-81.38358475,-165.93181435,6.91162168,-0.60282899
0.39576342,0.11002931,-0.41241245,2.78287660

>  <Name>
lig.pdb

>  <RI>
1.71133e+07

>  <Rbt.Current_Directory>
/home/itssahil/PROJECTS/Mol_Feturizer/New_Systems/rnas/2l94

>  <Rbt.Executable>
rbdock ($Id: //depot/dev/client3/rdock/2013.1/src/exe/rbdock.cxx#4 $)

>  <Rbt.Library>
libRbt.so (2013.1, Build901 2013/11/27)

>  <Rbt.Parameter_File>
/export/apps/rDock/src/rDock_2013.1_src/data/scripts/dock_solv.prm

>  <Rbt.Receptor>
prm/pocket_docking_5.prm

>  <SCORE>
-24.7355

>  <SCORE.INTER>
-22.533

>  <SCORE.INTER.CONST>
1

>  <SCORE.INTER.POLAR>
-3.12167

>  <SCORE.INTER.ROT>
10

>  <SCORE.INTER.SOLV>
7.73834

>  <SCORE.INTER.VDW>
-17.4626

>  <SCORE.INTER.norm>
-0.938875

>  <SCORE.INTRA>
-2.22669

>  <SCORE.INTRA.DIHEDRAL>
-0.214462

>  <SCORE.INTRA.DIHEDRAL.0>
7.52971

>  <SCORE.INTRA.POLAR>
0

>  <SCORE.INTRA.POLAR.0>
0

>  <SCORE.INTRA.REPUL>
0

>  <SCORE.INTRA.REPUL.0>
0

>  <SCORE.INTRA.SOLV>
0.351162

>  <SCORE.INTRA.SOLV.lig_0>
-22.1084

>  <SCORE.INTRA.VDW>
-2.29504

>  <SCORE.INTRA.VDW.0>
2.4256

>  <SCORE.INTRA.norm>
-0.0927789

>  <SCORE.RESTR>
0.0241781

>  <SCORE.RESTR.CAVITY>
0.0241781

>  <SCORE.RESTR.norm>
0.00100742

>  <SCORE.SYSTEM>
0

>  <SCORE.SYSTEM.CONST>
0

>  <SCORE.SYSTEM.DIHEDRAL>
0

>  <SCORE.SYSTEM.SOLV>
0

>  <SCORE.SYSTEM.norm>
0

>  <SCORE.heavy>
24

>  <SCORE.norm>
-1.03065

>  <RMSD>
3.257

$$$$
lig.pdb
 OpenBabel11021811453D
libRbt.so/2013.1/901 2013/11/27
 24 24  0  0  0  0  0  0  0  0999 V2000
    8.6006   -2.4672   -0.9368 C   0  0  0  0  0  0  0  0  0  0  0  0
    8.3222   -1.6292    0.1951 C   0  0  0  0  0  0  0  0  0  0  0  0
    7.0472   -1.2044    0.4847 C   0  0  0  0  0  0  0  0  0  0  0  0
    5.9263   -1.5829   -0.3214 C   0  0  0  0  0  0  0  0  0  0  0  0
    6.2104   -2.3919   -1.4705 C   0  0  0  0  0  0  0  0  0  0  0  0
    7.4841   -2.8100   -1.7652 C   0  0  0  0  0  0  0  0  0  0  0  0
    9.8581   -2.9209   -1.2152 C   0  0  0  0  0  0  0  0  0  0  0  0
   10.1038   -3.8709   -2.1426 N   0  0  0  0  0  0  0  0  0  0  0  0
    4.3259   -0.5140    1.0944 N   0  0  0  0  0  0  0  0  0  0  0  0
    4.6528   -1.1974   -0.0229 C   0  0  0  0  0  0  0  0  0  0  0  0
   10.9590   -2.4462   -0.5813 N   0  0  0  0  0  0  0  0  0  0  0  0
    3.6001   -1.4723   -0.8293 N   0  0  0  0  0  0  0  0  0  0  0  0
   12.2847   -2.2475   -1.1638 C   0  0  0  0  0  0  0  0  0  0  0  0
    2.3249   -0.7624   -0.8529 C   0  0  0  0  0  0  0  0  0  0  0  0
   12.8700   -0.9511   -0.5811 C   0  0  0  0  0  0  0  0  0  0  0  0
    2.3882    0.2866   -1.9787 C   0  0  0  0  0  0  0  0  0  0  0  0
   13.1342   -1.0961    0.9240 C   0  0  0  0  0  0  0  0  0  0  0  0
    1.2410    1.3102   -1.9016 C   0  0  0  0  0  0  0  0  0  0  0  0
   13.9823    0.0579    1.3941 N   0  0  0  0  0  0  0  0  0  0  0  0
    1.3277    2.1454   -0.6492 N   0  0  0  0  0  0  0  0  0  0  0  0
   15.1174   -0.4508    2.2404 C   0  0  0  0  0  0  0  0  0  0  0  0
   -0.0656    2.4144   -0.1474 C   0  0  0  0  0  0  0  0  0  0  0  0
   13.1595    1.0412    2.1892 C   0  0  0  0  0  0  0  0  0  0  0  0
    2.0222    3.4571   -0.8880 C   0  0  0  0  0  0  0  0  0  0  0  0
  1  6  2  0  0  0  0
  2  3  2  0  0  0  0
  2  1  1  0  0  0  0
  3  4  1  0  0  0  0
  4 10  1  0  0  0  0
  4  5  2  0  0  0  0
  6  5  1  0  0  0  0
  7  1  1  0  0  0  0
  7 11  1  0  0  0  0
  8  7  2  0  0  0  0
  9 10  2  0  0  0  0
 10 12  1  0  0  0  0
 12 14  1  0  0  0  0
 13 11  1  0  0  0  0
 13 15  1  0  0  0  0
 14 16  1  0  0  0  0
 16 18  1  0  0  0  0
 17 15  1  0  0  0  0
 17 19  1  0  0  0  0
 18 20  1  0  0  0  0
 19 23  1  0  0  0  0
 20 22  1  0  0  0  0
 20 24  1  0  0  0  0
 21 19  1  0  0  0  0
M  END
>  <CHROM.1>
-4.80065400,169.29706072,96.26959188,141.50739073,66.22644607,-166.88953065
64.52754521,167.34717257,-132.61155489,-143.40863457,7.37787203,-0.74553608
-0.34635376,0.11496502,0.19761506,-2.64040221

>  <Name>
lig.pdb

>  <RI>
1.09765e+07

>  <Rbt.Current_Directory>
/home/itssahil/PROJECTS/Mol_Feturizer/New_Systems/rnas/2l94

>  <Rbt.Executable>
rbdock ($Id: //depot/dev/client3/rdock/2013.1/src/exe/rbdock.cxx#4 $)

>  <Rbt.Library>
libRbt.so (2013.1, Build901 2013/11/27)

>  <Rbt.Parameter_File>
/export/apps/rDock/src/rDock_2013.1_src/data/scripts/dock_solv.prm

>  <Rbt.Receptor>
prm/pocket_docking_3.prm

>  <SCORE>
-6.86855

>  <SCORE.INTER>
-7.23924

>  <SCORE.INTER.CONST>
1

>  <SCORE.INTER.POLAR>
-0.7996

>  <SCORE.INTER.ROT>
10

>  <SCORE.INTER.SOLV>
8.44213

>  <SCORE.INTER.VDW>
-15.2415

>  <SCORE.INTER.norm>
-0.301635

>  <SCORE.INTRA>
0.0983456

>  <SCORE.INTRA.DIHEDRAL>
4.72978

>  <SCORE.INTRA.DIHEDRAL.0>
7.52971

>  <SCORE.INTRA.POLAR>
0

>  <SCORE.INTRA.POLAR.0>
0

>  <SCORE.INTRA.REPUL>
0

>  <SCORE.INTRA.REPUL.0>
0

>  <SCORE.INTRA.SOLV>
0.131146

>  <SCORE.INTRA.SOLV.lig_0>
-22.1084

>  <SCORE.INTRA.VDW>
-2.33211

>  <SCORE.INTRA.VDW.0>
2.4256

>  <SCORE.INTRA.norm>
0.00409773

>  <SCORE.RESTR>
0.272341

>  <SCORE.RESTR.CAVITY>
0.272341

>  <SCORE.RESTR.norm>
0.0113476

>  <SCORE.SYSTEM>
0

>  <SCORE.SYSTEM.CONST>
0

>  <SCORE.SYSTEM.DIHEDRAL>
0

>  <SCORE.SYSTEM.SOLV>
0

>  <SCORE.SYSTEM.norm>
0

>  <SCORE.heavy>
24

>  <SCORE.norm>
-0.28619

>  <RMSD>
3.261

$$$$
lig.pdb
 OpenBabel11021811453D
libRbt.so/2013.1/901 2013/11/27
 24 24  0  0  0  0  0  0  0  0999 V2000
    8.2482   -1.8020   -2.1258 C   0  0  0  0  0  0  0  0  0  0  0  0
    8.5617   -0.8830   -3.1832 C   0  0  0  0  0  0  0  0  0  0  0  0
    7.6060   -0.0651   -3.7380 C   0  0  0  0  0  0  0  0  0  0  0  0
    6.2483   -0.0785   -3.2844 C   0  0  0  0  0  0  0  0  0  0  0  0
    5.9294   -1.0206   -2.2516 C   0  0  0  0  0  0  0  0  0  0  0  0
    6.8810   -1.8433   -1.7026 C   0  0  0  0  0  0  0  0  0  0  0  0
    9.1962   -2.5958   -1.5461 C   0  0  0  0  0  0  0  0  0  0  0  0
    9.6019   -3.7642   -2.0876 N   0  0  0  0  0  0  0  0  0  0  0  0
    4.2603    0.3231   -4.5473 N   0  0  0  0  0  0  0  0  0  0  0  0
    5.3003    0.7538   -3.8023 C   0  0  0  0  0  0  0  0  0  0  0  0
    9.8063   -2.2665   -0.3806 N   0  0  0  0  0  0  0  0  0  0  0  0
    5.3248    2.0943   -3.6119 N   0  0  0  0  0  0  0  0  0  0  0  0
   11.1971   -2.5314   -0.0176 C   0  0  0  0  0  0  0  0  0  0  0  0
    4.1859    3.0007   -3.7212 C   0  0  0  0  0  0  0  0  0  0  0  0
   11.9916   -1.2279   -0.1981 C   0  0  0  0  0  0  0  0  0  0  0  0
    3.3494    2.8664   -2.4351 C   0  0  0  0  0  0  0  0  0  0  0  0
   11.8547   -0.3263    1.0366 C   0  0  0  0  0  0  0  0  0  0  0  0
    2.7647    1.4542   -2.2518 C   0  0  0  0  0  0  0  0  0  0  0  0
   13.0027    0.6499    1.0700 N   0  0  0  0  0  0  0  0  0  0  0  0
    1.7677    1.4104   -1.1215 N   0  0  0  0  0  0  0  0  0  0  0  0
   14.0413    0.1872    2.0551 C   0  0  0  0  0  0  0  0  0  0  0  0
    1.5881   -0.0196   -0.6873 C   0  0  0  0  0  0  0  0  0  0  0  0
   12.5246    2.0296    1.4494 C   0  0  0  0  0  0  0  0  0  0  0  0
    0.4311    1.9708   -1.5208 C   0  0  0  0  0  0  0  0  0  0  0  0
  1  6  2  0  0  0  0
  2  3  2  0  0  0  0
  2  1  1  0  0  0  0
  3  4  1  0  0  0  0
  4 10  1  0  0  0  0
  4  5  2  0  0  0  0
  6  5  1  0  0  0  0
  7  1  1  0  0  0  0
  7 11  1  0  0  0  0
  8  7  2  0  0  0  0
  9 10  2  0  0  0  0
 10 12  1  0  0  0  0
 12 14  1  0  0  0  0
 13 11  1  0  0  0  0
 13 15  1  0  0  0  0
 14 16  1  0  0  0  0
 16 18  1  0  0  0  0
 17 15  1  0  0  0  0
 17 19  1  0  0  0  0
 18 20  1  0  0  0  0
 19 23  1  0  0  0  0
 20 22  1  0  0  0  0
 20 24  1  0  0  0  0
 21 19  1  0  0  0  0
M  END
>  <CHROM.1>
112.06824877,-82.26703893,77.98658658,101.56374649,83.40626145,-62.84982483
-170.36941975,158.85699581,-101.16947937,-161.05678038,7.31896403,-0.03807998
-1.55998455,0.03850806,0.37450133,-2.61157985

>  <Name>
lig.pdb

>  <RI>
0

>  <Rbt.Current_Directory>
/home/itssahil/PROJECTS/Mol_Feturizer/New_Systems/rnas/2l94

>  <Rbt.Executable>
rbdock ($Id: //depot/dev/client3/rdock/2013.1/src/exe/rbdock.cxx#4 $)

>  <Rbt.Library>
libRbt.so (2013.1, Build901 2013/11/27)

>  <Rbt.Parameter_File>
/export/apps/rDock/src/rDock_2013.1_src/data/scripts/dock_solv.prm

>  <Rbt.Receptor>
prm/pocket_docking_4.prm

>  <SCORE>
-1.52952

>  <SCORE.INTER>
-11.2999

>  <SCORE.INTER.CONST>
1

>  <SCORE.INTER.POLAR>
-2.70814

>  <SCORE.INTER.ROT>
10

>  <SCORE.INTER.SOLV>
8.77976

>  <SCORE.INTER.VDW>
-11.6994

>  <SCORE.INTER.norm>
-0.47083

>  <SCORE.INTRA>
9.77041

>  <SCORE.INTRA.DIHEDRAL>
28.2083

>  <SCORE.INTRA.DIHEDRAL.0>
7.52971

>  <SCORE.INTRA.POLAR>
0

>  <SCORE.INTRA.POLAR.0>
0

>  <SCORE.INTRA.REPUL>
0

>  <SCORE.INTRA.REPUL.0>
0

>  <SCORE.INTRA.SOLV>
0.422362

>  <SCORE.INTRA.SOLV.lig_0>
-22.1084

>  <SCORE.INTRA.VDW>
-4.54492

>  <SCORE.INTRA.VDW.0>
2.4256

>  <SCORE.INTRA.norm>
0.4071

>  <SCORE.RESTR>
0

>  <SCORE.RESTR.CAVITY>
0

>  <SCORE.RESTR.norm>
0

>  <SCORE.SYSTEM>
0

>  <SCORE.SYSTEM.CONST>
0

>  <SCORE.SYSTEM.DIHEDRAL>
0

>  <SCORE.SYSTEM.SOLV>
0

>  <SCORE.SYSTEM.norm>
0

>  <SCORE.heavy>
24

>  <SCORE.norm>
-0.0637299

>  <RMSD>
3.275

$$$$
lig.pdb
 OpenBabel11021811453D
libRbt.so/2013.1/901 2013/11/27
 24 24  0  0  0  0  0  0  0  0999 V2000
    7.0574   -2.3782   -0.1248 C   0  0  0  0  0  0  0  0  0  0  0  0
    5.6863   -2.2362   -0.5261 C   0  0  0  0  0  0  0  0  0  0  0  0
    4.7550   -1.6291    0.2827 C   0  0  0  0  0  0  0  0  0  0  0  0
    5.1042   -1.0966    1.5648 C   0  0  0  0  0  0  0  0  0  0  0  0
    6.4662   -1.2691    1.9784 C   0  0  0  0  0  0  0  0  0  0  0  0
    7.3950   -1.8823    1.1752 C   0  0  0  0  0  0  0  0  0  0  0  0
    7.9971   -2.9508   -0.9335 C   0  0  0  0  0  0  0  0  0  0  0  0
    7.7728   -3.2206   -2.2373 N   0  0  0  0  0  0  0  0  0  0  0  0
    4.5370    0.2376    3.4639 N   0  0  0  0  0  0  0  0  0  0  0  0
    4.1970   -0.4603    2.3596 C   0  0  0  0  0  0  0  0  0  0  0  0
    9.2320   -3.2889   -0.4867 N   0  0  0  0  0  0  0  0  0  0  0  0
    2.8669   -0.4774    2.1055 N   0  0  0  0  0  0  0  0  0  0  0  0
   10.4838   -3.2120   -1.2373 C   0  0  0  0  0  0  0  0  0  0  0  0
    1.8849    0.4872    2.5911 C   0  0  0  0  0  0  0  0  0  0  0  0
   11.2517   -1.9710   -0.7542 C   0  0  0  0  0  0  0  0  0  0  0  0
    1.8891    1.6909    1.6305 C   0  0  0  0  0  0  0  0  0  0  0  0
   12.6783   -1.9535   -1.3203 C   0  0  0  0  0  0  0  0  0  0  0  0
    3.3079    2.2111    1.3366 C   0  0  0  0  0  0  0  0  0  0  0  0
   13.3962   -0.7250   -0.8232 N   0  0  0  0  0  0  0  0  0  0  0  0
    3.2743    3.5589    0.6613 N   0  0  0  0  0  0  0  0  0  0  0  0
   14.5706   -0.4215   -1.7132 C   0  0  0  0  0  0  0  0  0  0  0  0
    2.6232    3.4103   -0.6876 C   0  0  0  0  0  0  0  0  0  0  0  0
   13.8728   -0.9175    0.5952 C   0  0  0  0  0  0  0  0  0  0  0  0
    4.6499    4.1370    0.4783 C   0  0  0  0  0  0  0  0  0  0  0  0
  1  6  2  0  0  0  0
  2  3  2  0  0  0  0
  2  1  1  0  0  0  0
  3  4  1  0  0  0  0
  4 10  1  0  0  0  0
  4  5  2  0  0  0  0
  6  5  1  0  0  0  0
  7  1  1  0  0  0  0
  7 11  1  0  0  0  0
  8  7  2  0  0  0  0
  9 10  2  0  0  0  0
 10 12  1  0  0  0  0
 12 14  1  0  0  0  0
 13 11  1  0  0  0  0
 13 15  1  0  0  0  0
 14 16  1  0  0  0  0
 16 18  1  0  0  0  0
 17 15  1  0  0  0  0
 17 19  1  0  0  0  0
 18 20  1  0  0  0  0
 19 23  1  0  0  0  0
 20 22  1  0  0  0  0
 20 24  1  0  0  0  0
 21 19  1  0  0  0  0
M  END
>  <CHROM.1>
-168.83919567,11.38329742,84.26822639,103.07880025,170.31409394,-48.76704639
-167.03497428,-179.94500955,-159.91974187,-64.47597215,7.00022030,-0.53584311
0.37489515,0.34229667,-0.24732305,-3.11772802

>  <Name>
lig.pdb

>  <RI>
1.71133e+07

>  <Rbt.Current_Directory>
/home/itssahil/PROJECTS/Mol_Feturizer/New_Systems/rnas/2l94

>  <Rbt.Executable>
rbdock ($Id: //depot/dev/client3/rdock/2013.1/src/exe/rbdock.cxx#4 $)

>  <Rbt.Library>
libRbt.so (2013.1, Build901 2013/11/27)

>  <Rbt.Parameter_File>
/export/apps/rDock/src/rDock_2013.1_src/data/scripts/dock_solv.prm

>  <Rbt.Receptor>
prm/pocket_docking_5.prm

>  <SCORE>
-23.02

>  <SCORE.INTER>
-22.0458

>  <SCORE.INTER.CONST>
1

>  <SCORE.INTER.POLAR>
-3.67008

>  <SCORE.INTER.ROT>
10

>  <SCORE.INTER.SOLV>
7.85385

>  <SCORE.INTER.VDW>
-15.3482

>  <SCORE.INTER.norm>
-0.918574

>  <SCORE.INTRA>
-0.974188

>  <SCORE.INTRA.DIHEDRAL>
0.622277

>  <SCORE.INTRA.DIHEDRAL.0>
7.52971

>  <SCORE.INTRA.POLAR>
0

>  <SCORE.INTRA.POLAR.0>
0

>  <SCORE.INTRA.REPUL>
0

>  <SCORE.INTRA.REPUL.0>
0

>  <SCORE.INTRA.SOLV>
0.448783

>  <SCORE.INTRA.SOLV.lig_0>
-22.1084

>  <SCORE.INTRA.VDW>
-1.50972

>  <SCORE.INTRA.VDW.0>
2.4256

>  <SCORE.INTRA.norm>
-0.0405912

>  <SCORE.RESTR>
0

>  <SCORE.RESTR.CAVITY>
0

>  <SCORE.RESTR.norm>
0

>  <SCORE.SYSTEM>
0

>  <SCORE.SYSTEM.CONST>
0

>  <SCORE.SYSTEM.DIHEDRAL>
0

>  <SCORE.SYSTEM.SOLV>
0

>  <SCORE.SYSTEM.norm>
0

>  <SCORE.heavy>
24

>  <SCORE.norm>
-0.959165

>  <RMSD>
3.290

$$$$
lig.pdb
 OpenBabel11021811453D
libRbt.so/2013.1/901 2013/11/27
 24 24  0  0  0  0  0  0  0  0999 V2000
    5.1857   -2.2546   -1.7316 C   0  0  0  0  0  0  0  0  0  0  0  0
    5.6992   -3.1704   -0.7525 C   0  0  0  0  0  0  0  0  0  0  0  0
    7.0457   -3.4204   -0.6318 C   0  0  0  0  0  0  0  0  0  0  0  0
    8.0096   -2.7735   -1.4695 C   0  0  0  0  0  0  0  0  0  0  0  0
    7.4927   -1.8850   -2.4691 C   0  0  0  0  0  0  0  0  0  0  0  0
    6.1481   -1.6407   -2.5959 C   0  0  0  0  0  0  0  0  0  0  0  0
    3.8533   -1.9749   -1.8388 C   0  0  0  0  0  0  0  0  0  0  0  0
    2.9126   -2.6061   -1.1041 N   0  0  0  0  0  0  0  0  0  0  0  0
    9.8874   -3.7367   -0.3496 N   0  0  0  0  0  0  0  0  0  0  0  0
    9.3497   -2.9864   -1.3345 C   0  0  0  0  0  0  0  0  0  0  0  0
    3.3740   -1.0358   -2.6916 N   0  0  0  0  0  0  0  0  0  0  0  0
   10.2612   -2.4564   -2.1844 N   0  0  0  0  0  0  0  0  0  0  0  0
    2.2368   -0.1467   -2.4622 C   0  0  0  0  0  0  0  0  0  0  0  0
   11.6164   -2.9491   -2.4105 C   0  0  0  0  0  0  0  0  0  0  0  0
    2.7756    1.2856   -2.3167 C   0  0  0  0  0  0  0  0  0  0  0  0
   12.5502   -2.2405   -1.4117 C   0  0  0  0  0  0  0  0  0  0  0  0
    2.6780    1.7636   -0.8614 C   0  0  0  0  0  0  0  0  0  0  0  0
   12.9701   -0.8369   -1.8844 C   0  0  0  0  0  0  0  0  0  0  0  0
    1.2672    2.2122   -0.5782 N   0  0  0  0  0  0  0  0  0  0  0  0
   14.4077   -0.8130   -2.3386 N   0  0  0  0  0  0  0  0  0  0  0  0
    1.2652    3.2323    0.5276 C   0  0  0  0  0  0  0  0  0  0  0  0
   15.3006   -0.8833   -1.1288 C   0  0  0  0  0  0  0  0  0  0  0  0
    0.3987    1.0418   -0.1883 C   0  0  0  0  0  0  0  0  0  0  0  0
   14.7371    0.4304   -3.1166 C   0  0  0  0  0  0  0  0  0  0  0  0
  1  6  2  0  0  0  0
  2  3  2  0  0  0  0
  2  1  1  0  0  0  0
  3  4  1  0  0  0  0
  4 10  1  0  0  0  0
  4  5  2  0  0  0  0
  6  5  1  0  0  0  0
  7  1  1  0  0  0  0
  7 11  1  0  0  0  0
  8  7  2  0  0  0  0
  9 10  2  0  0  0  0
 10 12  1  0  0  0  0
 12 14  1  0  0  0  0
 13 11  1  0  0  0  0
 13 15  1  0  0  0  0
 14 16  1  0  0  0  0
 16 18  1  0  0  0  0
 17 15  1  0  0  0  0
 17 19  1  0  0  0  0
 18 20  1  0  0  0  0
 19 23  1  0  0  0  0
 20 22  1  0  0  0  0
 20 24  1  0  0  0  0
 21 19  1  0  0  0  0
M  END
>  <CHROM.1>
-5.08292562,-4.96850126,-89.99115521,111.32187174,-108.18806367,-81.78901743
-106.82878903,-80.13028846,-153.70422722,-73.77081128,7.16398551,-1.10438729
-1.54598452,2.94661181,0.07348759,0.01378912

>  <Name>
lig.pdb

>  <RI>
0

>  <Rbt.Current_Directory>
/home/itssahil/PROJECTS/Mol_Feturizer/New_Systems/rnas/2l94

>  <Rbt.Executable>
rbdock ($Id: //depot/dev/client3/rdock/2013.1/src/exe/rbdock.cxx#4 $)

>  <Rbt.Library>
libRbt.so (2013.1, Build901 2013/11/27)

>  <Rbt.Parameter_File>
/export/apps/rDock/src/rDock_2013.1_src/data/scripts/dock_solv.prm

>  <Rbt.Receptor>
prm/pocket_docking_4.prm

>  <SCORE>
-19.5584

>  <SCORE.INTER>
-24.0783

>  <SCORE.INTER.CONST>
1

>  <SCORE.INTER.POLAR>
-3.38676

>  <SCORE.INTER.ROT>
10

>  <SCORE.INTER.SOLV>
10.1752

>  <SCORE.INTER.VDW>
-18.4214

>  <SCORE.INTER.norm>
-1.00326

>  <SCORE.INTRA>
4.511

>  <SCORE.INTRA.DIHEDRAL>
12.2244

>  <SCORE.INTRA.DIHEDRAL.0>
7.52971

>  <SCORE.INTRA.POLAR>
0

>  <SCORE.INTRA.POLAR.0>
0

>  <SCORE.INTRA.REPUL>
0

>  <SCORE.INTRA.REPUL.0>
0

>  <SCORE.INTRA.SOLV>
0.412763

>  <SCORE.INTRA.SOLV.lig_0>
-22.1084

>  <SCORE.INTRA.VDW>
-1.80759

>  <SCORE.INTRA.VDW.0>
2.4256

>  <SCORE.INTRA.norm>
0.187958

>  <SCORE.RESTR>
0.00893495

>  <SCORE.RESTR.CAVITY>
0.00893495

>  <SCORE.RESTR.norm>
0.00037229

>  <SCORE.SYSTEM>
0

>  <SCORE.SYSTEM.CONST>
0

>  <SCORE.SYSTEM.DIHEDRAL>
0

>  <SCORE.SYSTEM.SOLV>
0

>  <SCORE.SYSTEM.norm>
0

>  <SCORE.heavy>
24

>  <SCORE.norm>
-0.814932

>  <RMSD>
3.307

$$$$
lig.pdb
 OpenBabel11021811453D
libRbt.so/2013.1/901 2013/11/27
 24 24  0  0  0  0  0  0  0  0999 V2000
    5.1697   -1.9982   -1.4608 C   0  0  0  0  0  0  0  0  0  0  0  0
    6.1403   -1.1880   -2.1408 C   0  0  0  0  0  0  0  0  0  0  0  0
    7.4872   -1.4519   -2.0602 C   0  0  0  0  0  0  0  0  0  0  0  0
    7.9940   -2.5552   -1.3016 C   0  0  0  0  0  0  0  0  0  0  0  0
    7.0261   -3.3431   -0.5958 C   0  0  0  0  0  0  0  0  0  0  0  0
    5.6819   -3.0756   -0.6691 C   0  0  0  0  0  0  0  0  0  0  0  0
    3.8280   -1.7640   -1.5600 C   0  0  0  0  0  0  0  0  0  0  0  0
    2.8993   -2.6235   -1.0888 N   0  0  0  0  0  0  0  0  0  0  0  0
    9.8536   -3.7339   -0.3739 N   0  0  0  0  0  0  0  0  0  0  0  0
    9.3246   -2.8479   -1.2442 C   0  0  0  0  0  0  0  0  0  0  0  0
    3.3261   -0.6445   -2.1377 N   0  0  0  0  0  0  0  0  0  0  0  0
   10.2346   -2.2674   -2.0621 N   0  0  0  0  0  0  0  0  0  0  0  0
    2.1273    0.0860   -1.7310 C   0  0  0  0  0  0  0  0  0  0  0  0
   11.5535   -2.7962   -2.3959 C   0  0  0  0  0  0  0  0  0  0  0  0
    2.3820    1.5839   -1.9639 C   0  0  0  0  0  0  0  0  0  0  0  0
   12.5234   -2.3942   -1.2692 C   0  0  0  0  0  0  0  0  0  0  0  0
    3.4414    2.1185   -0.9902 C   0  0  0  0  0  0  0  0  0  0  0  0
   13.0399   -0.9516   -1.4169 C   0  0  0  0  0  0  0  0  0  0  0  0
    2.8470    2.2083    0.3920 N   0  0  0  0  0  0  0  0  0  0  0  0
   14.2095   -0.8769   -2.3655 N   0  0  0  0  0  0  0  0  0  0  0  0
    1.8288    3.3147    0.4418 C   0  0  0  0  0  0  0  0  0  0  0  0
   15.4318   -0.4516   -1.5970 C   0  0  0  0  0  0  0  0  0  0  0  0
    3.9191    2.4606    1.4231 C   0  0  0  0  0  0  0  0  0  0  0  0
   13.9722    0.0990   -3.4841 C   0  0  0  0  0  0  0  0  0  0  0  0
  1  6  2  0  0  0  0
  2  3  2  0  0  0  0
  2  1  1  0  0  0  0
  3  4  1  0  0  0  0
  4 10  1  0  0  0  0
  4  5  2  0  0  0  0
  6  5  1  0  0  0  0
  7  1  1  0  0  0  0
  7 11  1  0  0  0  0
  8  7  2  0  0  0  0
  9 10  2  0  0  0  0
 10 12  1  0  0  0  0
 12 14  1  0  0  0  0
 13 11  1  0  0  0  0
 13 15  1  0  0  0  0
 14 16  1  0  0  0  0
 16 18  1  0  0  0  0
 17 15  1  0  0  0  0
 17 19  1  0  0  0  0
 18 20  1  0  0  0  0
 19 23  1  0  0  0  0
 20 22  1  0  0  0  0
 20 24  1  0  0  0  0
 21 19  1  0  0  0  0
M  END
>  <CHROM.1>
168.72101892,170.18686018,-83.42012718,144.79506050,-68.46702199,-81.29530710
-83.28169686,-72.54985166,-70.05411868,-114.83914817,7.37922146,-0.91238475
-1.30709927,2.90645980,0.09556898,0.11035666

>  <Name>
lig.pdb

>  <RI>
0

>  <Rbt.Current_Directory>
/home/itssahil/PROJECTS/Mol_Feturizer/New_Systems/rnas/2l94

>  <Rbt.Executable>
rbdock ($Id: //depot/dev/client3/rdock/2013.1/src/exe/rbdock.cxx#4 $)

>  <Rbt.Library>
libRbt.so (2013.1, Build901 2013/11/27)

>  <Rbt.Parameter_File>
/export/apps/rDock/src/rDock_2013.1_src/data/scripts/dock_solv.prm

>  <Rbt.Receptor>
prm/pocket_docking_4.prm

>  <SCORE>
-20.0456

>  <SCORE.INTER>
-22.027

>  <SCORE.INTER.CONST>
1

>  <SCORE.INTER.POLAR>
-3.4666

>  <SCORE.INTER.ROT>
10

>  <SCORE.INTER.SOLV>
9.1598

>  <SCORE.INTER.VDW>
-16.4493

>  <SCORE.INTER.norm>
-0.917792

>  <SCORE.INTRA>
1.9807

>  <SCORE.INTRA.DIHEDRAL>
6.10917

>  <SCORE.INTRA.DIHEDRAL.0>
7.52971

>  <SCORE.INTRA.POLAR>
0

>  <SCORE.INTRA.POLAR.0>
0

>  <SCORE.INTRA.REPUL>
0

>  <SCORE.INTRA.REPUL.0>
0

>  <SCORE.INTRA.SOLV>
0.598579

>  <SCORE.INTRA.SOLV.lig_0>
-22.1084

>  <SCORE.INTRA.VDW>
-1.37318

>  <SCORE.INTRA.VDW.0>
2.4256

>  <SCORE.INTRA.norm>
0.082529

>  <SCORE.RESTR>
0.00074231

>  <SCORE.RESTR.CAVITY>
0.00074231

>  <SCORE.RESTR.norm>
3.09296e-05

>  <SCORE.SYSTEM>
0

>  <SCORE.SYSTEM.CONST>
0

>  <SCORE.SYSTEM.DIHEDRAL>
0

>  <SCORE.SYSTEM.SOLV>
0

>  <SCORE.SYSTEM.norm>
0

>  <SCORE.heavy>
24

>  <SCORE.norm>
-0.835232

>  <RMSD>
3.315

$$$$
lig.pdb
 OpenBabel11021811453D
libRbt.so/2013.1/901 2013/11/27
 24 24  0  0  0  0  0  0  0  0999 V2000
    5.2208    0.2820    0.6582 C   0  0  0  0  0  0  0  0  0  0  0  0
    6.4090   -0.1983    1.3052 C   0  0  0  0  0  0  0  0  0  0  0  0
    7.3035   -1.0184    0.6590 C   0  0  0  0  0  0  0  0  0  0  0  0
    7.1035   -1.4297   -0.6975 C   0  0  0  0  0  0  0  0  0  0  0  0
    5.8997   -0.9768   -1.3312 C   0  0  0  0  0  0  0  0  0  0  0  0
    5.0020   -0.1647   -0.6845 C   0  0  0  0  0  0  0  0  0  0  0  0
    4.3423    1.1224    1.2800 C   0  0  0  0  0  0  0  0  0  0  0  0
    4.5455    1.6003    2.5264 N   0  0  0  0  0  0  0  0  0  0  0  0
    7.8096   -2.6639   -2.6175 N   0  0  0  0  0  0  0  0  0  0  0  0
    8.0021   -2.2130   -1.3598 C   0  0  0  0  0  0  0  0  0  0  0  0
    3.1974    1.5447    0.6883 N   0  0  0  0  0  0  0  0  0  0  0  0
    9.1723   -2.6086   -0.8049 N   0  0  0  0  0  0  0  0  0  0  0  0
    2.5753    2.8597    0.8288 C   0  0  0  0  0  0  0  0  0  0  0  0
   10.3634   -3.0457   -1.5267 C   0  0  0  0  0  0  0  0  0  0  0  0
    2.4454    3.4759   -0.5735 C   0  0  0  0  0  0  0  0  0  0  0  0
   11.4373   -1.9526   -1.3731 C   0  0  0  0  0  0  0  0  0  0  0  0
    3.8035    3.5052   -1.2881 C   0  0  0  0  0  0  0  0  0  0  0  0
   11.7247   -1.6051    0.0988 C   0  0  0  0  0  0  0  0  0  0  0  0
    4.6651    4.5797   -0.6758 N   0  0  0  0  0  0  0  0  0  0  0  0
   12.8622   -0.6233    0.2237 N   0  0  0  0  0  0  0  0  0  0  0  0
    5.5604    5.1798   -1.7255 C   0  0  0  0  0  0  0  0  0  0  0  0
   13.3594   -0.6341    1.6443 C   0  0  0  0  0  0  0  0  0  0  0  0
    5.5049    4.0213    0.4463 C   0  0  0  0  0  0  0  0  0  0  0  0
   12.4474    0.7758   -0.1376 C   0  0  0  0  0  0  0  0  0  0  0  0
  1  6  2  0  0  0  0
  2  3  2  0  0  0  0
  2  1  1  0  0  0  0
  3  4  1  0  0  0  0
  4 10  1  0  0  0  0
  4  5  2  0  0  0  0
  6  5  1  0  0  0  0
  7  1  1  0  0  0  0
  7 11  1  0  0  0  0
  8  7  2  0  0  0  0
  9 10  2  0  0  0  0
 10 12  1  0  0  0  0
 12 14  1  0  0  0  0
 13 11  1  0  0  0  0
 13 15  1  0  0  0  0
 14 16  1  0  0  0  0
 16 18  1  0  0  0  0
 17 15  1  0  0  0  0
 17 19  1  0  0  0  0
 18 20  1  0  0  0  0
 19 23  1  0  0  0  0
 20 22  1  0  0  0  0
 20 24  1  0  0  0  0
 21 19  1  0  0  0  0
M  END
>  <CHROM.1>
176.93537574,2.35613126,109.37362653,122.48707442,-54.58801150,54.76393029
174.98402130,-73.43695928,-147.25953887,-163.46284812,7.16669202,0.45913796
-0.18518328,2.59661314,-0.07029231,0.20937098

>  <Name>
lig.pdb

>  <RI>
1.71133e+07

>  <Rbt.Current_Directory>
/home/itssahil/PROJECTS/Mol_Feturizer/New_Systems/rnas/2l94

>  <Rbt.Executable>
rbdock ($Id: //depot/dev/client3/rdock/2013.1/src/exe/rbdock.cxx#4 $)

>  <Rbt.Library>
libRbt.so (2013.1, Build901 2013/11/27)

>  <Rbt.Parameter_File>
/export/apps/rDock/src/rDock_2013.1_src/data/scripts/dock_solv.prm

>  <Rbt.Receptor>
prm/pocket_docking_5.prm

>  <SCORE>
-18.5316

>  <SCORE.INTER>
-17.0346

>  <SCORE.INTER.CONST>
1

>  <SCORE.INTER.POLAR>
-2.79637

>  <SCORE.INTER.ROT>
10

>  <SCORE.INTER.SOLV>
6.3497

>  <SCORE.INTER.VDW>
-14.4184

>  <SCORE.INTER.norm>
-0.709773

>  <SCORE.INTRA>
-1.49704

>  <SCORE.INTRA.DIHEDRAL>
0.850029

>  <SCORE.INTRA.DIHEDRAL.0>
7.52971

>  <SCORE.INTRA.POLAR>
0

>  <SCORE.INTRA.POLAR.0>
0

>  <SCORE.INTRA.REPUL>
0

>  <SCORE.INTRA.REPUL.0>
0

>  <SCORE.INTRA.SOLV>
1.15583

>  <SCORE.INTRA.SOLV.lig_0>
-22.1084

>  <SCORE.INTRA.VDW>
-2.49997

>  <SCORE.INTRA.VDW.0>
2.4256

>  <SCORE.INTRA.norm>
-0.0623766

>  <SCORE.RESTR>
0

>  <SCORE.RESTR.CAVITY>
0

>  <SCORE.RESTR.norm>
0

>  <SCORE.SYSTEM>
0

>  <SCORE.SYSTEM.CONST>
0

>  <SCORE.SYSTEM.DIHEDRAL>
0

>  <SCORE.SYSTEM.SOLV>
0

>  <SCORE.SYSTEM.norm>
0

>  <SCORE.heavy>
24

>  <SCORE.norm>
-0.77215

>  <RMSD>
3.315

$$$$
lig.pdb
 OpenBabel11021811453D
libRbt.so/2013.1/901 2013/11/27
 24 24  0  0  0  0  0  0  0  0999 V2000
    6.3762   -0.9382    1.4051 C   0  0  0  0  0  0  0  0  0  0  0  0
    5.5758   -0.9730    2.5963 C   0  0  0  0  0  0  0  0  0  0  0  0
    4.6807    0.0266    2.8960 C   0  0  0  0  0  0  0  0  0  0  0  0
    4.4912    1.1515    2.0312 C   0  0  0  0  0  0  0  0  0  0  0  0
    5.3154    1.2018    0.8590 C   0  0  0  0  0  0  0  0  0  0  0  0
    6.2151    0.2085    0.5629 C   0  0  0  0  0  0  0  0  0  0  0  0
    7.2449   -1.9411    1.0820 C   0  0  0  0  0  0  0  0  0  0  0  0
    7.6059   -2.9051    1.9558 N   0  0  0  0  0  0  0  0  0  0  0  0
    3.6077    3.3498    1.7222 N   0  0  0  0  0  0  0  0  0  0  0  0
    3.5804    2.1302    2.3001 C   0  0  0  0  0  0  0  0  0  0  0  0
    7.8089   -2.0466   -0.1468 N   0  0  0  0  0  0  0  0  0  0  0  0
    2.5643    1.9586    3.1788 N   0  0  0  0  0  0  0  0  0  0  0  0
    8.1174   -3.2828   -0.8630 C   0  0  0  0  0  0  0  0  0  0  0  0
    1.3214    2.7230    3.2181 C   0  0  0  0  0  0  0  0  0  0  0  0
    9.0694   -2.9369   -2.0192 C   0  0  0  0  0  0  0  0  0  0  0  0
    0.1820    1.7547    3.5866 C   0  0  0  0  0  0  0  0  0  0  0  0
   10.4959   -2.7012   -1.5037 C   0  0  0  0  0  0  0  0  0  0  0  0
   -1.2124    2.3782    3.3951 C   0  0  0  0  0  0  0  0  0  0  0  0
   11.2318   -1.8055   -2.4671 N   0  0  0  0  0  0  0  0  0  0  0  0
   -1.4132    3.5717    4.2944 N   0  0  0  0  0  0  0  0  0  0  0  0
   11.4650   -2.5296   -3.7651 C   0  0  0  0  0  0  0  0  0  0  0  0
   -1.4037    3.1081    5.7264 C   0  0  0  0  0  0  0  0  0  0  0  0
   12.5538   -1.3648   -1.8891 C   0  0  0  0  0  0  0  0  0  0  0  0
   -2.7110    4.2786    4.0189 C   0  0  0  0  0  0  0  0  0  0  0  0
  1  6  2  0  0  0  0
  2  3  2  0  0  0  0
  2  1  1  0  0  0  0
  3  4  1  0  0  0  0
  4 10  1  0  0  0  0
  4  5  2  0  0  0  0
  6  5  1  0  0  0  0
  7  1  1  0  0  0  0
  7 11  1  0  0  0  0
  8  7  2  0  0  0  0
  9 10  2  0  0  0  0
 10 12  1  0  0  0  0
 12 14  1  0  0  0  0
 13 11  1  0  0  0  0
 13 15  1  0  0  0  0
 14 16  1  0  0  0  0
 16 18  1  0  0  0  0
 17 15  1  0  0  0  0
 17 19  1  0  0  0  0
 18 20  1  0  0  0  0
 19 23  1  0  0  0  0
 20 22  1  0  0  0  0
 20 24  1  0  0  0  0
 21 19  1  0  0  0  0
M  END
>  <CHROM.1>
162.19143448,-12.73642277,142.40254693,-165.10992146,76.40682419,-168.89183041
-62.36820349,-154.98157125,-68.00959193,-65.34171423,5.10958174,0.20382348
1.32822989,0.14972669,-0.61221300,2.63014885

>  <Name>
lig.pdb

>  <RI>
2.48096e+07

>  <Rbt.Current_Directory>
/home/itssahil/PROJECTS/Mol_Feturizer/New_Systems/rnas/2l94

>  <Rbt.Executable>
rbdock ($Id: //depot/dev/client3/rdock/2013.1/src/exe/rbdock.cxx#4 $)

>  <Rbt.Library>
libRbt.so (2013.1, Build901 2013/11/27)

>  <Rbt.Parameter_File>
/export/apps/rDock/src/rDock_2013.1_src/data/scripts/dock_solv.prm

>  <Rbt.Receptor>
prm/pocket_docking_6.prm

>  <SCORE>
-21.8569

>  <SCORE.INTER>
-23.2271

>  <SCORE.INTER.CONST>
1

>  <SCORE.INTER.POLAR>
-3.17429

>  <SCORE.INTER.ROT>
10

>  <SCORE.INTER.SOLV>
11.2699

>  <SCORE.INTER.VDW>
-18.9271

>  <SCORE.INTER.norm>
-0.967797

>  <SCORE.INTRA>
1.37025

>  <SCORE.INTRA.DIHEDRAL>
2.84832

>  <SCORE.INTRA.DIHEDRAL.0>
7.52971

>  <SCORE.INTRA.POLAR>
0

>  <SCORE.INTRA.POLAR.0>
0

>  <SCORE.INTRA.REPUL>
0

>  <SCORE.INTRA.REPUL.0>
0

>  <SCORE.INTRA.SOLV>
-0.0582876

>  <SCORE.INTRA.SOLV.lig_0>
-22.1084

>  <SCORE.INTRA.VDW>
-0.0247695

>  <SCORE.INTRA.VDW.0>
2.4256

>  <SCORE.INTRA.norm>
0.0570937

>  <SCORE.RESTR>
0

>  <SCORE.RESTR.CAVITY>
0

>  <SCORE.RESTR.norm>
0

>  <SCORE.SYSTEM>
0

>  <SCORE.SYSTEM.CONST>
0

>  <SCORE.SYSTEM.DIHEDRAL>
0

>  <SCORE.SYSTEM.SOLV>
0

>  <SCORE.SYSTEM.norm>
0

>  <SCORE.heavy>
24

>  <SCORE.norm>
-0.910703

>  <RMSD>
3.352

$$$$
lig.pdb
 OpenBabel11021811453D
libRbt.so/2013.1/901 2013/11/27
 24 24  0  0  0  0  0  0  0  0999 V2000
    2.6503   -0.9035   -1.2903 C   0  0  0  0  0  0  0  0  0  0  0  0
    2.6291   -1.9762   -0.3365 C   0  0  0  0  0  0  0  0  0  0  0  0
    3.6992   -2.8247   -0.1779 C   0  0  0  0  0  0  0  0  0  0  0  0
    4.8967   -2.6781   -0.9485 C   0  0  0  0  0  0  0  0  0  0  0  0
    4.9036   -1.6274   -1.9240 C   0  0  0  0  0  0  0  0  0  0  0  0
    3.8328   -0.7848   -2.0889 C   0  0  0  0  0  0  0  0  0  0  0  0
    1.6057   -0.0357   -1.4334 C   0  0  0  0  0  0  0  0  0  0  0  0
    0.4868   -0.1083   -0.6810 N   0  0  0  0  0  0  0  0  0  0  0  0
    6.0309   -4.4669    0.1570 N   0  0  0  0  0  0  0  0  0  0  0  0
    5.9777   -3.4909   -0.7741 C   0  0  0  0  0  0  0  0  0  0  0  0
    1.6156    0.9702   -2.3429 N   0  0  0  0  0  0  0  0  0  0  0  0
    7.0986   -3.3845   -1.5265 N   0  0  0  0  0  0  0  0  0  0  0  0
    1.0339    2.3011   -2.1795 C   0  0  0  0  0  0  0  0  0  0  0  0
    8.0965   -4.4286   -1.7375 C   0  0  0  0  0  0  0  0  0  0  0  0
    1.9605    3.1151   -1.2621 C   0  0  0  0  0  0  0  0  0  0  0  0
    9.4071   -3.9723   -1.0698 C   0  0  0  0  0  0  0  0  0  0  0  0
    3.3063    3.3911   -1.9468 C   0  0  0  0  0  0  0  0  0  0  0  0
   10.1009   -2.8340   -1.8397 C   0  0  0  0  0  0  0  0  0  0  0  0
    4.1492    4.2652   -1.0538 N   0  0  0  0  0  0  0  0  0  0  0  0
   11.4376   -2.4898   -1.2329 N   0  0  0  0  0  0  0  0  0  0  0  0
    5.2479    4.9090   -1.8548 C   0  0  0  0  0  0  0  0  0  0  0  0
   11.2113   -1.6573    0.0005 C   0  0  0  0  0  0  0  0  0  0  0  0
    4.7491    3.4622    0.0737 C   0  0  0  0  0  0  0  0  0  0  0  0
   12.3133   -1.7238   -2.1849 C   0  0  0  0  0  0  0  0  0  0  0  0
  1  6  2  0  0  0  0
  2  3  2  0  0  0  0
  2  1  1  0  0  0  0
  3  4  1  0  0  0  0
  4 10  1  0  0  0  0
  4  5  2  0  0  0  0
  6  5  1  0  0  0  0
  7  1  1  0  0  0  0
  7 11  1  0  0  0  0
  8  7  2  0  0  0  0
  9 10  2  0  0  0  0
 10 12  1  0  0  0  0
 12 14  1  0  0  0  0
 13 11  1  0  0  0  0
 13 15  1  0  0  0  0
 14 16  1  0  0  0  0
 16 18  1  0  0  0  0
 17 15  1  0  0  0  0
 17 19  1  0  0  0  0
 18 20  1  0  0  0  0
 19 23  1  0  0  0  0
 20 22  1  0  0  0  0
 20 24  1  0  0  0  0
 21 19  1  0  0  0  0
M  END
>  <CHROM.1>
-2.12883439,0.92739287,-113.43263775,75.75892233,67.10717198,-72.29556714
-175.03126697,176.33110211,-161.63875185,-77.73365770,5.42734187,-0.65804551
-1.22702442,2.53830310,0.02612686,-0.07880406

>  <Name>
lig.pdb

>  <RI>
2.48096e+07

>  <Rbt.Current_Directory>
/home/itssahil/PROJECTS/Mol_Feturizer/New_Systems/rnas/2l94

>  <Rbt.Executable>
rbdock ($Id: //depot/dev/client3/rdock/2013.1/src/exe/rbdock.cxx#4 $)

>  <Rbt.Library>
libRbt.so (2013.1, Build901 2013/11/27)

>  <Rbt.Parameter_File>
/export/apps/rDock/src/rDock_2013.1_src/data/scripts/dock_solv.prm

>  <Rbt.Receptor>
prm/pocket_docking_6.prm

>  <SCORE>
-24.7238

>  <SCORE.INTER>
-22.1842

>  <SCORE.INTER.CONST>
1

>  <SCORE.INTER.POLAR>
-2.67156

>  <SCORE.INTER.ROT>
10

>  <SCORE.INTER.SOLV>
12.0284

>  <SCORE.INTER.VDW>
-20.1604

>  <SCORE.INTER.norm>
-0.924342

>  <SCORE.INTRA>
-2.53964

>  <SCORE.INTRA.DIHEDRAL>
-0.331319

>  <SCORE.INTRA.DIHEDRAL.0>
7.52971

>  <SCORE.INTRA.POLAR>
0

>  <SCORE.INTRA.POLAR.0>
0

>  <SCORE.INTRA.REPUL>
0

>  <SCORE.INTRA.REPUL.0>
0

>  <SCORE.INTRA.SOLV>
0.363469

>  <SCORE.INTRA.SOLV.lig_0>
-22.1084

>  <SCORE.INTRA.VDW>
-2.55571

>  <SCORE.INTRA.VDW.0>
2.4256

>  <SCORE.INTRA.norm>
-0.105818

>  <SCORE.RESTR>
0

>  <SCORE.RESTR.CAVITY>
0

>  <SCORE.RESTR.norm>
0

>  <SCORE.SYSTEM>
0

>  <SCORE.SYSTEM.CONST>
0

>  <SCORE.SYSTEM.DIHEDRAL>
0

>  <SCORE.SYSTEM.SOLV>
0

>  <SCORE.SYSTEM.norm>
0

>  <SCORE.heavy>
24

>  <SCORE.norm>
-1.03016

>  <RMSD>
3.366

$$$$
lig.pdb
 OpenBabel11021811453D
libRbt.so/2013.1/901 2013/11/27
 24 24  0  0  0  0  0  0  0  0999 V2000
    8.6838   -1.3323    0.2640 C   0  0  0  0  0  0  0  0  0  0  0  0
    7.4140   -1.5037   -0.3836 C   0  0  0  0  0  0  0  0  0  0  0  0
    6.3356   -0.7053   -0.0843 C   0  0  0  0  0  0  0  0  0  0  0  0
    6.4233    0.3469    0.8825 C   0  0  0  0  0  0  0  0  0  0  0  0
    7.6821    0.4951    1.5526 C   0  0  0  0  0  0  0  0  0  0  0  0
    8.7571   -0.3067    1.2604 C   0  0  0  0  0  0  0  0  0  0  0  0
    9.7699   -2.0988   -0.0486 C   0  0  0  0  0  0  0  0  0  0  0  0
    9.6647   -3.3728   -0.4831 N   0  0  0  0  0  0  0  0  0  0  0  0
    5.0477    1.5644    2.4101 N   0  0  0  0  0  0  0  0  0  0  0  0
    5.3708    1.1681    1.1608 C   0  0  0  0  0  0  0  0  0  0  0  0
   11.0402   -1.6344    0.0505 N   0  0  0  0  0  0  0  0  0  0  0  0
    4.5536    1.6575    0.1982 N   0  0  0  0  0  0  0  0  0  0  0  0
   12.1595   -1.9573   -0.8322 C   0  0  0  0  0  0  0  0  0  0  0  0
    3.7125    2.8456    0.3046 C   0  0  0  0  0  0  0  0  0  0  0  0
   13.3898   -1.1754   -0.3444 C   0  0  0  0  0  0  0  0  0  0  0  0
    2.2663    2.4327   -0.0264 C   0  0  0  0  0  0  0  0  0  0  0  0
   14.3237   -0.8360   -1.5143 C   0  0  0  0  0  0  0  0  0  0  0  0
    1.6474    1.5227    1.0500 C   0  0  0  0  0  0  0  0  0  0  0  0
   15.4255    0.0689   -1.0254 N   0  0  0  0  0  0  0  0  0  0  0  0
    0.1986    1.2251    0.7570 N   0  0  0  0  0  0  0  0  0  0  0  0
   15.9739    0.8751   -2.1712 C   0  0  0  0  0  0  0  0  0  0  0  0
   -0.6237    2.4415    1.0882 C   0  0  0  0  0  0  0  0  0  0  0  0
   16.5369   -0.7308   -0.3919 C   0  0  0  0  0  0  0  0  0  0  0  0
   -0.3140    0.0578    1.5535 C   0  0  0  0  0  0  0  0  0  0  0  0
  1  6  2  0  0  0  0
  2  3  2  0  0  0  0
  2  1  1  0  0  0  0
  3  4  1  0  0  0  0
  4 10  1  0  0  0  0
  4  5  2  0  0  0  0
  6  5  1  0  0  0  0
  7  1  1  0  0  0  0
  7 11  1  0  0  0  0
  8  7  2  0  0  0  0
  9 10  2  0  0  0  0
 10 12  1  0  0  0  0
 12 14  1  0  0  0  0
 13 11  1  0  0  0  0
 13 15  1  0  0  0  0
 14 16  1  0  0  0  0
 16 18  1  0  0  0  0
 17 15  1  0  0  0  0
 17 19  1  0  0  0  0
 18 20  1  0  0  0  0
 19 23  1  0  0  0  0
 20 22  1  0  0  0  0
 20 24  1  0  0  0  0
 21 19  1  0  0  0  0
M  END
>  <CHROM.1>
138.94598571,-30.11517909,-125.05581466,178.89688499,-149.70412200,68.83024962
175.40829457,173.19200021,-155.60667471,-75.34773483,7.72922210,0.06200717
0.20951056,0.18097612,-0.14989507,3.11613432

>  <Name>
lig.pdb

>  <RI>
1.71133e+07

>  <Rbt.Current_Directory>
/home/itssahil/PROJECTS/Mol_Feturizer/New_Systems/rnas/2l94

>  <Rbt.Executable>
rbdock ($Id: //depot/dev/client3/rdock/2013.1/src/exe/rbdock.cxx#4 $)

>  <Rbt.Library>
libRbt.so (2013.1, Build901 2013/11/27)

>  <Rbt.Parameter_File>
/export/apps/rDock/src/rDock_2013.1_src/data/scripts/dock_solv.prm

>  <Rbt.Receptor>
prm/pocket_docking_5.prm

>  <SCORE>
-12.5344

>  <SCORE.INTER>
-15.6585

>  <SCORE.INTER.CONST>
1

>  <SCORE.INTER.POLAR>
-2.13516

>  <SCORE.INTER.ROT>
10

>  <SCORE.INTER.SOLV>
7.20091

>  <SCORE.INTER.VDW>
-15.9888

>  <SCORE.INTER.norm>
-0.652439

>  <SCORE.INTRA>
3.12411

>  <SCORE.INTRA.DIHEDRAL>
11.1352

>  <SCORE.INTRA.DIHEDRAL.0>
7.52971

>  <SCORE.INTRA.POLAR>
0

>  <SCORE.INTRA.POLAR.0>
0

>  <SCORE.INTRA.REPUL>
0

>  <SCORE.INTRA.REPUL.0>
0

>  <SCORE.INTRA.SOLV>
0.0530419

>  <SCORE.INTRA.SOLV.lig_0>
-22.1084

>  <SCORE.INTRA.VDW>
-2.46999

>  <SCORE.INTRA.VDW.0>
2.4256

>  <SCORE.INTRA.norm>
0.130171

>  <SCORE.RESTR>
0

>  <SCORE.RESTR.CAVITY>
0

>  <SCORE.RESTR.norm>
0

>  <SCORE.SYSTEM>
0

>  <SCORE.SYSTEM.CONST>
0

>  <SCORE.SYSTEM.DIHEDRAL>
0

>  <SCORE.SYSTEM.SOLV>
0

>  <SCORE.SYSTEM.norm>
0

>  <SCORE.heavy>
24

>  <SCORE.norm>
-0.522268

>  <RMSD>
3.369

$$$$
lig.pdb
 OpenBabel11021811453D
libRbt.so/2013.1/901 2013/11/27
 24 24  0  0  0  0  0  0  0  0999 V2000
    8.5408   -1.4491   -0.0474 C   0  0  0  0  0  0  0  0  0  0  0  0
    7.8922   -0.5433   -0.9529 C   0  0  0  0  0  0  0  0  0  0  0  0
    6.7520    0.1392   -0.6005 C   0  0  0  0  0  0  0  0  0  0  0  0
    6.1552   -0.0090    0.6923 C   0  0  0  0  0  0  0  0  0  0  0  0
    6.7847   -0.9393    1.5833 C   0  0  0  0  0  0  0  0  0  0  0  0
    7.9184   -1.6273    1.2297 C   0  0  0  0  0  0  0  0  0  0  0  0
    9.6912   -2.1076   -0.3757 C   0  0  0  0  0  0  0  0  0  0  0  0
   10.0368   -3.2926    0.1715 N   0  0  0  0  0  0  0  0  0  0  0  0
    4.8568    1.1757    2.3106 N   0  0  0  0  0  0  0  0  0  0  0  0
    5.0454    0.6902    1.0652 C   0  0  0  0  0  0  0  0  0  0  0  0
   10.5741   -1.6205   -1.2826 N   0  0  0  0  0  0  0  0  0  0  0  0
    4.0300    0.9566    0.2096 N   0  0  0  0  0  0  0  0  0  0  0  0
   11.3707   -2.3973   -2.2303 C   0  0  0  0  0  0  0  0  0  0  0  0
    3.0465    2.0263    0.3467 C   0  0  0  0  0  0  0  0  0  0  0  0
   12.4691   -1.4799   -2.7914 C   0  0  0  0  0  0  0  0  0  0  0  0
    1.8722    1.4850    1.1831 C   0  0  0  0  0  0  0  0  0  0  0  0
   13.3974   -0.9873   -1.6727 C   0  0  0  0  0  0  0  0  0  0  0  0
    1.2384    0.2232    0.5700 C   0  0  0  0  0  0  0  0  0  0  0  0
   14.8013   -0.8664   -2.2077 N   0  0  0  0  0  0  0  0  0  0  0  0
   -0.0436   -0.1488    1.2711 N   0  0  0  0  0  0  0  0  0  0  0  0
   15.7783   -0.7688   -1.0678 C   0  0  0  0  0  0  0  0  0  0  0  0
    0.2893   -0.7059    2.6292 C   0  0  0  0  0  0  0  0  0  0  0  0
   14.9362    0.3463   -3.0949 C   0  0  0  0  0  0  0  0  0  0  0  0
   -0.8344   -1.1718    0.5043 C   0  0  0  0  0  0  0  0  0  0  0  0
  1  6  2  0  0  0  0
  2  3  2  0  0  0  0
  2  1  1  0  0  0  0
  3  4  1  0  0  0  0
  4 10  1  0  0  0  0
  4  5  2  0  0  0  0
  6  5  1  0  0  0  0
  7  1  1  0  0  0  0
  7 11  1  0  0  0  0
  8  7  2  0  0  0  0
  9 10  2  0  0  0  0
 10 12  1  0  0  0  0
 12 14  1  0  0  0  0
 13 11  1  0  0  0  0
 13 15  1  0  0  0  0
 14 16  1  0  0  0  0
 16 18  1  0  0  0  0
 17 15  1  0  0  0  0
 17 19  1  0  0  0  0
 18 20  1  0  0  0  0
 19 23  1  0  0  0  0
 20 22  1  0  0  0  0
 20 24  1  0  0  0  0
 21 19  1  0  0  0  0
M  END
>  <CHROM.1>
-142.53854789,-153.46276394,-88.37018967,-165.71483600,61.48927576,-56.91818177
-170.32849691,145.31632456,-164.06085781,-72.45178664,7.36094243,-0.54350967
-0.11228046,0.06549564,-0.26514642,2.95690335

>  <Name>
lig.pdb

>  <RI>
0

>  <Rbt.Current_Directory>
/home/itssahil/PROJECTS/Mol_Feturizer/New_Systems/rnas/2l94

>  <Rbt.Executable>
rbdock ($Id: //depot/dev/client3/rdock/2013.1/src/exe/rbdock.cxx#4 $)

>  <Rbt.Library>
libRbt.so (2013.1, Build901 2013/11/27)

>  <Rbt.Parameter_File>
/export/apps/rDock/src/rDock_2013.1_src/data/scripts/dock_solv.prm

>  <Rbt.Receptor>
prm/pocket_docking_4.prm

>  <SCORE>
-22.7295

>  <SCORE.INTER>
-26.1602

>  <SCORE.INTER.CONST>
1

>  <SCORE.INTER.POLAR>
-4.21706

>  <SCORE.INTER.ROT>
10

>  <SCORE.INTER.SOLV>
8.80926

>  <SCORE.INTER.VDW>
-16.5863

>  <SCORE.INTER.norm>
-1.09001

>  <SCORE.INTRA>
3.21974

>  <SCORE.INTRA.DIHEDRAL>
9.34864

>  <SCORE.INTRA.DIHEDRAL.0>
7.52971

>  <SCORE.INTRA.POLAR>
0

>  <SCORE.INTRA.POLAR.0>
0

>  <SCORE.INTRA.REPUL>
0

>  <SCORE.INTRA.REPUL.0>
0

>  <SCORE.INTRA.SOLV>
0.406784

>  <SCORE.INTRA.SOLV.lig_0>
-22.1084

>  <SCORE.INTRA.VDW>
-1.65797

>  <SCORE.INTRA.VDW.0>
2.4256

>  <SCORE.INTRA.norm>
0.134156

>  <SCORE.RESTR>
0.210958

>  <SCORE.RESTR.CAVITY>
0.210958

>  <SCORE.RESTR.norm>
0.0087899

>  <SCORE.SYSTEM>
0

>  <SCORE.SYSTEM.CONST>
0

>  <SCORE.SYSTEM.DIHEDRAL>
0

>  <SCORE.SYSTEM.SOLV>
0

>  <SCORE.SYSTEM.norm>
0

>  <SCORE.heavy>
24

>  <SCORE.norm>
-0.947061

>  <RMSD>
3.389

$$$$
lig.pdb
 OpenBabel11021811453D
libRbt.so/2013.1/901 2013/11/27
 24 24  0  0  0  0  0  0  0  0999 V2000
    8.0266   -2.3404   -1.4659 C   0  0  0  0  0  0  0  0  0  0  0  0
    7.5877   -1.0577   -1.9384 C   0  0  0  0  0  0  0  0  0  0  0  0
    6.2535   -0.7475   -2.0552 C   0  0  0  0  0  0  0  0  0  0  0  0
    5.2293   -1.6834   -1.7025 C   0  0  0  0  0  0  0  0  0  0  0  0
    5.6689   -2.9754   -1.2629 C   0  0  0  0  0  0  0  0  0  0  0  0
    7.0006   -3.2890   -1.1536 C   0  0  0  0  0  0  0  0  0  0  0  0
    9.3486   -2.6477   -1.3158 C   0  0  0  0  0  0  0  0  0  0  0  0
    9.7853   -3.6027   -0.4670 N   0  0  0  0  0  0  0  0  0  0  0  0
    2.9238   -2.3023   -1.8024 N   0  0  0  0  0  0  0  0  0  0  0  0
    3.9035   -1.3739   -1.7799 C   0  0  0  0  0  0  0  0  0  0  0  0
   10.3254   -2.0170   -2.0138 N   0  0  0  0  0  0  0  0  0  0  0  0
    3.4555   -0.0975   -1.8429 N   0  0  0  0  0  0  0  0  0  0  0  0
   11.5600   -2.6125   -2.5211 C   0  0  0  0  0  0  0  0  0  0  0  0
    2.1165    0.3637   -1.4893 C   0  0  0  0  0  0  0  0  0  0  0  0
   12.6037   -2.5749   -1.3931 C   0  0  0  0  0  0  0  0  0  0  0  0
    2.2656    1.5448   -0.5123 C   0  0  0  0  0  0  0  0  0  0  0  0
   13.1330   -1.1496   -1.1823 C   0  0  0  0  0  0  0  0  0  0  0  0
    2.0043    2.9061   -1.1820 C   0  0  0  0  0  0  0  0  0  0  0  0
   14.3860   -1.2024   -0.3462 N   0  0  0  0  0  0  0  0  0  0  0  0
    3.0307    3.2060   -2.2451 N   0  0  0  0  0  0  0  0  0  0  0  0
   14.0506   -0.9461    1.0978 C   0  0  0  0  0  0  0  0  0  0  0  0
    4.3487    3.4975   -1.5794 C   0  0  0  0  0  0  0  0  0  0  0  0
   15.3923   -0.1834   -0.8204 C   0  0  0  0  0  0  0  0  0  0  0  0
    2.6416    4.3839   -3.0942 C   0  0  0  0  0  0  0  0  0  0  0  0
  1  6  2  0  0  0  0
  2  3  2  0  0  0  0
  2  1  1  0  0  0  0
  3  4  1  0  0  0  0
  4 10  1  0  0  0  0
  4  5  2  0  0  0  0
  6  5  1  0  0  0  0
  7  1  1  0  0  0  0
  7 11  1  0  0  0  0
  8  7  2  0  0  0  0
  9 10  2  0  0  0  0
 10 12  1  0  0  0  0
 12 14  1  0  0  0  0
 13 11  1  0  0  0  0
 13 15  1  0  0  0  0
 14 16  1  0  0  0  0
 16 18  1  0  0  0  0
 17 15  1  0  0  0  0
 17 19  1  0  0  0  0
 18 20  1  0  0  0  0
 19 23  1  0  0  0  0
 20 22  1  0  0  0  0
 20 24  1  0  0  0  0
 21 19  1  0  0  0  0
M  END
>  <CHROM.1>
161.88435074,155.84185345,128.66960126,-85.34118523,-73.97859099,103.92029190
-64.42802377,-165.26657081,-96.50146196,-70.88810518,7.41908263,-0.65188935
-1.41053746,-0.30422769,-0.09019394,-0.01383571

>  <Name>
lig.pdb

>  <RI>
1.09765e+07

>  <Rbt.Current_Directory>
/home/itssahil/PROJECTS/Mol_Feturizer/New_Systems/rnas/2l94

>  <Rbt.Executable>
rbdock ($Id: //depot/dev/client3/rdock/2013.1/src/exe/rbdock.cxx#4 $)

>  <Rbt.Library>
libRbt.so (2013.1, Build901 2013/11/27)

>  <Rbt.Parameter_File>
/export/apps/rDock/src/rDock_2013.1_src/data/scripts/dock_solv.prm

>  <Rbt.Receptor>
prm/pocket_docking_3.prm

>  <SCORE>
-18.2259

>  <SCORE.INTER>
-21.7157

>  <SCORE.INTER.CONST>
1

>  <SCORE.INTER.POLAR>
-3.40249

>  <SCORE.INTER.ROT>
10

>  <SCORE.INTER.SOLV>
9.74322

>  <SCORE.INTER.VDW>
-16.6499

>  <SCORE.INTER.norm>
-0.90482

>  <SCORE.INTRA>
3.12435

>  <SCORE.INTRA.DIHEDRAL>
9.56143

>  <SCORE.INTRA.DIHEDRAL.0>
7.52971

>  <SCORE.INTRA.POLAR>
0

>  <SCORE.INTRA.POLAR.0>
0

>  <SCORE.INTRA.REPUL>
0

>  <SCORE.INTRA.REPUL.0>
0

>  <SCORE.INTRA.SOLV>
0.885851

>  <SCORE.INTRA.SOLV.lig_0>
-22.1084

>  <SCORE.INTRA.VDW>
-2.09929

>  <SCORE.INTRA.VDW.0>
2.4256

>  <SCORE.INTRA.norm>
0.130181

>  <SCORE.RESTR>
0.365447

>  <SCORE.RESTR.CAVITY>
0.365447

>  <SCORE.RESTR.norm>
0.0152269

>  <SCORE.SYSTEM>
0

>  <SCORE.SYSTEM.CONST>
0

>  <SCORE.SYSTEM.DIHEDRAL>
0

>  <SCORE.SYSTEM.SOLV>
0

>  <SCORE.SYSTEM.norm>
0

>  <SCORE.heavy>
24

>  <SCORE.norm>
-0.759412

>  <RMSD>
3.392

$$$$
lig.pdb
 OpenBabel11021811453D
libRbt.so/2013.1/901 2013/11/27
 24 24  0  0  0  0  0  0  0  0999 V2000
    6.1677   -0.4032    1.3784 C   0  0  0  0  0  0  0  0  0  0  0  0
    6.8194   -1.5195    2.0031 C   0  0  0  0  0  0  0  0  0  0  0  0
    7.8748   -2.1677    1.4064 C   0  0  0  0  0  0  0  0  0  0  0  0
    8.3876   -1.7582    0.1341 C   0  0  0  0  0  0  0  0  0  0  0  0
    7.7142   -0.6649   -0.5038 C   0  0  0  0  0  0  0  0  0  0  0  0
    6.6553   -0.0221    0.0873 C   0  0  0  0  0  0  0  0  0  0  0  0
    5.1396    0.2676    1.9766 C   0  0  0  0  0  0  0  0  0  0  0  0
    4.8784    0.1767    3.2982 N   0  0  0  0  0  0  0  0  0  0  0  0
   10.0330   -3.4880    0.0412 N   0  0  0  0  0  0  0  0  0  0  0  0
    9.4568   -2.3706   -0.4502 C   0  0  0  0  0  0  0  0  0  0  0  0
    4.3034    1.0817    1.2859 N   0  0  0  0  0  0  0  0  0  0  0  0
   10.0357   -1.9032   -1.5818 N   0  0  0  0  0  0  0  0  0  0  0  0
    3.7012    2.3244    1.7648 C   0  0  0  0  0  0  0  0  0  0  0  0
   10.8532   -2.6746   -2.5129 C   0  0  0  0  0  0  0  0  0  0  0  0
    3.3914    3.2038    0.5426 C   0  0  0  0  0  0  0  0  0  0  0  0
   12.0518   -1.8005   -2.9264 C   0  0  0  0  0  0  0  0  0  0  0  0
    1.9108    3.6077    0.5182 C   0  0  0  0  0  0  0  0  0  0  0  0
   12.9068   -1.3583   -1.7250 C   0  0  0  0  0  0  0  0  0  0  0  0
    1.0660    2.3872    0.2560 N   0  0  0  0  0  0  0  0  0  0  0  0
   14.3238   -1.0500   -2.1377 N   0  0  0  0  0  0  0  0  0  0  0  0
    1.1215    2.0287   -1.2040 C   0  0  0  0  0  0  0  0  0  0  0  0
   15.1591   -0.8571   -0.9005 C   0  0  0  0  0  0  0  0  0  0  0  0
   -0.3665    2.6268    0.6640 C   0  0  0  0  0  0  0  0  0  0  0  0
   14.4121    0.1891   -2.9843 C   0  0  0  0  0  0  0  0  0  0  0  0
  1  6  2  0  0  0  0
  2  3  2  0  0  0  0
  2  1  1  0  0  0  0
  3  4  1  0  0  0  0
  4 10  1  0  0  0  0
  4  5  2  0  0  0  0
  6  5  1  0  0  0  0
  7  1  1  0  0  0  0
  7 11  1  0  0  0  0
  8  7  2  0  0  0  0
  9 10  2  0  0  0  0
 10 12  1  0  0  0  0
 12 14  1  0  0  0  0
 13 11  1  0  0  0  0
 13 15  1  0  0  0  0
 14 16  1  0  0  0  0
 16 18  1  0  0  0  0
 17 15  1  0  0  0  0
 17 19  1  0  0  0  0
 18 20  1  0  0  0  0
 19 23  1  0  0  0  0
 20 22  1  0  0  0  0
 20 24  1  0  0  0  0
 21 19  1  0  0  0  0
M  END
>  <CHROM.1>
7.06767239,17.33970517,-138.07901728,154.44797410,124.68529526,58.62607944
155.26049248,-68.00831922,-77.26987879,-170.37180381,7.42598060,-0.14574958
-0.09174023,3.06926644,0.39312584,-0.76908642

>  <Name>
lig.pdb

>  <RI>
9.7521e+06

>  <Rbt.Current_Directory>
/home/itssahil/PROJECTS/Mol_Feturizer/New_Systems/rnas/2l94

>  <Rbt.Executable>
rbdock ($Id: //depot/dev/client3/rdock/2013.1/src/exe/rbdock.cxx#4 $)

>  <Rbt.Library>
libRbt.so (2013.1, Build901 2013/11/27)

>  <Rbt.Parameter_File>
/export/apps/rDock/src/rDock_2013.1_src/data/scripts/dock_solv.prm

>  <Rbt.Receptor>
prm/pocket_docking_7.prm

>  <SCORE>
-25.6522

>  <SCORE.INTER>
-27.9203

>  <SCORE.INTER.CONST>
1

>  <SCORE.INTER.POLAR>
-3.31577

>  <SCORE.INTER.ROT>
10

>  <SCORE.INTER.SOLV>
10.0083

>  <SCORE.INTER.VDW>
-21.1638

>  <SCORE.INTER.norm>
-1.16335

>  <SCORE.INTRA>
2.26812

>  <SCORE.INTRA.DIHEDRAL>
7.23109

>  <SCORE.INTRA.DIHEDRAL.0>
7.52971

>  <SCORE.INTRA.POLAR>
0

>  <SCORE.INTRA.POLAR.0>
0

>  <SCORE.INTRA.REPUL>
0

>  <SCORE.INTRA.REPUL.0>
0

>  <SCORE.INTRA.SOLV>
0.533076

>  <SCORE.INTRA.SOLV.lig_0>
-22.1084

>  <SCORE.INTRA.VDW>
-1.61396

>  <SCORE.INTRA.VDW.0>
2.4256

>  <SCORE.INTRA.norm>
0.0945049

>  <SCORE.RESTR>
0

>  <SCORE.RESTR.CAVITY>
0

>  <SCORE.RESTR.norm>
0

>  <SCORE.SYSTEM>
0

>  <SCORE.SYSTEM.CONST>
0

>  <SCORE.SYSTEM.DIHEDRAL>
0

>  <SCORE.SYSTEM.SOLV>
0

>  <SCORE.SYSTEM.norm>
0

>  <SCORE.heavy>
24

>  <SCORE.norm>
-1.06884

>  <RMSD>
3.396

$$$$
lig.pdb
 OpenBabel11021811453D
libRbt.so/2013.1/901 2013/11/27
 24 24  0  0  0  0  0  0  0  0999 V2000
    5.2298   -1.0807    0.1074 C   0  0  0  0  0  0  0  0  0  0  0  0
    5.9115   -1.9917    0.9829 C   0  0  0  0  0  0  0  0  0  0  0  0
    7.1367   -2.5252    0.6601 C   0  0  0  0  0  0  0  0  0  0  0  0
    7.8039   -2.1934   -0.5623 C   0  0  0  0  0  0  0  0  0  0  0  0
    7.1067   -1.3100   -1.4507 C   0  0  0  0  0  0  0  0  0  0  0  0
    5.8798   -0.7831   -1.1332 C   0  0  0  0  0  0  0  0  0  0  0  0
    4.0277   -0.5204    0.4325 C   0  0  0  0  0  0  0  0  0  0  0  0
    3.5321   -0.5310    1.6885 N   0  0  0  0  0  0  0  0  0  0  0  0
    9.6791   -3.6085   -0.1274 N   0  0  0  0  0  0  0  0  0  0  0  0
    9.0353   -2.6880   -0.8760 C   0  0  0  0  0  0  0  0  0  0  0  0
    3.2405    0.0946   -0.4846 N   0  0  0  0  0  0  0  0  0  0  0  0
    9.7218   -2.2919   -1.9741 N   0  0  0  0  0  0  0  0  0  0  0  0
    2.4010    1.2711   -0.2667 C   0  0  0  0  0  0  0  0  0  0  0  0
   10.7903   -3.0340   -2.6359 C   0  0  0  0  0  0  0  0  0  0  0  0
    2.7971    2.3355   -1.3026 C   0  0  0  0  0  0  0  0  0  0  0  0
   11.9674   -2.0673   -2.8629 C   0  0  0  0  0  0  0  0  0  0  0  0
    4.2445    2.7989   -1.0875 C   0  0  0  0  0  0  0  0  0  0  0  0
   12.6077   -1.5917   -1.5462 C   0  0  0  0  0  0  0  0  0  0  0  0
    4.2639    3.9200   -0.0802 N   0  0  0  0  0  0  0  0  0  0  0  0
   14.0353   -1.1522   -1.7521 N   0  0  0  0  0  0  0  0  0  0  0  0
    5.5975    4.6157   -0.1122 C   0  0  0  0  0  0  0  0  0  0  0  0
   14.6833   -0.9605   -0.4071 C   0  0  0  0  0  0  0  0  0  0  0  0
    3.9987    3.3984    1.3103 C   0  0  0  0  0  0  0  0  0  0  0  0
   14.1279    0.1332   -2.5261 C   0  0  0  0  0  0  0  0  0  0  0  0
  1  6  2  0  0  0  0
  2  3  2  0  0  0  0
  2  1  1  0  0  0  0
  3  4  1  0  0  0  0
  4 10  1  0  0  0  0
  4  5  2  0  0  0  0
  6  5  1  0  0  0  0
  7  1  1  0  0  0  0
  7 11  1  0  0  0  0
  8  7  2  0  0  0  0
  9 10  2  0  0  0  0
 10 12  1  0  0  0  0
 12 14  1  0  0  0  0
 13 11  1  0  0  0  0
 13 15  1  0  0  0  0
 14 16  1  0  0  0  0
 16 18  1  0  0  0  0
 17 15  1  0  0  0  0
 17 19  1  0  0  0  0
 18 20  1  0  0  0  0
 19 23  1  0  0  0  0
 20 22  1  0  0  0  0
 20 24  1  0  0  0  0
 21 19  1  0  0  0  0
M  END
>  <CHROM.1>
5.66454850,15.15657140,-131.52100357,124.83325660,-64.08697421,65.87227584
156.19074277,-86.74486238,-165.71309336,-168.98799815,7.54497344,-0.35041794
-0.66916933,2.79133219,0.22360782,-0.08584961

>  <Name>
lig.pdb

>  <RI>
0

>  <Rbt.Current_Directory>
/home/itssahil/PROJECTS/Mol_Feturizer/New_Systems/rnas/2l94

>  <Rbt.Executable>
rbdock ($Id: //depot/dev/client3/rdock/2013.1/src/exe/rbdock.cxx#4 $)

>  <Rbt.Library>
libRbt.so (2013.1, Build901 2013/11/27)

>  <Rbt.Parameter_File>
/export/apps/rDock/src/rDock_2013.1_src/data/scripts/dock_solv.prm

>  <Rbt.Receptor>
prm/pocket_docking_4.prm

>  <SCORE>
-25.5394

>  <SCORE.INTER>
-25.8525

>  <SCORE.INTER.CONST>
1

>  <SCORE.INTER.POLAR>
-4.37562

>  <SCORE.INTER.ROT>
10

>  <SCORE.INTER.SOLV>
7.77825

>  <SCORE.INTER.VDW>
-15.509

>  <SCORE.INTER.norm>
-1.07719

>  <SCORE.INTRA>
0.297414

>  <SCORE.INTRA.DIHEDRAL>
3.32081

>  <SCORE.INTRA.DIHEDRAL.0>
7.52971

>  <SCORE.INTRA.POLAR>
0

>  <SCORE.INTRA.POLAR.0>
0

>  <SCORE.INTRA.REPUL>
0

>  <SCORE.INTRA.REPUL.0>
0

>  <SCORE.INTRA.SOLV>
0.865608

>  <SCORE.INTRA.SOLV.lig_0>
-22.1084

>  <SCORE.INTRA.VDW>
-1.79579

>  <SCORE.INTRA.VDW.0>
2.4256

>  <SCORE.INTRA.norm>
0.0123923

>  <SCORE.RESTR>
0.0156853

>  <SCORE.RESTR.CAVITY>
0.0156853

>  <SCORE.RESTR.norm>
0.000653554

>  <SCORE.SYSTEM>
0

>  <SCORE.SYSTEM.CONST>
0

>  <SCORE.SYSTEM.DIHEDRAL>
0

>  <SCORE.SYSTEM.SOLV>
0

>  <SCORE.SYSTEM.norm>
0

>  <SCORE.heavy>
24

>  <SCORE.norm>
-1.06414

>  <RMSD>
3.407

$$$$
lig.pdb
 OpenBabel11021811453D
libRbt.so/2013.1/901 2013/11/27
 24 24  0  0  0  0  0  0  0  0999 V2000
    8.5333   -1.5351    0.5367 C   0  0  0  0  0  0  0  0  0  0  0  0
    7.7186   -2.2641    1.4672 C   0  0  0  0  0  0  0  0  0  0  0  0
    6.5782   -1.7211    2.0103 C   0  0  0  0  0  0  0  0  0  0  0  0
    6.1360   -0.4029    1.6695 C   0  0  0  0  0  0  0  0  0  0  0  0
    6.9687    0.3364    0.7662 C   0  0  0  0  0  0  0  0  0  0  0  0
    8.1117   -0.2017    0.2297 C   0  0  0  0  0  0  0  0  0  0  0  0
    9.6502   -2.0765   -0.0328 C   0  0  0  0  0  0  0  0  0  0  0  0
   10.0055   -3.3678    0.1390 N   0  0  0  0  0  0  0  0  0  0  0  0
    4.2249   -0.4857    3.1009 N   0  0  0  0  0  0  0  0  0  0  0  0
    4.9874    0.1318    2.1739 C   0  0  0  0  0  0  0  0  0  0  0  0
   10.4869   -1.3559   -0.8200 N   0  0  0  0  0  0  0  0  0  0  0  0
    4.5111    1.3373    1.7817 N   0  0  0  0  0  0  0  0  0  0  0  0
   11.2121   -1.8371   -1.9942 C   0  0  0  0  0  0  0  0  0  0  0  0
    3.5886    2.1843    2.5316 C   0  0  0  0  0  0  0  0  0  0  0  0
   12.5321   -2.4618   -1.5142 C   0  0  0  0  0  0  0  0  0  0  0  0
    2.4264    2.5632    1.5949 C   0  0  0  0  0  0  0  0  0  0  0  0
   13.4631   -1.3928   -0.9256 C   0  0  0  0  0  0  0  0  0  0  0  0
    1.2664    3.2518    2.3366 C   0  0  0  0  0  0  0  0  0  0  0  0
   14.5097   -1.0271   -1.9468 N   0  0  0  0  0  0  0  0  0  0  0  0
    0.4348    2.2579    3.1075 N   0  0  0  0  0  0  0  0  0  0  0  0
   15.7192   -0.4543   -1.2595 C   0  0  0  0  0  0  0  0  0  0  0  0
   -0.4231    1.4880    2.1397 C   0  0  0  0  0  0  0  0  0  0  0  0
   13.9684   -0.0255   -2.9366 C   0  0  0  0  0  0  0  0  0  0  0  0
   -0.4518    2.9248    4.1219 C   0  0  0  0  0  0  0  0  0  0  0  0
  1  6  2  0  0  0  0
  2  3  2  0  0  0  0
  2  1  1  0  0  0  0
  3  4  1  0  0  0  0
  4 10  1  0  0  0  0
  4  5  2  0  0  0  0
  6  5  1  0  0  0  0
  7  1  1  0  0  0  0
  7 11  1  0  0  0  0
  8  7  2  0  0  0  0
  9 10  2  0  0  0  0
 10 12  1  0  0  0  0
 12 14  1  0  0  0  0
 13 11  1  0  0  0  0
 13 15  1  0  0  0  0
 14 16  1  0  0  0  0
 16 18  1  0  0  0  0
 17 15  1  0  0  0  0
 17 19  1  0  0  0  0
 18 20  1  0  0  0  0
 19 23  1  0  0  0  0
 20 22  1  0  0  0  0
 20 24  1  0  0  0  0
 21 19  1  0  0  0  0
M  END
>  <CHROM.1>
4.90369029,6.11037272,-128.59849778,-86.09325399,-67.01140983,170.03886151
-76.62621590,-100.98439557,-156.77005352,-75.02155849,7.34070289,-0.15004548
0.75457182,0.16979251,-0.40151954,2.87490562

>  <Name>
lig.pdb

>  <RI>
1.71133e+07

>  <Rbt.Current_Directory>
/home/itssahil/PROJECTS/Mol_Feturizer/New_Systems/rnas/2l94

>  <Rbt.Executable>
rbdock ($Id: //depot/dev/client3/rdock/2013.1/src/exe/rbdock.cxx#4 $)

>  <Rbt.Library>
libRbt.so (2013.1, Build901 2013/11/27)

>  <Rbt.Parameter_File>
/export/apps/rDock/src/rDock_2013.1_src/data/scripts/dock_solv.prm

>  <Rbt.Receptor>
prm/pocket_docking_5.prm

>  <SCORE>
-25.434

>  <SCORE.INTER>
-26.3655

>  <SCORE.INTER.CONST>
1

>  <SCORE.INTER.POLAR>
-3.31144

>  <SCORE.INTER.ROT>
10

>  <SCORE.INTER.SOLV>
8.66266

>  <SCORE.INTER.VDW>
-19.6931

>  <SCORE.INTER.norm>
-1.09856

>  <SCORE.INTRA>
0.93156

>  <SCORE.INTRA.DIHEDRAL>
4.95133

>  <SCORE.INTRA.DIHEDRAL.0>
7.52971

>  <SCORE.INTRA.POLAR>
0

>  <SCORE.INTRA.POLAR.0>
0

>  <SCORE.INTRA.REPUL>
0

>  <SCORE.INTRA.REPUL.0>
0

>  <SCORE.INTRA.SOLV>
0.449368

>  <SCORE.INTRA.SOLV.lig_0>
-22.1084

>  <SCORE.INTRA.VDW>
-1.76879

>  <SCORE.INTRA.VDW.0>
2.4256

>  <SCORE.INTRA.norm>
0.038815

>  <SCORE.RESTR>
0

>  <SCORE.RESTR.CAVITY>
0

>  <SCORE.RESTR.norm>
0

>  <SCORE.SYSTEM>
0

>  <SCORE.SYSTEM.CONST>
0

>  <SCORE.SYSTEM.DIHEDRAL>
0

>  <SCORE.SYSTEM.SOLV>
0

>  <SCORE.SYSTEM.norm>
0

>  <SCORE.heavy>
24

>  <SCORE.norm>
-1.05975

>  <RMSD>
3.445

$$$$
lig.pdb
 OpenBabel11021811453D
libRbt.so/2013.1/901 2013/11/27
 24 24  0  0  0  0  0  0  0  0999 V2000
    6.2516   -0.3476    1.5831 C   0  0  0  0  0  0  0  0  0  0  0  0
    6.7966   -1.5822    2.0727 C   0  0  0  0  0  0  0  0  0  0  0  0
    7.8159   -2.2329    1.4187 C   0  0  0  0  0  0  0  0  0  0  0  0
    8.3958   -1.7094    0.2192 C   0  0  0  0  0  0  0  0  0  0  0  0
    7.8279   -0.4941   -0.2870 C   0  0  0  0  0  0  0  0  0  0  0  0
    6.8049    0.1522    0.3607 C   0  0  0  0  0  0  0  0  0  0  0  0
    5.2612    0.3232    2.2419 C   0  0  0  0  0  0  0  0  0  0  0  0
    4.8126   -0.0478    3.4602 N   0  0  0  0  0  0  0  0  0  0  0  0
    9.9991   -3.4699    0.0231 N   0  0  0  0  0  0  0  0  0  0  0  0
    9.4312   -2.3274   -0.4177 C   0  0  0  0  0  0  0  0  0  0  0  0
    4.6547    1.4188    1.7215 N   0  0  0  0  0  0  0  0  0  0  0  0
    9.9820   -1.8406   -1.5551 N   0  0  0  0  0  0  0  0  0  0  0  0
    4.1816    2.5884    2.4593 C   0  0  0  0  0  0  0  0  0  0  0  0
   10.7509   -2.6026   -2.5342 C   0  0  0  0  0  0  0  0  0  0  0  0
    2.6580    2.4639    2.6206 C   0  0  0  0  0  0  0  0  0  0  0  0
   12.2397   -2.2633   -2.3344 C   0  0  0  0  0  0  0  0  0  0  0  0
    1.9404    2.7523    1.2948 C   0  0  0  0  0  0  0  0  0  0  0  0
   12.5906   -0.8368   -2.7948 C   0  0  0  0  0  0  0  0  0  0  0  0
    0.5038    2.3081    1.3993 N   0  0  0  0  0  0  0  0  0  0  0  0
   14.0810   -0.6082   -2.8013 N   0  0  0  0  0  0  0  0  0  0  0  0
   -0.1469    2.3521    0.0435 C   0  0  0  0  0  0  0  0  0  0  0  0
   14.5249   -0.2583   -1.4063 C   0  0  0  0  0  0  0  0  0  0  0  0
   -0.2625    3.1866    2.3569 C   0  0  0  0  0  0  0  0  0  0  0  0
   14.4816    0.5009   -3.7336 C   0  0  0  0  0  0  0  0  0  0  0  0
  1  6  2  0  0  0  0
  2  3  2  0  0  0  0
  2  1  1  0  0  0  0
  3  4  1  0  0  0  0
  4 10  1  0  0  0  0
  4  5  2  0  0  0  0
  6  5  1  0  0  0  0
  7  1  1  0  0  0  0
  7 11  1  0  0  0  0
  8  7  2  0  0  0  0
  9 10  2  0  0  0  0
 10 12  1  0  0  0  0
 12 14  1  0  0  0  0
 13 11  1  0  0  0  0
 13 15  1  0  0  0  0
 14 16  1  0  0  0  0
 16 18  1  0  0  0  0
 17 15  1  0  0  0  0
 17 19  1  0  0  0  0
 18 20  1  0  0  0  0
 19 23  1  0  0  0  0
 20 22  1  0  0  0  0
 20 24  1  0  0  0  0
 21 19  1  0  0  0  0
M  END
>  <CHROM.1>
-0.31132766,6.67562026,-103.71734369,-101.57485488,-74.00001041,-71.29264389
-170.65881620,166.66371976,-169.86936825,-82.63059675,7.31510569,-0.07640628
0.20236594,3.09659790,0.45434173,-0.60239616

>  <Name>
lig.pdb

>  <RI>
1.71133e+07

>  <Rbt.Current_Directory>
/home/itssahil/PROJECTS/Mol_Feturizer/New_Systems/rnas/2l94

>  <Rbt.Executable>
rbdock ($Id: //depot/dev/client3/rdock/2013.1/src/exe/rbdock.cxx#4 $)

>  <Rbt.Library>
libRbt.so (2013.1, Build901 2013/11/27)

>  <Rbt.Parameter_File>
/export/apps/rDock/src/rDock_2013.1_src/data/scripts/dock_solv.prm

>  <Rbt.Receptor>
prm/pocket_docking_5.prm

>  <SCORE>
-29.2275

>  <SCORE.INTER>
-27.7482

>  <SCORE.INTER.CONST>
1

>  <SCORE.INTER.POLAR>
-3.31536

>  <SCORE.INTER.ROT>
10

>  <SCORE.INTER.SOLV>
10.9098

>  <SCORE.INTER.VDW>
-21.3509

>  <SCORE.INTER.norm>
-1.15618

>  <SCORE.INTRA>
-1.47925

>  <SCORE.INTRA.DIHEDRAL>
0.937073

>  <SCORE.INTRA.DIHEDRAL.0>
7.52971

>  <SCORE.INTRA.POLAR>
0

>  <SCORE.INTRA.POLAR.0>
0

>  <SCORE.INTRA.REPUL>
0

>  <SCORE.INTRA.REPUL.0>
0

>  <SCORE.INTRA.SOLV>
0.388842

>  <SCORE.INTRA.SOLV.lig_0>
-22.1084

>  <SCORE.INTRA.VDW>
-2.14221

>  <SCORE.INTRA.VDW.0>
2.4256

>  <SCORE.INTRA.norm>
-0.0616353

>  <SCORE.RESTR>
0

>  <SCORE.RESTR.CAVITY>
0

>  <SCORE.RESTR.norm>
0

>  <SCORE.SYSTEM>
0

>  <SCORE.SYSTEM.CONST>
0

>  <SCORE.SYSTEM.DIHEDRAL>
0

>  <SCORE.SYSTEM.SOLV>
0

>  <SCORE.SYSTEM.norm>
0

>  <SCORE.heavy>
24

>  <SCORE.norm>
-1.21781

>  <RMSD>
3.454

$$$$
lig.pdb
 OpenBabel11021811453D
libRbt.so/2013.1/901 2013/11/27
 24 24  0  0  0  0  0  0  0  0999 V2000
    8.6181   -0.7084    0.5033 C   0  0  0  0  0  0  0  0  0  0  0  0
    7.4631   -0.9882    1.3087 C   0  0  0  0  0  0  0  0  0  0  0  0
    6.5964    0.0046    1.7004 C   0  0  0  0  0  0  0  0  0  0  0  0
    6.7934    1.3699    1.3178 C   0  0  0  0  0  0  0  0  0  0  0  0
    7.9653    1.6529    0.5418 C   0  0  0  0  0  0  0  0  0  0  0  0
    8.8356    0.6638    0.1570 C   0  0  0  0  0  0  0  0  0  0  0  0
    9.4676   -1.6912    0.0822 C   0  0  0  0  0  0  0  0  0  0  0  0
    9.3612   -2.9737    0.4908 N   0  0  0  0  0  0  0  0  0  0  0  0
    6.0842    3.6514    1.3243 N   0  0  0  0  0  0  0  0  0  0  0  0
    5.9207    2.3569    1.6699 C   0  0  0  0  0  0  0  0  0  0  0  0
   10.4830   -1.4524   -0.7843 N   0  0  0  0  0  0  0  0  0  0  0  0
    4.8080    2.1181    2.4039 N   0  0  0  0  0  0  0  0  0  0  0  0
   10.9719   -2.3529   -1.8265 C   0  0  0  0  0  0  0  0  0  0  0  0
    3.6172    2.9603    2.4615 C   0  0  0  0  0  0  0  0  0  0  0  0
   12.4845   -2.1259   -1.9791 C   0  0  0  0  0  0  0  0  0  0  0  0
    2.3845    2.0371    2.4633 C   0  0  0  0  0  0  0  0  0  0  0  0
   12.7728   -0.7621   -2.6216 C   0  0  0  0  0  0  0  0  0  0  0  0
    1.0589    2.8163    2.3885 C   0  0  0  0  0  0  0  0  0  0  0  0
   14.2567   -0.6206   -2.8449 N   0  0  0  0  0  0  0  0  0  0  0  0
   -0.1303    1.8901    2.4241 N   0  0  0  0  0  0  0  0  0  0  0  0
   14.9427   -0.2972   -1.5456 C   0  0  0  0  0  0  0  0  0  0  0  0
   -0.2473    1.1983    1.0925 C   0  0  0  0  0  0  0  0  0  0  0  0
   14.5479    0.4624   -3.8540 C   0  0  0  0  0  0  0  0  0  0  0  0
   -1.4123    2.6221    2.7081 C   0  0  0  0  0  0  0  0  0  0  0  0
  1  6  2  0  0  0  0
  2  3  2  0  0  0  0
  2  1  1  0  0  0  0
  3  4  1  0  0  0  0
  4 10  1  0  0  0  0
  4  5  2  0  0  0  0
  6  5  1  0  0  0  0
  7  1  1  0  0  0  0
  7 11  1  0  0  0  0
  8  7  2  0  0  0  0
  9 10  2  0  0  0  0
 10 12  1  0  0  0  0
 12 14  1  0  0  0  0
 13 11  1  0  0  0  0
 13 15  1  0  0  0  0
 14 16  1  0  0  0  0
 16 18  1  0  0  0  0
 17 15  1  0  0  0  0
 17 19  1  0  0  0  0
 18 20  1  0  0  0  0
 19 23  1  0  0  0  0
 20 22  1  0  0  0  0
 20 24  1  0  0  0  0
 21 19  1  0  0  0  0
M  END
>  <CHROM.1>
179.88268791,-6.41017809,139.32439682,-147.29417235,-70.48983076,-174.60037040
-178.68005109,-175.93183971,-77.13552727,-74.09964147,7.39186893,0.49820173
0.37957606,0.26895533,-0.34575546,-3.11107530

>  <Name>
lig.pdb

>  <RI>
1.71133e+07

>  <Rbt.Current_Directory>
/home/itssahil/PROJECTS/Mol_Feturizer/New_Systems/rnas/2l94

>  <Rbt.Executable>
rbdock ($Id: //depot/dev/client3/rdock/2013.1/src/exe/rbdock.cxx#4 $)

>  <Rbt.Library>
libRbt.so (2013.1, Build901 2013/11/27)

>  <Rbt.Parameter_File>
/export/apps/rDock/src/rDock_2013.1_src/data/scripts/dock_solv.prm

>  <Rbt.Receptor>
prm/pocket_docking_5.prm

>  <SCORE>
-20.6676

>  <SCORE.INTER>
-19.1694

>  <SCORE.INTER.CONST>
1

>  <SCORE.INTER.POLAR>
-1.80981

>  <SCORE.INTER.ROT>
10

>  <SCORE.INTER.SOLV>
11.6397

>  <SCORE.INTER.VDW>
-20.8934

>  <SCORE.INTER.norm>
-0.798724

>  <SCORE.INTRA>
-1.49825

>  <SCORE.INTRA.DIHEDRAL>
-0.705728

>  <SCORE.INTRA.DIHEDRAL.0>
7.52971

>  <SCORE.INTRA.POLAR>
0

>  <SCORE.INTRA.POLAR.0>
0

>  <SCORE.INTRA.REPUL>
0

>  <SCORE.INTRA.REPUL.0>
0

>  <SCORE.INTRA.SOLV>
-0.117746

>  <SCORE.INTRA.SOLV.lig_0>
-22.1084

>  <SCORE.INTRA.VDW>
-1.08651

>  <SCORE.INTRA.VDW.0>
2.4256

>  <SCORE.INTRA.norm>
-0.062427

>  <SCORE.RESTR>
0

>  <SCORE.RESTR.CAVITY>
0

>  <SCORE.RESTR.norm>
0

>  <SCORE.SYSTEM>
0

>  <SCORE.SYSTEM.CONST>
0

>  <SCORE.SYSTEM.DIHEDRAL>
0

>  <SCORE.SYSTEM.SOLV>
0

>  <SCORE.SYSTEM.norm>
0

>  <SCORE.heavy>
24

>  <SCORE.norm>
-0.861151

>  <RMSD>
3.470

$$$$
lig.pdb
 OpenBabel11021811453D
libRbt.so/2013.1/901 2013/11/27
 24 24  0  0  0  0  0  0  0  0999 V2000
    5.1402   -1.3297    0.2862 C   0  0  0  0  0  0  0  0  0  0  0  0
    5.8005   -0.8184   -0.8816 C   0  0  0  0  0  0  0  0  0  0  0  0
    7.0546   -1.2456   -1.2490 C   0  0  0  0  0  0  0  0  0  0  0  0
    7.7658   -2.2310   -0.4923 C   0  0  0  0  0  0  0  0  0  0  0  0
    7.1194   -2.7158    0.6921 C   0  0  0  0  0  0  0  0  0  0  0  0
    5.8708   -2.2841    1.0643 C   0  0  0  0  0  0  0  0  0  0  0  0
    3.8821   -0.9359    0.6423 C   0  0  0  0  0  0  0  0  0  0  0  0
    3.2983   -1.3131    1.7998 N   0  0  0  0  0  0  0  0  0  0  0  0
    9.6366   -3.6952   -0.2377 N   0  0  0  0  0  0  0  0  0  0  0  0
    8.9945   -2.6885   -0.8674 C   0  0  0  0  0  0  0  0  0  0  0  0
    3.1235   -0.1300   -0.1414 N   0  0  0  0  0  0  0  0  0  0  0  0
    9.6796   -2.1650   -1.9117 N   0  0  0  0  0  0  0  0  0  0  0  0
    2.1919    0.9018    0.3101 C   0  0  0  0  0  0  0  0  0  0  0  0
   10.7433   -2.8255   -2.6618 C   0  0  0  0  0  0  0  0  0  0  0  0
    2.5797    2.2234   -0.3726 C   0  0  0  0  0  0  0  0  0  0  0  0
   12.0318   -2.0017   -2.4805 C   0  0  0  0  0  0  0  0  0  0  0  0
    3.9908    2.6621    0.0424 C   0  0  0  0  0  0  0  0  0  0  0  0
   12.5263   -1.9858   -1.0227 C   0  0  0  0  0  0  0  0  0  0  0  0
    4.3100    3.9868   -0.6018 N   0  0  0  0  0  0  0  0  0  0  0  0
   13.4294   -0.8078   -0.7575 N   0  0  0  0  0  0  0  0  0  0  0  0
    4.4870    3.8069   -2.0849 C   0  0  0  0  0  0  0  0  0  0  0  0
   14.7809   -1.0868   -1.3584 C   0  0  0  0  0  0  0  0  0  0  0  0
    5.5635    4.5838   -0.0115 C   0  0  0  0  0  0  0  0  0  0  0  0
   13.5949   -0.5385    0.7122 C   0  0  0  0  0  0  0  0  0  0  0  0
  1  6  2  0  0  0  0
  2  3  2  0  0  0  0
  2  1  1  0  0  0  0
  3  4  1  0  0  0  0
  4 10  1  0  0  0  0
  4  5  2  0  0  0  0
  6  5  1  0  0  0  0
  7  1  1  0  0  0  0
  7 11  1  0  0  0  0
  8  7  2  0  0  0  0
  9 10  2  0  0  0  0
 10 12  1  0  0  0  0
 12 14  1  0  0  0  0
 13 11  1  0  0  0  0
 13 15  1  0  0  0  0
 14 16  1  0  0  0  0
 16 18  1  0  0  0  0
 17 15  1  0  0  0  0
 17 19  1  0  0  0  0
 18 20  1  0  0  0  0
 19 23  1  0  0  0  0
 20 22  1  0  0  0  0
 20 24  1  0  0  0  0
 21 19  1  0  0  0  0
M  END
>  <CHROM.1>
-174.22322998,-173.73821664,-117.77521685,125.40504511,-62.42378702,64.66648448
-158.43408782,-177.67927732,-69.87594265,-76.19822669,7.44817508,-0.46550530
-0.48869452,2.79572147,0.18123422,-0.16219865

>  <Name>
lig.pdb

>  <RI>
0

>  <Rbt.Current_Directory>
/home/itssahil/PROJECTS/Mol_Feturizer/New_Systems/rnas/2l94

>  <Rbt.Executable>
rbdock ($Id: //depot/dev/client3/rdock/2013.1/src/exe/rbdock.cxx#4 $)

>  <Rbt.Library>
libRbt.so (2013.1, Build901 2013/11/27)

>  <Rbt.Parameter_File>
/export/apps/rDock/src/rDock_2013.1_src/data/scripts/dock_solv.prm

>  <Rbt.Receptor>
prm/pocket_docking_4.prm

>  <SCORE>
-20.3777

>  <SCORE.INTER>
-18.733

>  <SCORE.INTER.CONST>
1

>  <SCORE.INTER.POLAR>
-3.26578

>  <SCORE.INTER.ROT>
10

>  <SCORE.INTER.SOLV>
6.77023

>  <SCORE.INTER.VDW>
-14.1262

>  <SCORE.INTER.norm>
-0.780544

>  <SCORE.INTRA>
-1.64461

>  <SCORE.INTRA.DIHEDRAL>
0.189596

>  <SCORE.INTRA.DIHEDRAL.0>
7.52971

>  <SCORE.INTRA.POLAR>
0

>  <SCORE.INTRA.POLAR.0>
0

>  <SCORE.INTRA.REPUL>
0

>  <SCORE.INTRA.REPUL.0>
0

>  <SCORE.INTRA.SOLV>
0.620227

>  <SCORE.INTRA.SOLV.lig_0>
-22.1084

>  <SCORE.INTRA.VDW>
-2.04952

>  <SCORE.INTRA.VDW.0>
2.4256

>  <SCORE.INTRA.norm>
-0.0685253

>  <SCORE.RESTR>
0

>  <SCORE.RESTR.CAVITY>
0

>  <SCORE.RESTR.norm>
0

>  <SCORE.SYSTEM>
0

>  <SCORE.SYSTEM.CONST>
0

>  <SCORE.SYSTEM.DIHEDRAL>
0

>  <SCORE.SYSTEM.SOLV>
0

>  <SCORE.SYSTEM.norm>
0

>  <SCORE.heavy>
24

>  <SCORE.norm>
-0.849069

>  <RMSD>
3.505

$$$$
lig.pdb
 OpenBabel11021811453D
libRbt.so/2013.1/901 2013/11/27
 24 24  0  0  0  0  0  0  0  0999 V2000
    2.9337   -0.9266    0.4943 C   0  0  0  0  0  0  0  0  0  0  0  0
    3.4483   -1.4940   -0.7199 C   0  0  0  0  0  0  0  0  0  0  0  0
    4.6427   -2.1741   -0.7512 C   0  0  0  0  0  0  0  0  0  0  0  0
    5.4333   -2.3618    0.4274 C   0  0  0  0  0  0  0  0  0  0  0  0
    4.9347   -1.7656    1.6323 C   0  0  0  0  0  0  0  0  0  0  0  0
    3.7464   -1.0795    1.6632 C   0  0  0  0  0  0  0  0  0  0  0  0
    1.7335   -0.2770    0.5429 C   0  0  0  0  0  0  0  0  0  0  0  0
    1.2090    0.2047    1.6900 N   0  0  0  0  0  0  0  0  0  0  0  0
    7.2860   -3.3884    1.5327 N   0  0  0  0  0  0  0  0  0  0  0  0
    6.6012   -3.0656    0.4151 C   0  0  0  0  0  0  0  0  0  0  0  0
    0.9775   -0.0628   -0.5624 N   0  0  0  0  0  0  0  0  0  0  0  0
    7.1772   -3.5019   -0.7303 N   0  0  0  0  0  0  0  0  0  0  0  0
    0.1522    1.1106   -0.8422 C   0  0  0  0  0  0  0  0  0  0  0  0
    8.1347   -4.5970   -0.8498 C   0  0  0  0  0  0  0  0  0  0  0  0
    1.0489    2.3556   -0.7470 C   0  0  0  0  0  0  0  0  0  0  0  0
    9.3461   -4.0812   -1.6487 C   0  0  0  0  0  0  0  0  0  0  0  0
    1.6028    2.7398   -2.1260 C   0  0  0  0  0  0  0  0  0  0  0  0
   10.0538   -2.9012   -0.9583 C   0  0  0  0  0  0  0  0  0  0  0  0
    2.5549    3.8984   -1.9749 N   0  0  0  0  0  0  0  0  0  0  0  0
   11.4606   -2.7230   -1.4709 N   0  0  0  0  0  0  0  0  0  0  0  0
    2.7298    4.5947   -3.2971 C   0  0  0  0  0  0  0  0  0  0  0  0
   12.1399   -1.6504   -0.6625 C   0  0  0  0  0  0  0  0  0  0  0  0
    3.8966    3.4295   -1.4688 C   0  0  0  0  0  0  0  0  0  0  0  0
   11.4913   -2.3333   -2.9225 C   0  0  0  0  0  0  0  0  0  0  0  0
  1  6  2  0  0  0  0
  2  3  2  0  0  0  0
  2  1  1  0  0  0  0
  3  4  1  0  0  0  0
  4 10  1  0  0  0  0
  4  5  2  0  0  0  0
  6  5  1  0  0  0  0
  7  1  1  0  0  0  0
  7 11  1  0  0  0  0
  8  7  2  0  0  0  0
  9 10  2  0  0  0  0
 10 12  1  0  0  0  0
 12 14  1  0  0  0  0
 13 11  1  0  0  0  0
 13 15  1  0  0  0  0
 14 16  1  0  0  0  0
 16 18  1  0  0  0  0
 17 15  1  0  0  0  0
 17 19  1  0  0  0  0
 18 20  1  0  0  0  0
 19 23  1  0  0  0  0
 20 22  1  0  0  0  0
 20 24  1  0  0  0  0
 21 19  1  0  0  0  0
M  END
>  <CHROM.1>
-172.13818458,176.74045962,-129.05955805,55.46677612,93.78898516,60.76363437
160.34761313,-175.83347130,-160.16937128,-174.33035585,5.25498348,-0.79130294
-0.58939074,2.69036188,0.31885339,-0.55589707

>  <Name>
lig.pdb

>  <RI>
1.71133e+07

>  <Rbt.Current_Directory>
/home/itssahil/PROJECTS/Mol_Feturizer/New_Systems/rnas/2l94

>  <Rbt.Executable>
rbdock ($Id: //depot/dev/client3/rdock/2013.1/src/exe/rbdock.cxx#4 $)

>  <Rbt.Library>
libRbt.so (2013.1, Build901 2013/11/27)

>  <Rbt.Parameter_File>
/export/apps/rDock/src/rDock_2013.1_src/data/scripts/dock_solv.prm

>  <Rbt.Receptor>
prm/pocket_docking_5.prm

>  <SCORE>
-32.2677

>  <SCORE.INTER>
-31.9564

>  <SCORE.INTER.CONST>
1

>  <SCORE.INTER.POLAR>
-4.61867

>  <SCORE.INTER.ROT>
10

>  <SCORE.INTER.SOLV>
11.7748

>  <SCORE.INTER.VDW>
-20.1003

>  <SCORE.INTER.norm>
-1.33152

>  <SCORE.INTRA>
-0.31124

>  <SCORE.INTRA.DIHEDRAL>
3.14282

>  <SCORE.INTRA.DIHEDRAL.0>
7.52971

>  <SCORE.INTRA.POLAR>
0

>  <SCORE.INTRA.POLAR.0>
0

>  <SCORE.INTRA.REPUL>
0

>  <SCORE.INTRA.REPUL.0>
0

>  <SCORE.INTRA.SOLV>
0.535833

>  <SCORE.INTRA.SOLV.lig_0>
-22.1084

>  <SCORE.INTRA.VDW>
-2.15057

>  <SCORE.INTRA.VDW.0>
2.4256

>  <SCORE.INTRA.norm>
-0.0129683

>  <SCORE.RESTR>
0

>  <SCORE.RESTR.CAVITY>
0

>  <SCORE.RESTR.norm>
0

>  <SCORE.SYSTEM>
0

>  <SCORE.SYSTEM.CONST>
0

>  <SCORE.SYSTEM.DIHEDRAL>
0

>  <SCORE.SYSTEM.SOLV>
0

>  <SCORE.SYSTEM.norm>
0

>  <SCORE.heavy>
24

>  <SCORE.norm>
-1.34449

>  <RMSD>
3.525

$$$$
lig.pdb
 OpenBabel11021811453D
libRbt.so/2013.1/901 2013/11/27
 24 24  0  0  0  0  0  0  0  0999 V2000
    8.0754   -2.4049   -0.0113 C   0  0  0  0  0  0  0  0  0  0  0  0
    8.1800   -2.1069    1.3892 C   0  0  0  0  0  0  0  0  0  0  0  0
    7.0675   -1.8988    2.1697 C   0  0  0  0  0  0  0  0  0  0  0  0
    5.7439   -1.9778    1.6301 C   0  0  0  0  0  0  0  0  0  0  0  0
    5.6420   -2.2421    0.2246 C   0  0  0  0  0  0  0  0  0  0  0  0
    6.7522   -2.4421   -0.5573 C   0  0  0  0  0  0  0  0  0  0  0  0
    9.1722   -2.6447   -0.7885 C   0  0  0  0  0  0  0  0  0  0  0  0
    9.9375   -3.7487   -0.6521 N   0  0  0  0  0  0  0  0  0  0  0  0
    4.6059   -2.0541    3.7295 N   0  0  0  0  0  0  0  0  0  0  0  0
    4.6326   -1.8092    2.4023 C   0  0  0  0  0  0  0  0  0  0  0  0
    9.5741   -1.7905   -1.7621 N   0  0  0  0  0  0  0  0  0  0  0  0
    3.4520   -1.3796    1.8966 N   0  0  0  0  0  0  0  0  0  0  0  0
   10.1705   -2.1493   -3.0474 C   0  0  0  0  0  0  0  0  0  0  0  0
    2.3688   -0.7551    2.6498 C   0  0  0  0  0  0  0  0  0  0  0  0
   11.6930   -2.2399   -2.8557 C   0  0  0  0  0  0  0  0  0  0  0  0
    1.7569    0.3506    1.7697 C   0  0  0  0  0  0  0  0  0  0  0  0
   12.2492   -0.9402   -2.2577 C   0  0  0  0  0  0  0  0  0  0  0  0
    0.7498    1.2288    2.5342 C   0  0  0  0  0  0  0  0  0  0  0  0
   13.7543   -1.0117   -2.2241 N   0  0  0  0  0  0  0  0  0  0  0  0
    0.0743    2.2198    1.6203 N   0  0  0  0  0  0  0  0  0  0  0  0
   14.2702   -0.3774   -0.9612 C   0  0  0  0  0  0  0  0  0  0  0  0
    1.0740    3.2716    1.2205 C   0  0  0  0  0  0  0  0  0  0  0  0
   14.3528   -0.3152   -3.4211 C   0  0  0  0  0  0  0  0  0  0  0  0
   -1.1013    2.8883    2.2769 C   0  0  0  0  0  0  0  0  0  0  0  0
  1  6  2  0  0  0  0
  2  3  2  0  0  0  0
  2  1  1  0  0  0  0
  3  4  1  0  0  0  0
  4 10  1  0  0  0  0
  4  5  2  0  0  0  0
  6  5  1  0  0  0  0
  7  1  1  0  0  0  0
  7 11  1  0  0  0  0
  8  7  2  0  0  0  0
  9 10  2  0  0  0  0
 10 12  1  0  0  0  0
 12 14  1  0  0  0  0
 13 11  1  0  0  0  0
 13 15  1  0  0  0  0
 14 16  1  0  0  0  0
 16 18  1  0  0  0  0
 17 15  1  0  0  0  0
 17 19  1  0  0  0  0
 18 20  1  0  0  0  0
 19 23  1  0  0  0  0
 20 22  1  0  0  0  0
 20 24  1  0  0  0  0
 21 19  1  0  0  0  0
M  END
>  <CHROM.1>
-25.82437724,68.66902512,142.10208016,-88.67030697,-54.71226257,-171.03971523
-174.80935769,-173.94264024,-141.63007735,-71.02352842,6.84928918,-0.96390344
0.27427543,0.01538744,-0.41915117,2.63996032

>  <Name>
lig.pdb

>  <RI>
2.48096e+07

>  <Rbt.Current_Directory>
/home/itssahil/PROJECTS/Mol_Feturizer/New_Systems/rnas/2l94

>  <Rbt.Executable>
rbdock ($Id: //depot/dev/client3/rdock/2013.1/src/exe/rbdock.cxx#4 $)

>  <Rbt.Library>
libRbt.so (2013.1, Build901 2013/11/27)

>  <Rbt.Parameter_File>
/export/apps/rDock/src/rDock_2013.1_src/data/scripts/dock_solv.prm

>  <Rbt.Receptor>
prm/pocket_docking_6.prm

>  <SCORE>
-17.4695

>  <SCORE.INTER>
-22.4294

>  <SCORE.INTER.CONST>
1

>  <SCORE.INTER.POLAR>
-3.38422

>  <SCORE.INTER.ROT>
10

>  <SCORE.INTER.SOLV>
8.73381

>  <SCORE.INTER.VDW>
-16.8501

>  <SCORE.INTER.norm>
-0.934557

>  <SCORE.INTRA>
4.95988

>  <SCORE.INTRA.DIHEDRAL>
14.186

>  <SCORE.INTRA.DIHEDRAL.0>
7.52971

>  <SCORE.INTRA.POLAR>
0

>  <SCORE.INTRA.POLAR.0>
0

>  <SCORE.INTRA.REPUL>
0

>  <SCORE.INTRA.REPUL.0>
0

>  <SCORE.INTRA.SOLV>
0.119067

>  <SCORE.INTRA.SOLV.lig_0>
-22.1084

>  <SCORE.INTRA.VDW>
-2.19265

>  <SCORE.INTRA.VDW.0>
2.4256

>  <SCORE.INTRA.norm>
0.206662

>  <SCORE.RESTR>
0

>  <SCORE.RESTR.CAVITY>
0

>  <SCORE.RESTR.norm>
0

>  <SCORE.SYSTEM>
0

>  <SCORE.SYSTEM.CONST>
0

>  <SCORE.SYSTEM.DIHEDRAL>
0

>  <SCORE.SYSTEM.SOLV>
0

>  <SCORE.SYSTEM.norm>
0

>  <SCORE.heavy>
24

>  <SCORE.norm>
-0.727895

>  <RMSD>
3.546

$$$$
lig.pdb
 OpenBabel11021811453D
libRbt.so/2013.1/901 2013/11/27
 24 24  0  0  0  0  0  0  0  0999 V2000
    9.1911   -2.7776   -1.4863 C   0  0  0  0  0  0  0  0  0  0  0  0
    8.6431   -1.6603   -0.7704 C   0  0  0  0  0  0  0  0  0  0  0  0
    7.2875   -1.5006   -0.6065 C   0  0  0  0  0  0  0  0  0  0  0  0
    6.3491   -2.4451   -1.1326 C   0  0  0  0  0  0  0  0  0  0  0  0
    6.8962   -3.5422   -1.8761 C   0  0  0  0  0  0  0  0  0  0  0  0
    8.2490   -3.6984   -2.0472 C   0  0  0  0  0  0  0  0  0  0  0  0
   10.5367   -2.9627   -1.6274 C   0  0  0  0  0  0  0  0  0  0  0  0
   11.0784   -3.6158   -2.6777 N   0  0  0  0  0  0  0  0  0  0  0  0
    4.1258   -3.3196   -1.1513 N   0  0  0  0  0  0  0  0  0  0  0  0
    5.0046   -2.3160   -0.9449 C   0  0  0  0  0  0  0  0  0  0  0  0
   11.4332   -2.4991   -0.7217 N   0  0  0  0  0  0  0  0  0  0  0  0
    4.4339   -1.1588   -0.5337 N   0  0  0  0  0  0  0  0  0  0  0  0
   12.7682   -1.9752   -1.0036 C   0  0  0  0  0  0  0  0  0  0  0  0
    3.1306   -1.0221    0.1091 C   0  0  0  0  0  0  0  0  0  0  0  0
   13.0318   -0.8048   -0.0425 C   0  0  0  0  0  0  0  0  0  0  0  0
    2.4886    0.2834   -0.3959 C   0  0  0  0  0  0  0  0  0  0  0  0
   14.4245   -0.2041   -0.2781 C   0  0  0  0  0  0  0  0  0  0  0  0
    1.3726    0.7945    0.5332 C   0  0  0  0  0  0  0  0  0  0  0  0
   15.4729   -1.1719    0.2079 N   0  0  0  0  0  0  0  0  0  0  0  0
    0.8089    2.1073    0.0511 N   0  0  0  0  0  0  0  0  0  0  0  0
   15.4285   -1.2657    1.7088 C   0  0  0  0  0  0  0  0  0  0  0  0
    1.8544    3.1766    0.2213 C   0  0  0  0  0  0  0  0  0  0  0  0
   16.8497   -0.7388   -0.2314 C   0  0  0  0  0  0  0  0  0  0  0  0
   -0.4264    2.5075    0.8085 C   0  0  0  0  0  0  0  0  0  0  0  0
  1  6  2  0  0  0  0
  2  3  2  0  0  0  0
  2  1  1  0  0  0  0
  3  4  1  0  0  0  0
  4 10  1  0  0  0  0
  4  5  2  0  0  0  0
  6  5  1  0  0  0  0
  7  1  1  0  0  0  0
  7 11  1  0  0  0  0
  8  7  2  0  0  0  0
  9 10  2  0  0  0  0
 10 12  1  0  0  0  0
 12 14  1  0  0  0  0
 13 11  1  0  0  0  0
 13 15  1  0  0  0  0
 14 16  1  0  0  0  0
 16 18  1  0  0  0  0
 17 15  1  0  0  0  0
 17 19  1  0  0  0  0
 18 20  1  0  0  0  0
 19 23  1  0  0  0  0
 20 22  1  0  0  0  0
 20 24  1  0  0  0  0
 21 19  1  0  0  0  0
M  END
>  <CHROM.1>
-164.30723360,-152.13272791,-143.70524148,142.69997051,179.81495435,-160.11746163
177.20773015,-71.05993699,-69.06784377,-68.83619450,7.94238542,-1.19090131
-0.55465288,0.17585802,0.06016298,-2.68282881

>  <Name>
lig.pdb

>  <RI>
0

>  <Rbt.Current_Directory>
/home/itssahil/PROJECTS/Mol_Feturizer/New_Systems/rnas/2l94

>  <Rbt.Executable>
rbdock ($Id: //depot/dev/client3/rdock/2013.1/src/exe/rbdock.cxx#4 $)

>  <Rbt.Library>
libRbt.so (2013.1, Build901 2013/11/27)

>  <Rbt.Parameter_File>
/export/apps/rDock/src/rDock_2013.1_src/data/scripts/dock_solv.prm

>  <Rbt.Receptor>
prm/pocket_docking_4.prm

>  <SCORE>
-14.6128

>  <SCORE.INTER>
-15.1524

>  <SCORE.INTER.CONST>
1

>  <SCORE.INTER.POLAR>
-1.92007

>  <SCORE.INTER.ROT>
10

>  <SCORE.INTER.SOLV>
8.93324

>  <SCORE.INTER.VDW>
-16.9458

>  <SCORE.INTER.norm>
-0.63135

>  <SCORE.INTRA>
0.539604

>  <SCORE.INTRA.DIHEDRAL>
3.30485

>  <SCORE.INTRA.DIHEDRAL.0>
7.52971

>  <SCORE.INTRA.POLAR>
0

>  <SCORE.INTRA.POLAR.0>
0

>  <SCORE.INTRA.REPUL>
0

>  <SCORE.INTRA.REPUL.0>
0

>  <SCORE.INTRA.SOLV>
-0.335567

>  <SCORE.INTRA.SOLV.lig_0>
-22.1084

>  <SCORE.INTRA.VDW>
-0.945037

>  <SCORE.INTRA.VDW.0>
2.4256

>  <SCORE.INTRA.norm>
0.0224835

>  <SCORE.RESTR>
0

>  <SCORE.RESTR.CAVITY>
0

>  <SCORE.RESTR.norm>
0

>  <SCORE.SYSTEM>
0

>  <SCORE.SYSTEM.CONST>
0

>  <SCORE.SYSTEM.DIHEDRAL>
0

>  <SCORE.SYSTEM.SOLV>
0

>  <SCORE.SYSTEM.norm>
0

>  <SCORE.heavy>
24

>  <SCORE.norm>
-0.608867

>  <RMSD>
3.549

$$$$
lig.pdb
 OpenBabel11021811453D
libRbt.so/2013.1/901 2013/11/27
 24 24  0  0  0  0  0  0  0  0999 V2000
    6.6047   -3.6609   -0.5759 C   0  0  0  0  0  0  0  0  0  0  0  0
    5.3836   -3.0479   -1.0165 C   0  0  0  0  0  0  0  0  0  0  0  0
    4.2972   -2.9192   -0.1839 C   0  0  0  0  0  0  0  0  0  0  0  0
    4.3282   -3.3808    1.1709 C   0  0  0  0  0  0  0  0  0  0  0  0
    5.5365   -4.0230    1.5991 C   0  0  0  0  0  0  0  0  0  0  0  0
    6.6189   -4.1592    0.7663 C   0  0  0  0  0  0  0  0  0  0  0  0
    7.7002   -3.7650   -1.3846 C   0  0  0  0  0  0  0  0  0  0  0  0
    7.6265   -3.6778   -2.7300 N   0  0  0  0  0  0  0  0  0  0  0  0
    2.9847   -4.0868    3.0160 N   0  0  0  0  0  0  0  0  0  0  0  0
    3.2695   -3.2257    2.0163 C   0  0  0  0  0  0  0  0  0  0  0  0
    8.9495   -3.9604   -0.8946 N   0  0  0  0  0  0  0  0  0  0  0  0
    2.4069   -2.1861    1.9210 N   0  0  0  0  0  0  0  0  0  0  0  0
   10.1936   -3.4115   -1.4305 C   0  0  0  0  0  0  0  0  0  0  0  0
    1.5451   -1.6817    2.9857 C   0  0  0  0  0  0  0  0  0  0  0  0
   10.6608   -2.2882   -0.4909 C   0  0  0  0  0  0  0  0  0  0  0  0
    0.4197   -0.8577    2.3330 C   0  0  0  0  0  0  0  0  0  0  0  0
   12.0628   -1.7970   -0.8772 C   0  0  0  0  0  0  0  0  0  0  0  0
    0.9260    0.4639    1.7273 C   0  0  0  0  0  0  0  0  0  0  0  0
   12.3920   -0.5577   -0.0850 N   0  0  0  0  0  0  0  0  0  0  0  0
   -0.2039    1.2740    1.1436 N   0  0  0  0  0  0  0  0  0  0  0  0
   13.5204    0.1879   -0.7440 C   0  0  0  0  0  0  0  0  0  0  0  0
    0.3193    2.0665   -0.0242 C   0  0  0  0  0  0  0  0  0  0  0  0
   12.7772   -0.9107    1.3303 C   0  0  0  0  0  0  0  0  0  0  0  0
   -0.8019    2.2203    2.1470 C   0  0  0  0  0  0  0  0  0  0  0  0
  1  6  2  0  0  0  0
  2  3  2  0  0  0  0
  2  1  1  0  0  0  0
  3  4  1  0  0  0  0
  4 10  1  0  0  0  0
  4  5  2  0  0  0  0
  6  5  1  0  0  0  0
  7  1  1  0  0  0  0
  7 11  1  0  0  0  0
  8  7  2  0  0  0  0
  9 10  2  0  0  0  0
 10 12  1  0  0  0  0
 12 14  1  0  0  0  0
 13 11  1  0  0  0  0
 13 15  1  0  0  0  0
 14 16  1  0  0  0  0
 16 18  1  0  0  0  0
 17 15  1  0  0  0  0
 17 19  1  0  0  0  0
 18 20  1  0  0  0  0
 19 23  1  0  0  0  0
 20 22  1  0  0  0  0
 20 24  1  0  0  0  0
 21 19  1  0  0  0  0
M  END
>  <CHROM.1>
149.49271928,-20.00971781,-160.62153164,106.05717100,171.94693260,-69.81234328
-177.77863116,170.90516564,-161.45763155,-148.80729580,5.82257664,-1.90209285
0.49163037,0.17099213,-0.21342378,-3.09413969

>  <Name>
lig.pdb

>  <RI>
2.48096e+07

>  <Rbt.Current_Directory>
/home/itssahil/PROJECTS/Mol_Feturizer/New_Systems/rnas/2l94

>  <Rbt.Executable>
rbdock ($Id: //depot/dev/client3/rdock/2013.1/src/exe/rbdock.cxx#4 $)

>  <Rbt.Library>
libRbt.so (2013.1, Build901 2013/11/27)

>  <Rbt.Parameter_File>
/export/apps/rDock/src/rDock_2013.1_src/data/scripts/dock_solv.prm

>  <Rbt.Receptor>
prm/pocket_docking_6.prm

>  <SCORE>
-16.0964

>  <SCORE.INTER>
-16.4106

>  <SCORE.INTER.CONST>
1

>  <SCORE.INTER.POLAR>
-2.61585

>  <SCORE.INTER.ROT>
10

>  <SCORE.INTER.SOLV>
8.36861

>  <SCORE.INTER.VDW>
-15.2771

>  <SCORE.INTER.norm>
-0.683776

>  <SCORE.INTRA>
0.299444

>  <SCORE.INTRA.DIHEDRAL>
5.57036

>  <SCORE.INTRA.DIHEDRAL.0>
7.52971

>  <SCORE.INTRA.POLAR>
0

>  <SCORE.INTRA.POLAR.0>
0

>  <SCORE.INTRA.REPUL>
0

>  <SCORE.INTRA.REPUL.0>
0

>  <SCORE.INTRA.SOLV>
-0.15275

>  <SCORE.INTRA.SOLV.lig_0>
-22.1084

>  <SCORE.INTRA.VDW>
-2.40936

>  <SCORE.INTRA.VDW.0>
2.4256

>  <SCORE.INTRA.norm>
0.0124769

>  <SCORE.RESTR>
0.0147236

>  <SCORE.RESTR.CAVITY>
0.0147236

>  <SCORE.RESTR.norm>
0.000613482

>  <SCORE.SYSTEM>
0

>  <SCORE.SYSTEM.CONST>
0

>  <SCORE.SYSTEM.DIHEDRAL>
0

>  <SCORE.SYSTEM.SOLV>
0

>  <SCORE.SYSTEM.norm>
0

>  <SCORE.heavy>
24

>  <SCORE.norm>
-0.670685

>  <RMSD>
3.575

$$$$
lig.pdb
 OpenBabel11021811453D
libRbt.so/2013.1/901 2013/11/27
 24 24  0  0  0  0  0  0  0  0999 V2000
    8.3291   -3.0719   -0.5750 C   0  0  0  0  0  0  0  0  0  0  0  0
    6.9008   -3.2170   -0.5782 C   0  0  0  0  0  0  0  0  0  0  0  0
    6.0948   -2.4601    0.2388 C   0  0  0  0  0  0  0  0  0  0  0  0
    6.6356   -1.4789    1.1300 C   0  0  0  0  0  0  0  0  0  0  0  0
    8.0641   -1.3588    1.1565 C   0  0  0  0  0  0  0  0  0  0  0  0
    8.8702   -2.1196    0.3471 C   0  0  0  0  0  0  0  0  0  0  0  0
    9.1363   -3.7959   -1.4051 C   0  0  0  0  0  0  0  0  0  0  0  0
    8.7163   -4.9070   -2.0469 N   0  0  0  0  0  0  0  0  0  0  0  0
    6.3032   -0.0129    2.9870 N   0  0  0  0  0  0  0  0  0  0  0  0
    5.8435   -0.6973    1.9182 C   0  0  0  0  0  0  0  0  0  0  0  0
   10.4241   -3.4492   -1.6509 N   0  0  0  0  0  0  0  0  0  0  0  0
    4.5171   -0.5427    1.6929 N   0  0  0  0  0  0  0  0  0  0  0  0
   11.1436   -3.6010   -2.9141 C   0  0  0  0  0  0  0  0  0  0  0  0
    3.6872    0.5630    2.1610 C   0  0  0  0  0  0  0  0  0  0  0  0
   11.4822   -2.1966   -3.4395 C   0  0  0  0  0  0  0  0  0  0  0  0
    2.2877    0.4003    1.5393 C   0  0  0  0  0  0  0  0  0  0  0  0
   12.5646   -1.5339   -2.5761 C   0  0  0  0  0  0  0  0  0  0  0  0
    1.3017    1.4877    2.0033 C   0  0  0  0  0  0  0  0  0  0  0  0
   13.0955   -0.3174   -3.2903 N   0  0  0  0  0  0  0  0  0  0  0  0
   -0.0459    1.3300    1.3455 N   0  0  0  0  0  0  0  0  0  0  0  0
   14.4772    0.0081   -2.7918 C   0  0  0  0  0  0  0  0  0  0  0  0
   -0.8361    2.5950    1.5478 C   0  0  0  0  0  0  0  0  0  0  0  0
   12.1885    0.8693   -3.0783 C   0  0  0  0  0  0  0  0  0  0  0  0
   -0.8223    0.1737    1.9112 C   0  0  0  0  0  0  0  0  0  0  0  0
  1  6  2  0  0  0  0
  2  3  2  0  0  0  0
  2  1  1  0  0  0  0
  3  4  1  0  0  0  0
  4 10  1  0  0  0  0
  4  5  2  0  0  0  0
  6  5  1  0  0  0  0
  7  1  1  0  0  0  0
  7 11  1  0  0  0  0
  8  7  2  0  0  0  0
  9 10  2  0  0  0  0
 10 12  1  0  0  0  0
 12 14  1  0  0  0  0
 13 11  1  0  0  0  0
 13 15  1  0  0  0  0
 14 16  1  0  0  0  0
 16 18  1  0  0  0  0
 17 15  1  0  0  0  0
 17 19  1  0  0  0  0
 18 20  1  0  0  0  0
 19 23  1  0  0  0  0
 20 22  1  0  0  0  0
 20 24  1  0  0  0  0
 21 19  1  0  0  0  0
M  END
>  <CHROM.1>
163.03835994,-16.40179596,173.84747336,114.81774951,70.64756825,177.92459117
178.16573287,166.97510900,-156.66707100,-165.38487060,7.07876190,-1.08763413
-0.20362680,0.24450968,-0.38346704,-3.10045522

>  <Name>
lig.pdb

>  <RI>
9.7521e+06

>  <Rbt.Current_Directory>
/home/itssahil/PROJECTS/Mol_Feturizer/New_Systems/rnas/2l94

>  <Rbt.Executable>
rbdock ($Id: //depot/dev/client3/rdock/2013.1/src/exe/rbdock.cxx#4 $)

>  <Rbt.Library>
libRbt.so (2013.1, Build901 2013/11/27)

>  <Rbt.Parameter_File>
/export/apps/rDock/src/rDock_2013.1_src/data/scripts/dock_solv.prm

>  <Rbt.Receptor>
prm/pocket_docking_7.prm

>  <SCORE>
-23.6374

>  <SCORE.INTER>
-22.7183

>  <SCORE.INTER.CONST>
1

>  <SCORE.INTER.POLAR>
-3.33803

>  <SCORE.INTER.ROT>
10

>  <SCORE.INTER.SOLV>
14.3268

>  <SCORE.INTER.VDW>
-19.061

>  <SCORE.INTER.norm>
-0.946595

>  <SCORE.INTRA>
-0.919138

>  <SCORE.INTRA.DIHEDRAL>
1.99788

>  <SCORE.INTRA.DIHEDRAL.0>
7.52971

>  <SCORE.INTRA.POLAR>
0

>  <SCORE.INTRA.POLAR.0>
0

>  <SCORE.INTRA.REPUL>
0

>  <SCORE.INTRA.REPUL.0>
0

>  <SCORE.INTRA.SOLV>
-0.158531

>  <SCORE.INTRA.SOLV.lig_0>
-22.1084

>  <SCORE.INTRA.VDW>
-1.83881

>  <SCORE.INTRA.VDW.0>
2.4256

>  <SCORE.INTRA.norm>
-0.0382974

>  <SCORE.RESTR>
0

>  <SCORE.RESTR.CAVITY>
0

>  <SCORE.RESTR.norm>
0

>  <SCORE.SYSTEM>
0

>  <SCORE.SYSTEM.CONST>
0

>  <SCORE.SYSTEM.DIHEDRAL>
0

>  <SCORE.SYSTEM.SOLV>
0

>  <SCORE.SYSTEM.norm>
0

>  <SCORE.heavy>
24

>  <SCORE.norm>
-0.984892

>  <RMSD>
3.579

$$$$
lig.pdb
 OpenBabel11021811453D
libRbt.so/2013.1/901 2013/11/27
 24 24  0  0  0  0  0  0  0  0999 V2000
    8.9719   -1.4021   -2.3942 C   0  0  0  0  0  0  0  0  0  0  0  0
    8.9029    0.0129   -2.1617 C   0  0  0  0  0  0  0  0  0  0  0  0
    7.8255    0.7618   -2.5721 C   0  0  0  0  0  0  0  0  0  0  0  0
    6.7094    0.1694   -3.2449 C   0  0  0  0  0  0  0  0  0  0  0  0
    6.7949   -1.2377   -3.5063 C   0  0  0  0  0  0  0  0  0  0  0  0
    7.8736   -1.9850   -3.1042 C   0  0  0  0  0  0  0  0  0  0  0  0
   10.0223   -2.1605   -1.9627 C   0  0  0  0  0  0  0  0  0  0  0  0
   10.2430   -3.4191   -2.3989 N   0  0  0  0  0  0  0  0  0  0  0  0
    4.4630    0.3387   -4.0407 N   0  0  0  0  0  0  0  0  0  0  0  0
    5.6196    0.8962   -3.6240 C   0  0  0  0  0  0  0  0  0  0  0  0
   10.9282   -1.7029   -1.0633 N   0  0  0  0  0  0  0  0  0  0  0  0
    5.6076    2.2504   -3.6154 N   0  0  0  0  0  0  0  0  0  0  0  0
   12.3593   -1.9992   -1.0370 C   0  0  0  0  0  0  0  0  0  0  0  0
    4.4224    3.1008   -3.5649 C   0  0  0  0  0  0  0  0  0  0  0  0
   13.1216   -0.6677   -1.1318 C   0  0  0  0  0  0  0  0  0  0  0  0
    4.5885    4.0741   -2.3830 C   0  0  0  0  0  0  0  0  0  0  0  0
   13.8721   -0.3708    0.1739 C   0  0  0  0  0  0  0  0  0  0  0  0
    4.1769    3.4498   -1.0373 C   0  0  0  0  0  0  0  0  0  0  0  0
   15.1534   -1.1639    0.2031 N   0  0  0  0  0  0  0  0  0  0  0  0
    2.7027    3.6253   -0.7736 N   0  0  0  0  0  0  0  0  0  0  0  0
   15.7241   -1.1659    1.5951 C   0  0  0  0  0  0  0  0  0  0  0  0
    2.4225    3.2833    0.6651 C   0  0  0  0  0  0  0  0  0  0  0  0
   16.1644   -0.5881   -0.7573 C   0  0  0  0  0  0  0  0  0  0  0  0
    1.8594    2.7486   -1.6569 C   0  0  0  0  0  0  0  0  0  0  0  0
  1  6  2  0  0  0  0
  2  3  2  0  0  0  0
  2  1  1  0  0  0  0
  3  4  1  0  0  0  0
  4 10  1  0  0  0  0
  4  5  2  0  0  0  0
  6  5  1  0  0  0  0
  7  1  1  0  0  0  0
  7 11  1  0  0  0  0
  8  7  2  0  0  0  0
  9 10  2  0  0  0  0
 10 12  1  0  0  0  0
 12 14  1  0  0  0  0
 13 11  1  0  0  0  0
 13 15  1  0  0  0  0
 14 16  1  0  0  0  0
 16 18  1  0  0  0  0
 17 15  1  0  0  0  0
 17 19  1  0  0  0  0
 18 20  1  0  0  0  0
 19 23  1  0  0  0  0
 20 22  1  0  0  0  0
 20 24  1  0  0  0  0
 21 19  1  0  0  0  0
M  END
>  <CHROM.1>
-167.86896604,-166.03915797,126.27694624,121.46688732,112.80358685,-82.97082347
-87.37662126,79.97487781,-165.64909991,-167.33437287,8.37127168,0.31021028
-1.76272677,0.18347568,0.35821997,-2.44560458

>  <Name>
lig.pdb

>  <RI>
0

>  <Rbt.Current_Directory>
/home/itssahil/PROJECTS/Mol_Feturizer/New_Systems/rnas/2l94

>  <Rbt.Executable>
rbdock ($Id: //depot/dev/client3/rdock/2013.1/src/exe/rbdock.cxx#4 $)

>  <Rbt.Library>
libRbt.so (2013.1, Build901 2013/11/27)

>  <Rbt.Parameter_File>
/export/apps/rDock/src/rDock_2013.1_src/data/scripts/dock_solv.prm

>  <Rbt.Receptor>
prm/pocket_docking_4.prm

>  <SCORE>
-23.5303

>  <SCORE.INTER>
-26.6154

>  <SCORE.INTER.CONST>
1

>  <SCORE.INTER.POLAR>
-4.88504

>  <SCORE.INTER.ROT>
10

>  <SCORE.INTER.SOLV>
8.36468

>  <SCORE.INTER.VDW>
-14.515

>  <SCORE.INTER.norm>
-1.10898

>  <SCORE.INTRA>
3.08507

>  <SCORE.INTRA.DIHEDRAL>
10.2043

>  <SCORE.INTRA.DIHEDRAL.0>
7.52971

>  <SCORE.INTRA.POLAR>
0

>  <SCORE.INTRA.POLAR.0>
0

>  <SCORE.INTRA.REPUL>
0

>  <SCORE.INTRA.REPUL.0>
0

>  <SCORE.INTRA.SOLV>
0.261273

>  <SCORE.INTRA.SOLV.lig_0>
-22.1084

>  <SCORE.INTRA.VDW>
-2.14769

>  <SCORE.INTRA.VDW.0>
2.4256

>  <SCORE.INTRA.norm>
0.128545

>  <SCORE.RESTR>
0

>  <SCORE.RESTR.CAVITY>
0

>  <SCORE.RESTR.norm>
0

>  <SCORE.SYSTEM>
0

>  <SCORE.SYSTEM.CONST>
0

>  <SCORE.SYSTEM.DIHEDRAL>
0

>  <SCORE.SYSTEM.SOLV>
0

>  <SCORE.SYSTEM.norm>
0

>  <SCORE.heavy>
24

>  <SCORE.norm>
-0.980431

>  <RMSD>
3.584

$$$$
lig.pdb
 OpenBabel11021811453D
libRbt.so/2013.1/901 2013/11/27
 24 24  0  0  0  0  0  0  0  0999 V2000
    6.0836   -0.6640    1.2435 C   0  0  0  0  0  0  0  0  0  0  0  0
    6.1468   -2.0146    0.7607 C   0  0  0  0  0  0  0  0  0  0  0  0
    7.3108   -2.5514    0.2636 C   0  0  0  0  0  0  0  0  0  0  0  0
    8.5255   -1.7958    0.2097 C   0  0  0  0  0  0  0  0  0  0  0  0
    8.4526   -0.4368    0.6609 C   0  0  0  0  0  0  0  0  0  0  0  0
    7.2891    0.1028    1.1498 C   0  0  0  0  0  0  0  0  0  0  0  0
    4.9411   -0.1313    1.7686 C   0  0  0  0  0  0  0  0  0  0  0  0
    4.9511    0.8031    2.7432 N   0  0  0  0  0  0  0  0  0  0  0  0
   10.1144   -3.5741    0.0633 N   0  0  0  0  0  0  0  0  0  0  0  0
    9.6942   -2.3295   -0.2474 C   0  0  0  0  0  0  0  0  0  0  0  0
    3.7063   -0.4994    1.3459 N   0  0  0  0  0  0  0  0  0  0  0  0
   10.5389   -1.6481   -1.0574 N   0  0  0  0  0  0  0  0  0  0  0  0
    2.5310    0.3614    1.2275 C   0  0  0  0  0  0  0  0  0  0  0  0
   11.5452   -2.2320   -1.9389 C   0  0  0  0  0  0  0  0  0  0  0  0
    1.5818    0.0317    2.3908 C   0  0  0  0  0  0  0  0  0  0  0  0
   11.8667   -1.2018   -3.0376 C   0  0  0  0  0  0  0  0  0  0  0  0
    0.2039    0.6720    2.1732 C   0  0  0  0  0  0  0  0  0  0  0  0
   13.0644   -0.3042   -2.6779 C   0  0  0  0  0  0  0  0  0  0  0  0
    0.3385    2.1724    2.2235 N   0  0  0  0  0  0  0  0  0  0  0  0
   13.4141    0.6311   -3.8077 N   0  0  0  0  0  0  0  0  0  0  0  0
    0.6186    2.6156    3.6337 C   0  0  0  0  0  0  0  0  0  0  0  0
   14.8505    1.0559   -3.6597 C   0  0  0  0  0  0  0  0  0  0  0  0
   -0.9171    2.8422    1.7227 C   0  0  0  0  0  0  0  0  0  0  0  0
   12.5420    1.8556   -3.8221 C   0  0  0  0  0  0  0  0  0  0  0  0
  1  6  2  0  0  0  0
  2  3  2  0  0  0  0
  2  1  1  0  0  0  0
  3  4  1  0  0  0  0
  4 10  1  0  0  0  0
  4  5  2  0  0  0  0
  6  5  1  0  0  0  0
  7  1  1  0  0  0  0
  7 11  1  0  0  0  0
  8  7  2  0  0  0  0
  9 10  2  0  0  0  0
 10 12  1  0  0  0  0
 12 14  1  0  0  0  0
 13 11  1  0  0  0  0
 13 15  1  0  0  0  0
 14 16  1  0  0  0  0
 16 18  1  0  0  0  0
 17 15  1  0  0  0  0
 17 19  1  0  0  0  0
 18 20  1  0  0  0  0
 19 23  1  0  0  0  0
 20 22  1  0  0  0  0
 20 24  1  0  0  0  0
 21 19  1  0  0  0  0
M  END
>  <CHROM.1>
-42.01913018,148.23929585,157.96265776,-105.20148444,-167.92332032,92.84154914
176.19806137,-65.78819249,-70.93642291,-157.18873173,7.05316261,-0.20658402
0.11670932,-3.12324160,0.43374301,-0.39111897

>  <Name>
lig.pdb

>  <RI>
9.7521e+06

>  <Rbt.Current_Directory>
/home/itssahil/PROJECTS/Mol_Feturizer/New_Systems/rnas/2l94

>  <Rbt.Executable>
rbdock ($Id: //depot/dev/client3/rdock/2013.1/src/exe/rbdock.cxx#4 $)

>  <Rbt.Library>
libRbt.so (2013.1, Build901 2013/11/27)

>  <Rbt.Parameter_File>
/export/apps/rDock/src/rDock_2013.1_src/data/scripts/dock_solv.prm

>  <Rbt.Receptor>
prm/pocket_docking_7.prm

>  <SCORE>
-19.5091

>  <SCORE.INTER>
-23.0054

>  <SCORE.INTER.CONST>
1

>  <SCORE.INTER.POLAR>
-3.66446

>  <SCORE.INTER.ROT>
10

>  <SCORE.INTER.SOLV>
9.30983

>  <SCORE.INTER.VDW>
-16.492

>  <SCORE.INTER.norm>
-0.958557

>  <SCORE.INTRA>
3.49631

>  <SCORE.INTRA.DIHEDRAL>
11.788

>  <SCORE.INTRA.DIHEDRAL.0>
7.52971

>  <SCORE.INTRA.POLAR>
0

>  <SCORE.INTRA.POLAR.0>
0

>  <SCORE.INTRA.REPUL>
0

>  <SCORE.INTRA.REPUL.0>
0

>  <SCORE.INTRA.SOLV>
-0.123209

>  <SCORE.INTRA.SOLV.lig_0>
-22.1084

>  <SCORE.INTRA.VDW>
-2.33606

>  <SCORE.INTRA.VDW.0>
2.4256

>  <SCORE.INTRA.norm>
0.14568

>  <SCORE.RESTR>
0

>  <SCORE.RESTR.CAVITY>
0

>  <SCORE.RESTR.norm>
0

>  <SCORE.SYSTEM>
0

>  <SCORE.SYSTEM.CONST>
0

>  <SCORE.SYSTEM.DIHEDRAL>
0

>  <SCORE.SYSTEM.SOLV>
0

>  <SCORE.SYSTEM.norm>
0

>  <SCORE.heavy>
24

>  <SCORE.norm>
-0.812878

>  <RMSD>
3.586

$$$$
lig.pdb
 OpenBabel11021811453D
libRbt.so/2013.1/901 2013/11/27
 24 24  0  0  0  0  0  0  0  0999 V2000
    6.3097   -0.3853    1.9154 C   0  0  0  0  0  0  0  0  0  0  0  0
    6.7524   -1.7109    2.2439 C   0  0  0  0  0  0  0  0  0  0  0  0
    7.8669   -2.2666    1.6615 C   0  0  0  0  0  0  0  0  0  0  0  0
    8.6522   -1.5496    0.7032 C   0  0  0  0  0  0  0  0  0  0  0  0
    8.1898   -0.2388    0.3511 C   0  0  0  0  0  0  0  0  0  0  0  0
    7.0727    0.3138    0.9259 C   0  0  0  0  0  0  0  0  0  0  0  0
    5.2229    0.1879    2.5113 C   0  0  0  0  0  0  0  0  0  0  0  0
    4.9447    0.0372    3.8239 N   0  0  0  0  0  0  0  0  0  0  0  0
   10.1396   -3.3710    0.2811 N   0  0  0  0  0  0  0  0  0  0  0  0
    9.7799   -2.0770    0.1465 C   0  0  0  0  0  0  0  0  0  0  0  0
    4.3406    0.9578    1.8273 N   0  0  0  0  0  0  0  0  0  0  0  0
   10.6413   -1.3389   -0.5932 N   0  0  0  0  0  0  0  0  0  0  0  0
    3.6375    2.1367    2.3296 C   0  0  0  0  0  0  0  0  0  0  0  0
   11.5944   -1.8524   -1.5722 C   0  0  0  0  0  0  0  0  0  0  0  0
    2.2168    1.7076    2.7299 C   0  0  0  0  0  0  0  0  0  0  0  0
   12.8547   -0.9692   -1.5137 C   0  0  0  0  0  0  0  0  0  0  0  0
    1.3777    2.9193    3.1584 C   0  0  0  0  0  0  0  0  0  0  0  0
   13.4207   -0.8357   -0.0883 C   0  0  0  0  0  0  0  0  0  0  0  0
    0.0678    2.4407    3.7304 N   0  0  0  0  0  0  0  0  0  0  0  0
   14.8423   -1.3318   -0.0086 N   0  0  0  0  0  0  0  0  0  0  0  0
   -0.9677    3.5265    3.6200 C   0  0  0  0  0  0  0  0  0  0  0  0
   15.2881   -1.2997    1.4287 C   0  0  0  0  0  0  0  0  0  0  0  0
    0.2270    2.0385    5.1757 C   0  0  0  0  0  0  0  0  0  0  0  0
   15.7829   -0.4950   -0.8302 C   0  0  0  0  0  0  0  0  0  0  0  0
  1  6  2  0  0  0  0
  2  3  2  0  0  0  0
  2  1  1  0  0  0  0
  3  4  1  0  0  0  0
  4 10  1  0  0  0  0
  4  5  2  0  0  0  0
  6  5  1  0  0  0  0
  7  1  1  0  0  0  0
  7 11  1  0  0  0  0
  8  7  2  0  0  0  0
  9 10  2  0  0  0  0
 10 12  1  0  0  0  0
 12 14  1  0  0  0  0
 13 11  1  0  0  0  0
 13 15  1  0  0  0  0
 14 16  1  0  0  0  0
 16 18  1  0  0  0  0
 17 15  1  0  0  0  0
 17 19  1  0  0  0  0
 18 20  1  0  0  0  0
 19 23  1  0  0  0  0
 20 22  1  0  0  0  0
 20 24  1  0  0  0  0
 21 19  1  0  0  0  0
M  END
>  <CHROM.1>
10.60687726,39.28409716,-145.22206007,-99.57943140,-175.25465251,52.87199295
121.10538166,-171.83880720,-156.36677490,-174.53830916,7.51111615,-0.12230840
1.43352101,2.84784336,0.28706810,0.06208475

>  <Name>
lig.pdb

>  <RI>
2.48096e+07

>  <Rbt.Current_Directory>
/home/itssahil/PROJECTS/Mol_Feturizer/New_Systems/rnas/2l94

>  <Rbt.Executable>
rbdock ($Id: //depot/dev/client3/rdock/2013.1/src/exe/rbdock.cxx#4 $)

>  <Rbt.Library>
libRbt.so (2013.1, Build901 2013/11/27)

>  <Rbt.Parameter_File>
/export/apps/rDock/src/rDock_2013.1_src/data/scripts/dock_solv.prm

>  <Rbt.Receptor>
prm/pocket_docking_6.prm

>  <SCORE>
-25.0781

>  <SCORE.INTER>
-27.8962

>  <SCORE.INTER.CONST>
1

>  <SCORE.INTER.POLAR>
-3.59199

>  <SCORE.INTER.ROT>
10

>  <SCORE.INTER.SOLV>
10.4078

>  <SCORE.INTER.VDW>
-20.3601

>  <SCORE.INTER.norm>
-1.16234

>  <SCORE.INTRA>
2.81808

>  <SCORE.INTRA.DIHEDRAL>
10.0533

>  <SCORE.INTRA.DIHEDRAL.0>
7.52971

>  <SCORE.INTRA.POLAR>
0

>  <SCORE.INTRA.POLAR.0>
0

>  <SCORE.INTRA.REPUL>
0

>  <SCORE.INTRA.REPUL.0>
0

>  <SCORE.INTRA.SOLV>
0.186667

>  <SCORE.INTRA.SOLV.lig_0>
-22.1084

>  <SCORE.INTRA.VDW>
-2.30189

>  <SCORE.INTRA.VDW.0>
2.4256

>  <SCORE.INTRA.norm>
0.11742

>  <SCORE.RESTR>
0

>  <SCORE.RESTR.CAVITY>
0

>  <SCORE.RESTR.norm>
0

>  <SCORE.SYSTEM>
0

>  <SCORE.SYSTEM.CONST>
0

>  <SCORE.SYSTEM.DIHEDRAL>
0

>  <SCORE.SYSTEM.SOLV>
0

>  <SCORE.SYSTEM.norm>
0

>  <SCORE.heavy>
24

>  <SCORE.norm>
-1.04492

>  <RMSD>
3.591

$$$$
lig.pdb
 OpenBabel11021811453D
libRbt.so/2013.1/901 2013/11/27
 24 24  0  0  0  0  0  0  0  0999 V2000
    2.8056   -0.4419   -1.5014 C   0  0  0  0  0  0  0  0  0  0  0  0
    3.1903   -1.1598   -0.3192 C   0  0  0  0  0  0  0  0  0  0  0  0
    4.1245   -2.1678   -0.3567 C   0  0  0  0  0  0  0  0  0  0  0  0
    4.7716   -2.5495   -1.5753 C   0  0  0  0  0  0  0  0  0  0  0  0
    4.3617   -1.8546   -2.7607 C   0  0  0  0  0  0  0  0  0  0  0  0
    3.4233   -0.8537   -2.7257 C   0  0  0  0  0  0  0  0  0  0  0  0
    1.9025    0.5820   -1.4699 C   0  0  0  0  0  0  0  0  0  0  0  0
    0.9812    0.7141   -0.4918 N   0  0  0  0  0  0  0  0  0  0  0  0
    5.9595   -4.2869   -2.7059 N   0  0  0  0  0  0  0  0  0  0  0  0
    5.7257   -3.5228   -1.6180 C   0  0  0  0  0  0  0  0  0  0  0  0
    1.8661    1.5487   -2.4203 N   0  0  0  0  0  0  0  0  0  0  0  0
    6.5244   -3.8073   -0.5620 N   0  0  0  0  0  0  0  0  0  0  0  0
    1.5485    2.9609   -2.2179 C   0  0  0  0  0  0  0  0  0  0  0  0
    7.8201   -4.4771   -0.6180 C   0  0  0  0  0  0  0  0  0  0  0  0
    2.5113    3.5168   -1.1563 C   0  0  0  0  0  0  0  0  0  0  0  0
    8.9005   -3.4002   -0.8293 C   0  0  0  0  0  0  0  0  0  0  0  0
    3.9164    3.7171   -1.7407 C   0  0  0  0  0  0  0  0  0  0  0  0
    8.8630   -2.7906   -2.2424 C   0  0  0  0  0  0  0  0  0  0  0  0
    4.7339    4.5587   -0.7945 N   0  0  0  0  0  0  0  0  0  0  0  0
   10.0777   -1.9383   -2.5100 N   0  0  0  0  0  0  0  0  0  0  0  0
    5.8825    5.1914   -1.5320 C   0  0  0  0  0  0  0  0  0  0  0  0
    9.8246   -1.1031   -3.7362 C   0  0  0  0  0  0  0  0  0  0  0  0
    5.2629    3.7253    0.3465 C   0  0  0  0  0  0  0  0  0  0  0  0
   11.3144   -2.7646   -2.7289 C   0  0  0  0  0  0  0  0  0  0  0  0
  1  6  2  0  0  0  0
  2  3  2  0  0  0  0
  2  1  1  0  0  0  0
  3  4  1  0  0  0  0
  4 10  1  0  0  0  0
  4  5  2  0  0  0  0
  6  5  1  0  0  0  0
  7  1  1  0  0  0  0
  7 11  1  0  0  0  0
  8  7  2  0  0  0  0
  9 10  2  0  0  0  0
 10 12  1  0  0  0  0
 12 14  1  0  0  0  0
 13 11  1  0  0  0  0
 13 15  1  0  0  0  0
 14 16  1  0  0  0  0
 16 18  1  0  0  0  0
 17 15  1  0  0  0  0
 17 19  1  0  0  0  0
 18 20  1  0  0  0  0
 19 23  1  0  0  0  0
 20 22  1  0  0  0  0
 20 24  1  0  0  0  0
 21 19  1  0  0  0  0
M  END
>  <CHROM.1>
151.68138584,-23.29681602,88.40345374,55.89227307,74.58991288,-70.94503917
-169.27259019,166.47912422,-158.89223955,-165.72647092,5.33051288,-0.39066095
-1.59674474,2.32920541,0.11513859,0.00949833

>  <Name>
lig.pdb

>  <RI>
1.71133e+07

>  <Rbt.Current_Directory>
/home/itssahil/PROJECTS/Mol_Feturizer/New_Systems/rnas/2l94

>  <Rbt.Executable>
rbdock ($Id: //depot/dev/client3/rdock/2013.1/src/exe/rbdock.cxx#4 $)

>  <Rbt.Library>
libRbt.so (2013.1, Build901 2013/11/27)

>  <Rbt.Parameter_File>
/export/apps/rDock/src/rDock_2013.1_src/data/scripts/dock_solv.prm

>  <Rbt.Receptor>
prm/pocket_docking_5.prm

>  <SCORE>
-16.4401

>  <SCORE.INTER>
-16.2854

>  <SCORE.INTER.CONST>
1

>  <SCORE.INTER.POLAR>
-2.12954

>  <SCORE.INTER.ROT>
10

>  <SCORE.INTER.SOLV>
10.787

>  <SCORE.INTER.VDW>
-17.6208

>  <SCORE.INTER.norm>
-0.67856

>  <SCORE.INTRA>
-0.154664

>  <SCORE.INTRA.DIHEDRAL>
5.79308

>  <SCORE.INTRA.DIHEDRAL.0>
7.52971

>  <SCORE.INTRA.POLAR>
0

>  <SCORE.INTRA.POLAR.0>
0

>  <SCORE.INTRA.REPUL>
0

>  <SCORE.INTRA.REPUL.0>
0

>  <SCORE.INTRA.SOLV>
0.716886

>  <SCORE.INTRA.SOLV.lig_0>
-22.1084

>  <SCORE.INTRA.VDW>
-3.40965

>  <SCORE.INTRA.VDW.0>
2.4256

>  <SCORE.INTRA.norm>
-0.00644435

>  <SCORE.RESTR>
0

>  <SCORE.RESTR.CAVITY>
0

>  <SCORE.RESTR.norm>
0

>  <SCORE.SYSTEM>
0

>  <SCORE.SYSTEM.CONST>
0

>  <SCORE.SYSTEM.DIHEDRAL>
0

>  <SCORE.SYSTEM.SOLV>
0

>  <SCORE.SYSTEM.norm>
0

>  <SCORE.heavy>
24

>  <SCORE.norm>
-0.685004

>  <RMSD>
3.605

$$$$
lig.pdb
 OpenBabel11021811453D
libRbt.so/2013.1/901 2013/11/27
 24 24  0  0  0  0  0  0  0  0999 V2000
    5.4032   -2.3523   -3.2506 C   0  0  0  0  0  0  0  0  0  0  0  0
    6.0493   -3.6270   -3.3873 C   0  0  0  0  0  0  0  0  0  0  0  0
    7.3044   -3.8604   -2.8768 C   0  0  0  0  0  0  0  0  0  0  0  0
    8.0309   -2.8477   -2.1726 C   0  0  0  0  0  0  0  0  0  0  0  0
    7.3985   -1.5653   -2.0663 C   0  0  0  0  0  0  0  0  0  0  0  0
    6.1490   -1.3288   -2.5825 C   0  0  0  0  0  0  0  0  0  0  0  0
    4.1443   -2.1195   -3.7258 C   0  0  0  0  0  0  0  0  0  0  0  0
    3.3546   -3.0997   -4.2144 N   0  0  0  0  0  0  0  0  0  0  0  0
   10.1828   -3.8854   -2.1978 N   0  0  0  0  0  0  0  0  0  0  0  0
    9.2607   -3.0789   -1.6307 C   0  0  0  0  0  0  0  0  0  0  0  0
    3.5894   -0.8821   -3.7387 N   0  0  0  0  0  0  0  0  0  0  0  0
    9.6622   -2.5147   -0.4669 N   0  0  0  0  0  0  0  0  0  0  0  0
    2.1834   -0.5530   -3.5126 C   0  0  0  0  0  0  0  0  0  0  0  0
   11.0428   -2.3279   -0.0316 C   0  0  0  0  0  0  0  0  0  0  0  0
    1.9889   -0.3095   -2.0073 C   0  0  0  0  0  0  0  0  0  0  0  0
   11.1987   -0.8681    0.4337 C   0  0  0  0  0  0  0  0  0  0  0  0
    2.5376    1.0644   -1.5982 C   0  0  0  0  0  0  0  0  0  0  0  0
   12.5608   -0.5991    1.0987 C   0  0  0  0  0  0  0  0  0  0  0  0
    1.6120    2.1410   -2.1041 N   0  0  0  0  0  0  0  0  0  0  0  0
   12.7363    0.8614    1.4297 N   0  0  0  0  0  0  0  0  0  0  0  0
    2.2798    3.4848   -1.9953 C   0  0  0  0  0  0  0  0  0  0  0  0
   13.1873    1.5892    0.1918 C   0  0  0  0  0  0  0  0  0  0  0  0
    0.3220    2.1524   -1.3219 C   0  0  0  0  0  0  0  0  0  0  0  0
   13.7481    1.0793    2.5200 C   0  0  0  0  0  0  0  0  0  0  0  0
  1  6  2  0  0  0  0
  2  3  2  0  0  0  0
  2  1  1  0  0  0  0
  3  4  1  0  0  0  0
  4 10  1  0  0  0  0
  4  5  2  0  0  0  0
  6  5  1  0  0  0  0
  7  1  1  0  0  0  0
  7 11  1  0  0  0  0
  8  7  2  0  0  0  0
  9 10  2  0  0  0  0
 10 12  1  0  0  0  0
 12 14  1  0  0  0  0
 13 11  1  0  0  0  0
 13 15  1  0  0  0  0
 14 16  1  0  0  0  0
 16 18  1  0  0  0  0
 17 15  1  0  0  0  0
 17 19  1  0  0  0  0
 18 20  1  0  0  0  0
 19 23  1  0  0  0  0
 20 22  1  0  0  0  0
 20 24  1  0  0  0  0
 21 19  1  0  0  0  0
M  END
>  <CHROM.1>
35.34628292,8.01159237,130.92683127,90.18046505,76.21866474,172.06802603
174.79030251,73.12418298,-167.05921432,-81.89940234,6.92119473,-0.90182317
-1.59428304,-3.06842667,-0.32095858,0.48305544

>  <Name>
lig.pdb

>  <RI>
0

>  <Rbt.Current_Directory>
/home/itssahil/PROJECTS/Mol_Feturizer/New_Systems/rnas/2l94

>  <Rbt.Executable>
rbdock ($Id: //depot/dev/client3/rdock/2013.1/src/exe/rbdock.cxx#4 $)

>  <Rbt.Library>
libRbt.so (2013.1, Build901 2013/11/27)

>  <Rbt.Parameter_File>
/export/apps/rDock/src/rDock_2013.1_src/data/scripts/dock_solv.prm

>  <Rbt.Receptor>
prm/pocket_docking_4.prm

>  <SCORE>
-18.4936

>  <SCORE.INTER>
-18.4636

>  <SCORE.INTER.CONST>
1

>  <SCORE.INTER.POLAR>
-3.19336

>  <SCORE.INTER.ROT>
10

>  <SCORE.INTER.SOLV>
13.3929

>  <SCORE.INTER.VDW>
-16.3955

>  <SCORE.INTER.norm>
-0.769315

>  <SCORE.INTRA>
-0.0300847

>  <SCORE.INTRA.DIHEDRAL>
5.21584

>  <SCORE.INTRA.DIHEDRAL.0>
7.52971

>  <SCORE.INTRA.POLAR>
0

>  <SCORE.INTRA.POLAR.0>
0

>  <SCORE.INTRA.REPUL>
0

>  <SCORE.INTRA.REPUL.0>
0

>  <SCORE.INTRA.SOLV>
0.0644571

>  <SCORE.INTRA.SOLV.lig_0>
-22.1084

>  <SCORE.INTRA.VDW>
-2.67023

>  <SCORE.INTRA.VDW.0>
2.4256

>  <SCORE.INTRA.norm>
-0.00125353

>  <SCORE.RESTR>
0

>  <SCORE.RESTR.CAVITY>
0

>  <SCORE.RESTR.norm>
0

>  <SCORE.SYSTEM>
0

>  <SCORE.SYSTEM.CONST>
0

>  <SCORE.SYSTEM.DIHEDRAL>
0

>  <SCORE.SYSTEM.SOLV>
0

>  <SCORE.SYSTEM.norm>
0

>  <SCORE.heavy>
24

>  <SCORE.norm>
-0.770568

>  <RMSD>
3.629

$$$$
lig.pdb
 OpenBabel11021811453D
libRbt.so/2013.1/901 2013/11/27
 24 24  0  0  0  0  0  0  0  0999 V2000
    5.0303   -1.6834   -0.9084 C   0  0  0  0  0  0  0  0  0  0  0  0
    5.5609   -2.3367   -2.0715 C   0  0  0  0  0  0  0  0  0  0  0  0
    6.8799   -2.7163   -2.1496 C   0  0  0  0  0  0  0  0  0  0  0  0
    7.7936   -2.4896   -1.0712 C   0  0  0  0  0  0  0  0  0  0  0  0
    7.2706   -1.8069    0.0761 C   0  0  0  0  0  0  0  0  0  0  0  0
    5.9559   -1.4202    0.1519 C   0  0  0  0  0  0  0  0  0  0  0  0
    3.7149   -1.3309   -0.8077 C   0  0  0  0  0  0  0  0  0  0  0  0
    3.0911   -1.1661    0.3784 N   0  0  0  0  0  0  0  0  0  0  0  0
    9.5233   -3.9218   -1.8868 N   0  0  0  0  0  0  0  0  0  0  0  0
    9.0948   -2.8944   -1.1233 C   0  0  0  0  0  0  0  0  0  0  0  0
    2.9347   -1.1153   -1.8958 N   0  0  0  0  0  0  0  0  0  0  0  0
   10.0740   -2.2946   -0.4054 N   0  0  0  0  0  0  0  0  0  0  0  0
    1.8685   -0.1237   -2.0234 C   0  0  0  0  0  0  0  0  0  0  0  0
   11.5034   -2.3328   -0.6986 C   0  0  0  0  0  0  0  0  0  0  0  0
    2.5209    1.2455   -2.2738 C   0  0  0  0  0  0  0  0  0  0  0  0
   12.1496   -1.0863   -0.0659 C   0  0  0  0  0  0  0  0  0  0  0  0
    3.4325    1.6413   -1.1041 C   0  0  0  0  0  0  0  0  0  0  0  0
   13.0838   -0.3435   -1.0382 C   0  0  0  0  0  0  0  0  0  0  0  0
    4.1922    2.8918   -1.4660 N   0  0  0  0  0  0  0  0  0  0  0  0
   14.3926   -1.0713   -1.2131 N   0  0  0  0  0  0  0  0  0  0  0  0
    5.2812    2.5638   -2.4507 C   0  0  0  0  0  0  0  0  0  0  0  0
   15.0318   -1.2528    0.1374 C   0  0  0  0  0  0  0  0  0  0  0  0
    4.7951    3.5290   -0.2386 C   0  0  0  0  0  0  0  0  0  0  0  0
   15.3431   -0.3243   -2.1066 C   0  0  0  0  0  0  0  0  0  0  0  0
  1  6  2  0  0  0  0
  2  3  2  0  0  0  0
  2  1  1  0  0  0  0
  3  4  1  0  0  0  0
  4 10  1  0  0  0  0
  4  5  2  0  0  0  0
  6  5  1  0  0  0  0
  7  1  1  0  0  0  0
  7 11  1  0  0  0  0
  8  7  2  0  0  0  0
  9 10  2  0  0  0  0
 10 12  1  0  0  0  0
 12 14  1  0  0  0  0
 13 11  1  0  0  0  0
 13 15  1  0  0  0  0
 14 16  1  0  0  0  0
 16 18  1  0  0  0  0
 17 15  1  0  0  0  0
 17 19  1  0  0  0  0
 18 20  1  0  0  0  0
 19 23  1  0  0  0  0
 20 22  1  0  0  0  0
 20 24  1  0  0  0  0
 21 19  1  0  0  0  0
M  END
>  <CHROM.1>
-25.49156217,155.90154549,155.36410917,78.16451468,-60.65555031,-132.21842438
-75.44060969,172.47609829,-74.45316284,-56.52213711,7.57934698,-0.77607836
-1.09805721,2.94985530,-0.03321388,-0.03448962

>  <Name>
lig.pdb

>  <RI>
1.09765e+07

>  <Rbt.Current_Directory>
/home/itssahil/PROJECTS/Mol_Feturizer/New_Systems/rnas/2l94

>  <Rbt.Executable>
rbdock ($Id: //depot/dev/client3/rdock/2013.1/src/exe/rbdock.cxx#4 $)

>  <Rbt.Library>
libRbt.so (2013.1, Build901 2013/11/27)

>  <Rbt.Parameter_File>
/export/apps/rDock/src/rDock_2013.1_src/data/scripts/dock_solv.prm

>  <Rbt.Receptor>
prm/pocket_docking_3.prm

>  <SCORE>
-7.22363

>  <SCORE.INTER>
-10.9976

>  <SCORE.INTER.CONST>
1

>  <SCORE.INTER.POLAR>
-2.47184

>  <SCORE.INTER.ROT>
10

>  <SCORE.INTER.SOLV>
8.40026

>  <SCORE.INTER.VDW>
-12.159

>  <SCORE.INTER.norm>
-0.458234

>  <SCORE.INTRA>
3.7674

>  <SCORE.INTRA.DIHEDRAL>
8.38292

>  <SCORE.INTRA.DIHEDRAL.0>
7.52971

>  <SCORE.INTRA.POLAR>
0

>  <SCORE.INTRA.POLAR.0>
0

>  <SCORE.INTRA.REPUL>
0

>  <SCORE.INTRA.REPUL.0>
0

>  <SCORE.INTRA.SOLV>
0.513369

>  <SCORE.INTRA.SOLV.lig_0>
-22.1084

>  <SCORE.INTRA.VDW>
-0.680749

>  <SCORE.INTRA.VDW.0>
2.4256

>  <SCORE.INTRA.norm>
0.156975

>  <SCORE.RESTR>
0.00659107

>  <SCORE.RESTR.CAVITY>
0.00659107

>  <SCORE.RESTR.norm>
0.000274628

>  <SCORE.SYSTEM>
0

>  <SCORE.SYSTEM.CONST>
0

>  <SCORE.SYSTEM.DIHEDRAL>
0

>  <SCORE.SYSTEM.SOLV>
0

>  <SCORE.SYSTEM.norm>
0

>  <SCORE.heavy>
24

>  <SCORE.norm>
-0.300984

>  <RMSD>
3.634

$$$$
lig.pdb
 OpenBabel11021811453D
libRbt.so/2013.1/901 2013/11/27
 24 24  0  0  0  0  0  0  0  0999 V2000
    7.0790    1.3291    1.2100 C   0  0  0  0  0  0  0  0  0  0  0  0
    8.2544    1.5726    0.4224 C   0  0  0  0  0  0  0  0  0  0  0  0
    9.0697    0.5479    0.0035 C   0  0  0  0  0  0  0  0  0  0  0  0
    8.7852   -0.8186    0.3217 C   0  0  0  0  0  0  0  0  0  0  0  0
    7.6298   -1.0572    1.1366 C   0  0  0  0  0  0  0  0  0  0  0  0
    6.8197   -0.0343    1.5621 C   0  0  0  0  0  0  0  0  0  0  0  0
    6.2453    2.3362    1.6042 C   0  0  0  0  0  0  0  0  0  0  0  0
    6.3828    3.6090    1.1753 N   0  0  0  0  0  0  0  0  0  0  0  0
    9.2501   -3.1466    0.0528 N   0  0  0  0  0  0  0  0  0  0  0  0
    9.5666   -1.8456   -0.1190 C   0  0  0  0  0  0  0  0  0  0  0  0
    5.2102    2.1315    2.4561 N   0  0  0  0  0  0  0  0  0  0  0  0
   10.7367   -1.6438   -0.7701 N   0  0  0  0  0  0  0  0  0  0  0  0
    3.9073    2.7930    2.4223 C   0  0  0  0  0  0  0  0  0  0  0  0
   11.4090   -2.5963   -1.6483 C   0  0  0  0  0  0  0  0  0  0  0  0
    2.8959    1.8182    1.7980 C   0  0  0  0  0  0  0  0  0  0  0  0
   11.9413   -1.8210   -2.8679 C   0  0  0  0  0  0  0  0  0  0  0  0
    1.4892    2.4318    1.7673 C   0  0  0  0  0  0  0  0  0  0  0  0
   13.1280   -0.9051   -2.5175 C   0  0  0  0  0  0  0  0  0  0  0  0
    0.5083    1.4033    1.2655 N   0  0  0  0  0  0  0  0  0  0  0  0
   13.3510    0.1423   -3.5790 N   0  0  0  0  0  0  0  0  0  0  0  0
    0.5737    1.3211   -0.2353 C   0  0  0  0  0  0  0  0  0  0  0  0
   14.7429    0.6954   -3.4309 C   0  0  0  0  0  0  0  0  0  0  0  0
   -0.8972    1.7473    1.6925 C   0  0  0  0  0  0  0  0  0  0  0  0
   12.3638    1.2716   -3.4790 C   0  0  0  0  0  0  0  0  0  0  0  0
  1  6  2  0  0  0  0
  2  3  2  0  0  0  0
  2  1  1  0  0  0  0
  3  4  1  0  0  0  0
  4 10  1  0  0  0  0
  4  5  2  0  0  0  0
  6  5  1  0  0  0  0
  7  1  1  0  0  0  0
  7 11  1  0  0  0  0
  8  7  2  0  0  0  0
  9 10  2  0  0  0  0
 10 12  1  0  0  0  0
 12 14  1  0  0  0  0
 13 11  1  0  0  0  0
 13 15  1  0  0  0  0
 14 16  1  0  0  0  0
 16 18  1  0  0  0  0
 17 15  1  0  0  0  0
 17 19  1  0  0  0  0
 18 20  1  0  0  0  0
 19 23  1  0  0  0  0
 20 22  1  0  0  0  0
 20 24  1  0  0  0  0
 21 19  1  0  0  0  0
M  END
>  <CHROM.1>
-173.18805594,6.90404341,138.24995222,101.96771822,178.32375684,70.80700813
-162.10708051,-174.93067625,-79.97650227,-161.61079460,7.49850608,0.48141425
-0.02787627,-2.92235474,-0.36786570,3.10086944

>  <Name>
lig.pdb

>  <RI>
1.71133e+07

>  <Rbt.Current_Directory>
/home/itssahil/PROJECTS/Mol_Feturizer/New_Systems/rnas/2l94

>  <Rbt.Executable>
rbdock ($Id: //depot/dev/client3/rdock/2013.1/src/exe/rbdock.cxx#4 $)

>  <Rbt.Library>
libRbt.so (2013.1, Build901 2013/11/27)

>  <Rbt.Parameter_File>
/export/apps/rDock/src/rDock_2013.1_src/data/scripts/dock_solv.prm

>  <Rbt.Receptor>
prm/pocket_docking_5.prm

>  <SCORE>
-19.5913

>  <SCORE.INTER>
-17.7135

>  <SCORE.INTER.CONST>
1

>  <SCORE.INTER.POLAR>
-1.77161

>  <SCORE.INTER.ROT>
10

>  <SCORE.INTER.SOLV>
11.3464

>  <SCORE.INTER.VDW>
-19.9524

>  <SCORE.INTER.norm>
-0.738061

>  <SCORE.INTRA>
-1.87779

>  <SCORE.INTRA.DIHEDRAL>
1.01088

>  <SCORE.INTRA.DIHEDRAL.0>
7.52971

>  <SCORE.INTRA.POLAR>
0

>  <SCORE.INTRA.POLAR.0>
0

>  <SCORE.INTRA.REPUL>
0

>  <SCORE.INTRA.REPUL.0>
0

>  <SCORE.INTRA.SOLV>
0.0032665

>  <SCORE.INTRA.SOLV.lig_0>
-22.1084

>  <SCORE.INTRA.VDW>
-2.38486

>  <SCORE.INTRA.VDW.0>
2.4256

>  <SCORE.INTRA.norm>
-0.0782412

>  <SCORE.RESTR>
0

>  <SCORE.RESTR.CAVITY>
0

>  <SCORE.RESTR.norm>
0

>  <SCORE.SYSTEM>
0

>  <SCORE.SYSTEM.CONST>
0

>  <SCORE.SYSTEM.DIHEDRAL>
0

>  <SCORE.SYSTEM.SOLV>
0

>  <SCORE.SYSTEM.norm>
0

>  <SCORE.heavy>
24

>  <SCORE.norm>
-0.816302

>  <RMSD>
3.651

$$$$
lig.pdb
 OpenBabel11021811453D
libRbt.so/2013.1/901 2013/11/27
 24 24  0  0  0  0  0  0  0  0999 V2000
    5.8936   -1.3321    1.6404 C   0  0  0  0  0  0  0  0  0  0  0  0
    6.7508   -0.3922    0.9750 C   0  0  0  0  0  0  0  0  0  0  0  0
    7.8816   -0.7935    0.3039 C   0  0  0  0  0  0  0  0  0  0  0  0
    8.2601   -2.1718    0.2238 C   0  0  0  0  0  0  0  0  0  0  0  0
    7.4216   -3.1056    0.9171 C   0  0  0  0  0  0  0  0  0  0  0  0
    6.2970   -2.7052    1.5943 C   0  0  0  0  0  0  0  0  0  0  0  0
    4.7514   -0.9478    2.2826 C   0  0  0  0  0  0  0  0  0  0  0  0
    4.7082    0.1002    3.1328 N   0  0  0  0  0  0  0  0  0  0  0  0
   10.0025   -3.7451   -0.2201 N   0  0  0  0  0  0  0  0  0  0  0  0
    9.3593   -2.5848   -0.4696 C   0  0  0  0  0  0  0  0  0  0  0  0
    3.5695   -1.5902    2.1107 N   0  0  0  0  0  0  0  0  0  0  0  0
    9.9029   -1.8576   -1.4744 N   0  0  0  0  0  0  0  0  0  0  0  0
    2.2402   -0.9829    2.0911 C   0  0  0  0  0  0  0  0  0  0  0  0
   10.7579   -2.3678   -2.5418 C   0  0  0  0  0  0  0  0  0  0  0  0
    2.1795   -0.0112    0.9015 C   0  0  0  0  0  0  0  0  0  0  0  0
   12.2187   -2.2749   -2.0631 C   0  0  0  0  0  0  0  0  0  0  0  0
    0.7482    0.4976    0.6809 C   0  0  0  0  0  0  0  0  0  0  0  0
   12.8191   -0.8707   -2.2575 C   0  0  0  0  0  0  0  0  0  0  0  0
    0.7858    1.7284   -0.1884 N   0  0  0  0  0  0  0  0  0  0  0  0
   14.3212   -0.8883   -2.1282 N   0  0  0  0  0  0  0  0  0  0  0  0
   -0.3281    2.6632    0.1972 C   0  0  0  0  0  0  0  0  0  0  0  0
   14.6825   -0.9310   -0.6676 C   0  0  0  0  0  0  0  0  0  0  0  0
    0.6566    1.3615   -1.6460 C   0  0  0  0  0  0  0  0  0  0  0  0
   14.9595    0.3204   -2.7538 C   0  0  0  0  0  0  0  0  0  0  0  0
  1  6  2  0  0  0  0
  2  3  2  0  0  0  0
  2  1  1  0  0  0  0
  3  4  1  0  0  0  0
  4 10  1  0  0  0  0
  4  5  2  0  0  0  0
  6  5  1  0  0  0  0
  7  1  1  0  0  0  0
  7 11  1  0  0  0  0
  8  7  2  0  0  0  0
  9 10  2  0  0  0  0
 10 12  1  0  0  0  0
 12 14  1  0  0  0  0
 13 11  1  0  0  0  0
 13 15  1  0  0  0  0
 14 16  1  0  0  0  0
 16 18  1  0  0  0  0
 17 15  1  0  0  0  0
 17 19  1  0  0  0  0
 18 20  1  0  0  0  0
 19 23  1  0  0  0  0
 20 22  1  0  0  0  0
 20 24  1  0  0  0  0
 21 19  1  0  0  0  0
M  END
>  <CHROM.1>
156.90800632,-46.92000305,-90.09798137,62.55530746,170.99563588,-82.37317588
-165.10092895,163.09220868,-147.32763231,-78.65194439,7.13226929,-0.91105935
-0.00779997,-3.11224537,0.27757916,-0.77551226

>  <Name>
lig.pdb

>  <RI>
0

>  <Rbt.Current_Directory>
/home/itssahil/PROJECTS/Mol_Feturizer/New_Systems/rnas/2l94

>  <Rbt.Executable>
rbdock ($Id: //depot/dev/client3/rdock/2013.1/src/exe/rbdock.cxx#4 $)

>  <Rbt.Library>
libRbt.so (2013.1, Build901 2013/11/27)

>  <Rbt.Parameter_File>
/export/apps/rDock/src/rDock_2013.1_src/data/scripts/dock_solv.prm

>  <Rbt.Receptor>
prm/pocket_docking_4.prm

>  <SCORE>
-23.6174

>  <SCORE.INTER>
-27.4373

>  <SCORE.INTER.CONST>
1

>  <SCORE.INTER.POLAR>
-3.99233

>  <SCORE.INTER.ROT>
10

>  <SCORE.INTER.SOLV>
8.39983

>  <SCORE.INTER.VDW>
-18.0504

>  <SCORE.INTER.norm>
-1.14322

>  <SCORE.INTRA>
3.33101

>  <SCORE.INTRA.DIHEDRAL>
12.6508

>  <SCORE.INTRA.DIHEDRAL.0>
7.52971

>  <SCORE.INTRA.POLAR>
0

>  <SCORE.INTRA.POLAR.0>
0

>  <SCORE.INTRA.REPUL>
0

>  <SCORE.INTRA.REPUL.0>
0

>  <SCORE.INTRA.SOLV>
0.153167

>  <SCORE.INTRA.SOLV.lig_0>
-22.1084

>  <SCORE.INTRA.VDW>
-3.07099

>  <SCORE.INTRA.VDW.0>
2.4256

>  <SCORE.INTRA.norm>
0.138792

>  <SCORE.RESTR>
0.488901

>  <SCORE.RESTR.CAVITY>
0.488901

>  <SCORE.RESTR.norm>
0.0203709

>  <SCORE.SYSTEM>
0

>  <SCORE.SYSTEM.CONST>
0

>  <SCORE.SYSTEM.DIHEDRAL>
0

>  <SCORE.SYSTEM.SOLV>
0

>  <SCORE.SYSTEM.norm>
0

>  <SCORE.heavy>
24

>  <SCORE.norm>
-0.98406

>  <RMSD>
3.698

$$$$
lig.pdb
 OpenBabel11021811453D
libRbt.so/2013.1/901 2013/11/27
 24 24  0  0  0  0  0  0  0  0999 V2000
    4.7861   -2.2079   -1.6559 C   0  0  0  0  0  0  0  0  0  0  0  0
    5.4483   -2.0266   -0.3950 C   0  0  0  0  0  0  0  0  0  0  0  0
    6.7713   -2.3565   -0.2186 C   0  0  0  0  0  0  0  0  0  0  0  0
    7.5630   -2.8894   -1.2856 C   0  0  0  0  0  0  0  0  0  0  0  0
    6.8915   -3.1014   -2.5346 C   0  0  0  0  0  0  0  0  0  0  0  0
    5.5687   -2.7800   -2.7096 C   0  0  0  0  0  0  0  0  0  0  0  0
    3.4817   -1.8540   -1.8507 C   0  0  0  0  0  0  0  0  0  0  0  0
    2.5066   -2.1377   -0.9608 N   0  0  0  0  0  0  0  0  0  0  0  0
    9.5850   -3.9364   -2.0091 N   0  0  0  0  0  0  0  0  0  0  0  0
    8.8851   -3.1860   -1.1320 C   0  0  0  0  0  0  0  0  0  0  0  0
    3.0671   -1.1848   -2.9550 N   0  0  0  0  0  0  0  0  0  0  0  0
    9.6121   -2.7496   -0.0760 N   0  0  0  0  0  0  0  0  0  0  0  0
    2.0192   -0.1679   -3.0180 C   0  0  0  0  0  0  0  0  0  0  0  0
   11.0651   -2.6205   -0.0253 C   0  0  0  0  0  0  0  0  0  0  0  0
    2.2435    0.8175   -1.8596 C   0  0  0  0  0  0  0  0  0  0  0  0
   11.4196   -1.1495   -0.3119 C   0  0  0  0  0  0  0  0  0  0  0  0
    3.5715    1.5686   -2.0273 C   0  0  0  0  0  0  0  0  0  0  0  0
   12.9201   -0.8548   -0.1344 C   0  0  0  0  0  0  0  0  0  0  0  0
    3.4022    2.6551   -3.0582 N   0  0  0  0  0  0  0  0  0  0  0  0
   13.3193   -0.8718    1.3195 N   0  0  0  0  0  0  0  0  0  0  0  0
    4.7418    3.0352   -3.6279 C   0  0  0  0  0  0  0  0  0  0  0  0
   13.0228    0.4760    1.9204 C   0  0  0  0  0  0  0  0  0  0  0  0
    2.7457    3.8719   -2.4543 C   0  0  0  0  0  0  0  0  0  0  0  0
   14.7794   -1.1780    1.5042 C   0  0  0  0  0  0  0  0  0  0  0  0
  1  6  2  0  0  0  0
  2  3  2  0  0  0  0
  2  1  1  0  0  0  0
  3  4  1  0  0  0  0
  4 10  1  0  0  0  0
  4  5  2  0  0  0  0
  6  5  1  0  0  0  0
  7  1  1  0  0  0  0
  7 11  1  0  0  0  0
  8  7  2  0  0  0  0
  9 10  2  0  0  0  0
 10 12  1  0  0  0  0
 12 14  1  0  0  0  0
 13 11  1  0  0  0  0
 13 15  1  0  0  0  0
 14 16  1  0  0  0  0
 16 18  1  0  0  0  0
 17 15  1  0  0  0  0
 17 19  1  0  0  0  0
 18 20  1  0  0  0  0
 19 23  1  0  0  0  0
 20 22  1  0  0  0  0
 20 24  1  0  0  0  0
 21 19  1  0  0  0  0
M  END
>  <CHROM.1>
165.72367054,-44.45008695,97.85546183,46.33691221,64.26754921,173.73359455
-71.60413628,77.70158656,-158.00443755,-83.93216142,7.09911149,-0.97264937
-1.21935684,2.93445589,-0.30918404,-0.00155118

>  <Name>
lig.pdb

>  <RI>
0

>  <Rbt.Current_Directory>
/home/itssahil/PROJECTS/Mol_Feturizer/New_Systems/rnas/2l94

>  <Rbt.Executable>
rbdock ($Id: //depot/dev/client3/rdock/2013.1/src/exe/rbdock.cxx#4 $)

>  <Rbt.Library>
libRbt.so (2013.1, Build901 2013/11/27)

>  <Rbt.Parameter_File>
/export/apps/rDock/src/rDock_2013.1_src/data/scripts/dock_solv.prm

>  <Rbt.Receptor>
prm/pocket_docking_4.prm

>  <SCORE>
-18.1112

>  <SCORE.INTER>
-19.6164

>  <SCORE.INTER.CONST>
1

>  <SCORE.INTER.POLAR>
-3.22372

>  <SCORE.INTER.ROT>
10

>  <SCORE.INTER.SOLV>
13.6221

>  <SCORE.INTER.VDW>
-17.1392

>  <SCORE.INTER.norm>
-0.817349

>  <SCORE.INTRA>
1.4693

>  <SCORE.INTRA.DIHEDRAL>
8.41383

>  <SCORE.INTRA.DIHEDRAL.0>
7.52971

>  <SCORE.INTRA.POLAR>
0

>  <SCORE.INTRA.POLAR.0>
0

>  <SCORE.INTRA.REPUL>
0

>  <SCORE.INTRA.REPUL.0>
0

>  <SCORE.INTRA.SOLV>
0.55751

>  <SCORE.INTRA.SOLV.lig_0>
-22.1084

>  <SCORE.INTRA.VDW>
-3.01637

>  <SCORE.INTRA.VDW.0>
2.4256

>  <SCORE.INTRA.norm>
0.0612208

>  <SCORE.RESTR>
0.0358649

>  <SCORE.RESTR.CAVITY>
0.0358649

>  <SCORE.RESTR.norm>
0.00149437

>  <SCORE.SYSTEM>
0

>  <SCORE.SYSTEM.CONST>
0

>  <SCORE.SYSTEM.DIHEDRAL>
0

>  <SCORE.SYSTEM.SOLV>
0

>  <SCORE.SYSTEM.norm>
0

>  <SCORE.heavy>
24

>  <SCORE.norm>
-0.754634

>  <RMSD>
3.712

$$$$
lig.pdb
 OpenBabel11021811453D
libRbt.so/2013.1/901 2013/11/27
 24 24  0  0  0  0  0  0  0  0999 V2000
    6.3940    2.9490    0.1297 C   0  0  0  0  0  0  0  0  0  0  0  0
    7.4239    2.9888   -0.8696 C   0  0  0  0  0  0  0  0  0  0  0  0
    8.5509    2.2066   -0.7787 C   0  0  0  0  0  0  0  0  0  0  0  0
    8.7537    1.3025    0.3126 C   0  0  0  0  0  0  0  0  0  0  0  0
    7.7404    1.2885    1.3269 C   0  0  0  0  0  0  0  0  0  0  0  0
    6.6188    2.0749    1.2413 C   0  0  0  0  0  0  0  0  0  0  0  0
    5.2562    3.6979    0.0329 C   0  0  0  0  0  0  0  0  0  0  0  0
    4.9787    4.4703   -1.0393 N   0  0  0  0  0  0  0  0  0  0  0  0
   10.2706   -0.0721    1.5444 N   0  0  0  0  0  0  0  0  0  0  0  0
    9.8500    0.4957    0.3943 C   0  0  0  0  0  0  0  0  0  0  0  0
    4.3144    3.7188    1.0084 N   0  0  0  0  0  0  0  0  0  0  0  0
   10.6159    0.1956   -0.6815 N   0  0  0  0  0  0  0  0  0  0  0  0
    2.8680    3.8198    0.8239 C   0  0  0  0  0  0  0  0  0  0  0  0
   11.5022   -0.9567   -0.8132 C   0  0  0  0  0  0  0  0  0  0  0  0
    2.1944    2.8584    1.8164 C   0  0  0  0  0  0  0  0  0  0  0  0
   10.7345   -2.2016   -0.3308 C   0  0  0  0  0  0  0  0  0  0  0  0
    0.6801    3.1021    1.8749 C   0  0  0  0  0  0  0  0  0  0  0  0
    9.3543   -2.3435   -0.9978 C   0  0  0  0  0  0  0  0  0  0  0  0
    0.0587    2.1414    2.8561 N   0  0  0  0  0  0  0  0  0  0  0  0
    8.5937   -3.5244   -0.4498 N   0  0  0  0  0  0  0  0  0  0  0  0
   -1.4406    2.1891    2.7416 C   0  0  0  0  0  0  0  0  0  0  0  0
    8.6442   -4.6436   -1.4550 C   0  0  0  0  0  0  0  0  0  0  0  0
    0.4690    2.4752    4.2690 C   0  0  0  0  0  0  0  0  0  0  0  0
    7.1563   -3.1907   -0.1627 C   0  0  0  0  0  0  0  0  0  0  0  0
  1  6  2  0  0  0  0
  2  3  2  0  0  0  0
  2  1  1  0  0  0  0
  3  4  1  0  0  0  0
  4 10  1  0  0  0  0
  4  5  2  0  0  0  0
  6  5  1  0  0  0  0
  7  1  1  0  0  0  0
  7 11  1  0  0  0  0
  8  7  2  0  0  0  0
  9 10  2  0  0  0  0
 10 12  1  0  0  0  0
 12 14  1  0  0  0  0
 13 11  1  0  0  0  0
 13 15  1  0  0  0  0
 14 16  1  0  0  0  0
 16 18  1  0  0  0  0
 17 15  1  0  0  0  0
 17 19  1  0  0  0  0
 18 20  1  0  0  0  0
 19 23  1  0  0  0  0
 20 22  1  0  0  0  0
 20 24  1  0  0  0  0
 21 19  1  0  0  0  0
M  END
>  <CHROM.1>
160.50279199,3.86495002,46.09561744,138.88302396,169.04382310,51.12735898
-176.73848058,179.97024698,-169.59761660,-103.75506825,6.25366061,0.98987454
0.55507873,-2.68975648,-0.31776844,3.08613216

>  <Name>
lig.pdb

>  <RI>
2.48096e+07

>  <Rbt.Current_Directory>
/home/itssahil/PROJECTS/Mol_Feturizer/New_Systems/rnas/2l94

>  <Rbt.Executable>
rbdock ($Id: //depot/dev/client3/rdock/2013.1/src/exe/rbdock.cxx#4 $)

>  <Rbt.Library>
libRbt.so (2013.1, Build901 2013/11/27)

>  <Rbt.Parameter_File>
/export/apps/rDock/src/rDock_2013.1_src/data/scripts/dock_solv.prm

>  <Rbt.Receptor>
prm/pocket_docking_6.prm

>  <SCORE>
-17.3101

>  <SCORE.INTER>
-17.9566

>  <SCORE.INTER.CONST>
1

>  <SCORE.INTER.POLAR>
-2.61654

>  <SCORE.INTER.ROT>
10

>  <SCORE.INTER.SOLV>
9.66171

>  <SCORE.INTER.VDW>
-16.7365

>  <SCORE.INTER.norm>
-0.748193

>  <SCORE.INTRA>
0.646508

>  <SCORE.INTRA.DIHEDRAL>
2.72362

>  <SCORE.INTRA.DIHEDRAL.0>
7.52971

>  <SCORE.INTRA.POLAR>
0

>  <SCORE.INTRA.POLAR.0>
0

>  <SCORE.INTRA.REPUL>
0

>  <SCORE.INTRA.REPUL.0>
0

>  <SCORE.INTRA.SOLV>
0.472049

>  <SCORE.INTRA.SOLV.lig_0>
-22.1084

>  <SCORE.INTRA.VDW>
-0.951325

>  <SCORE.INTRA.VDW.0>
2.4256

>  <SCORE.INTRA.norm>
0.0269378

>  <SCORE.RESTR>
0

>  <SCORE.RESTR.CAVITY>
0

>  <SCORE.RESTR.norm>
0

>  <SCORE.SYSTEM>
0

>  <SCORE.SYSTEM.CONST>
0

>  <SCORE.SYSTEM.DIHEDRAL>
0

>  <SCORE.SYSTEM.SOLV>
0

>  <SCORE.SYSTEM.norm>
0

>  <SCORE.heavy>
24

>  <SCORE.norm>
-0.721255

>  <RMSD>
3.739

$$$$
lig.pdb
 OpenBabel11021811453D
libRbt.so/2013.1/901 2013/11/27
 24 24  0  0  0  0  0  0  0  0999 V2000
    5.7939   -1.1259    1.4233 C   0  0  0  0  0  0  0  0  0  0  0  0
    6.9285   -1.7708    2.0214 C   0  0  0  0  0  0  0  0  0  0  0  0
    7.8336   -2.4842    1.2717 C   0  0  0  0  0  0  0  0  0  0  0  0
    7.6990   -2.6143   -0.1476 C   0  0  0  0  0  0  0  0  0  0  0  0
    6.5472   -1.9981   -0.7388 C   0  0  0  0  0  0  0  0  0  0  0  0
    5.6386   -1.2925    0.0097 C   0  0  0  0  0  0  0  0  0  0  0  0
    4.9067   -0.3884    2.1540 C   0  0  0  0  0  0  0  0  0  0  0  0
    4.8499   -0.4390    3.5021 N   0  0  0  0  0  0  0  0  0  0  0  0
    8.4266   -4.5547   -1.3366 N   0  0  0  0  0  0  0  0  0  0  0  0
    8.6101   -3.2887   -0.9056 C   0  0  0  0  0  0  0  0  0  0  0  0
    4.0156    0.4562    1.5782 N   0  0  0  0  0  0  0  0  0  0  0  0
    9.7865   -2.7396   -1.2912 N   0  0  0  0  0  0  0  0  0  0  0  0
    3.5591    1.7390    2.1094 C   0  0  0  0  0  0  0  0  0  0  0  0
   10.6060   -3.1653   -2.4216 C   0  0  0  0  0  0  0  0  0  0  0  0
    2.9742    2.5542    0.9448 C   0  0  0  0  0  0  0  0  0  0  0  0
   12.0714   -2.8161   -2.1016 C   0  0  0  0  0  0  0  0  0  0  0  0
    4.0509    2.8621   -0.1049 C   0  0  0  0  0  0  0  0  0  0  0  0
   12.3803   -1.3200   -2.2912 C   0  0  0  0  0  0  0  0  0  0  0  0
    3.4733    3.7723   -1.1584 N   0  0  0  0  0  0  0  0  0  0  0  0
   13.8421   -1.0242   -2.0691 N   0  0  0  0  0  0  0  0  0  0  0  0
    2.4649    3.0236   -1.9866 C   0  0  0  0  0  0  0  0  0  0  0  0
   14.1175   -1.0200   -0.5894 C   0  0  0  0  0  0  0  0  0  0  0  0
    4.5592    4.3162   -2.0534 C   0  0  0  0  0  0  0  0  0  0  0  0
   14.2468    0.3042   -2.6448 C   0  0  0  0  0  0  0  0  0  0  0  0
  1  6  2  0  0  0  0
  2  3  2  0  0  0  0
  2  1  1  0  0  0  0
  3  4  1  0  0  0  0
  4 10  1  0  0  0  0
  4  5  2  0  0  0  0
  6  5  1  0  0  0  0
  7  1  1  0  0  0  0
  7 11  1  0  0  0  0
  8  7  2  0  0  0  0
  9 10  2  0  0  0  0
 10 12  1  0  0  0  0
 12 14  1  0  0  0  0
 13 11  1  0  0  0  0
 13 15  1  0  0  0  0
 14 16  1  0  0  0  0
 16 18  1  0  0  0  0
 17 15  1  0  0  0  0
 17 19  1  0  0  0  0
 18 20  1  0  0  0  0
 19 23  1  0  0  0  0
 20 22  1  0  0  0  0
 20 24  1  0  0  0  0
 21 19  1  0  0  0  0
M  END
>  <CHROM.1>
99.86457257,-14.68213491,-151.94305603,160.17811209,-63.08523240,-77.24337613
-175.84453867,-174.53362599,-69.81213545,-76.87025431,7.51009769,-0.48522978
-0.32377246,2.88196666,0.41474218,-0.48174030

>  <Name>
lig.pdb

>  <RI>
0

>  <Rbt.Current_Directory>
/home/itssahil/PROJECTS/Mol_Feturizer/New_Systems/rnas/2l94

>  <Rbt.Executable>
rbdock ($Id: //depot/dev/client3/rdock/2013.1/src/exe/rbdock.cxx#4 $)

>  <Rbt.Library>
libRbt.so (2013.1, Build901 2013/11/27)

>  <Rbt.Parameter_File>
/export/apps/rDock/src/rDock_2013.1_src/data/scripts/dock_solv.prm

>  <Rbt.Receptor>
prm/pocket_docking_4.prm

>  <SCORE>
-18.2567

>  <SCORE.INTER>
-23.5727

>  <SCORE.INTER.CONST>
1

>  <SCORE.INTER.POLAR>
-3.0137

>  <SCORE.INTER.ROT>
10

>  <SCORE.INTER.SOLV>
10.7326

>  <SCORE.INTER.VDW>
-19.5137

>  <SCORE.INTER.norm>
-0.982198

>  <SCORE.INTRA>
4.82845

>  <SCORE.INTRA.DIHEDRAL>
12.7489

>  <SCORE.INTRA.DIHEDRAL.0>
7.52971

>  <SCORE.INTRA.POLAR>
0

>  <SCORE.INTRA.POLAR.0>
0

>  <SCORE.INTRA.REPUL>
0

>  <SCORE.INTRA.REPUL.0>
0

>  <SCORE.INTRA.SOLV>
-0.0539403

>  <SCORE.INTRA.SOLV.lig_0>
-22.1084

>  <SCORE.INTRA.VDW>
-1.51903

>  <SCORE.INTRA.VDW.0>
2.4256

>  <SCORE.INTRA.norm>
0.201185

>  <SCORE.RESTR>
0.487595

>  <SCORE.RESTR.CAVITY>
0.487595

>  <SCORE.RESTR.norm>
0.0203164

>  <SCORE.SYSTEM>
0

>  <SCORE.SYSTEM.CONST>
0

>  <SCORE.SYSTEM.DIHEDRAL>
0

>  <SCORE.SYSTEM.SOLV>
0

>  <SCORE.SYSTEM.norm>
0

>  <SCORE.heavy>
24

>  <SCORE.norm>
-0.760696

>  <RMSD>
3.768

$$$$
lig.pdb
 OpenBabel11021811453D
libRbt.so/2013.1/901 2013/11/27
 24 24  0  0  0  0  0  0  0  0999 V2000
    8.1672   -3.0173   -0.1958 C   0  0  0  0  0  0  0  0  0  0  0  0
    8.2652   -2.3391    1.0657 C   0  0  0  0  0  0  0  0  0  0  0  0
    7.1541   -2.0618    1.8263 C   0  0  0  0  0  0  0  0  0  0  0  0
    5.8398   -2.4433    1.4061 C   0  0  0  0  0  0  0  0  0  0  0  0
    5.7400   -3.0904    0.1306 C   0  0  0  0  0  0  0  0  0  0  0  0
    6.8478   -3.3605   -0.6334 C   0  0  0  0  0  0  0  0  0  0  0  0
    9.2671   -3.3258   -0.9440 C   0  0  0  0  0  0  0  0  0  0  0  0
    9.1873   -3.9550   -2.1360 N   0  0  0  0  0  0  0  0  0  0  0  0
    4.7576   -2.1686    3.5184 N   0  0  0  0  0  0  0  0  0  0  0  0
    4.7349   -2.2058    2.1692 C   0  0  0  0  0  0  0  0  0  0  0  0
   10.5266   -3.0185   -0.5460 N   0  0  0  0  0  0  0  0  0  0  0  0
    3.5112   -1.9872    1.6318 N   0  0  0  0  0  0  0  0  0  0  0  0
   11.6387   -2.6124   -1.4030 C   0  0  0  0  0  0  0  0  0  0  0  0
    2.3946   -1.3073    2.2809 C   0  0  0  0  0  0  0  0  0  0  0  0
   12.2534   -1.3345   -0.8097 C   0  0  0  0  0  0  0  0  0  0  0  0
    2.5672    0.2065    2.0559 C   0  0  0  0  0  0  0  0  0  0  0  0
   12.7774   -0.4114   -1.9185 C   0  0  0  0  0  0  0  0  0  0  0  0
    1.3664    1.0234    2.5665 C   0  0  0  0  0  0  0  0  0  0  0  0
   14.0881   -0.9476   -2.4346 N   0  0  0  0  0  0  0  0  0  0  0  0
    1.5524    2.4981    2.3131 N   0  0  0  0  0  0  0  0  0  0  0  0
   15.1761   -0.7026   -1.4248 C   0  0  0  0  0  0  0  0  0  0  0  0
    0.5016    3.2585    3.0767 C   0  0  0  0  0  0  0  0  0  0  0  0
   14.4574   -0.2960   -3.7442 C   0  0  0  0  0  0  0  0  0  0  0  0
    1.4406    2.8424    0.8541 C   0  0  0  0  0  0  0  0  0  0  0  0
  1  6  2  0  0  0  0
  2  3  2  0  0  0  0
  2  1  1  0  0  0  0
  3  4  1  0  0  0  0
  4 10  1  0  0  0  0
  4  5  2  0  0  0  0
  6  5  1  0  0  0  0
  7  1  1  0  0  0  0
  7 11  1  0  0  0  0
  8  7  2  0  0  0  0
  9 10  2  0  0  0  0
 10 12  1  0  0  0  0
 12 14  1  0  0  0  0
 13 11  1  0  0  0  0
 13 15  1  0  0  0  0
 14 16  1  0  0  0  0
 16 18  1  0  0  0  0
 17 15  1  0  0  0  0
 17 19  1  0  0  0  0
 18 20  1  0  0  0  0
 19 23  1  0  0  0  0
 20 22  1  0  0  0  0
 20 24  1  0  0  0  0
 21 19  1  0  0  0  0
M  END
>  <CHROM.1>
-30.31814462,-179.52955591,85.08113221,129.82916202,-146.41527553,173.82313657
-179.06816975,-77.00327558,-73.44458871,-168.39844711,7.27665957,-1.21949276
0.34955072,0.16453418,-0.38691789,3.05137685

>  <Name>
lig.pdb

>  <RI>
2.48096e+07

>  <Rbt.Current_Directory>
/home/itssahil/PROJECTS/Mol_Feturizer/New_Systems/rnas/2l94

>  <Rbt.Executable>
rbdock ($Id: //depot/dev/client3/rdock/2013.1/src/exe/rbdock.cxx#4 $)

>  <Rbt.Library>
libRbt.so (2013.1, Build901 2013/11/27)

>  <Rbt.Parameter_File>
/export/apps/rDock/src/rDock_2013.1_src/data/scripts/dock_solv.prm

>  <Rbt.Receptor>
prm/pocket_docking_6.prm

>  <SCORE>
-17.6441

>  <SCORE.INTER>
-18.2749

>  <SCORE.INTER.CONST>
1

>  <SCORE.INTER.POLAR>
-2.11015

>  <SCORE.INTER.ROT>
10

>  <SCORE.INTER.SOLV>
11.2959

>  <SCORE.INTER.VDW>
-19.1814

>  <SCORE.INTER.norm>
-0.761453

>  <SCORE.INTRA>
0.630789

>  <SCORE.INTRA.DIHEDRAL>
5.72756

>  <SCORE.INTRA.DIHEDRAL.0>
7.52971

>  <SCORE.INTRA.POLAR>
0

>  <SCORE.INTRA.POLAR.0>
0

>  <SCORE.INTRA.REPUL>
0

>  <SCORE.INTRA.REPUL.0>
0

>  <SCORE.INTRA.SOLV>
-0.18466

>  <SCORE.INTRA.SOLV.lig_0>
-22.1084

>  <SCORE.INTRA.VDW>
-2.14066

>  <SCORE.INTRA.VDW.0>
2.4256

>  <SCORE.INTRA.norm>
0.0262829

>  <SCORE.RESTR>
0

>  <SCORE.RESTR.CAVITY>
0

>  <SCORE.RESTR.norm>
0

>  <SCORE.SYSTEM>
0

>  <SCORE.SYSTEM.CONST>
0

>  <SCORE.SYSTEM.DIHEDRAL>
0

>  <SCORE.SYSTEM.SOLV>
0

>  <SCORE.SYSTEM.norm>
0

>  <SCORE.heavy>
24

>  <SCORE.norm>
-0.73517

>  <RMSD>
3.770

$$$$
lig.pdb
 OpenBabel11021811453D
libRbt.so/2013.1/901 2013/11/27
 24 24  0  0  0  0  0  0  0  0999 V2000
    5.6449   -2.5956    0.2766 C   0  0  0  0  0  0  0  0  0  0  0  0
    4.3085   -2.1758   -0.0378 C   0  0  0  0  0  0  0  0  0  0  0  0
    3.7510   -1.0534    0.5273 C   0  0  0  0  0  0  0  0  0  0  0  0
    4.4766   -0.2367    1.4524 C   0  0  0  0  0  0  0  0  0  0  0  0
    5.7987   -0.6758    1.7912 C   0  0  0  0  0  0  0  0  0  0  0  0
    6.3535   -1.8008    1.2338 C   0  0  0  0  0  0  0  0  0  0  0  0
    6.2195   -3.6905   -0.3030 C   0  0  0  0  0  0  0  0  0  0  0  0
    5.6269   -4.3874   -1.2961 N   0  0  0  0  0  0  0  0  0  0  0  0
    4.5541    1.6145    2.9608 N   0  0  0  0  0  0  0  0  0  0  0  0
    3.9467    0.8985    1.9910 C   0  0  0  0  0  0  0  0  0  0  0  0
    7.4348   -4.1592    0.0744 N   0  0  0  0  0  0  0  0  0  0  0  0
    2.7550    1.4057    1.5951 N   0  0  0  0  0  0  0  0  0  0  0  0
    8.4482   -4.7568   -0.7929 C   0  0  0  0  0  0  0  0  0  0  0  0
    2.3099    2.7863    1.7575 C   0  0  0  0  0  0  0  0  0  0  0  0
    8.7155   -3.7829   -1.9519 C   0  0  0  0  0  0  0  0  0  0  0  0
    2.1199    3.3903    0.3536 C   0  0  0  0  0  0  0  0  0  0  0  0
    9.9446   -2.9101   -1.6630 C   0  0  0  0  0  0  0  0  0  0  0  0
    3.4038    3.3378   -0.4941 C   0  0  0  0  0  0  0  0  0  0  0  0
   10.4099   -2.2659   -2.9438 N   0  0  0  0  0  0  0  0  0  0  0  0
    3.2244    4.0436   -1.8145 N   0  0  0  0  0  0  0  0  0  0  0  0
   11.8569   -1.8718   -2.8238 C   0  0  0  0  0  0  0  0  0  0  0  0
    2.2657    3.2515   -2.6623 C   0  0  0  0  0  0  0  0  0  0  0  0
    9.5792   -1.0487   -3.2664 C   0  0  0  0  0  0  0  0  0  0  0  0
    4.5221    4.1963   -2.5579 C   0  0  0  0  0  0  0  0  0  0  0  0
  1  6  2  0  0  0  0
  2  3  2  0  0  0  0
  2  1  1  0  0  0  0
  3  4  1  0  0  0  0
  4 10  1  0  0  0  0
  4  5  2  0  0  0  0
  6  5  1  0  0  0  0
  7  1  1  0  0  0  0
  7 11  1  0  0  0  0
  8  7  2  0  0  0  0
  9 10  2  0  0  0  0
 10 12  1  0  0  0  0
 12 14  1  0  0  0  0
 13 11  1  0  0  0  0
 13 15  1  0  0  0  0
 14 16  1  0  0  0  0
 16 18  1  0  0  0  0
 17 15  1  0  0  0  0
 17 19  1  0  0  0  0
 18 20  1  0  0  0  0
 19 23  1  0  0  0  0
 20 22  1  0  0  0  0
 20 24  1  0  0  0  0
 21 19  1  0  0  0  0
M  END
>  <CHROM.1>
173.30862083,6.09178264,116.32142859,53.13244212,96.50195667,-57.91988543
-174.95259270,163.91360236,-157.79115894,-68.57987515,5.76843643,-0.47627805
-0.42255771,0.48714635,-0.66836211,2.56992891

>  <Name>
lig.pdb

>  <RI>
0

>  <Rbt.Current_Directory>
/home/itssahil/PROJECTS/Mol_Feturizer/New_Systems/rnas/2l94

>  <Rbt.Executable>
rbdock ($Id: //depot/dev/client3/rdock/2013.1/src/exe/rbdock.cxx#4 $)

>  <Rbt.Library>
libRbt.so (2013.1, Build901 2013/11/27)

>  <Rbt.Parameter_File>
/export/apps/rDock/src/rDock_2013.1_src/data/scripts/dock_solv.prm

>  <Rbt.Receptor>
prm/pocket_docking_4.prm

>  <SCORE>
-22.508

>  <SCORE.INTER>
-22.5299

>  <SCORE.INTER.CONST>
1

>  <SCORE.INTER.POLAR>
-3.86113

>  <SCORE.INTER.ROT>
10

>  <SCORE.INTER.SOLV>
11.7822

>  <SCORE.INTER.VDW>
-16.3436

>  <SCORE.INTER.norm>
-0.938745

>  <SCORE.INTRA>
0.0218408

>  <SCORE.INTRA.DIHEDRAL>
3.50521

>  <SCORE.INTRA.DIHEDRAL.0>
7.52971

>  <SCORE.INTRA.POLAR>
0

>  <SCORE.INTRA.POLAR.0>
0

>  <SCORE.INTRA.REPUL>
0

>  <SCORE.INTRA.REPUL.0>
0

>  <SCORE.INTRA.SOLV>
0.478631

>  <SCORE.INTRA.SOLV.lig_0>
-22.1084

>  <SCORE.INTRA.VDW>
-1.97008

>  <SCORE.INTRA.VDW.0>
2.4256

>  <SCORE.INTRA.norm>
0.000910035

>  <SCORE.RESTR>
0

>  <SCORE.RESTR.CAVITY>
0

>  <SCORE.RESTR.norm>
0

>  <SCORE.SYSTEM>
0

>  <SCORE.SYSTEM.CONST>
0

>  <SCORE.SYSTEM.DIHEDRAL>
0

>  <SCORE.SYSTEM.SOLV>
0

>  <SCORE.SYSTEM.norm>
0

>  <SCORE.heavy>
24

>  <SCORE.norm>
-0.937835

>  <RMSD>
3.773

$$$$
lig.pdb
 OpenBabel11021811453D
libRbt.so/2013.1/901 2013/11/27
 24 24  0  0  0  0  0  0  0  0999 V2000
    5.3562   -2.6423    1.7106 C   0  0  0  0  0  0  0  0  0  0  0  0
    6.7440   -2.3493    1.9329 C   0  0  0  0  0  0  0  0  0  0  0  0
    7.7049   -2.6438    0.9948 C   0  0  0  0  0  0  0  0  0  0  0  0
    7.3723   -3.2497   -0.2589 C   0  0  0  0  0  0  0  0  0  0  0  0
    5.9906   -3.5724   -0.4655 C   0  0  0  0  0  0  0  0  0  0  0  0
    5.0316   -3.2862    0.4737 C   0  0  0  0  0  0  0  0  0  0  0  0
    4.3901   -2.3250    2.6220 C   0  0  0  0  0  0  0  0  0  0  0  0
    4.6589   -2.1118    3.9279 N   0  0  0  0  0  0  0  0  0  0  0  0
    8.0196   -4.0461   -2.4164 N   0  0  0  0  0  0  0  0  0  0  0  0
    8.3121   -3.5130   -1.2113 C   0  0  0  0  0  0  0  0  0  0  0  0
    3.0838   -2.1957    2.2814 N   0  0  0  0  0  0  0  0  0  0  0  0
    9.6295   -3.2605   -1.0247 N   0  0  0  0  0  0  0  0  0  0  0  0
    2.1248   -1.2460    2.8424 C   0  0  0  0  0  0  0  0  0  0  0  0
   10.6288   -3.0809   -2.0732 C   0  0  0  0  0  0  0  0  0  0  0  0
    2.1048   -0.0020    1.9396 C   0  0  0  0  0  0  0  0  0  0  0  0
   11.3667   -1.7567   -1.8017 C   0  0  0  0  0  0  0  0  0  0  0  0
    1.0738    1.0206    2.4370 C   0  0  0  0  0  0  0  0  0  0  0  0
   12.3740   -1.4001   -2.9099 C   0  0  0  0  0  0  0  0  0  0  0  0
    1.1010    2.2316    1.5399 N   0  0  0  0  0  0  0  0  0  0  0  0
   13.1473   -0.1502   -2.5735 N   0  0  0  0  0  0  0  0  0  0  0  0
    0.4692    3.4035    2.2405 C   0  0  0  0  0  0  0  0  0  0  0  0
   12.2486    1.0425   -2.7617 C   0  0  0  0  0  0  0  0  0  0  0  0
    0.3703    1.9605    0.2482 C   0  0  0  0  0  0  0  0  0  0  0  0
   14.3650    0.0148   -3.4395 C   0  0  0  0  0  0  0  0  0  0  0  0
  1  6  2  0  0  0  0
  2  3  2  0  0  0  0
  2  1  1  0  0  0  0
  3  4  1  0  0  0  0
  4 10  1  0  0  0  0
  4  5  2  0  0  0  0
  6  5  1  0  0  0  0
  7  1  1  0  0  0  0
  7 11  1  0  0  0  0
  8  7  2  0  0  0  0
  9 10  2  0  0  0  0
 10 12  1  0  0  0  0
 12 14  1  0  0  0  0
 13 11  1  0  0  0  0
 13 15  1  0  0  0  0
 14 16  1  0  0  0  0
 16 18  1  0  0  0  0
 17 15  1  0  0  0  0
 17 19  1  0  0  0  0
 18 20  1  0  0  0  0
 19 23  1  0  0  0  0
 20 22  1  0  0  0  0
 20 24  1  0  0  0  0
 21 19  1  0  0  0  0
M  END
>  <CHROM.1>
-177.93824148,-21.24113260,127.65260050,93.94991063,177.70538237,-175.38421452
-176.14902174,179.10731239,-161.06378180,-74.47720293,6.58352992,-1.30527759
0.15316267,3.08489884,0.44811867,-0.25570805

>  <Name>
lig.pdb

>  <RI>
9.7521e+06

>  <Rbt.Current_Directory>
/home/itssahil/PROJECTS/Mol_Feturizer/New_Systems/rnas/2l94

>  <Rbt.Executable>
rbdock ($Id: //depot/dev/client3/rdock/2013.1/src/exe/rbdock.cxx#4 $)

>  <Rbt.Library>
libRbt.so (2013.1, Build901 2013/11/27)

>  <Rbt.Parameter_File>
/export/apps/rDock/src/rDock_2013.1_src/data/scripts/dock_solv.prm

>  <Rbt.Receptor>
prm/pocket_docking_7.prm

>  <SCORE>
-14.4948

>  <SCORE.INTER>
-12.4665

>  <SCORE.INTER.CONST>
1

>  <SCORE.INTER.POLAR>
-1.56254

>  <SCORE.INTER.ROT>
10

>  <SCORE.INTER.SOLV>
9.9811

>  <SCORE.INTER.VDW>
-16.6962

>  <SCORE.INTER.norm>
-0.519436

>  <SCORE.INTRA>
-2.02832

>  <SCORE.INTRA.DIHEDRAL>
0.439725

>  <SCORE.INTRA.DIHEDRAL.0>
7.52971

>  <SCORE.INTRA.POLAR>
0

>  <SCORE.INTRA.POLAR.0>
0

>  <SCORE.INTRA.REPUL>
0

>  <SCORE.INTRA.REPUL.0>
0

>  <SCORE.INTRA.SOLV>
-0.285324

>  <SCORE.INTRA.SOLV.lig_0>
-22.1084

>  <SCORE.INTRA.VDW>
-2.10552

>  <SCORE.INTRA.VDW.0>
2.4256

>  <SCORE.INTRA.norm>
-0.0845134

>  <SCORE.RESTR>
0

>  <SCORE.RESTR.CAVITY>
0

>  <SCORE.RESTR.norm>
0

>  <SCORE.SYSTEM>
0

>  <SCORE.SYSTEM.CONST>
0

>  <SCORE.SYSTEM.DIHEDRAL>
0

>  <SCORE.SYSTEM.SOLV>
0

>  <SCORE.SYSTEM.norm>
0

>  <SCORE.heavy>
24

>  <SCORE.norm>
-0.60395

>  <RMSD>
3.777

$$$$
lig.pdb
 OpenBabel11021811453D
libRbt.so/2013.1/901 2013/11/27
 24 24  0  0  0  0  0  0  0  0999 V2000
    9.4187   -1.4766   -2.6333 C   0  0  0  0  0  0  0  0  0  0  0  0
    8.7147   -0.7798   -1.5942 C   0  0  0  0  0  0  0  0  0  0  0  0
    7.3476   -0.6363   -1.6171 C   0  0  0  0  0  0  0  0  0  0  0  0
    6.5509   -1.1828   -2.6735 C   0  0  0  0  0  0  0  0  0  0  0  0
    7.2584   -1.8492   -3.7276 C   0  0  0  0  0  0  0  0  0  0  0  0
    8.6240   -1.9860   -3.7099 C   0  0  0  0  0  0  0  0  0  0  0  0
   10.7726   -1.6524   -2.6040 C   0  0  0  0  0  0  0  0  0  0  0  0
   11.3770   -2.7568   -3.0919 N   0  0  0  0  0  0  0  0  0  0  0  0
    4.4246   -1.4965   -3.7169 N   0  0  0  0  0  0  0  0  0  0  0  0
    5.1913   -1.0781   -2.6877 C   0  0  0  0  0  0  0  0  0  0  0  0
   11.6150   -0.7253   -2.0844 N   0  0  0  0  0  0  0  0  0  0  0  0
    4.4911   -0.5389   -1.6616 N   0  0  0  0  0  0  0  0  0  0  0  0
   12.9532   -0.3923   -2.5685 C   0  0  0  0  0  0  0  0  0  0  0  0
    3.0798   -0.7679   -1.3678 C   0  0  0  0  0  0  0  0  0  0  0  0
   13.9758   -1.0295   -1.6139 C   0  0  0  0  0  0  0  0  0  0  0  0
    2.4321    0.5962   -1.0656 C   0  0  0  0  0  0  0  0  0  0  0  0
   14.1158   -0.2027   -0.3282 C   0  0  0  0  0  0  0  0  0  0  0  0
    2.6726    1.6282   -2.1823 C   0  0  0  0  0  0  0  0  0  0  0  0
   14.5902   -1.0962    0.7891 N   0  0  0  0  0  0  0  0  0  0  0  0
    2.0315    2.9539   -1.8582 N   0  0  0  0  0  0  0  0  0  0  0  0
   13.5278   -1.2004    1.8493 C   0  0  0  0  0  0  0  0  0  0  0  0
    2.3563    3.9317   -2.9554 C   0  0  0  0  0  0  0  0  0  0  0  0
   15.8634   -0.5645    1.3993 C   0  0  0  0  0  0  0  0  0  0  0  0
    2.5130    3.5126   -0.5483 C   0  0  0  0  0  0  0  0  0  0  0  0
  1  6  2  0  0  0  0
  2  3  2  0  0  0  0
  2  1  1  0  0  0  0
  3  4  1  0  0  0  0
  4 10  1  0  0  0  0
  4  5  2  0  0  0  0
  6  5  1  0  0  0  0
  7  1  1  0  0  0  0
  7 11  1  0  0  0  0
  8  7  2  0  0  0  0
  9 10  2  0  0  0  0
 10 12  1  0  0  0  0
 12 14  1  0  0  0  0
 13 11  1  0  0  0  0
 13 15  1  0  0  0  0
 14 16  1  0  0  0  0
 16 18  1  0  0  0  0
 17 15  1  0  0  0  0
 17 19  1  0  0  0  0
 18 20  1  0  0  0  0
 19 23  1  0  0  0  0
 20 22  1  0  0  0  0
 20 24  1  0  0  0  0
 21 19  1  0  0  0  0
M  END
>  <CHROM.1>
174.96174730,145.96533415,-134.39667595,-103.90173148,-78.19683837,53.62473266
-179.83085579,154.76594247,-115.06403507,177.43784011,8.16828792,-0.32813684
-1.72131557,0.06593149,0.25229055,-2.38931394

>  <Name>
lig.pdb

>  <RI>
1.09765e+07

>  <Rbt.Current_Directory>
/home/itssahil/PROJECTS/Mol_Feturizer/New_Systems/rnas/2l94

>  <Rbt.Executable>
rbdock ($Id: //depot/dev/client3/rdock/2013.1/src/exe/rbdock.cxx#4 $)

>  <Rbt.Library>
libRbt.so (2013.1, Build901 2013/11/27)

>  <Rbt.Parameter_File>
/export/apps/rDock/src/rDock_2013.1_src/data/scripts/dock_solv.prm

>  <Rbt.Receptor>
prm/pocket_docking_3.prm

>  <SCORE>
-8.58334

>  <SCORE.INTER>
-11.471

>  <SCORE.INTER.CONST>
1

>  <SCORE.INTER.POLAR>
-2.09403

>  <SCORE.INTER.ROT>
10

>  <SCORE.INTER.SOLV>
7.88333

>  <SCORE.INTER.VDW>
-13.5617

>  <SCORE.INTER.norm>
-0.47796

>  <SCORE.INTRA>
2.61265

>  <SCORE.INTRA.DIHEDRAL>
8.34232

>  <SCORE.INTRA.DIHEDRAL.0>
7.52971

>  <SCORE.INTRA.POLAR>
0

>  <SCORE.INTRA.POLAR.0>
0

>  <SCORE.INTRA.REPUL>
0

>  <SCORE.INTRA.REPUL.0>
0

>  <SCORE.INTRA.SOLV>
0.547899

>  <SCORE.INTRA.SOLV.lig_0>
-22.1084

>  <SCORE.INTRA.VDW>
-1.83246

>  <SCORE.INTRA.VDW.0>
2.4256

>  <SCORE.INTRA.norm>
0.108861

>  <SCORE.RESTR>
0.275042

>  <SCORE.RESTR.CAVITY>
0.275042

>  <SCORE.RESTR.norm>
0.0114601

>  <SCORE.SYSTEM>
0

>  <SCORE.SYSTEM.CONST>
0

>  <SCORE.SYSTEM.DIHEDRAL>
0

>  <SCORE.SYSTEM.SOLV>
0

>  <SCORE.SYSTEM.norm>
0

>  <SCORE.heavy>
24

>  <SCORE.norm>
-0.357639

>  <RMSD>
3.789

$$$$
lig.pdb
 OpenBabel11021811453D
libRbt.so/2013.1/901 2013/11/27
 24 24  0  0  0  0  0  0  0  0999 V2000
    4.7816    1.2973    1.9462 C   0  0  0  0  0  0  0  0  0  0  0  0
    6.0696    1.7367    1.4889 C   0  0  0  0  0  0  0  0  0  0  0  0
    7.0919    0.8503    1.2451 C   0  0  0  0  0  0  0  0  0  0  0  0
    6.9242   -0.5600    1.4245 C   0  0  0  0  0  0  0  0  0  0  0  0
    5.6482   -0.9943    1.9134 C   0  0  0  0  0  0  0  0  0  0  0  0
    4.6295   -0.1095    2.1649 C   0  0  0  0  0  0  0  0  0  0  0  0
    3.7500    2.1658    2.1608 C   0  0  0  0  0  0  0  0  0  0  0  0
    3.8926    3.5057    2.0746 N   0  0  0  0  0  0  0  0  0  0  0  0
    7.8349   -2.7688    1.4317 N   0  0  0  0  0  0  0  0  0  0  0  0
    7.9195   -1.4512    1.1510 C   0  0  0  0  0  0  0  0  0  0  0  0
    2.4991    1.7457    2.4737 N   0  0  0  0  0  0  0  0  0  0  0  0
    9.0871   -1.0845    0.5712 N   0  0  0  0  0  0  0  0  0  0  0  0
    1.2409    2.3579    2.0514 C   0  0  0  0  0  0  0  0  0  0  0  0
   10.0023   -1.9619   -0.1521 C   0  0  0  0  0  0  0  0  0  0  0  0
    1.2802    2.5180    0.5230 C   0  0  0  0  0  0  0  0  0  0  0  0
   11.1264   -1.0900   -0.7420 C   0  0  0  0  0  0  0  0  0  0  0  0
    1.3298    1.1498   -0.1710 C   0  0  0  0  0  0  0  0  0  0  0  0
   10.8087   -0.5937   -2.1642 C   0  0  0  0  0  0  0  0  0  0  0  0
    1.6203    1.3455   -1.6370 N   0  0  0  0  0  0  0  0  0  0  0  0
   11.7695   -1.1637   -3.1768 N   0  0  0  0  0  0  0  0  0  0  0  0
    0.4002    1.8817   -2.3349 C   0  0  0  0  0  0  0  0  0  0  0  0
   11.5598   -2.6517   -3.2615 C   0  0  0  0  0  0  0  0  0  0  0  0
    2.0412    0.0471   -2.2798 C   0  0  0  0  0  0  0  0  0  0  0  0
   13.2032   -0.8926   -2.8150 C   0  0  0  0  0  0  0  0  0  0  0  0
  1  6  2  0  0  0  0
  2  3  2  0  0  0  0
  2  1  1  0  0  0  0
  3  4  1  0  0  0  0
  4 10  1  0  0  0  0
  4  5  2  0  0  0  0
  6  5  1  0  0  0  0
  7  1  1  0  0  0  0
  7 11  1  0  0  0  0
  8  7  2  0  0  0  0
  9 10  2  0  0  0  0
 10 12  1  0  0  0  0
 12 14  1  0  0  0  0
 13 11  1  0  0  0  0
 13 15  1  0  0  0  0
 14 16  1  0  0  0  0
 16 18  1  0  0  0  0
 17 15  1  0  0  0  0
 17 19  1  0  0  0  0
 18 20  1  0  0  0  0
 19 23  1  0  0  0  0
 20 22  1  0  0  0  0
 20 24  1  0  0  0  0
 21 19  1  0  0  0  0
M  END
>  <CHROM.1>
173.37081852,-5.98879022,174.94897268,51.96728175,64.60010588,-91.04961196
-115.30207267,-169.72864442,-73.84752887,66.11595720,6.12335016,0.21274750
0.08440156,-2.89367208,0.33070479,-1.65261851

>  <Name>
lig.pdb

>  <RI>
1.71133e+07

>  <Rbt.Current_Directory>
/home/itssahil/PROJECTS/Mol_Feturizer/New_Systems/rnas/2l94

>  <Rbt.Executable>
rbdock ($Id: //depot/dev/client3/rdock/2013.1/src/exe/rbdock.cxx#4 $)

>  <Rbt.Library>
libRbt.so (2013.1, Build901 2013/11/27)

>  <Rbt.Parameter_File>
/export/apps/rDock/src/rDock_2013.1_src/data/scripts/dock_solv.prm

>  <Rbt.Receptor>
prm/pocket_docking_5.prm

>  <SCORE>
-14.4906

>  <SCORE.INTER>
-19.3659

>  <SCORE.INTER.CONST>
1

>  <SCORE.INTER.POLAR>
-2.54164

>  <SCORE.INTER.ROT>
10

>  <SCORE.INTER.SOLV>
12.0415

>  <SCORE.INTER.VDW>
-18.719

>  <SCORE.INTER.norm>
-0.806913

>  <SCORE.INTRA>
4.87528

>  <SCORE.INTRA.DIHEDRAL>
6.96062

>  <SCORE.INTRA.DIHEDRAL.0>
7.52971

>  <SCORE.INTRA.POLAR>
0

>  <SCORE.INTRA.POLAR.0>
0

>  <SCORE.INTRA.REPUL>
0

>  <SCORE.INTRA.REPUL.0>
0

>  <SCORE.INTRA.SOLV>
0.369962

>  <SCORE.INTRA.SOLV.lig_0>
-22.1084

>  <SCORE.INTRA.VDW>
1.20999

>  <SCORE.INTRA.VDW.0>
2.4256

>  <SCORE.INTRA.norm>
0.203137

>  <SCORE.RESTR>
0

>  <SCORE.RESTR.CAVITY>
0

>  <SCORE.RESTR.norm>
0

>  <SCORE.SYSTEM>
0

>  <SCORE.SYSTEM.CONST>
0

>  <SCORE.SYSTEM.DIHEDRAL>
0

>  <SCORE.SYSTEM.SOLV>
0

>  <SCORE.SYSTEM.norm>
0

>  <SCORE.heavy>
24

>  <SCORE.norm>
-0.603776

>  <RMSD>
3.790

$$$$
lig.pdb
 OpenBabel11021811453D
libRbt.so/2013.1/901 2013/11/27
 24 24  0  0  0  0  0  0  0  0999 V2000
    9.3507   -0.4919   -3.4594 C   0  0  0  0  0  0  0  0  0  0  0  0
    8.8668    0.6360   -2.7147 C   0  0  0  0  0  0  0  0  0  0  0  0
    7.5443    1.0104   -2.7465 C   0  0  0  0  0  0  0  0  0  0  0  0
    6.5761    0.2896   -3.5162 C   0  0  0  0  0  0  0  0  0  0  0  0
    7.0671   -0.8161   -4.2859 C   0  0  0  0  0  0  0  0  0  0  0  0
    8.3886   -1.1858   -4.2613 C   0  0  0  0  0  0  0  0  0  0  0  0
   10.6556   -0.8915   -3.4098 C   0  0  0  0  0  0  0  0  0  0  0  0
   11.0896   -2.0416   -3.9683 N   0  0  0  0  0  0  0  0  0  0  0  0
    4.3659    0.1285   -4.4090 N   0  0  0  0  0  0  0  0  0  0  0  0
    5.2557    0.6299   -3.5264 C   0  0  0  0  0  0  0  0  0  0  0  0
   11.6177   -0.1580   -2.7970 N   0  0  0  0  0  0  0  0  0  0  0  0
    4.7227    1.5088   -2.6446 N   0  0  0  0  0  0  0  0  0  0  0  0
   13.0098   -0.0166   -3.2190 C   0  0  0  0  0  0  0  0  0  0  0  0
    3.3144    1.6107   -2.2748 C   0  0  0  0  0  0  0  0  0  0  0  0
   13.8704   -0.9295   -2.3308 C   0  0  0  0  0  0  0  0  0  0  0  0
    3.2431    2.0238   -0.7929 C   0  0  0  0  0  0  0  0  0  0  0  0
   13.8472   -0.4554   -0.8711 C   0  0  0  0  0  0  0  0  0  0  0  0
    3.9918    1.0476    0.1324 C   0  0  0  0  0  0  0  0  0  0  0  0
   14.8886   -1.2107   -0.0857 N   0  0  0  0  0  0  0  0  0  0  0  0
    3.8102    1.4117    1.5843 N   0  0  0  0  0  0  0  0  0  0  0  0
   14.5839   -1.1255    1.3851 C   0  0  0  0  0  0  0  0  0  0  0  0
    4.6305    2.6377    1.8838 C   0  0  0  0  0  0  0  0  0  0  0  0
   16.2672   -0.6576   -0.3496 C   0  0  0  0  0  0  0  0  0  0  0  0
    4.2357    0.3027    2.5056 C   0  0  0  0  0  0  0  0  0  0  0  0
  1  6  2  0  0  0  0
  2  3  2  0  0  0  0
  2  1  1  0  0  0  0
  3  4  1  0  0  0  0
  4 10  1  0  0  0  0
  4  5  2  0  0  0  0
  6  5  1  0  0  0  0
  7  1  1  0  0  0  0
  7 11  1  0  0  0  0
  8  7  2  0  0  0  0
  9 10  2  0  0  0  0
 10 12  1  0  0  0  0
 12 14  1  0  0  0  0
 13 11  1  0  0  0  0
 13 15  1  0  0  0  0
 14 16  1  0  0  0  0
 16 18  1  0  0  0  0
 17 15  1  0  0  0  0
 17 19  1  0  0  0  0
 18 20  1  0  0  0  0
 19 23  1  0  0  0  0
 20 22  1  0  0  0  0
 20 24  1  0  0  0  0
 21 19  1  0  0  0  0
M  END
>  <CHROM.1>
168.01304125,171.51393295,146.07973032,-101.53252624,-65.40738852,-56.87742066
-175.28913922,-169.74188741,-160.74121212,-73.48125905,8.57702501,0.13358371
-1.76070097,0.07979991,0.20176588,-1.75918674

>  <Name>
lig.pdb

>  <RI>
0

>  <Rbt.Current_Directory>
/home/itssahil/PROJECTS/Mol_Feturizer/New_Systems/rnas/2l94

>  <Rbt.Executable>
rbdock ($Id: //depot/dev/client3/rdock/2013.1/src/exe/rbdock.cxx#4 $)

>  <Rbt.Library>
libRbt.so (2013.1, Build901 2013/11/27)

>  <Rbt.Parameter_File>
/export/apps/rDock/src/rDock_2013.1_src/data/scripts/dock_solv.prm

>  <Rbt.Receptor>
prm/pocket_docking_4.prm

>  <SCORE>
-13.1986

>  <SCORE.INTER>
-11.7064

>  <SCORE.INTER.CONST>
1

>  <SCORE.INTER.POLAR>
-2.66786

>  <SCORE.INTER.ROT>
10

>  <SCORE.INTER.SOLV>
8.15539

>  <SCORE.INTER.VDW>
-11.8965

>  <SCORE.INTER.norm>
-0.487767

>  <SCORE.INTRA>
-1.49224

>  <SCORE.INTRA.DIHEDRAL>
-0.0931175

>  <SCORE.INTRA.DIHEDRAL.0>
7.52971

>  <SCORE.INTRA.POLAR>
0

>  <SCORE.INTRA.POLAR.0>
0

>  <SCORE.INTRA.REPUL>
0

>  <SCORE.INTRA.REPUL.0>
0

>  <SCORE.INTRA.SOLV>
0.347725

>  <SCORE.INTRA.SOLV.lig_0>
-22.1084

>  <SCORE.INTRA.VDW>
-1.61954

>  <SCORE.INTRA.VDW.0>
2.4256

>  <SCORE.INTRA.norm>
-0.0621767

>  <SCORE.RESTR>
0

>  <SCORE.RESTR.CAVITY>
0

>  <SCORE.RESTR.norm>
0

>  <SCORE.SYSTEM>
0

>  <SCORE.SYSTEM.CONST>
0

>  <SCORE.SYSTEM.DIHEDRAL>
0

>  <SCORE.SYSTEM.SOLV>
0

>  <SCORE.SYSTEM.norm>
0

>  <SCORE.heavy>
24

>  <SCORE.norm>
-0.549944

>  <RMSD>
3.810

$$$$
lig.pdb
 OpenBabel11021811453D
libRbt.so/2013.1/901 2013/11/27
 24 24  0  0  0  0  0  0  0  0999 V2000
    5.9896   -1.1865    1.9501 C   0  0  0  0  0  0  0  0  0  0  0  0
    6.2561   -2.5576    1.6181 C   0  0  0  0  0  0  0  0  0  0  0  0
    7.3946   -2.9306    0.9437 C   0  0  0  0  0  0  0  0  0  0  0  0
    8.3811   -1.9729    0.5448 C   0  0  0  0  0  0  0  0  0  0  0  0
    8.0976   -0.6004    0.8473 C   0  0  0  0  0  0  0  0  0  0  0  0
    6.9574   -0.2259    1.5133 C   0  0  0  0  0  0  0  0  0  0  0  0
    4.8778   -0.8091    2.6474 C   0  0  0  0  0  0  0  0  0  0  0  0
    4.8887    0.1903    3.5552 N   0  0  0  0  0  0  0  0  0  0  0  0
   10.0831   -3.5631    0.0129 N   0  0  0  0  0  0  0  0  0  0  0  0
    9.5310   -2.3358   -0.0921 C   0  0  0  0  0  0  0  0  0  0  0  0
    3.6739   -1.4095    2.4764 N   0  0  0  0  0  0  0  0  0  0  0  0
   10.2219   -1.4864   -0.8891 N   0  0  0  0  0  0  0  0  0  0  0  0
    2.3620   -0.7674    2.5313 C   0  0  0  0  0  0  0  0  0  0  0  0
   11.1677   -1.8639   -1.9348 C   0  0  0  0  0  0  0  0  0  0  0  0
    2.2654    0.2167    1.3544 C   0  0  0  0  0  0  0  0  0  0  0  0
   12.4572   -1.0491   -1.7230 C   0  0  0  0  0  0  0  0  0  0  0  0
    3.0021    1.5254    1.6714 C   0  0  0  0  0  0  0  0  0  0  0  0
   13.2628   -1.5199   -0.4986 C   0  0  0  0  0  0  0  0  0  0  0  0
    2.8075    2.4945    0.5335 N   0  0  0  0  0  0  0  0  0  0  0  0
   14.4580   -0.6352   -0.2489 N   0  0  0  0  0  0  0  0  0  0  0  0
    3.8793    3.5497    0.5689 C   0  0  0  0  0  0  0  0  0  0  0  0
   15.5076   -0.9325   -1.2859 C   0  0  0  0  0  0  0  0  0  0  0  0
    1.4505    3.1491    0.6106 C   0  0  0  0  0  0  0  0  0  0  0  0
   15.0474   -0.8489    1.1174 C   0  0  0  0  0  0  0  0  0  0  0  0
  1  6  2  0  0  0  0
  2  3  2  0  0  0  0
  2  1  1  0  0  0  0
  3  4  1  0  0  0  0
  4 10  1  0  0  0  0
  4  5  2  0  0  0  0
  6  5  1  0  0  0  0
  7  1  1  0  0  0  0
  7 11  1  0  0  0  0
  8  7  2  0  0  0  0
  9 10  2  0  0  0  0
 10 12  1  0  0  0  0
 12 14  1  0  0  0  0
 13 11  1  0  0  0  0
 13 15  1  0  0  0  0
 14 16  1  0  0  0  0
 16 18  1  0  0  0  0
 17 15  1  0  0  0  0
 17 19  1  0  0  0  0
 18 20  1  0  0  0  0
 19 23  1  0  0  0  0
 20 22  1  0  0  0  0
 20 24  1  0  0  0  0
 21 19  1  0  0  0  0
M  END
>  <CHROM.1>
-24.71434517,143.55919225,-130.28868175,65.54205062,-79.68995817,72.08549448
-175.32614334,-176.30272314,-159.69853823,-74.11045218,7.69988595,-0.59968624
0.72683364,2.99428203,0.27279671,-0.31857052

>  <Name>
lig.pdb

>  <RI>
1.71133e+07

>  <Rbt.Current_Directory>
/home/itssahil/PROJECTS/Mol_Feturizer/New_Systems/rnas/2l94

>  <Rbt.Executable>
rbdock ($Id: //depot/dev/client3/rdock/2013.1/src/exe/rbdock.cxx#4 $)

>  <Rbt.Library>
libRbt.so (2013.1, Build901 2013/11/27)

>  <Rbt.Parameter_File>
/export/apps/rDock/src/rDock_2013.1_src/data/scripts/dock_solv.prm

>  <Rbt.Receptor>
prm/pocket_docking_5.prm

>  <SCORE>
-19.616

>  <SCORE.INTER>
-20.7426

>  <SCORE.INTER.CONST>
1

>  <SCORE.INTER.POLAR>
-2.85498

>  <SCORE.INTER.ROT>
10

>  <SCORE.INTER.SOLV>
8.49639

>  <SCORE.INTER.VDW>
-17.4106

>  <SCORE.INTER.norm>
-0.864276

>  <SCORE.INTRA>
1.12663

>  <SCORE.INTRA.DIHEDRAL>
7.40145

>  <SCORE.INTRA.DIHEDRAL.0>
7.52971

>  <SCORE.INTRA.POLAR>
0

>  <SCORE.INTRA.POLAR.0>
0

>  <SCORE.INTRA.REPUL>
0

>  <SCORE.INTRA.REPUL.0>
0

>  <SCORE.INTRA.SOLV>
0.795213

>  <SCORE.INTRA.SOLV.lig_0>
-22.1084

>  <SCORE.INTRA.VDW>
-2.9717

>  <SCORE.INTRA.VDW.0>
2.4256

>  <SCORE.INTRA.norm>
0.0469429

>  <SCORE.RESTR>
0

>  <SCORE.RESTR.CAVITY>
0

>  <SCORE.RESTR.norm>
0

>  <SCORE.SYSTEM>
0

>  <SCORE.SYSTEM.CONST>
0

>  <SCORE.SYSTEM.DIHEDRAL>
0

>  <SCORE.SYSTEM.SOLV>
0

>  <SCORE.SYSTEM.norm>
0

>  <SCORE.heavy>
24

>  <SCORE.norm>
-0.817333

>  <RMSD>
3.844

$$$$
lig.pdb
 OpenBabel11021811453D
libRbt.so/2013.1/901 2013/11/27
 24 24  0  0  0  0  0  0  0  0999 V2000
    3.6160    0.1691    1.5184 C   0  0  0  0  0  0  0  0  0  0  0  0
    4.4478   -0.2939    2.5931 C   0  0  0  0  0  0  0  0  0  0  0  0
    5.4568   -1.2045    2.3863 C   0  0  0  0  0  0  0  0  0  0  0  0
    5.7392   -1.7330    1.0862 C   0  0  0  0  0  0  0  0  0  0  0  0
    4.8861   -1.2955    0.0200 C   0  0  0  0  0  0  0  0  0  0  0  0
    3.8733   -0.3925    0.2267 C   0  0  0  0  0  0  0  0  0  0  0  0
    2.6321    1.0970    1.7071 C   0  0  0  0  0  0  0  0  0  0  0  0
    2.3883    1.6706    2.9048 N   0  0  0  0  0  0  0  0  0  0  0  0
    7.5719   -3.0678    1.8395 N   0  0  0  0  0  0  0  0  0  0  0  0
    6.7604   -2.6087    0.8633 C   0  0  0  0  0  0  0  0  0  0  0  0
    1.8258    1.5165    0.7006 N   0  0  0  0  0  0  0  0  0  0  0  0
    7.0491   -3.0938   -0.3677 N   0  0  0  0  0  0  0  0  0  0  0  0
    1.2936    2.8646    0.5121 C   0  0  0  0  0  0  0  0  0  0  0  0
    7.7851   -4.3201   -0.6593 C   0  0  0  0  0  0  0  0  0  0  0  0
    2.2238    3.6112   -0.4576 C   0  0  0  0  0  0  0  0  0  0  0  0
    9.0075   -3.9453   -1.5178 C   0  0  0  0  0  0  0  0  0  0  0  0
    3.6848    3.5207    0.0042 C   0  0  0  0  0  0  0  0  0  0  0  0
   10.0347   -3.0944   -0.7490 C   0  0  0  0  0  0  0  0  0  0  0  0
    4.5341    4.4266   -0.8502 N   0  0  0  0  0  0  0  0  0  0  0  0
    9.6723   -1.6310   -0.7763 N   0  0  0  0  0  0  0  0  0  0  0  0
    4.6371    3.8694   -2.2439 C   0  0  0  0  0  0  0  0  0  0  0  0
    9.9582   -1.0853   -2.1496 C   0  0  0  0  0  0  0  0  0  0  0  0
    5.9154    4.5800   -0.2633 C   0  0  0  0  0  0  0  0  0  0  0  0
   10.4474   -0.8349    0.2363 C   0  0  0  0  0  0  0  0  0  0  0  0
  1  6  2  0  0  0  0
  2  3  2  0  0  0  0
  2  1  1  0  0  0  0
  3  4  1  0  0  0  0
  4 10  1  0  0  0  0
  4  5  2  0  0  0  0
  6  5  1  0  0  0  0
  7  1  1  0  0  0  0
  7 11  1  0  0  0  0
  8  7  2  0  0  0  0
  9 10  2  0  0  0  0
 10 12  1  0  0  0  0
 12 14  1  0  0  0  0
 13 11  1  0  0  0  0
 13 15  1  0  0  0  0
 14 16  1  0  0  0  0
 16 18  1  0  0  0  0
 17 15  1  0  0  0  0
 17 19  1  0  0  0  0
 18 20  1  0  0  0  0
 19 23  1  0  0  0  0
 20 22  1  0  0  0  0
 20 24  1  0  0  0  0
 21 19  1  0  0  0  0
M  END
>  <CHROM.1>
1.16374614,1.61565261,-122.02583317,95.56763139,-51.71851958,66.78245516
-84.24551652,-171.73932284,-69.93231836,-73.70729066,5.69193807,-0.00742111
0.23903067,2.51682203,0.48474397,-0.43146076

>  <Name>
lig.pdb

>  <RI>
0

>  <Rbt.Current_Directory>
/home/itssahil/PROJECTS/Mol_Feturizer/New_Systems/rnas/2l94

>  <Rbt.Executable>
rbdock ($Id: //depot/dev/client3/rdock/2013.1/src/exe/rbdock.cxx#4 $)

>  <Rbt.Library>
libRbt.so (2013.1, Build901 2013/11/27)

>  <Rbt.Parameter_File>
/export/apps/rDock/src/rDock_2013.1_src/data/scripts/dock_solv.prm

>  <Rbt.Receptor>
prm/pocket_docking_4.prm

>  <SCORE>
-21.848

>  <SCORE.INTER>
-20.5409

>  <SCORE.INTER.CONST>
1

>  <SCORE.INTER.POLAR>
-3.16853

>  <SCORE.INTER.ROT>
10

>  <SCORE.INTER.SOLV>
8.1314

>  <SCORE.INTER.VDW>
-16.1093

>  <SCORE.INTER.norm>
-0.855872

>  <SCORE.INTRA>
-1.30704

>  <SCORE.INTRA.DIHEDRAL>
0.715378

>  <SCORE.INTRA.DIHEDRAL.0>
7.52971

>  <SCORE.INTRA.POLAR>
0

>  <SCORE.INTRA.POLAR.0>
0

>  <SCORE.INTRA.REPUL>
0

>  <SCORE.INTRA.REPUL.0>
0

>  <SCORE.INTRA.SOLV>
2.1048

>  <SCORE.INTRA.SOLV.lig_0>
-22.1084

>  <SCORE.INTRA.VDW>
-2.71713

>  <SCORE.INTRA.VDW.0>
2.4256

>  <SCORE.INTRA.norm>
-0.0544602

>  <SCORE.RESTR>
0

>  <SCORE.RESTR.CAVITY>
0

>  <SCORE.RESTR.norm>
0

>  <SCORE.SYSTEM>
0

>  <SCORE.SYSTEM.CONST>
0

>  <SCORE.SYSTEM.DIHEDRAL>
0

>  <SCORE.SYSTEM.SOLV>
0

>  <SCORE.SYSTEM.norm>
0

>  <SCORE.heavy>
24

>  <SCORE.norm>
-0.910332

>  <RMSD>
3.872

$$$$
lig.pdb
 OpenBabel11021811453D
libRbt.so/2013.1/901 2013/11/27
 24 24  0  0  0  0  0  0  0  0999 V2000
    9.2179   -1.1303    0.4719 C   0  0  0  0  0  0  0  0  0  0  0  0
    8.0393   -1.5872    1.1525 C   0  0  0  0  0  0  0  0  0  0  0  0
    7.0876   -0.7113    1.6185 C   0  0  0  0  0  0  0  0  0  0  0  0
    7.2156    0.7035    1.4415 C   0  0  0  0  0  0  0  0  0  0  0  0
    8.4093    1.1603    0.7916 C   0  0  0  0  0  0  0  0  0  0  0  0
    9.3639    0.2872    0.3332 C   0  0  0  0  0  0  0  0  0  0  0  0
   10.1535   -1.9933   -0.0229 C   0  0  0  0  0  0  0  0  0  0  0  0
   10.0596   -3.3328    0.1184 N   0  0  0  0  0  0  0  0  0  0  0  0
    6.2718    2.8948    1.5666 N   0  0  0  0  0  0  0  0  0  0  0  0
    6.2606    1.5789    1.8673 C   0  0  0  0  0  0  0  0  0  0  0  0
   11.2491   -1.5678   -0.6995 N   0  0  0  0  0  0  0  0  0  0  0  0
    5.2129    1.1974    2.6358 N   0  0  0  0  0  0  0  0  0  0  0  0
   11.8937   -2.2376   -1.8274 C   0  0  0  0  0  0  0  0  0  0  0  0
    3.9439    1.9053    2.7747 C   0  0  0  0  0  0  0  0  0  0  0  0
   11.9883   -1.2317   -2.9860 C   0  0  0  0  0  0  0  0  0  0  0  0
    2.9878    1.3803    1.6876 C   0  0  0  0  0  0  0  0  0  0  0  0
   12.8862   -0.0448   -2.6104 C   0  0  0  0  0  0  0  0  0  0  0  0
    1.5452    1.8852    1.8712 C   0  0  0  0  0  0  0  0  0  0  0  0
   14.2895   -0.3099   -3.0925 N   0  0  0  0  0  0  0  0  0  0  0  0
    0.6374    1.3756    0.7805 N   0  0  0  0  0  0  0  0  0  0  0  0
   15.2826    0.1629   -2.0660 C   0  0  0  0  0  0  0  0  0  0  0  0
   -0.3432    2.4588    0.4191 C   0  0  0  0  0  0  0  0  0  0  0  0
   14.5480    0.3871   -4.4052 C   0  0  0  0  0  0  0  0  0  0  0  0
   -0.1232    0.1491    1.2012 C   0  0  0  0  0  0  0  0  0  0  0  0
  1  6  2  0  0  0  0
  2  3  2  0  0  0  0
  2  1  1  0  0  0  0
  3  4  1  0  0  0  0
  4 10  1  0  0  0  0
  4  5  2  0  0  0  0
  6  5  1  0  0  0  0
  7  1  1  0  0  0  0
  7 11  1  0  0  0  0
  8  7  2  0  0  0  0
  9 10  2  0  0  0  0
 10 12  1  0  0  0  0
 12 14  1  0  0  0  0
 13 11  1  0  0  0  0
 13 15  1  0  0  0  0
 14 16  1  0  0  0  0
 16 18  1  0  0  0  0
 17 15  1  0  0  0  0
 17 19  1  0  0  0  0
 18 20  1  0  0  0  0
 19 23  1  0  0  0  0
 20 22  1  0  0  0  0
 20 24  1  0  0  0  0
 21 19  1  0  0  0  0
M  END
>  <CHROM.1>
-171.31886511,-1.71021445,89.59086388,125.83062803,63.54914678,170.75446829
179.00461500,94.23621318,-140.37905822,-142.60552241,7.82437661,0.15361997
0.08532530,0.04757939,-0.37654409,2.72536261

>  <Name>
lig.pdb

>  <RI>
1.71133e+07

>  <Rbt.Current_Directory>
/home/itssahil/PROJECTS/Mol_Feturizer/New_Systems/rnas/2l94

>  <Rbt.Executable>
rbdock ($Id: //depot/dev/client3/rdock/2013.1/src/exe/rbdock.cxx#4 $)

>  <Rbt.Library>
libRbt.so (2013.1, Build901 2013/11/27)

>  <Rbt.Parameter_File>
/export/apps/rDock/src/rDock_2013.1_src/data/scripts/dock_solv.prm

>  <Rbt.Receptor>
prm/pocket_docking_5.prm

>  <SCORE>
-26.8826

>  <SCORE.INTER>
-27.364

>  <SCORE.INTER.CONST>
1

>  <SCORE.INTER.POLAR>
-3.73123

>  <SCORE.INTER.ROT>
10

>  <SCORE.INTER.SOLV>
12.2958

>  <SCORE.INTER.VDW>
-20.1705

>  <SCORE.INTER.norm>
-1.14017

>  <SCORE.INTRA>
0.481455

>  <SCORE.INTRA.DIHEDRAL>
6.33508

>  <SCORE.INTRA.DIHEDRAL.0>
7.52971

>  <SCORE.INTRA.POLAR>
0

>  <SCORE.INTRA.POLAR.0>
0

>  <SCORE.INTRA.REPUL>
0

>  <SCORE.INTRA.REPUL.0>
0

>  <SCORE.INTRA.SOLV>
0.126435

>  <SCORE.INTRA.SOLV.lig_0>
-22.1084

>  <SCORE.INTRA.VDW>
-2.7493

>  <SCORE.INTRA.VDW.0>
2.4256

>  <SCORE.INTRA.norm>
0.0200606

>  <SCORE.RESTR>
0

>  <SCORE.RESTR.CAVITY>
0

>  <SCORE.RESTR.norm>
0

>  <SCORE.SYSTEM>
0

>  <SCORE.SYSTEM.CONST>
0

>  <SCORE.SYSTEM.DIHEDRAL>
0

>  <SCORE.SYSTEM.SOLV>
0

>  <SCORE.SYSTEM.norm>
0

>  <SCORE.heavy>
24

>  <SCORE.norm>
-1.12011

>  <RMSD>
3.905

$$$$
lig.pdb
 OpenBabel11021811453D
libRbt.so/2013.1/901 2013/11/27
 24 24  0  0  0  0  0  0  0  0999 V2000
    4.7149   -3.6026    0.2250 C   0  0  0  0  0  0  0  0  0  0  0  0
    5.7155   -4.4953    0.7376 C   0  0  0  0  0  0  0  0  0  0  0  0
    7.0378   -4.3827    0.3785 C   0  0  0  0  0  0  0  0  0  0  0  0
    7.4901   -3.3629   -0.5186 C   0  0  0  0  0  0  0  0  0  0  0  0
    6.4846   -2.4933   -1.0559 C   0  0  0  0  0  0  0  0  0  0  0  0
    5.1631   -2.6098   -0.7044 C   0  0  0  0  0  0  0  0  0  0  0  0
    3.4043   -3.6855    0.5998 C   0  0  0  0  0  0  0  0  0  0  0  0
    2.9373   -4.6551    1.4152 N   0  0  0  0  0  0  0  0  0  0  0  0
    9.7981   -3.9343   -0.2847 N   0  0  0  0  0  0  0  0  0  0  0  0
    8.8043   -3.2193   -0.8532 C   0  0  0  0  0  0  0  0  0  0  0  0
    2.4711   -2.7944    0.1826 N   0  0  0  0  0  0  0  0  0  0  0  0
    9.2255   -2.3381   -1.7913 N   0  0  0  0  0  0  0  0  0  0  0  0
    1.3328   -2.2969    0.9526 C   0  0  0  0  0  0  0  0  0  0  0  0
   10.4831   -2.4016   -2.5295 C   0  0  0  0  0  0  0  0  0  0  0  0
    1.8682   -1.3296    2.0206 C   0  0  0  0  0  0  0  0  0  0  0  0
   11.4020   -1.2872   -1.9952 C   0  0  0  0  0  0  0  0  0  0  0  0
    2.5987   -0.1456    1.3721 C   0  0  0  0  0  0  0  0  0  0  0  0
   11.8720   -1.5460   -0.5522 C   0  0  0  0  0  0  0  0  0  0  0  0
    3.1090    0.7756    2.4505 N   0  0  0  0  0  0  0  0  0  0  0  0
   12.5912   -0.3499    0.0185 N   0  0  0  0  0  0  0  0  0  0  0  0
    2.0044    1.6868    2.9120 C   0  0  0  0  0  0  0  0  0  0  0  0
   13.4511   -0.8030    1.1677 C   0  0  0  0  0  0  0  0  0  0  0  0
    4.2686    1.6001    1.9491 C   0  0  0  0  0  0  0  0  0  0  0  0
   11.6389    0.7054    0.5078 C   0  0  0  0  0  0  0  0  0  0  0  0
  1  6  2  0  0  0  0
  2  3  2  0  0  0  0
  2  1  1  0  0  0  0
  3  4  1  0  0  0  0
  4 10  1  0  0  0  0
  4  5  2  0  0  0  0
  6  5  1  0  0  0  0
  7  1  1  0  0  0  0
  7 11  1  0  0  0  0
  8  7  2  0  0  0  0
  9 10  2  0  0  0  0
 10 12  1  0  0  0  0
 12 14  1  0  0  0  0
 13 11  1  0  0  0  0
 13 15  1  0  0  0  0
 14 16  1  0  0  0  0
 16 18  1  0  0  0  0
 17 15  1  0  0  0  0
 17 19  1  0  0  0  0
 18 20  1  0  0  0  0
 19 23  1  0  0  0  0
 20 22  1  0  0  0  0
 20 24  1  0  0  0  0
 21 19  1  0  0  0  0
M  END
>  <CHROM.1>
-6.21660552,-3.95323348,-107.79926357,72.87429857,60.22031761,68.46913521
-171.29392421,-179.90892816,-81.93222513,-159.04690075,6.69654234,-1.88876841
0.30928352,3.05204414,0.20799452,0.38418079

>  <Name>
lig.pdb

>  <RI>
2.48096e+07

>  <Rbt.Current_Directory>
/home/itssahil/PROJECTS/Mol_Feturizer/New_Systems/rnas/2l94

>  <Rbt.Executable>
rbdock ($Id: //depot/dev/client3/rdock/2013.1/src/exe/rbdock.cxx#4 $)

>  <Rbt.Library>
libRbt.so (2013.1, Build901 2013/11/27)

>  <Rbt.Parameter_File>
/export/apps/rDock/src/rDock_2013.1_src/data/scripts/dock_solv.prm

>  <Rbt.Receptor>
prm/pocket_docking_6.prm

>  <SCORE>
-12.8292

>  <SCORE.INTER>
-10.7273

>  <SCORE.INTER.CONST>
1

>  <SCORE.INTER.POLAR>
-2.1632

>  <SCORE.INTER.ROT>
10

>  <SCORE.INTER.SOLV>
7.52203

>  <SCORE.INTER.VDW>
-12.7149

>  <SCORE.INTER.norm>
-0.446973

>  <SCORE.INTRA>
-2.10186

>  <SCORE.INTRA.DIHEDRAL>
0.10092

>  <SCORE.INTRA.DIHEDRAL.0>
7.52971

>  <SCORE.INTRA.POLAR>
0

>  <SCORE.INTRA.POLAR.0>
0

>  <SCORE.INTRA.REPUL>
0

>  <SCORE.INTRA.REPUL.0>
0

>  <SCORE.INTRA.SOLV>
0.810349

>  <SCORE.INTRA.SOLV.lig_0>
-22.1084

>  <SCORE.INTRA.VDW>
-2.55749

>  <SCORE.INTRA.VDW.0>
2.4256

>  <SCORE.INTRA.norm>
-0.0875773

>  <SCORE.RESTR>
0

>  <SCORE.RESTR.CAVITY>
0

>  <SCORE.RESTR.norm>
0

>  <SCORE.SYSTEM>
0

>  <SCORE.SYSTEM.CONST>
0

>  <SCORE.SYSTEM.DIHEDRAL>
0

>  <SCORE.SYSTEM.SOLV>
0

>  <SCORE.SYSTEM.norm>
0

>  <SCORE.heavy>
24

>  <SCORE.norm>
-0.53455

>  <RMSD>
3.923

$$$$
lig.pdb
 OpenBabel11021811453D
libRbt.so/2013.1/901 2013/11/27
 24 24  0  0  0  0  0  0  0  0999 V2000
    7.7561   -3.6126   -0.3445 C   0  0  0  0  0  0  0  0  0  0  0  0
    6.3596   -3.8580   -0.5697 C   0  0  0  0  0  0  0  0  0  0  0  0
    5.3923   -3.3543    0.2673 C   0  0  0  0  0  0  0  0  0  0  0  0
    5.7247   -2.5493    1.4035 C   0  0  0  0  0  0  0  0  0  0  0  0
    7.1212   -2.3332    1.6463 C   0  0  0  0  0  0  0  0  0  0  0  0
    8.0881   -2.8423    0.8159 C   0  0  0  0  0  0  0  0  0  0  0  0
    8.7229   -4.0813   -1.1873 C   0  0  0  0  0  0  0  0  0  0  0  0
    8.5209   -5.1205   -2.0253 N   0  0  0  0  0  0  0  0  0  0  0  0
    4.9535   -1.8143    3.5420 N   0  0  0  0  0  0  0  0  0  0  0  0
    4.7720   -2.0144    2.2194 C   0  0  0  0  0  0  0  0  0  0  0  0
    9.9618   -3.5333   -1.2487 N   0  0  0  0  0  0  0  0  0  0  0  0
    3.5525   -1.6376    1.7667 N   0  0  0  0  0  0  0  0  0  0  0  0
   10.7928   -3.3843   -2.4418 C   0  0  0  0  0  0  0  0  0  0  0  0
    2.6529   -0.6837    2.4079 C   0  0  0  0  0  0  0  0  0  0  0  0
   11.6961   -2.1568   -2.2411 C   0  0  0  0  0  0  0  0  0  0  0  0
    2.4083    0.4729    1.4209 C   0  0  0  0  0  0  0  0  0  0  0  0
   10.8604   -0.8762   -2.1081 C   0  0  0  0  0  0  0  0  0  0  0  0
    1.5555    0.0507    0.2108 C   0  0  0  0  0  0  0  0  0  0  0  0
   11.7794    0.2965   -1.8794 N   0  0  0  0  0  0  0  0  0  0  0  0
    1.3325    1.2014   -0.7377 N   0  0  0  0  0  0  0  0  0  0  0  0
   12.3070    0.2679   -0.4707 C   0  0  0  0  0  0  0  0  0  0  0  0
    0.3224    2.1398   -0.1339 C   0  0  0  0  0  0  0  0  0  0  0  0
   11.0594    1.5996   -2.1236 C   0  0  0  0  0  0  0  0  0  0  0  0
    0.8323    0.7431   -2.0792 C   0  0  0  0  0  0  0  0  0  0  0  0
  1  6  2  0  0  0  0
  2  3  2  0  0  0  0
  2  1  1  0  0  0  0
  3  4  1  0  0  0  0
  4 10  1  0  0  0  0
  4  5  2  0  0  0  0
  6  5  1  0  0  0  0
  7  1  1  0  0  0  0
  7 11  1  0  0  0  0
  8  7  2  0  0  0  0
  9 10  2  0  0  0  0
 10 12  1  0  0  0  0
 12 14  1  0  0  0  0
 13 11  1  0  0  0  0
 13 15  1  0  0  0  0
 14 16  1  0  0  0  0
 16 18  1  0  0  0  0
 17 15  1  0  0  0  0
 17 19  1  0  0  0  0
 18 20  1  0  0  0  0
 19 23  1  0  0  0  0
 20 22  1  0  0  0  0
 20 24  1  0  0  0  0
 21 19  1  0  0  0  0
M  END
>  <CHROM.1>
147.95421555,-21.22114798,120.07135903,151.32127615,-62.82037311,69.90768915
-179.99049793,178.62043075,-74.42234573,-74.65427838,6.60194334,-1.47350866
-0.19394117,0.10074916,-0.30750318,2.73893006

>  <Name>
lig.pdb

>  <RI>
9.7521e+06

>  <Rbt.Current_Directory>
/home/itssahil/PROJECTS/Mol_Feturizer/New_Systems/rnas/2l94

>  <Rbt.Executable>
rbdock ($Id: //depot/dev/client3/rdock/2013.1/src/exe/rbdock.cxx#4 $)

>  <Rbt.Library>
libRbt.so (2013.1, Build901 2013/11/27)

>  <Rbt.Parameter_File>
/export/apps/rDock/src/rDock_2013.1_src/data/scripts/dock_solv.prm

>  <Rbt.Receptor>
prm/pocket_docking_7.prm

>  <SCORE>
-18.3437

>  <SCORE.INTER>
-18.4935

>  <SCORE.INTER.CONST>
1

>  <SCORE.INTER.POLAR>
-2.56905

>  <SCORE.INTER.ROT>
10

>  <SCORE.INTER.SOLV>
12.366

>  <SCORE.INTER.VDW>
-18.1542

>  <SCORE.INTER.norm>
-0.770563

>  <SCORE.INTRA>
0.149824

>  <SCORE.INTRA.DIHEDRAL>
3.99766

>  <SCORE.INTRA.DIHEDRAL.0>
7.52971

>  <SCORE.INTRA.POLAR>
0

>  <SCORE.INTRA.POLAR.0>
0

>  <SCORE.INTRA.REPUL>
0

>  <SCORE.INTRA.REPUL.0>
0

>  <SCORE.INTRA.SOLV>
0.124519

>  <SCORE.INTRA.SOLV.lig_0>
-22.1084

>  <SCORE.INTRA.VDW>
-1.91127

>  <SCORE.INTRA.VDW.0>
2.4256

>  <SCORE.INTRA.norm>
0.00624265

>  <SCORE.RESTR>
0

>  <SCORE.RESTR.CAVITY>
0

>  <SCORE.RESTR.norm>
0

>  <SCORE.SYSTEM>
0

>  <SCORE.SYSTEM.CONST>
0

>  <SCORE.SYSTEM.DIHEDRAL>
0

>  <SCORE.SYSTEM.SOLV>
0

>  <SCORE.SYSTEM.norm>
0

>  <SCORE.heavy>
24

>  <SCORE.norm>
-0.76432

>  <RMSD>
3.924

$$$$
lig.pdb
 OpenBabel11021811453D
libRbt.so/2013.1/901 2013/11/27
 24 24  0  0  0  0  0  0  0  0999 V2000
    5.4804   -1.2382    1.1015 C   0  0  0  0  0  0  0  0  0  0  0  0
    6.2410   -2.2976    1.7017 C   0  0  0  0  0  0  0  0  0  0  0  0
    7.3890   -2.7827    1.1213 C   0  0  0  0  0  0  0  0  0  0  0  0
    7.8935   -2.2509   -0.1083 C   0  0  0  0  0  0  0  0  0  0  0  0
    7.1148   -1.2162   -0.7237 C   0  0  0  0  0  0  0  0  0  0  0  0
    5.9642   -0.7366   -0.1493 C   0  0  0  0  0  0  0  0  0  0  0  0
    4.3567   -0.7274    1.6856 C   0  0  0  0  0  0  0  0  0  0  0  0
    3.7925   -1.2717    2.7849 N   0  0  0  0  0  0  0  0  0  0  0  0
    9.7146   -3.7918   -0.2410 N   0  0  0  0  0  0  0  0  0  0  0  0
    9.0503   -2.6994   -0.6742 C   0  0  0  0  0  0  0  0  0  0  0  0
    3.7232    0.3714    1.2056 N   0  0  0  0  0  0  0  0  0  0  0  0
    9.6352   -2.0793   -1.7266 N   0  0  0  0  0  0  0  0  0  0  0  0
    3.0544    1.4068    1.9909 C   0  0  0  0  0  0  0  0  0  0  0  0
   10.5769   -2.6807   -2.6658 C   0  0  0  0  0  0  0  0  0  0  0  0
    2.8957    2.6499    1.1007 C   0  0  0  0  0  0  0  0  0  0  0  0
   11.9922   -2.5322   -2.0769 C   0  0  0  0  0  0  0  0  0  0  0  0
    4.1345    3.5517    1.1914 C   0  0  0  0  0  0  0  0  0  0  0  0
   12.5492   -1.1045   -2.2225 C   0  0  0  0  0  0  0  0  0  0  0  0
    5.2848    2.8909    0.4759 N   0  0  0  0  0  0  0  0  0  0  0  0
   14.0246   -1.0522   -1.9161 N   0  0  0  0  0  0  0  0  0  0  0  0
    6.1504    2.1574    1.4640 C   0  0  0  0  0  0  0  0  0  0  0  0
   14.2087   -0.9853   -0.4237 C   0  0  0  0  0  0  0  0  0  0  0  0
    6.1147    3.9103   -0.2645 C   0  0  0  0  0  0  0  0  0  0  0  0
   14.6934    0.1387   -2.5442 C   0  0  0  0  0  0  0  0  0  0  0  0
  1  6  2  0  0  0  0
  2  3  2  0  0  0  0
  2  1  1  0  0  0  0
  3  4  1  0  0  0  0
  4 10  1  0  0  0  0
  4  5  2  0  0  0  0
  6  5  1  0  0  0  0
  7  1  1  0  0  0  0
  7 11  1  0  0  0  0
  8  7  2  0  0  0  0
  9 10  2  0  0  0  0
 10 12  1  0  0  0  0
 12 14  1  0  0  0  0
 13 11  1  0  0  0  0
 13 15  1  0  0  0  0
 14 16  1  0  0  0  0
 16 18  1  0  0  0  0
 17 15  1  0  0  0  0
 17 19  1  0  0  0  0
 18 20  1  0  0  0  0
 19 23  1  0  0  0  0
 20 22  1  0  0  0  0
 20 24  1  0  0  0  0
 21 19  1  0  0  0  0
M  END
>  <CHROM.1>
9.62263058,-7.61066507,-87.21017750,161.65484748,-87.94951220,-76.41436029
-167.75779688,71.71601123,-96.72820003,-81.72070403,7.81285808,-0.47226282
-0.01323000,2.86624068,0.38169284,-0.10053702

>  <Name>
lig.pdb

>  <RI>
1.71133e+07

>  <Rbt.Current_Directory>
/home/itssahil/PROJECTS/Mol_Feturizer/New_Systems/rnas/2l94

>  <Rbt.Executable>
rbdock ($Id: //depot/dev/client3/rdock/2013.1/src/exe/rbdock.cxx#4 $)

>  <Rbt.Library>
libRbt.so (2013.1, Build901 2013/11/27)

>  <Rbt.Parameter_File>
/export/apps/rDock/src/rDock_2013.1_src/data/scripts/dock_solv.prm

>  <Rbt.Receptor>
prm/pocket_docking_5.prm

>  <SCORE>
-20.1083

>  <SCORE.INTER>
-21.3508

>  <SCORE.INTER.CONST>
1

>  <SCORE.INTER.POLAR>
-3.25531

>  <SCORE.INTER.ROT>
10

>  <SCORE.INTER.SOLV>
7.41989

>  <SCORE.INTER.VDW>
-16.1228

>  <SCORE.INTER.norm>
-0.889615

>  <SCORE.INTRA>
1.24249

>  <SCORE.INTRA.DIHEDRAL>
5.89547

>  <SCORE.INTRA.DIHEDRAL.0>
7.52971

>  <SCORE.INTRA.POLAR>
0

>  <SCORE.INTRA.POLAR.0>
0

>  <SCORE.INTRA.REPUL>
0

>  <SCORE.INTRA.REPUL.0>
0

>  <SCORE.INTRA.SOLV>
1.36567

>  <SCORE.INTRA.SOLV.lig_0>
-22.1084

>  <SCORE.INTRA.VDW>
-2.38808

>  <SCORE.INTRA.VDW.0>
2.4256

>  <SCORE.INTRA.norm>
0.0517704

>  <SCORE.RESTR>
0

>  <SCORE.RESTR.CAVITY>
0

>  <SCORE.RESTR.norm>
0

>  <SCORE.SYSTEM>
0

>  <SCORE.SYSTEM.CONST>
0

>  <SCORE.SYSTEM.DIHEDRAL>
0

>  <SCORE.SYSTEM.SOLV>
0

>  <SCORE.SYSTEM.norm>
0

>  <SCORE.heavy>
24

>  <SCORE.norm>
-0.837845

>  <RMSD>
3.931

$$$$
lig.pdb
 OpenBabel11021811453D
libRbt.so/2013.1/901 2013/11/27
 24 24  0  0  0  0  0  0  0  0999 V2000
    6.6627   -0.4992    1.7873 C   0  0  0  0  0  0  0  0  0  0  0  0
    7.5787    0.2559    0.9799 C   0  0  0  0  0  0  0  0  0  0  0  0
    8.6481   -0.3374    0.3519 C   0  0  0  0  0  0  0  0  0  0  0  0
    8.9005   -1.7423    0.4609 C   0  0  0  0  0  0  0  0  0  0  0  0
    8.0045   -2.4892    1.2946 C   0  0  0  0  0  0  0  0  0  0  0  0
    6.9413   -1.8966    1.9287 C   0  0  0  0  0  0  0  0  0  0  0  0
    5.5794    0.0743    2.3893 C   0  0  0  0  0  0  0  0  0  0  0  0
    4.9400   -0.4913    3.4354 N   0  0  0  0  0  0  0  0  0  0  0  0
   10.2337   -3.6573   -0.0527 N   0  0  0  0  0  0  0  0  0  0  0  0
    9.9367   -2.3474   -0.1870 C   0  0  0  0  0  0  0  0  0  0  0  0
    5.0654    1.2614    1.9824 N   0  0  0  0  0  0  0  0  0  0  0  0
   10.7627   -1.6776   -1.0255 N   0  0  0  0  0  0  0  0  0  0  0  0
    4.4802    2.2969    2.8319 C   0  0  0  0  0  0  0  0  0  0  0  0
   11.5853   -2.2674   -2.0772 C   0  0  0  0  0  0  0  0  0  0  0  0
    3.3493    2.9757    2.0424 C   0  0  0  0  0  0  0  0  0  0  0  0
   12.7769   -1.3251   -2.3302 C   0  0  0  0  0  0  0  0  0  0  0  0
    1.9782    2.4404    2.4776 C   0  0  0  0  0  0  0  0  0  0  0  0
   12.3544    0.0057   -2.9785 C   0  0  0  0  0  0  0  0  0  0  0  0
    0.8952    3.3062    1.8864 N   0  0  0  0  0  0  0  0  0  0  0  0
   13.5244    0.9451   -3.1270 N   0  0  0  0  0  0  0  0  0  0  0  0
   -0.3091    3.3090    2.7881 C   0  0  0  0  0  0  0  0  0  0  0  0
   13.0089    2.3064   -3.5095 C   0  0  0  0  0  0  0  0  0  0  0  0
    0.5003    2.8130    0.5164 C   0  0  0  0  0  0  0  0  0  0  0  0
   14.4974    0.4796   -4.1741 C   0  0  0  0  0  0  0  0  0  0  0  0
  1  6  2  0  0  0  0
  2  3  2  0  0  0  0
  2  1  1  0  0  0  0
  3  4  1  0  0  0  0
  4 10  1  0  0  0  0
  4  5  2  0  0  0  0
  6  5  1  0  0  0  0
  7  1  1  0  0  0  0
  7 11  1  0  0  0  0
  8  7  2  0  0  0  0
  9 10  2  0  0  0  0
 10 12  1  0  0  0  0
 12 14  1  0  0  0  0
 13 11  1  0  0  0  0
 13 15  1  0  0  0  0
 14 16  1  0  0  0  0
 16 18  1  0  0  0  0
 17 15  1  0  0  0  0
 17 19  1  0  0  0  0
 18 20  1  0  0  0  0
 19 23  1  0  0  0  0
 20 22  1  0  0  0  0
 20 24  1  0  0  0  0
 21 19  1  0  0  0  0
M  END
>  <CHROM.1>
176.83467160,-160.26372630,-154.75944709,-146.36564254,100.69820039,-68.69268633
176.05934997,169.10212522,-150.42801455,-169.07960885,7.56589911,0.21197198
0.28897364,3.12421287,0.48864088,-0.51967247

>  <Name>
lig.pdb

>  <RI>
2.48096e+07

>  <Rbt.Current_Directory>
/home/itssahil/PROJECTS/Mol_Feturizer/New_Systems/rnas/2l94

>  <Rbt.Executable>
rbdock ($Id: //depot/dev/client3/rdock/2013.1/src/exe/rbdock.cxx#4 $)

>  <Rbt.Library>
libRbt.so (2013.1, Build901 2013/11/27)

>  <Rbt.Parameter_File>
/export/apps/rDock/src/rDock_2013.1_src/data/scripts/dock_solv.prm

>  <Rbt.Receptor>
prm/pocket_docking_6.prm

>  <SCORE>
-24.003

>  <SCORE.INTER>
-25.1519

>  <SCORE.INTER.CONST>
1

>  <SCORE.INTER.POLAR>
-2.9469

>  <SCORE.INTER.ROT>
10

>  <SCORE.INTER.SOLV>
12.3819

>  <SCORE.INTER.VDW>
-21.3389

>  <SCORE.INTER.norm>
-1.048

>  <SCORE.INTRA>
1.14893

>  <SCORE.INTRA.DIHEDRAL>
5.74336

>  <SCORE.INTRA.DIHEDRAL.0>
7.52971

>  <SCORE.INTRA.POLAR>
0

>  <SCORE.INTRA.POLAR.0>
0

>  <SCORE.INTRA.REPUL>
0

>  <SCORE.INTRA.REPUL.0>
0

>  <SCORE.INTRA.SOLV>
0.0768398

>  <SCORE.INTRA.SOLV.lig_0>
-22.1084

>  <SCORE.INTRA.VDW>
-1.76117

>  <SCORE.INTRA.VDW.0>
2.4256

>  <SCORE.INTRA.norm>
0.047872

>  <SCORE.RESTR>
0

>  <SCORE.RESTR.CAVITY>
0

>  <SCORE.RESTR.norm>
0

>  <SCORE.SYSTEM>
0

>  <SCORE.SYSTEM.CONST>
0

>  <SCORE.SYSTEM.DIHEDRAL>
0

>  <SCORE.SYSTEM.SOLV>
0

>  <SCORE.SYSTEM.norm>
0

>  <SCORE.heavy>
24

>  <SCORE.norm>
-1.00013

>  <RMSD>
3.946

$$$$
lig.pdb
 OpenBabel11021811453D
libRbt.so/2013.1/901 2013/11/27
 24 24  0  0  0  0  0  0  0  0999 V2000
    8.0894   -3.5525   -0.1836 C   0  0  0  0  0  0  0  0  0  0  0  0
    6.7494   -4.0278    0.0156 C   0  0  0  0  0  0  0  0  0  0  0  0
    5.9175   -3.4725    0.9588 C   0  0  0  0  0  0  0  0  0  0  0  0
    6.3392   -2.3836    1.7869 C   0  0  0  0  0  0  0  0  0  0  0  0
    7.6886   -1.9323    1.6102 C   0  0  0  0  0  0  0  0  0  0  0  0
    8.5226   -2.4912    0.6744 C   0  0  0  0  0  0  0  0  0  0  0  0
    8.9129   -4.0754   -1.1391 C   0  0  0  0  0  0  0  0  0  0  0  0
    8.5387   -5.0853   -1.9535 N   0  0  0  0  0  0  0  0  0  0  0  0
    5.9023   -0.8183    3.5383 N   0  0  0  0  0  0  0  0  0  0  0  0
    5.5107   -1.8014    2.7003 C   0  0  0  0  0  0  0  0  0  0  0  0
   10.1718   -3.6151   -1.3450 N   0  0  0  0  0  0  0  0  0  0  0  0
    4.2144   -2.1659    2.8450 N   0  0  0  0  0  0  0  0  0  0  0  0
   10.8634   -3.5072   -2.6281 C   0  0  0  0  0  0  0  0  0  0  0  0
    3.1533   -1.3571    3.4368 C   0  0  0  0  0  0  0  0  0  0  0  0
   11.4539   -2.0917   -2.7317 C   0  0  0  0  0  0  0  0  0  0  0  0
    2.9603   -0.1104    2.5535 C   0  0  0  0  0  0  0  0  0  0  0  0
   12.6275   -1.9141   -1.7585 C   0  0  0  0  0  0  0  0  0  0  0  0
    1.9203    0.8689    3.1275 C   0  0  0  0  0  0  0  0  0  0  0  0
   13.1813   -0.5190   -1.8957 N   0  0  0  0  0  0  0  0  0  0  0  0
    1.7643    2.0865    2.2520 N   0  0  0  0  0  0  0  0  0  0  0  0
   13.9596   -0.3995   -3.1776 C   0  0  0  0  0  0  0  0  0  0  0  0
    0.9681    3.1229    2.9986 C   0  0  0  0  0  0  0  0  0  0  0  0
   14.0738   -0.1774   -0.7283 C   0  0  0  0  0  0  0  0  0  0  0  0
    1.0643    1.7709    0.9596 C   0  0  0  0  0  0  0  0  0  0  0  0
  1  6  2  0  0  0  0
  2  3  2  0  0  0  0
  2  1  1  0  0  0  0
  3  4  1  0  0  0  0
  4 10  1  0  0  0  0
  4  5  2  0  0  0  0
  6  5  1  0  0  0  0
  7  1  1  0  0  0  0
  7 11  1  0  0  0  0
  8  7  2  0  0  0  0
  9 10  2  0  0  0  0
 10 12  1  0  0  0  0
 12 14  1  0  0  0  0
 13 11  1  0  0  0  0
 13 15  1  0  0  0  0
 14 16  1  0  0  0  0
 16 18  1  0  0  0  0
 17 15  1  0  0  0  0
 17 19  1  0  0  0  0
 18 20  1  0  0  0  0
 19 23  1  0  0  0  0
 20 22  1  0  0  0  0
 20 24  1  0  0  0  0
 21 19  1  0  0  0  0
M  END
>  <CHROM.1>
176.63199673,-0.88007868,63.70221655,130.45873929,70.48071290,-176.43007745
179.30592270,179.72584019,-73.75549305,-168.20735241,7.27910471,-1.49590312
0.48373696,0.28177793,-0.42885125,-3.06493457

>  <Name>
lig.pdb

>  <RI>
1.71133e+07

>  <Rbt.Current_Directory>
/home/itssahil/PROJECTS/Mol_Feturizer/New_Systems/rnas/2l94

>  <Rbt.Executable>
rbdock ($Id: //depot/dev/client3/rdock/2013.1/src/exe/rbdock.cxx#4 $)

>  <Rbt.Library>
libRbt.so (2013.1, Build901 2013/11/27)

>  <Rbt.Parameter_File>
/export/apps/rDock/src/rDock_2013.1_src/data/scripts/dock_solv.prm

>  <Rbt.Receptor>
prm/pocket_docking_5.prm

>  <SCORE>
-23.2089

>  <SCORE.INTER>
-21.4016

>  <SCORE.INTER.CONST>
1

>  <SCORE.INTER.POLAR>
-2.3431

>  <SCORE.INTER.ROT>
10

>  <SCORE.INTER.SOLV>
14.915

>  <SCORE.INTER.VDW>
-21.6957

>  <SCORE.INTER.norm>
-0.891733

>  <SCORE.INTRA>
-2.19543

>  <SCORE.INTRA.DIHEDRAL>
-1.44135

>  <SCORE.INTRA.DIHEDRAL.0>
7.52971

>  <SCORE.INTRA.POLAR>
0

>  <SCORE.INTRA.POLAR.0>
0

>  <SCORE.INTRA.REPUL>
0

>  <SCORE.INTRA.REPUL.0>
0

>  <SCORE.INTRA.SOLV>
0.12706

>  <SCORE.INTRA.SOLV.lig_0>
-22.1084

>  <SCORE.INTRA.VDW>
-1.53829

>  <SCORE.INTRA.VDW.0>
2.4256

>  <SCORE.INTRA.norm>
-0.0914764

>  <SCORE.RESTR>
0.38818

>  <SCORE.RESTR.CAVITY>
0.38818

>  <SCORE.RESTR.norm>
0.0161742

>  <SCORE.SYSTEM>
0

>  <SCORE.SYSTEM.CONST>
0

>  <SCORE.SYSTEM.DIHEDRAL>
0

>  <SCORE.SYSTEM.SOLV>
0

>  <SCORE.SYSTEM.norm>
0

>  <SCORE.heavy>
24

>  <SCORE.norm>
-0.967036

>  <RMSD>
3.970

$$$$
lig.pdb
 OpenBabel11021811453D
libRbt.so/2013.1/901 2013/11/27
 24 24  0  0  0  0  0  0  0  0999 V2000
    8.8369   -1.8101   -0.9160 C   0  0  0  0  0  0  0  0  0  0  0  0
    8.7321   -2.3891    0.3934 C   0  0  0  0  0  0  0  0  0  0  0  0
    7.6693   -2.1167    1.2220 C   0  0  0  0  0  0  0  0  0  0  0  0
    6.6044   -1.2486    0.8197 C   0  0  0  0  0  0  0  0  0  0  0  0
    6.7273   -0.6447   -0.4748 C   0  0  0  0  0  0  0  0  0  0  0  0
    7.7919   -0.9095   -1.2996 C   0  0  0  0  0  0  0  0  0  0  0  0
    9.8717   -2.0988   -1.7590 C   0  0  0  0  0  0  0  0  0  0  0  0
    9.8921   -1.7088   -3.0516 N   0  0  0  0  0  0  0  0  0  0  0  0
    5.3949   -1.5032    2.8644 N   0  0  0  0  0  0  0  0  0  0  0  0
    5.5277   -1.0001    1.6188 C   0  0  0  0  0  0  0  0  0  0  0  0
   10.9624   -2.7980   -1.3583 N   0  0  0  0  0  0  0  0  0  0  0  0
    4.4917   -0.2220    1.2247 N   0  0  0  0  0  0  0  0  0  0  0  0
   12.3410   -2.5940   -1.7990 C   0  0  0  0  0  0  0  0  0  0  0  0
    3.5435    0.4583    2.1014 C   0  0  0  0  0  0  0  0  0  0  0  0
   13.0121   -1.6154   -0.8219 C   0  0  0  0  0  0  0  0  0  0  0  0
    4.2390    1.7087    2.6711 C   0  0  0  0  0  0  0  0  0  0  0  0
   14.4225   -1.2433   -1.2997 C   0  0  0  0  0  0  0  0  0  0  0  0
    4.9684    2.5269    1.5902 C   0  0  0  0  0  0  0  0  0  0  0  0
   15.1489   -0.5222   -0.1933 N   0  0  0  0  0  0  0  0  0  0  0  0
    4.0561    3.5487    0.9600 N   0  0  0  0  0  0  0  0  0  0  0  0
   14.6411    0.8895   -0.0809 C   0  0  0  0  0  0  0  0  0  0  0  0
    3.1152    2.8452    0.0191 C   0  0  0  0  0  0  0  0  0  0  0  0
   16.6359   -0.5061   -0.4474 C   0  0  0  0  0  0  0  0  0  0  0  0
    4.8178    4.5958    0.1962 C   0  0  0  0  0  0  0  0  0  0  0  0
  1  6  2  0  0  0  0
  2  3  2  0  0  0  0
  2  1  1  0  0  0  0
  3  4  1  0  0  0  0
  4 10  1  0  0  0  0
  4  5  2  0  0  0  0
  6  5  1  0  0  0  0
  7  1  1  0  0  0  0
  7 11  1  0  0  0  0
  8  7  2  0  0  0  0
  9 10  2  0  0  0  0
 10 12  1  0  0  0  0
 12 14  1  0  0  0  0
 13 11  1  0  0  0  0
 13 15  1  0  0  0  0
 14 16  1  0  0  0  0
 16 18  1  0  0  0  0
 17 15  1  0  0  0  0
 17 19  1  0  0  0  0
 18 20  1  0  0  0  0
 19 23  1  0  0  0  0
 20 22  1  0  0  0  0
 20 24  1  0  0  0  0
 21 19  1  0  0  0  0
M  END
>  <CHROM.1>
2.56569139,170.77005466,77.38025802,91.96059545,-174.35764947,46.86607269
88.71565383,-168.41398910,-75.73296983,-75.24968723,8.50900798,-0.29104076
0.09641441,0.30350298,-0.19900314,-3.01589687

>  <Name>
lig.pdb

>  <RI>
0

>  <Rbt.Current_Directory>
/home/itssahil/PROJECTS/Mol_Feturizer/New_Systems/rnas/2l94

>  <Rbt.Executable>
rbdock ($Id: //depot/dev/client3/rdock/2013.1/src/exe/rbdock.cxx#4 $)

>  <Rbt.Library>
libRbt.so (2013.1, Build901 2013/11/27)

>  <Rbt.Parameter_File>
/export/apps/rDock/src/rDock_2013.1_src/data/scripts/dock_solv.prm

>  <Rbt.Receptor>
prm/pocket_docking_4.prm

>  <SCORE>
-13.5307

>  <SCORE.INTER>
-13.7575

>  <SCORE.INTER.CONST>
1

>  <SCORE.INTER.POLAR>
-2.02968

>  <SCORE.INTER.ROT>
10

>  <SCORE.INTER.SOLV>
7.6489

>  <SCORE.INTER.VDW>
-15.2224

>  <SCORE.INTER.norm>
-0.573229

>  <SCORE.INTRA>
-0.038968

>  <SCORE.INTRA.DIHEDRAL>
2.72521

>  <SCORE.INTRA.DIHEDRAL.0>
7.52971

>  <SCORE.INTRA.POLAR>
0

>  <SCORE.INTRA.POLAR.0>
0

>  <SCORE.INTRA.REPUL>
0

>  <SCORE.INTRA.REPUL.0>
0

>  <SCORE.INTRA.SOLV>
0.621533

>  <SCORE.INTRA.SOLV.lig_0>
-22.1084

>  <SCORE.INTRA.VDW>
-1.71234

>  <SCORE.INTRA.VDW.0>
2.4256

>  <SCORE.INTRA.norm>
-0.00162367

>  <SCORE.RESTR>
0.265823

>  <SCORE.RESTR.CAVITY>
0.265823

>  <SCORE.RESTR.norm>
0.011076

>  <SCORE.SYSTEM>
0

>  <SCORE.SYSTEM.CONST>
0

>  <SCORE.SYSTEM.DIHEDRAL>
0

>  <SCORE.SYSTEM.SOLV>
0

>  <SCORE.SYSTEM.norm>
0

>  <SCORE.heavy>
24

>  <SCORE.norm>
-0.563777

>  <RMSD>
3.971

$$$$
lig.pdb
 OpenBabel11021811453D
libRbt.so/2013.1/901 2013/11/27
 24 24  0  0  0  0  0  0  0  0999 V2000
    8.6084   -1.4992    0.5337 C   0  0  0  0  0  0  0  0  0  0  0  0
    8.1236   -0.2149    0.1138 C   0  0  0  0  0  0  0  0  0  0  0  0
    7.0219    0.3678    0.6944 C   0  0  0  0  0  0  0  0  0  0  0  0
    6.3045   -0.2705    1.7561 C   0  0  0  0  0  0  0  0  0  0  0  0
    6.7695   -1.5679    2.1514 C   0  0  0  0  0  0  0  0  0  0  0  0
    7.8643   -2.1540    1.5670 C   0  0  0  0  0  0  0  0  0  0  0  0
    9.7202   -2.0725   -0.0142 C   0  0  0  0  0  0  0  0  0  0  0  0
   10.0944   -3.3422    0.2519 N   0  0  0  0  0  0  0  0  0  0  0  0
    4.8850    0.0769    3.6463 N   0  0  0  0  0  0  0  0  0  0  0  0
    5.2328    0.3142    2.3637 C   0  0  0  0  0  0  0  0  0  0  0  0
   10.5324   -1.4080   -0.8731 N   0  0  0  0  0  0  0  0  0  0  0  0
    4.4197    1.1883    1.7244 N   0  0  0  0  0  0  0  0  0  0  0  0
   11.2399   -1.9732   -2.0204 C   0  0  0  0  0  0  0  0  0  0  0  0
    3.5547    2.1799    2.3560 C   0  0  0  0  0  0  0  0  0  0  0  0
   11.1428   -0.9689   -3.1801 C   0  0  0  0  0  0  0  0  0  0  0  0
    2.4133    2.5057    1.3748 C   0  0  0  0  0  0  0  0  0  0  0  0
    9.8150   -1.1274   -3.9336 C   0  0  0  0  0  0  0  0  0  0  0  0
    1.2538    3.2658    2.0438 C   0  0  0  0  0  0  0  0  0  0  0  0
    8.7751   -0.2373   -3.3025 N   0  0  0  0  0  0  0  0  0  0  0  0
    0.4887    2.3816    2.9958 N   0  0  0  0  0  0  0  0  0  0  0  0
    7.4030   -0.6396   -3.7701 C   0  0  0  0  0  0  0  0  0  0  0  0
   -0.2509    1.3385    2.2019 C   0  0  0  0  0  0  0  0  0  0  0  0
    9.0237    1.2098   -3.6493 C   0  0  0  0  0  0  0  0  0  0  0  0
   -0.4990    3.1573    3.8222 C   0  0  0  0  0  0  0  0  0  0  0  0
  1  6  2  0  0  0  0
  2  3  2  0  0  0  0
  2  1  1  0  0  0  0
  3  4  1  0  0  0  0
  4 10  1  0  0  0  0
  4  5  2  0  0  0  0
  6  5  1  0  0  0  0
  7  1  1  0  0  0  0
  7 11  1  0  0  0  0
  8  7  2  0  0  0  0
  9 10  2  0  0  0  0
 10 12  1  0  0  0  0
 12 14  1  0  0  0  0
 13 11  1  0  0  0  0
 13 15  1  0  0  0  0
 14 16  1  0  0  0  0
 16 18  1  0  0  0  0
 17 15  1  0  0  0  0
 17 19  1  0  0  0  0
 18 20  1  0  0  0  0
 19 23  1  0  0  0  0
 20 22  1  0  0  0  0
 20 24  1  0  0  0  0
 21 19  1  0  0  0  0
M  END
>  <CHROM.1>
-151.15273986,-171.73654326,-155.84168365,138.99729042,-83.27747216,165.85962655
-70.12291129,89.69966357,-164.87489939,-68.69843307,6.35762818,0.05216895
0.35426990,-0.29102945,-0.53717911,1.97517571

>  <Name>
lig.pdb

>  <RI>
1.71133e+07

>  <Rbt.Current_Directory>
/home/itssahil/PROJECTS/Mol_Feturizer/New_Systems/rnas/2l94

>  <Rbt.Executable>
rbdock ($Id: //depot/dev/client3/rdock/2013.1/src/exe/rbdock.cxx#4 $)

>  <Rbt.Library>
libRbt.so (2013.1, Build901 2013/11/27)

>  <Rbt.Parameter_File>
/export/apps/rDock/src/rDock_2013.1_src/data/scripts/dock_solv.prm

>  <Rbt.Receptor>
prm/pocket_docking_5.prm

>  <SCORE>
-16.0251

>  <SCORE.INTER>
-17.2548

>  <SCORE.INTER.CONST>
1

>  <SCORE.INTER.POLAR>
-2.47641

>  <SCORE.INTER.ROT>
10

>  <SCORE.INTER.SOLV>
9.2987

>  <SCORE.INTER.VDW>
-16.6148

>  <SCORE.INTER.norm>
-0.718952

>  <SCORE.INTRA>
1.20083

>  <SCORE.INTRA.DIHEDRAL>
6.84001

>  <SCORE.INTRA.DIHEDRAL.0>
7.52971

>  <SCORE.INTRA.POLAR>
0

>  <SCORE.INTRA.POLAR.0>
0

>  <SCORE.INTRA.REPUL>
0

>  <SCORE.INTRA.REPUL.0>
0

>  <SCORE.INTRA.SOLV>
0.755554

>  <SCORE.INTRA.SOLV.lig_0>
-22.1084

>  <SCORE.INTRA.VDW>
-2.59696

>  <SCORE.INTRA.VDW.0>
2.4256

>  <SCORE.INTRA.norm>
0.0500344

>  <SCORE.RESTR>
0.0289693

>  <SCORE.RESTR.CAVITY>
0.0289693

>  <SCORE.RESTR.norm>
0.00120705

>  <SCORE.SYSTEM>
0

>  <SCORE.SYSTEM.CONST>
0

>  <SCORE.SYSTEM.DIHEDRAL>
0

>  <SCORE.SYSTEM.SOLV>
0

>  <SCORE.SYSTEM.norm>
0

>  <SCORE.heavy>
24

>  <SCORE.norm>
-0.66771

>  <RMSD>
4.010

$$$$
lig.pdb
 OpenBabel11021811453D
libRbt.so/2013.1/901 2013/11/27
 24 24  0  0  0  0  0  0  0  0999 V2000
    8.2378   -1.6462    0.0103 C   0  0  0  0  0  0  0  0  0  0  0  0
    7.4245   -0.7601   -0.7736 C   0  0  0  0  0  0  0  0  0  0  0  0
    6.3278   -0.1241   -0.2417 C   0  0  0  0  0  0  0  0  0  0  0  0
    5.9432   -0.3032    1.1255 C   0  0  0  0  0  0  0  0  0  0  0  0
    6.7364   -1.2143    1.8978 C   0  0  0  0  0  0  0  0  0  0  0  0
    7.8267   -1.8561    1.3657 C   0  0  0  0  0  0  0  0  0  0  0  0
    9.3473   -2.2580   -0.4990 C   0  0  0  0  0  0  0  0  0  0  0  0
    9.8922   -3.3623    0.0547 N   0  0  0  0  0  0  0  0  0  0  0  0
    4.8037    0.6836    2.9792 N   0  0  0  0  0  0  0  0  0  0  0  0
    4.8791    0.3506    1.6732 C   0  0  0  0  0  0  0  0  0  0  0  0
    9.9851   -1.8026   -1.6058 N   0  0  0  0  0  0  0  0  0  0  0  0
    3.7989    0.7220    0.9458 N   0  0  0  0  0  0  0  0  0  0  0  0
   10.6334   -2.6123   -2.6355 C   0  0  0  0  0  0  0  0  0  0  0  0
    2.8460    1.7715    1.2936 C   0  0  0  0  0  0  0  0  0  0  0  0
   12.1462   -2.3488   -2.5643 C   0  0  0  0  0  0  0  0  0  0  0  0
    3.4687    3.1246    0.9022 C   0  0  0  0  0  0  0  0  0  0  0  0
   12.4734   -0.9105   -2.9885 C   0  0  0  0  0  0  0  0  0  0  0  0
    3.8176    3.2069   -0.5949 C   0  0  0  0  0  0  0  0  0  0  0  0
   13.9670   -0.7100   -2.9581 N   0  0  0  0  0  0  0  0  0  0  0  0
    4.5200    4.4985   -0.9293 N   0  0  0  0  0  0  0  0  0  0  0  0
   14.4053   -0.3273   -1.5707 C   0  0  0  0  0  0  0  0  0  0  0  0
    4.5160    4.6809   -2.4234 C   0  0  0  0  0  0  0  0  0  0  0  0
   14.3859    0.3612   -3.9345 C   0  0  0  0  0  0  0  0  0  0  0  0
    5.9410    4.5158   -0.4392 C   0  0  0  0  0  0  0  0  0  0  0  0
  1  6  2  0  0  0  0
  2  3  2  0  0  0  0
  2  1  1  0  0  0  0
  3  4  1  0  0  0  0
  4 10  1  0  0  0  0
  4  5  2  0  0  0  0
  6  5  1  0  0  0  0
  7  1  1  0  0  0  0
  7 11  1  0  0  0  0
  8  7  2  0  0  0  0
  9 10  2  0  0  0  0
 10 12  1  0  0  0  0
 12 14  1  0  0  0  0
 13 11  1  0  0  0  0
 13 15  1  0  0  0  0
 14 16  1  0  0  0  0
 16 18  1  0  0  0  0
 17 15  1  0  0  0  0
 17 19  1  0  0  0  0
 18 20  1  0  0  0  0
 19 23  1  0  0  0  0
 20 22  1  0  0  0  0
 20 24  1  0  0  0  0
 21 19  1  0  0  0  0
M  END
>  <CHROM.1>
-150.49098237,-160.06361344,80.53607120,-112.99499294,-67.47322892,58.42533302
-175.67062970,-177.74910555,-85.66201759,-165.60125526,7.89456443,0.20747748
-0.53559507,0.19601642,-0.47601134,2.62674017

>  <Name>
lig.pdb

>  <RI>
1.71133e+07

>  <Rbt.Current_Directory>
/home/itssahil/PROJECTS/Mol_Feturizer/New_Systems/rnas/2l94

>  <Rbt.Executable>
rbdock ($Id: //depot/dev/client3/rdock/2013.1/src/exe/rbdock.cxx#4 $)

>  <Rbt.Library>
libRbt.so (2013.1, Build901 2013/11/27)

>  <Rbt.Parameter_File>
/export/apps/rDock/src/rDock_2013.1_src/data/scripts/dock_solv.prm

>  <Rbt.Receptor>
prm/pocket_docking_5.prm

>  <SCORE>
-33.1823

>  <SCORE.INTER>
-32.0557

>  <SCORE.INTER.CONST>
1

>  <SCORE.INTER.POLAR>
-4.98244

>  <SCORE.INTER.ROT>
10

>  <SCORE.INTER.SOLV>
10.8655

>  <SCORE.INTER.VDW>
-18.6508

>  <SCORE.INTER.norm>
-1.33565

>  <SCORE.INTRA>
-1.12666

>  <SCORE.INTRA.DIHEDRAL>
4.11981

>  <SCORE.INTRA.DIHEDRAL.0>
7.52971

>  <SCORE.INTRA.POLAR>
0

>  <SCORE.INTRA.POLAR.0>
0

>  <SCORE.INTRA.REPUL>
0

>  <SCORE.INTRA.REPUL.0>
0

>  <SCORE.INTRA.SOLV>
0.466676

>  <SCORE.INTRA.SOLV.lig_0>
-22.1084

>  <SCORE.INTRA.VDW>
-3.41991

>  <SCORE.INTRA.VDW.0>
2.4256

>  <SCORE.INTRA.norm>
-0.0469443

>  <SCORE.RESTR>
0

>  <SCORE.RESTR.CAVITY>
0

>  <SCORE.RESTR.norm>
0

>  <SCORE.SYSTEM>
0

>  <SCORE.SYSTEM.CONST>
0

>  <SCORE.SYSTEM.DIHEDRAL>
0

>  <SCORE.SYSTEM.SOLV>
0

>  <SCORE.SYSTEM.norm>
0

>  <SCORE.heavy>
24

>  <SCORE.norm>
-1.3826

>  <RMSD>
4.032

$$$$
lig.pdb
 OpenBabel11021811453D
libRbt.so/2013.1/901 2013/11/27
 24 24  0  0  0  0  0  0  0  0999 V2000
    6.6175   -0.8089    1.3303 C   0  0  0  0  0  0  0  0  0  0  0  0
    6.6145    0.4774    0.6927 C   0  0  0  0  0  0  0  0  0  0  0  0
    5.6582    1.4234    0.9766 C   0  0  0  0  0  0  0  0  0  0  0  0
    4.6191    1.1806    1.9310 C   0  0  0  0  0  0  0  0  0  0  0  0
    4.6037   -0.1165    2.5419 C   0  0  0  0  0  0  0  0  0  0  0  0
    5.5532   -1.0645    2.2533 C   0  0  0  0  0  0  0  0  0  0  0  0
    7.5809   -1.7436    1.0793 C   0  0  0  0  0  0  0  0  0  0  0  0
    7.8394   -2.7701    1.9175 N   0  0  0  0  0  0  0  0  0  0  0  0
    3.6676    3.3604    1.7047 N   0  0  0  0  0  0  0  0  0  0  0  0
    3.6871    2.1245    2.2471 C   0  0  0  0  0  0  0  0  0  0  0  0
    8.3503   -1.7130   -0.0370 N   0  0  0  0  0  0  0  0  0  0  0  0
    2.6952    1.8986    3.1411 N   0  0  0  0  0  0  0  0  0  0  0  0
    8.8417   -2.8647   -0.7909 C   0  0  0  0  0  0  0  0  0  0  0  0
    1.4324    2.6255    3.2282 C   0  0  0  0  0  0  0  0  0  0  0  0
    7.7163   -3.3351   -1.7266 C   0  0  0  0  0  0  0  0  0  0  0  0
    0.6071    2.2921    1.9715 C   0  0  0  0  0  0  0  0  0  0  0  0
    7.3284   -2.2291   -2.7177 C   0  0  0  0  0  0  0  0  0  0  0  0
    0.5894    0.7857    1.6549 C   0  0  0  0  0  0  0  0  0  0  0  0
    8.4052   -2.0984   -3.7643 N   0  0  0  0  0  0  0  0  0  0  0  0
   -0.0364   -0.0077    2.7740 N   0  0  0  0  0  0  0  0  0  0  0  0
    9.4685   -1.1455   -3.2905 C   0  0  0  0  0  0  0  0  0  0  0  0
    0.1527   -1.4745    2.4945 C   0  0  0  0  0  0  0  0  0  0  0  0
    7.8299   -1.6063   -5.0693 C   0  0  0  0  0  0  0  0  0  0  0  0
   -1.5056    0.2761    2.9190 C   0  0  0  0  0  0  0  0  0  0  0  0
  1  6  2  0  0  0  0
  2  3  2  0  0  0  0
  2  1  1  0  0  0  0
  3  4  1  0  0  0  0
  4 10  1  0  0  0  0
  4  5  2  0  0  0  0
  6  5  1  0  0  0  0
  7  1  1  0  0  0  0
  7 11  1  0  0  0  0
  8  7  2  0  0  0  0
  9 10  2  0  0  0  0
 10 12  1  0  0  0  0
 12 14  1  0  0  0  0
 13 11  1  0  0  0  0
 13 15  1  0  0  0  0
 14 16  1  0  0  0  0
 16 18  1  0  0  0  0
 17 15  1  0  0  0  0
 17 19  1  0  0  0  0
 18 20  1  0  0  0  0
 19 23  1  0  0  0  0
 20 22  1  0  0  0  0
 20 24  1  0  0  0  0
 21 19  1  0  0  0  0
M  END
>  <CHROM.1>
-0.60819469,160.04698439,67.71745270,82.02427627,61.03858522,46.16267782
61.39191187,73.86394739,-87.52488847,-172.03317302,4.90706438,-0.29405202
0.69170941,-0.64860751,-0.13540838,1.14665308

>  <Name>
lig.pdb

>  <RI>
1.71133e+07

>  <Rbt.Current_Directory>
/home/itssahil/PROJECTS/Mol_Feturizer/New_Systems/rnas/2l94

>  <Rbt.Executable>
rbdock ($Id: //depot/dev/client3/rdock/2013.1/src/exe/rbdock.cxx#4 $)

>  <Rbt.Library>
libRbt.so (2013.1, Build901 2013/11/27)

>  <Rbt.Parameter_File>
/export/apps/rDock/src/rDock_2013.1_src/data/scripts/dock_solv.prm

>  <Rbt.Receptor>
prm/pocket_docking_5.prm

>  <SCORE>
-21.1907

>  <SCORE.INTER>
-21.0708

>  <SCORE.INTER.CONST>
1

>  <SCORE.INTER.POLAR>
-3.90178

>  <SCORE.INTER.ROT>
10

>  <SCORE.INTER.SOLV>
10.1039

>  <SCORE.INTER.VDW>
-14.6759

>  <SCORE.INTER.norm>
-0.877949

>  <SCORE.INTRA>
-0.119957

>  <SCORE.INTRA.DIHEDRAL>
1.9874

>  <SCORE.INTRA.DIHEDRAL.0>
7.52971

>  <SCORE.INTRA.POLAR>
0

>  <SCORE.INTRA.POLAR.0>
0

>  <SCORE.INTRA.REPUL>
0

>  <SCORE.INTRA.REPUL.0>
0

>  <SCORE.INTRA.SOLV>
1.58332

>  <SCORE.INTRA.SOLV.lig_0>
-22.1084

>  <SCORE.INTRA.VDW>
-1.90531

>  <SCORE.INTRA.VDW.0>
2.4256

>  <SCORE.INTRA.norm>
-0.00499822

>  <SCORE.RESTR>
0

>  <SCORE.RESTR.CAVITY>
0

>  <SCORE.RESTR.norm>
0

>  <SCORE.SYSTEM>
0

>  <SCORE.SYSTEM.CONST>
0

>  <SCORE.SYSTEM.DIHEDRAL>
0

>  <SCORE.SYSTEM.SOLV>
0

>  <SCORE.SYSTEM.norm>
0

>  <SCORE.heavy>
24

>  <SCORE.norm>
-0.882948

>  <RMSD>
4.036

$$$$
lig.pdb
 OpenBabel11021811453D
libRbt.so/2013.1/901 2013/11/27
 24 24  0  0  0  0  0  0  0  0999 V2000
    7.7555   -2.2621   -0.6608 C   0  0  0  0  0  0  0  0  0  0  0  0
    8.0881   -2.4973    0.7158 C   0  0  0  0  0  0  0  0  0  0  0  0
    7.3521   -1.9524    1.7412 C   0  0  0  0  0  0  0  0  0  0  0  0
    6.2079   -1.1290    1.4917 C   0  0  0  0  0  0  0  0  0  0  0  0
    5.8970   -0.8676    0.1167 C   0  0  0  0  0  0  0  0  0  0  0  0
    6.6359   -1.4044   -0.9078 C   0  0  0  0  0  0  0  0  0  0  0  0
    8.4604   -2.8242   -1.6865 C   0  0  0  0  0  0  0  0  0  0  0  0
    7.9347   -3.0177   -2.9150 N   0  0  0  0  0  0  0  0  0  0  0  0
    5.5319   -1.0323    3.7812 N   0  0  0  0  0  0  0  0  0  0  0  0
    5.4492   -0.6133    2.5007 C   0  0  0  0  0  0  0  0  0  0  0  0
    9.7477   -3.2279   -1.5483 N   0  0  0  0  0  0  0  0  0  0  0  0
    4.5402    0.3701    2.2996 N   0  0  0  0  0  0  0  0  0  0  0  0
   10.7992   -3.1555   -2.5610 C   0  0  0  0  0  0  0  0  0  0  0  0
    4.0155    1.2785    3.3145 C   0  0  0  0  0  0  0  0  0  0  0  0
   11.0860   -1.6717   -2.8425 C   0  0  0  0  0  0  0  0  0  0  0  0
    2.5984    1.7009    2.8842 C   0  0  0  0  0  0  0  0  0  0  0  0
    9.9228   -1.0230   -3.6054 C   0  0  0  0  0  0  0  0  0  0  0  0
    1.5771    0.5545    2.9971 C   0  0  0  0  0  0  0  0  0  0  0  0
   10.3615    0.3179   -4.1358 N   0  0  0  0  0  0  0  0  0  0  0  0
    1.2100    0.2797    4.4335 N   0  0  0  0  0  0  0  0  0  0  0  0
   10.5269    1.2901   -2.9995 C   0  0  0  0  0  0  0  0  0  0  0  0
    2.1002   -0.8129    4.9619 C   0  0  0  0  0  0  0  0  0  0  0  0
    9.3582    0.8601   -5.1234 C   0  0  0  0  0  0  0  0  0  0  0  0
   -0.2244   -0.1447    4.5821 C   0  0  0  0  0  0  0  0  0  0  0  0
  1  6  2  0  0  0  0
  2  3  2  0  0  0  0
  2  1  1  0  0  0  0
  3  4  1  0  0  0  0
  4 10  1  0  0  0  0
  4  5  2  0  0  0  0
  6  5  1  0  0  0  0
  7  1  1  0  0  0  0
  7 11  1  0  0  0  0
  8  7  2  0  0  0  0
  9 10  2  0  0  0  0
 10 12  1  0  0  0  0
 12 14  1  0  0  0  0
 13 11  1  0  0  0  0
 13 15  1  0  0  0  0
 14 16  1  0  0  0  0
 16 18  1  0  0  0  0
 17 15  1  0  0  0  0
 17 19  1  0  0  0  0
 18 20  1  0  0  0  0
 19 23  1  0  0  0  0
 20 22  1  0  0  0  0
 20 24  1  0  0  0  0
 21 19  1  0  0  0  0
M  END
>  <CHROM.1>
-13.66028267,156.15224874,-151.78519105,65.72978398,-70.91894172,70.54312568
74.19614188,-167.13501039,-70.35473167,-93.61401322,6.51330057,-0.84063781
0.28275038,-0.28451165,-0.70384059,2.51605351

>  <Name>
lig.pdb

>  <RI>
2.48096e+07

>  <Rbt.Current_Directory>
/home/itssahil/PROJECTS/Mol_Feturizer/New_Systems/rnas/2l94

>  <Rbt.Executable>
rbdock ($Id: //depot/dev/client3/rdock/2013.1/src/exe/rbdock.cxx#4 $)

>  <Rbt.Library>
libRbt.so (2013.1, Build901 2013/11/27)

>  <Rbt.Parameter_File>
/export/apps/rDock/src/rDock_2013.1_src/data/scripts/dock_solv.prm

>  <Rbt.Receptor>
prm/pocket_docking_6.prm

>  <SCORE>
-12.9294

>  <SCORE.INTER>
-14.0376

>  <SCORE.INTER.CONST>
1

>  <SCORE.INTER.POLAR>
-2.93539

>  <SCORE.INTER.ROT>
10

>  <SCORE.INTER.SOLV>
10.5243

>  <SCORE.INTER.VDW>
-13.3485

>  <SCORE.INTER.norm>
-0.584899

>  <SCORE.INTRA>
1.10819

>  <SCORE.INTRA.DIHEDRAL>
4.78264

>  <SCORE.INTRA.DIHEDRAL.0>
7.52971

>  <SCORE.INTRA.POLAR>
0

>  <SCORE.INTRA.POLAR.0>
0

>  <SCORE.INTRA.REPUL>
0

>  <SCORE.INTRA.REPUL.0>
0

>  <SCORE.INTRA.SOLV>
1.25215

>  <SCORE.INTRA.SOLV.lig_0>
-22.1084

>  <SCORE.INTRA.VDW>
-1.9092

>  <SCORE.INTRA.VDW.0>
2.4256

>  <SCORE.INTRA.norm>
0.0461747

>  <SCORE.RESTR>
0

>  <SCORE.RESTR.CAVITY>
0

>  <SCORE.RESTR.norm>
0

>  <SCORE.SYSTEM>
0

>  <SCORE.SYSTEM.CONST>
0

>  <SCORE.SYSTEM.DIHEDRAL>
0

>  <SCORE.SYSTEM.SOLV>
0

>  <SCORE.SYSTEM.norm>
0

>  <SCORE.heavy>
24

>  <SCORE.norm>
-0.538724

>  <RMSD>
4.076

$$$$
lig.pdb
 OpenBabel11021811453D
libRbt.so/2013.1/901 2013/11/27
 24 24  0  0  0  0  0  0  0  0999 V2000
    4.9578    1.7601    0.9472 C   0  0  0  0  0  0  0  0  0  0  0  0
    5.8922    1.5944   -0.1301 C   0  0  0  0  0  0  0  0  0  0  0  0
    6.7773    0.5429   -0.1648 C   0  0  0  0  0  0  0  0  0  0  0  0
    6.8083   -0.4493    0.8666 C   0  0  0  0  0  0  0  0  0  0  0  0
    5.8977   -0.2640    1.9585 C   0  0  0  0  0  0  0  0  0  0  0  0
    5.0192    0.7898    1.9983 C   0  0  0  0  0  0  0  0  0  0  0  0
    4.0532    2.7827    0.9755 C   0  0  0  0  0  0  0  0  0  0  0  0
    4.1134    3.8354    0.1321 N   0  0  0  0  0  0  0  0  0  0  0  0
    7.7317   -2.4452    1.8004 N   0  0  0  0  0  0  0  0  0  0  0  0
    7.6568   -1.5160    0.8241 C   0  0  0  0  0  0  0  0  0  0  0  0
    3.0203    2.8154    1.8536 N   0  0  0  0  0  0  0  0  0  0  0  0
    8.5038   -1.7328   -0.2100 N   0  0  0  0  0  0  0  0  0  0  0  0
    1.6773    3.3350    1.6033 C   0  0  0  0  0  0  0  0  0  0  0  0
    9.1073   -3.0106   -0.5756 C   0  0  0  0  0  0  0  0  0  0  0  0
    0.8768    3.2321    2.9117 C   0  0  0  0  0  0  0  0  0  0  0  0
    8.1956   -3.6832   -1.6186 C   0  0  0  0  0  0  0  0  0  0  0  0
   -0.6186    3.4697    2.6603 C   0  0  0  0  0  0  0  0  0  0  0  0
    6.7001   -3.5304   -1.2868 C   0  0  0  0  0  0  0  0  0  0  0  0
   -1.3332    3.5870    3.9822 N   0  0  0  0  0  0  0  0  0  0  0  0
    5.8357   -4.2769   -2.2712 N   0  0  0  0  0  0  0  0  0  0  0  0
   -1.4061    2.2397    4.6476 C   0  0  0  0  0  0  0  0  0  0  0  0
    5.9898   -3.6459   -3.6290 C   0  0  0  0  0  0  0  0  0  0  0  0
   -2.7264    4.1342    3.7938 C   0  0  0  0  0  0  0  0  0  0  0  0
    4.3833   -4.2531   -1.8839 C   0  0  0  0  0  0  0  0  0  0  0  0
  1  6  2  0  0  0  0
  2  3  2  0  0  0  0
  2  1  1  0  0  0  0
  3  4  1  0  0  0  0
  4 10  1  0  0  0  0
  4  5  2  0  0  0  0
  6  5  1  0  0  0  0
  7  1  1  0  0  0  0
  7 11  1  0  0  0  0
  8  7  2  0  0  0  0
  9 10  2  0  0  0  0
 10 12  1  0  0  0  0
 12 14  1  0  0  0  0
 13 11  1  0  0  0  0
 13 15  1  0  0  0  0
 14 16  1  0  0  0  0
 16 18  1  0  0  0  0
 17 15  1  0  0  0  0
 17 19  1  0  0  0  0
 18 20  1  0  0  0  0
 19 23  1  0  0  0  0
 20 22  1  0  0  0  0
 20 24  1  0  0  0  0
 21 19  1  0  0  0  0
M  END
>  <CHROM.1>
178.12491492,-11.78709252,92.65552634,-176.91642552,-167.70196272,-41.15899420
-176.11868244,-170.74129119,-71.84142749,-65.09119691,4.39345719,0.20324783
0.80013466,-2.35188164,-0.10133189,-2.66019415

>  <Name>
lig.pdb

>  <RI>
0

>  <Rbt.Current_Directory>
/home/itssahil/PROJECTS/Mol_Feturizer/New_Systems/rnas/2l94

>  <Rbt.Executable>
rbdock ($Id: //depot/dev/client3/rdock/2013.1/src/exe/rbdock.cxx#4 $)

>  <Rbt.Library>
libRbt.so (2013.1, Build901 2013/11/27)

>  <Rbt.Parameter_File>
/export/apps/rDock/src/rDock_2013.1_src/data/scripts/dock_solv.prm

>  <Rbt.Receptor>
prm/pocket_docking_4.prm

>  <SCORE>
-21.6126

>  <SCORE.INTER>
-21.903

>  <SCORE.INTER.CONST>
1

>  <SCORE.INTER.POLAR>
-3.30031

>  <SCORE.INTER.ROT>
10

>  <SCORE.INTER.SOLV>
10.6687

>  <SCORE.INTER.VDW>
-17.4238

>  <SCORE.INTER.norm>
-0.912624

>  <SCORE.INTRA>
0.290377

>  <SCORE.INTRA.DIHEDRAL>
0.477295

>  <SCORE.INTRA.DIHEDRAL.0>
7.52971

>  <SCORE.INTRA.POLAR>
0

>  <SCORE.INTRA.POLAR.0>
0

>  <SCORE.INTRA.REPUL>
0

>  <SCORE.INTRA.REPUL.0>
0

>  <SCORE.INTRA.SOLV>
0.337238

>  <SCORE.INTRA.SOLV.lig_0>
-22.1084

>  <SCORE.INTRA.VDW>
-0.11689

>  <SCORE.INTRA.VDW.0>
2.4256

>  <SCORE.INTRA.norm>
0.012099

>  <SCORE.RESTR>
0

>  <SCORE.RESTR.CAVITY>
0

>  <SCORE.RESTR.norm>
0

>  <SCORE.SYSTEM>
0

>  <SCORE.SYSTEM.CONST>
0

>  <SCORE.SYSTEM.DIHEDRAL>
0

>  <SCORE.SYSTEM.SOLV>
0

>  <SCORE.SYSTEM.norm>
0

>  <SCORE.heavy>
24

>  <SCORE.norm>
-0.900525

>  <RMSD>
4.126

$$$$
lig.pdb
 OpenBabel11021811453D
libRbt.so/2013.1/901 2013/11/27
 24 24  0  0  0  0  0  0  0  0999 V2000
    7.8360   -3.4951   -0.3754 C   0  0  0  0  0  0  0  0  0  0  0  0
    8.1962   -2.7864    0.8200 C   0  0  0  0  0  0  0  0  0  0  0  0
    7.2462   -2.2910    1.6815 C   0  0  0  0  0  0  0  0  0  0  0  0
    5.8461   -2.4637    1.4381 C   0  0  0  0  0  0  0  0  0  0  0  0
    5.4874   -3.1421    0.2269 C   0  0  0  0  0  0  0  0  0  0  0  0
    6.4349   -3.6300   -0.6379 C   0  0  0  0  0  0  0  0  0  0  0  0
    8.7715   -4.0188   -1.2212 C   0  0  0  0  0  0  0  0  0  0  0  0
    8.5174   -5.0672   -2.0332 N   0  0  0  0  0  0  0  0  0  0  0  0
    5.0858   -1.9228    3.6376 N   0  0  0  0  0  0  0  0  0  0  0  0
    4.8959   -2.0085    2.3039 C   0  0  0  0  0  0  0  0  0  0  0  0
   10.0295   -3.5205   -1.3121 N   0  0  0  0  0  0  0  0  0  0  0  0
    3.6709   -1.6022    1.8938 N   0  0  0  0  0  0  0  0  0  0  0  0
   10.8477   -3.4294   -2.5197 C   0  0  0  0  0  0  0  0  0  0  0  0
    2.7698   -0.7140    2.6216 C   0  0  0  0  0  0  0  0  0  0  0  0
   11.6052   -2.0924   -2.4804 C   0  0  0  0  0  0  0  0  0  0  0  0
    3.5004    0.6237    2.8423 C   0  0  0  0  0  0  0  0  0  0  0  0
   12.6850   -2.1052   -1.3896 C   0  0  0  0  0  0  0  0  0  0  0  0
    3.6353    1.4471    1.5485 C   0  0  0  0  0  0  0  0  0  0  0  0
   13.3307   -0.7454   -1.3122 N   0  0  0  0  0  0  0  0  0  0  0  0
    4.5956    2.5966    1.7217 N   0  0  0  0  0  0  0  0  0  0  0  0
   14.1733   -0.5070   -2.5355 C   0  0  0  0  0  0  0  0  0  0  0  0
    4.3031    3.6361    0.6732 C   0  0  0  0  0  0  0  0  0  0  0  0
   14.1879   -0.6266   -0.0765 C   0  0  0  0  0  0  0  0  0  0  0  0
    6.0294    2.1634    1.5931 C   0  0  0  0  0  0  0  0  0  0  0  0
  1  6  2  0  0  0  0
  2  3  2  0  0  0  0
  2  1  1  0  0  0  0
  3  4  1  0  0  0  0
  4 10  1  0  0  0  0
  4  5  2  0  0  0  0
  6  5  1  0  0  0  0
  7  1  1  0  0  0  0
  7 11  1  0  0  0  0
  8  7  2  0  0  0  0
  9 10  2  0  0  0  0
 10 12  1  0  0  0  0
 12 14  1  0  0  0  0
 13 11  1  0  0  0  0
 13 15  1  0  0  0  0
 14 16  1  0  0  0  0
 16 18  1  0  0  0  0
 17 15  1  0  0  0  0
 17 19  1  0  0  0  0
 18 20  1  0  0  0  0
 19 23  1  0  0  0  0
 20 22  1  0  0  0  0
 20 24  1  0  0  0  0
 21 19  1  0  0  0  0
M  END
>  <CHROM.1>
-30.79154371,154.61843976,59.22187214,140.73125160,69.96036360,72.35340486
-167.90855124,-175.67677467,-70.38686887,-158.52774111,7.69720002,-1.41662061
0.29255117,0.33866056,-0.37767937,-2.94914927

>  <Name>
lig.pdb

>  <RI>
1.39428e+07

>  <Rbt.Current_Directory>
/home/itssahil/PROJECTS/Mol_Feturizer/New_Systems/rnas/2l94

>  <Rbt.Executable>
rbdock ($Id: //depot/dev/client3/rdock/2013.1/src/exe/rbdock.cxx#4 $)

>  <Rbt.Library>
libRbt.so (2013.1, Build901 2013/11/27)

>  <Rbt.Parameter_File>
/export/apps/rDock/src/rDock_2013.1_src/data/scripts/dock_solv.prm

>  <Rbt.Receptor>
prm/pocket_docking_8.prm

>  <SCORE>
-21.5638

>  <SCORE.INTER>
-22.3213

>  <SCORE.INTER.CONST>
1

>  <SCORE.INTER.POLAR>
-2.60265

>  <SCORE.INTER.ROT>
10

>  <SCORE.INTER.SOLV>
13.6166

>  <SCORE.INTER.VDW>
-21.0109

>  <SCORE.INTER.norm>
-0.930054

>  <SCORE.INTRA>
0.757445

>  <SCORE.INTRA.DIHEDRAL>
5.72784

>  <SCORE.INTRA.DIHEDRAL.0>
7.52971

>  <SCORE.INTRA.POLAR>
0

>  <SCORE.INTRA.POLAR.0>
0

>  <SCORE.INTRA.REPUL>
0

>  <SCORE.INTRA.REPUL.0>
0

>  <SCORE.INTRA.SOLV>
0.428373

>  <SCORE.INTRA.SOLV.lig_0>
-22.1084

>  <SCORE.INTRA.VDW>
-2.32066

>  <SCORE.INTRA.VDW.0>
2.4256

>  <SCORE.INTRA.norm>
0.0315602

>  <SCORE.RESTR>
0

>  <SCORE.RESTR.CAVITY>
0

>  <SCORE.RESTR.norm>
0

>  <SCORE.SYSTEM>
0

>  <SCORE.SYSTEM.CONST>
0

>  <SCORE.SYSTEM.DIHEDRAL>
0

>  <SCORE.SYSTEM.SOLV>
0

>  <SCORE.SYSTEM.norm>
0

>  <SCORE.heavy>
24

>  <SCORE.norm>
-0.898494

>  <RMSD>
4.145

$$$$
lig.pdb
 OpenBabel11021811453D
libRbt.so/2013.1/901 2013/11/27
 24 24  0  0  0  0  0  0  0  0999 V2000
    9.0020   -1.4680    0.3692 C   0  0  0  0  0  0  0  0  0  0  0  0
    8.8706   -0.0452    0.2300 C   0  0  0  0  0  0  0  0  0  0  0  0
    7.8282    0.6446    0.8023 C   0  0  0  0  0  0  0  0  0  0  0  0
    6.8225   -0.0175    1.5767 C   0  0  0  0  0  0  0  0  0  0  0  0
    6.9363   -1.4425    1.6867 C   0  0  0  0  0  0  0  0  0  0  0  0
    7.9721   -2.1332    1.1089 C   0  0  0  0  0  0  0  0  0  0  0  0
   10.0504   -2.1585   -0.1682 C   0  0  0  0  0  0  0  0  0  0  0  0
   10.2928   -3.4562    0.1148 N   0  0  0  0  0  0  0  0  0  0  0  0
    5.7135    2.0079    2.1901 N   0  0  0  0  0  0  0  0  0  0  0  0
    5.8045    0.6612    2.1791 C   0  0  0  0  0  0  0  0  0  0  0  0
   10.9277   -1.5911   -1.0328 N   0  0  0  0  0  0  0  0  0  0  0  0
    4.7919    0.0345    2.8238 N   0  0  0  0  0  0  0  0  0  0  0  0
   11.5759   -2.2400   -2.1708 C   0  0  0  0  0  0  0  0  0  0  0  0
    3.4728    0.5932    3.1040 C   0  0  0  0  0  0  0  0  0  0  0  0
   11.9722   -1.1481   -3.1776 C   0  0  0  0  0  0  0  0  0  0  0  0
    3.0429    0.1128    4.5026 C   0  0  0  0  0  0  0  0  0  0  0  0
   13.2208   -0.3916   -2.7035 C   0  0  0  0  0  0  0  0  0  0  0  0
    1.5193    0.1823    4.7120 C   0  0  0  0  0  0  0  0  0  0  0  0
   13.5623    0.6823   -3.7045 N   0  0  0  0  0  0  0  0  0  0  0  0
    1.0225    1.6059    4.6936 N   0  0  0  0  0  0  0  0  0  0  0  0
   14.9940    1.1103   -3.5298 C   0  0  0  0  0  0  0  0  0  0  0  0
    0.7752    2.0523    6.1096 C   0  0  0  0  0  0  0  0  0  0  0  0
   12.6542    1.8762   -3.5432 C   0  0  0  0  0  0  0  0  0  0  0  0
   -0.2494    1.7536    3.9060 C   0  0  0  0  0  0  0  0  0  0  0  0
  1  6  2  0  0  0  0
  2  3  2  0  0  0  0
  2  1  1  0  0  0  0
  3  4  1  0  0  0  0
  4 10  1  0  0  0  0
  4  5  2  0  0  0  0
  6  5  1  0  0  0  0
  7  1  1  0  0  0  0
  7 11  1  0  0  0  0
  8  7  2  0  0  0  0
  9 10  2  0  0  0  0
 10 12  1  0  0  0  0
 12 14  1  0  0  0  0
 13 11  1  0  0  0  0
 13 15  1  0  0  0  0
 14 16  1  0  0  0  0
 16 18  1  0  0  0  0
 17 15  1  0  0  0  0
 17 19  1  0  0  0  0
 18 20  1  0  0  0  0
 19 23  1  0  0  0  0
 20 22  1  0  0  0  0
 20 24  1  0  0  0  0
 21 19  1  0  0  0  0
M  END
>  <CHROM.1>
-5.43890300,170.09152664,-141.84729965,156.05270151,76.38924841,-158.92297263
-65.55601960,-179.07707262,-160.71654767,-102.16671356,7.59720369,-0.07410072
0.83035532,-0.01712956,-0.58654888,2.89735351

>  <Name>
lig.pdb

>  <RI>
2.48096e+07

>  <Rbt.Current_Directory>
/home/itssahil/PROJECTS/Mol_Feturizer/New_Systems/rnas/2l94

>  <Rbt.Executable>
rbdock ($Id: //depot/dev/client3/rdock/2013.1/src/exe/rbdock.cxx#4 $)

>  <Rbt.Library>
libRbt.so (2013.1, Build901 2013/11/27)

>  <Rbt.Parameter_File>
/export/apps/rDock/src/rDock_2013.1_src/data/scripts/dock_solv.prm

>  <Rbt.Receptor>
prm/pocket_docking_6.prm

>  <SCORE>
-23.2829

>  <SCORE.INTER>
-23.5997

>  <SCORE.INTER.CONST>
1

>  <SCORE.INTER.POLAR>
-2.95733

>  <SCORE.INTER.ROT>
10

>  <SCORE.INTER.SOLV>
11.5998

>  <SCORE.INTER.VDW>
-20.0086

>  <SCORE.INTER.norm>
-0.983322

>  <SCORE.INTRA>
0.316794

>  <SCORE.INTRA.DIHEDRAL>
4.02809

>  <SCORE.INTRA.DIHEDRAL.0>
7.52971

>  <SCORE.INTRA.POLAR>
0

>  <SCORE.INTRA.POLAR.0>
0

>  <SCORE.INTRA.REPUL>
0

>  <SCORE.INTRA.REPUL.0>
0

>  <SCORE.INTRA.SOLV>
-0.0804811

>  <SCORE.INTRA.SOLV.lig_0>
-22.1084

>  <SCORE.INTRA.VDW>
-1.65701

>  <SCORE.INTRA.VDW.0>
2.4256

>  <SCORE.INTRA.norm>
0.0131997

>  <SCORE.RESTR>
0

>  <SCORE.RESTR.CAVITY>
0

>  <SCORE.RESTR.norm>
0

>  <SCORE.SYSTEM>
0

>  <SCORE.SYSTEM.CONST>
0

>  <SCORE.SYSTEM.DIHEDRAL>
0

>  <SCORE.SYSTEM.SOLV>
0

>  <SCORE.SYSTEM.norm>
0

>  <SCORE.heavy>
24

>  <SCORE.norm>
-0.970122

>  <RMSD>
4.165

$$$$
lig.pdb
 OpenBabel11021811453D
libRbt.so/2013.1/901 2013/11/27
 24 24  0  0  0  0  0  0  0  0999 V2000
    4.5567   -2.3761    2.4691 C   0  0  0  0  0  0  0  0  0  0  0  0
    4.4957   -3.4274    1.4934 C   0  0  0  0  0  0  0  0  0  0  0  0
    5.5924   -3.7846    0.7451 C   0  0  0  0  0  0  0  0  0  0  0  0
    6.8574   -3.1339    0.9055 C   0  0  0  0  0  0  0  0  0  0  0  0
    6.9080   -2.0618    1.8561 C   0  0  0  0  0  0  0  0  0  0  0  0
    5.8117   -1.6990    2.5979 C   0  0  0  0  0  0  0  0  0  0  0  0
    3.4824   -2.0349    3.2399 C   0  0  0  0  0  0  0  0  0  0  0  0
    3.6039   -1.3796    4.4142 N   0  0  0  0  0  0  0  0  0  0  0  0
    8.0586   -4.6758   -0.4686 N   0  0  0  0  0  0  0  0  0  0  0  0
    7.9608   -3.5042    0.1948 C   0  0  0  0  0  0  0  0  0  0  0  0
    2.2077   -2.3263    2.8802 N   0  0  0  0  0  0  0  0  0  0  0  0
    9.0609   -2.7207    0.0960 N   0  0  0  0  0  0  0  0  0  0  0  0
    1.0227   -1.5054    3.1215 C   0  0  0  0  0  0  0  0  0  0  0  0
   10.0776   -2.7914   -0.9489 C   0  0  0  0  0  0  0  0  0  0  0  0
    1.1841   -0.1953    2.3337 C   0  0  0  0  0  0  0  0  0  0  0  0
    9.8952   -1.5706   -1.8699 C   0  0  0  0  0  0  0  0  0  0  0  0
   -0.0982    0.6457    2.3986 C   0  0  0  0  0  0  0  0  0  0  0  0
   10.9087   -1.5440   -3.0282 C   0  0  0  0  0  0  0  0  0  0  0  0
    0.1502    1.9833    1.7498 N   0  0  0  0  0  0  0  0  0  0  0  0
   10.6555   -0.3848   -3.9587 N   0  0  0  0  0  0  0  0  0  0  0  0
   -0.9083    2.9644    2.1747 C   0  0  0  0  0  0  0  0  0  0  0  0
   10.8484    0.8997   -3.1981 C   0  0  0  0  0  0  0  0  0  0  0  0
    0.1511    1.8598    0.2462 C   0  0  0  0  0  0  0  0  0  0  0  0
    9.2657   -0.4091   -4.5312 C   0  0  0  0  0  0  0  0  0  0  0  0
  1  6  2  0  0  0  0
  2  3  2  0  0  0  0
  2  1  1  0  0  0  0
  3  4  1  0  0  0  0
  4 10  1  0  0  0  0
  4  5  2  0  0  0  0
  6  5  1  0  0  0  0
  7  1  1  0  0  0  0
  7 11  1  0  0  0  0
  8  7  2  0  0  0  0
  9 10  2  0  0  0  0
 10 12  1  0  0  0  0
 12 14  1  0  0  0  0
 13 11  1  0  0  0  0
 13 15  1  0  0  0  0
 14 16  1  0  0  0  0
 16 18  1  0  0  0  0
 17 15  1  0  0  0  0
 17 19  1  0  0  0  0
 18 20  1  0  0  0  0
 19 23  1  0  0  0  0
 20 22  1  0  0  0  0
 20 24  1  0  0  0  0
 21 19  1  0  0  0  0
M  END
>  <CHROM.1>
-16.00037498,158.46595745,107.01445448,64.31998555,173.00913969,-179.36408880
176.62059433,173.68525983,-162.11298877,63.01432644,5.48349864,-1.31443366
0.57094419,-2.98893286,0.49237553,-0.69919618

>  <Name>
lig.pdb

>  <RI>
1.39428e+07

>  <Rbt.Current_Directory>
/home/itssahil/PROJECTS/Mol_Feturizer/New_Systems/rnas/2l94

>  <Rbt.Executable>
rbdock ($Id: //depot/dev/client3/rdock/2013.1/src/exe/rbdock.cxx#4 $)

>  <Rbt.Library>
libRbt.so (2013.1, Build901 2013/11/27)

>  <Rbt.Parameter_File>
/export/apps/rDock/src/rDock_2013.1_src/data/scripts/dock_solv.prm

>  <Rbt.Receptor>
prm/pocket_docking_8.prm

>  <SCORE>
-15.3595

>  <SCORE.INTER>
-16.0098

>  <SCORE.INTER.CONST>
1

>  <SCORE.INTER.POLAR>
-2.43691

>  <SCORE.INTER.ROT>
10

>  <SCORE.INTER.SOLV>
9.6933

>  <SCORE.INTER.VDW>
-16.0479

>  <SCORE.INTER.norm>
-0.667075

>  <SCORE.INTRA>
0.650274

>  <SCORE.INTRA.DIHEDRAL>
1.03212

>  <SCORE.INTRA.DIHEDRAL.0>
7.52971

>  <SCORE.INTRA.POLAR>
0

>  <SCORE.INTRA.POLAR.0>
0

>  <SCORE.INTRA.REPUL>
0

>  <SCORE.INTRA.REPUL.0>
0

>  <SCORE.INTRA.SOLV>
-0.156439

>  <SCORE.INTRA.SOLV.lig_0>
-22.1084

>  <SCORE.INTRA.VDW>
0.212433

>  <SCORE.INTRA.VDW.0>
2.4256

>  <SCORE.INTRA.norm>
0.0270947

>  <SCORE.RESTR>
0

>  <SCORE.RESTR.CAVITY>
0

>  <SCORE.RESTR.norm>
0

>  <SCORE.SYSTEM>
0

>  <SCORE.SYSTEM.CONST>
0

>  <SCORE.SYSTEM.DIHEDRAL>
0

>  <SCORE.SYSTEM.SOLV>
0

>  <SCORE.SYSTEM.norm>
0

>  <SCORE.heavy>
24

>  <SCORE.norm>
-0.63998

>  <RMSD>
4.211

$$$$
lig.pdb
 OpenBabel11021811453D
libRbt.so/2013.1/901 2013/11/27
 24 24  0  0  0  0  0  0  0  0999 V2000
    6.8554   -0.7370    1.3223 C   0  0  0  0  0  0  0  0  0  0  0  0
    5.8830   -0.8524    2.3721 C   0  0  0  0  0  0  0  0  0  0  0  0
    4.9476    0.1284    2.6027 C   0  0  0  0  0  0  0  0  0  0  0  0
    4.8862    1.3134    1.8019 C   0  0  0  0  0  0  0  0  0  0  0  0
    5.8791    1.4427    0.7756 C   0  0  0  0  0  0  0  0  0  0  0  0
    6.8185    0.4679    0.5497 C   0  0  0  0  0  0  0  0  0  0  0  0
    7.7683   -1.7193    1.0643 C   0  0  0  0  0  0  0  0  0  0  0  0
    7.9362   -2.7907    1.8687 N   0  0  0  0  0  0  0  0  0  0  0  0
    3.9320    3.4549    1.3417 N   0  0  0  0  0  0  0  0  0  0  0  0
    3.9400    2.2756    1.9984 C   0  0  0  0  0  0  0  0  0  0  0  0
    8.5749   -1.6941   -0.0256 N   0  0  0  0  0  0  0  0  0  0  0  0
    2.9211    2.1270    2.8781 N   0  0  0  0  0  0  0  0  0  0  0  0
    9.0206   -2.8446   -0.8091 C   0  0  0  0  0  0  0  0  0  0  0  0
    1.6527    2.8489    2.8567 C   0  0  0  0  0  0  0  0  0  0  0  0
    8.1825   -2.8958   -2.0967 C   0  0  0  0  0  0  0  0  0  0  0  0
    0.7333    2.1598    1.8313 C   0  0  0  0  0  0  0  0  0  0  0  0
    8.4740   -1.6821   -2.9900 C   0  0  0  0  0  0  0  0  0  0  0  0
    1.2657    2.2661    0.3908 C   0  0  0  0  0  0  0  0  0  0  0  0
    7.4517   -1.6207   -4.0958 N   0  0  0  0  0  0  0  0  0  0  0  0
    0.3169    1.6365   -0.5977 N   0  0  0  0  0  0  0  0  0  0  0  0
    8.0223   -0.8928   -5.2824 C   0  0  0  0  0  0  0  0  0  0  0  0
    0.3328    0.1441   -0.4034 C   0  0  0  0  0  0  0  0  0  0  0  0
    6.1971   -0.9241   -3.6304 C   0  0  0  0  0  0  0  0  0  0  0  0
    0.6900    1.9475   -2.0204 C   0  0  0  0  0  0  0  0  0  0  0  0
  1  6  2  0  0  0  0
  2  3  2  0  0  0  0
  2  1  1  0  0  0  0
  3  4  1  0  0  0  0
  4 10  1  0  0  0  0
  4  5  2  0  0  0  0
  6  5  1  0  0  0  0
  7  1  1  0  0  0  0
  7 11  1  0  0  0  0
  8  7  2  0  0  0  0
  9 10  2  0  0  0  0
 10 12  1  0  0  0  0
 12 14  1  0  0  0  0
 13 11  1  0  0  0  0
 13 15  1  0  0  0  0
 14 16  1  0  0  0  0
 16 18  1  0  0  0  0
 17 15  1  0  0  0  0
 17 19  1  0  0  0  0
 18 20  1  0  0  0  0
 19 23  1  0  0  0  0
 20 22  1  0  0  0  0
 20 24  1  0  0  0  0
 21 19  1  0  0  0  0
M  END
>  <CHROM.1>
173.76064162,-8.33928581,81.35178809,102.39050642,65.87769043,-64.99320155
-177.49897014,-168.87626883,-154.51795358,-69.79349694,5.07331091,0.14318432
-0.00398983,-0.45494790,-0.49530894,1.41303399

>  <Name>
lig.pdb

>  <RI>
0

>  <Rbt.Current_Directory>
/home/itssahil/PROJECTS/Mol_Feturizer/New_Systems/rnas/2l94

>  <Rbt.Executable>
rbdock ($Id: //depot/dev/client3/rdock/2013.1/src/exe/rbdock.cxx#4 $)

>  <Rbt.Library>
libRbt.so (2013.1, Build901 2013/11/27)

>  <Rbt.Parameter_File>
/export/apps/rDock/src/rDock_2013.1_src/data/scripts/dock_solv.prm

>  <Rbt.Receptor>
prm/pocket_docking_4.prm

>  <SCORE>
-22.6745

>  <SCORE.INTER>
-20.5543

>  <SCORE.INTER.CONST>
1

>  <SCORE.INTER.POLAR>
-2.9073

>  <SCORE.INTER.ROT>
10

>  <SCORE.INTER.SOLV>
9.91108

>  <SCORE.INTER.VDW>
-17.5822

>  <SCORE.INTER.norm>
-0.856431

>  <SCORE.INTRA>
-2.12291

>  <SCORE.INTRA.DIHEDRAL>
-0.009063

>  <SCORE.INTRA.DIHEDRAL.0>
7.52971

>  <SCORE.INTRA.POLAR>
0

>  <SCORE.INTRA.POLAR.0>
0

>  <SCORE.INTRA.REPUL>
0

>  <SCORE.INTRA.REPUL.0>
0

>  <SCORE.INTRA.SOLV>
0.778951

>  <SCORE.INTRA.SOLV.lig_0>
-22.1084

>  <SCORE.INTRA.VDW>
-2.50786

>  <SCORE.INTRA.VDW.0>
2.4256

>  <SCORE.INTRA.norm>
-0.0884547

>  <SCORE.RESTR>
0.00272063

>  <SCORE.RESTR.CAVITY>
0.00272063

>  <SCORE.RESTR.norm>
0.00011336

>  <SCORE.SYSTEM>
0

>  <SCORE.SYSTEM.CONST>
0

>  <SCORE.SYSTEM.DIHEDRAL>
0

>  <SCORE.SYSTEM.SOLV>
0

>  <SCORE.SYSTEM.norm>
0

>  <SCORE.heavy>
24

>  <SCORE.norm>
-0.944772

>  <RMSD>
4.213

$$$$
lig.pdb
 OpenBabel11021811453D
libRbt.so/2013.1/901 2013/11/27
 24 24  0  0  0  0  0  0  0  0999 V2000
    6.0668   -0.6147    1.3622 C   0  0  0  0  0  0  0  0  0  0  0  0
    6.1636   -1.9569    0.8622 C   0  0  0  0  0  0  0  0  0  0  0  0
    7.3625   -2.4925    0.4548 C   0  0  0  0  0  0  0  0  0  0  0  0
    8.5811   -1.7439    0.5164 C   0  0  0  0  0  0  0  0  0  0  0  0
    8.4774   -0.3926    0.9842 C   0  0  0  0  0  0  0  0  0  0  0  0
    7.2798    0.1458    1.3836 C   0  0  0  0  0  0  0  0  0  0  0  0
    4.8870   -0.0838    1.7992 C   0  0  0  0  0  0  0  0  0  0  0  0
    4.8153    0.7953    2.8215 N   0  0  0  0  0  0  0  0  0  0  0  0
   10.0090   -3.6048    0.0616 N   0  0  0  0  0  0  0  0  0  0  0  0
    9.7814   -2.2771    0.1492 C   0  0  0  0  0  0  0  0  0  0  0  0
    3.6949   -0.3981    1.2342 N   0  0  0  0  0  0  0  0  0  0  0  0
   10.8551   -1.5117   -0.1593 N   0  0  0  0  0  0  0  0  0  0  0  0
    2.5541    0.4963    1.0475 C   0  0  0  0  0  0  0  0  0  0  0  0
   12.0023   -1.9214   -0.9634 C   0  0  0  0  0  0  0  0  0  0  0  0
    2.8745    1.4360   -0.1261 C   0  0  0  0  0  0  0  0  0  0  0  0
   11.6356   -1.7239   -2.4461 C   0  0  0  0  0  0  0  0  0  0  0  0
    2.3002    2.8379    0.1208 C   0  0  0  0  0  0  0  0  0  0  0  0
   10.8351   -0.4322   -2.6928 C   0  0  0  0  0  0  0  0  0  0  0  0
    2.7390    3.7583   -0.9892 N   0  0  0  0  0  0  0  0  0  0  0  0
   10.1165   -0.4710   -4.0178 N   0  0  0  0  0  0  0  0  0  0  0  0
    2.2146    3.2583   -2.3078 C   0  0  0  0  0  0  0  0  0  0  0  0
    9.4356    0.8528   -4.2400 C   0  0  0  0  0  0  0  0  0  0  0  0
    4.2436    3.8530   -1.0463 C   0  0  0  0  0  0  0  0  0  0  0  0
    9.0868   -1.5649   -4.0738 C   0  0  0  0  0  0  0  0  0  0  0  0
  1  6  2  0  0  0  0
  2  3  2  0  0  0  0
  2  1  1  0  0  0  0
  3  4  1  0  0  0  0
  4 10  1  0  0  0  0
  4  5  2  0  0  0  0
  6  5  1  0  0  0  0
  7  1  1  0  0  0  0
  7 11  1  0  0  0  0
  8  7  2  0  0  0  0
  9 10  2  0  0  0  0
 10 12  1  0  0  0  0
 12 14  1  0  0  0  0
 13 11  1  0  0  0  0
 13 15  1  0  0  0  0
 14 16  1  0  0  0  0
 16 18  1  0  0  0  0
 17 15  1  0  0  0  0
 17 19  1  0  0  0  0
 18 20  1  0  0  0  0
 19 23  1  0  0  0  0
 20 22  1  0  0  0  0
 20 24  1  0  0  0  0
 21 19  1  0  0  0  0
M  END
>  <CHROM.1>
-19.18955433,145.66823869,84.16086662,75.46219649,-144.14177943,39.81295104
-161.65275456,174.99662037,61.24833462,-176.06817230,6.98382842,-0.10632880
-0.49076961,3.08171954,0.50348535,-1.00049147

>  <Name>
lig.pdb

>  <RI>
0

>  <Rbt.Current_Directory>
/home/itssahil/PROJECTS/Mol_Feturizer/New_Systems/rnas/2l94

>  <Rbt.Executable>
rbdock ($Id: //depot/dev/client3/rdock/2013.1/src/exe/rbdock.cxx#4 $)

>  <Rbt.Library>
libRbt.so (2013.1, Build901 2013/11/27)

>  <Rbt.Parameter_File>
/export/apps/rDock/src/rDock_2013.1_src/data/scripts/dock_solv.prm

>  <Rbt.Receptor>
prm/pocket_docking_4.prm

>  <SCORE>
-18.2344

>  <SCORE.INTER>
-24.3915

>  <SCORE.INTER.CONST>
1

>  <SCORE.INTER.POLAR>
-4.17858

>  <SCORE.INTER.ROT>
10

>  <SCORE.INTER.SOLV>
10.0093

>  <SCORE.INTER.VDW>
-15.9355

>  <SCORE.INTER.norm>
-1.01631

>  <SCORE.INTRA>
5.56376

>  <SCORE.INTRA.DIHEDRAL>
9.05185

>  <SCORE.INTRA.DIHEDRAL.0>
7.52971

>  <SCORE.INTRA.POLAR>
0

>  <SCORE.INTRA.POLAR.0>
0

>  <SCORE.INTRA.REPUL>
0

>  <SCORE.INTRA.REPUL.0>
0

>  <SCORE.INTRA.SOLV>
0.533131

>  <SCORE.INTRA.SOLV.lig_0>
-22.1084

>  <SCORE.INTRA.VDW>
0.771266

>  <SCORE.INTRA.VDW.0>
2.4256

>  <SCORE.INTRA.norm>
0.231823

>  <SCORE.RESTR>
0.5933

>  <SCORE.RESTR.CAVITY>
0.5933

>  <SCORE.RESTR.norm>
0.0247208

>  <SCORE.SYSTEM>
0

>  <SCORE.SYSTEM.CONST>
0

>  <SCORE.SYSTEM.DIHEDRAL>
0

>  <SCORE.SYSTEM.SOLV>
0

>  <SCORE.SYSTEM.norm>
0

>  <SCORE.heavy>
24

>  <SCORE.norm>
-0.759767

>  <RMSD>
4.218

$$$$
lig.pdb
 OpenBabel11021811453D
libRbt.so/2013.1/901 2013/11/27
 24 24  0  0  0  0  0  0  0  0999 V2000
    5.3952    1.4341    1.1639 C   0  0  0  0  0  0  0  0  0  0  0  0
    6.6463    2.0274    1.5430 C   0  0  0  0  0  0  0  0  0  0  0  0
    7.8393    1.3622    1.3865 C   0  0  0  0  0  0  0  0  0  0  0  0
    7.8994    0.0456    0.8277 C   0  0  0  0  0  0  0  0  0  0  0  0
    6.6463   -0.5587    0.4809 C   0  0  0  0  0  0  0  0  0  0  0  0
    5.4540    0.1013    0.6442 C   0  0  0  0  0  0  0  0  0  0  0  0
    4.2081    2.0981    1.2853 C   0  0  0  0  0  0  0  0  0  0  0  0
    4.1129    3.3326    1.8239 N   0  0  0  0  0  0  0  0  0  0  0  0
    9.1592   -1.9064    0.2700 N   0  0  0  0  0  0  0  0  0  0  0  0
    9.0800   -0.6090    0.6343 C   0  0  0  0  0  0  0  0  0  0  0  0
    3.0320    1.5668    0.8687 N   0  0  0  0  0  0  0  0  0  0  0  0
   10.2822   -0.0067    0.7949 N   0  0  0  0  0  0  0  0  0  0  0  0
    1.9099    2.2890    0.2725 C   0  0  0  0  0  0  0  0  0  0  0  0
   11.5475   -0.4402    0.2105 C   0  0  0  0  0  0  0  0  0  0  0  0
    2.0632    2.2266   -1.2558 C   0  0  0  0  0  0  0  0  0  0  0  0
   12.3694   -1.1263    1.3175 C   0  0  0  0  0  0  0  0  0  0  0  0
    3.4239    2.7855   -1.6942 C   0  0  0  0  0  0  0  0  0  0  0  0
   13.7791   -0.5265    1.4688 C   0  0  0  0  0  0  0  0  0  0  0  0
    3.7541    2.2690   -3.0711 N   0  0  0  0  0  0  0  0  0  0  0  0
   14.7337   -1.0921    0.4479 N   0  0  0  0  0  0  0  0  0  0  0  0
    4.1521    0.8202   -2.9939 C   0  0  0  0  0  0  0  0  0  0  0  0
   16.1405   -0.7395    0.8506 C   0  0  0  0  0  0  0  0  0  0  0  0
    4.8729    3.0686   -3.6916 C   0  0  0  0  0  0  0  0  0  0  0  0
   14.4723   -0.5565   -0.9322 C   0  0  0  0  0  0  0  0  0  0  0  0
  1  6  2  0  0  0  0
  2  3  2  0  0  0  0
  2  1  1  0  0  0  0
  3  4  1  0  0  0  0
  4 10  1  0  0  0  0
  4  5  2  0  0  0  0
  6  5  1  0  0  0  0
  7  1  1  0  0  0  0
  7 11  1  0  0  0  0
  8  7  2  0  0  0  0
  9 10  2  0  0  0  0
 10 12  1  0  0  0  0
 12 14  1  0  0  0  0
 13 11  1  0  0  0  0
 13 15  1  0  0  0  0
 14 16  1  0  0  0  0
 16 18  1  0  0  0  0
 17 15  1  0  0  0  0
 17 19  1  0  0  0  0
 18 20  1  0  0  0  0
 19 23  1  0  0  0  0
 20 22  1  0  0  0  0
 20 24  1  0  0  0  0
 21 19  1  0  0  0  0
M  END
>  <CHROM.1>
171.34885537,-3.06562250,-103.51593055,93.77631134,-56.15913893,-126.33646913
-81.74031895,159.54339409,-74.07599564,-166.18477092,7.67546515,0.73882107
0.06488797,2.99628241,0.27651906,-1.49725978

>  <Name>
lig.pdb

>  <RI>
1.71133e+07

>  <Rbt.Current_Directory>
/home/itssahil/PROJECTS/Mol_Feturizer/New_Systems/rnas/2l94

>  <Rbt.Executable>
rbdock ($Id: //depot/dev/client3/rdock/2013.1/src/exe/rbdock.cxx#4 $)

>  <Rbt.Library>
libRbt.so (2013.1, Build901 2013/11/27)

>  <Rbt.Parameter_File>
/export/apps/rDock/src/rDock_2013.1_src/data/scripts/dock_solv.prm

>  <Rbt.Receptor>
prm/pocket_docking_5.prm

>  <SCORE>
-16.6762

>  <SCORE.INTER>
-18.3956

>  <SCORE.INTER.CONST>
1

>  <SCORE.INTER.POLAR>
-3.07843

>  <SCORE.INTER.ROT>
10

>  <SCORE.INTER.SOLV>
8.25678

>  <SCORE.INTER.VDW>
-15.0212

>  <SCORE.INTER.norm>
-0.766484

>  <SCORE.INTRA>
1.71946

>  <SCORE.INTRA.DIHEDRAL>
7.01201

>  <SCORE.INTRA.DIHEDRAL.0>
7.52971

>  <SCORE.INTRA.POLAR>
0

>  <SCORE.INTRA.POLAR.0>
0

>  <SCORE.INTRA.REPUL>
0

>  <SCORE.INTRA.REPUL.0>
0

>  <SCORE.INTRA.SOLV>
0.692536

>  <SCORE.INTRA.SOLV.lig_0>
-22.1084

>  <SCORE.INTRA.VDW>
-2.13281

>  <SCORE.INTRA.VDW.0>
2.4256

>  <SCORE.INTRA.norm>
0.0716441

>  <SCORE.RESTR>
0

>  <SCORE.RESTR.CAVITY>
0

>  <SCORE.RESTR.norm>
0

>  <SCORE.SYSTEM>
0

>  <SCORE.SYSTEM.CONST>
0

>  <SCORE.SYSTEM.DIHEDRAL>
0

>  <SCORE.SYSTEM.SOLV>
0

>  <SCORE.SYSTEM.norm>
0

>  <SCORE.heavy>
24

>  <SCORE.norm>
-0.69484

>  <RMSD>
4.233

$$$$
lig.pdb
 OpenBabel11021811453D
libRbt.so/2013.1/901 2013/11/27
 24 24  0  0  0  0  0  0  0  0999 V2000
    6.8975   -0.3984    1.6738 C   0  0  0  0  0  0  0  0  0  0  0  0
    5.7036   -0.7078    2.4087 C   0  0  0  0  0  0  0  0  0  0  0  0
    4.7051    0.2195    2.5904 C   0  0  0  0  0  0  0  0  0  0  0  0
    4.7974    1.5412    2.0480 C   0  0  0  0  0  0  0  0  0  0  0  0
    6.0048    1.8593    1.3433 C   0  0  0  0  0  0  0  0  0  0  0  0
    7.0059    0.9368    1.1682 C   0  0  0  0  0  0  0  0  0  0  0  0
    7.8809   -1.3215    1.4603 C   0  0  0  0  0  0  0  0  0  0  0  0
    7.8351   -2.5700    1.9726 N   0  0  0  0  0  0  0  0  0  0  0  0
    3.8123    3.6715    1.6015 N   0  0  0  0  0  0  0  0  0  0  0  0
    3.7974    2.4573    2.1910 C   0  0  0  0  0  0  0  0  0  0  0  0
    8.9793   -1.0536    0.7115 N   0  0  0  0  0  0  0  0  0  0  0  0
    2.6969    2.2233    2.9447 N   0  0  0  0  0  0  0  0  0  0  0  0
    9.6839   -1.9833   -0.1692 C   0  0  0  0  0  0  0  0  0  0  0  0
    1.4100    2.9013    2.8234 C   0  0  0  0  0  0  0  0  0  0  0  0
    9.2941   -1.6522   -1.6188 C   0  0  0  0  0  0  0  0  0  0  0  0
    0.5984    2.1833    1.7290 C   0  0  0  0  0  0  0  0  0  0  0  0
    7.8500   -2.0825   -1.9107 C   0  0  0  0  0  0  0  0  0  0  0  0
    1.2288    2.3265    0.3319 C   0  0  0  0  0  0  0  0  0  0  0  0
    7.8274   -3.5499   -2.2541 N   0  0  0  0  0  0  0  0  0  0  0  0
    0.3647    1.6984   -0.7322 N   0  0  0  0  0  0  0  0  0  0  0  0
    6.5402   -3.8938   -2.9529 C   0  0  0  0  0  0  0  0  0  0  0  0
    0.3922    0.2034   -0.5605 C   0  0  0  0  0  0  0  0  0  0  0  0
    7.9705   -4.3951   -1.0127 C   0  0  0  0  0  0  0  0  0  0  0  0
    0.8338    2.0391   -2.1192 C   0  0  0  0  0  0  0  0  0  0  0  0
  1  6  2  0  0  0  0
  2  3  2  0  0  0  0
  2  1  1  0  0  0  0
  3  4  1  0  0  0  0
  4 10  1  0  0  0  0
  4  5  2  0  0  0  0
  6  5  1  0  0  0  0
  7  1  1  0  0  0  0
  7 11  1  0  0  0  0
  8  7  2  0  0  0  0
  9 10  2  0  0  0  0
 10 12  1  0  0  0  0
 12 14  1  0  0  0  0
 13 11  1  0  0  0  0
 13 15  1  0  0  0  0
 14 16  1  0  0  0  0
 16 18  1  0  0  0  0
 17 15  1  0  0  0  0
 17 19  1  0  0  0  0
 18 20  1  0  0  0  0
 19 23  1  0  0  0  0
 20 22  1  0  0  0  0
 20 24  1  0  0  0  0
 21 19  1  0  0  0  0
M  END
>  <CHROM.1>
-174.56776436,-3.12058855,84.92880911,103.13604562,-72.22242961,-65.72578562
-175.98569970,-82.88537593,-162.19164885,-69.60084986,5.13813838,-0.00593121
0.50681068,-0.52846744,-0.39776709,0.92538978

>  <Name>
lig.pdb

>  <RI>
1.71133e+07

>  <Rbt.Current_Directory>
/home/itssahil/PROJECTS/Mol_Feturizer/New_Systems/rnas/2l94

>  <Rbt.Executable>
rbdock ($Id: //depot/dev/client3/rdock/2013.1/src/exe/rbdock.cxx#4 $)

>  <Rbt.Library>
libRbt.so (2013.1, Build901 2013/11/27)

>  <Rbt.Parameter_File>
/export/apps/rDock/src/rDock_2013.1_src/data/scripts/dock_solv.prm

>  <Rbt.Receptor>
prm/pocket_docking_5.prm

>  <SCORE>
-26.6534

>  <SCORE.INTER>
-25.7158

>  <SCORE.INTER.CONST>
1

>  <SCORE.INTER.POLAR>
-3.22451

>  <SCORE.INTER.ROT>
10

>  <SCORE.INTER.SOLV>
13.0151

>  <SCORE.INTER.VDW>
-21.0005

>  <SCORE.INTER.norm>
-1.07149

>  <SCORE.INTRA>
-0.937586

>  <SCORE.INTRA.DIHEDRAL>
0.87249

>  <SCORE.INTRA.DIHEDRAL.0>
7.52971

>  <SCORE.INTRA.POLAR>
0

>  <SCORE.INTRA.POLAR.0>
0

>  <SCORE.INTRA.REPUL>
0

>  <SCORE.INTRA.REPUL.0>
0

>  <SCORE.INTRA.SOLV>
1.31246

>  <SCORE.INTRA.SOLV.lig_0>
-22.1084

>  <SCORE.INTRA.VDW>
-2.03006

>  <SCORE.INTRA.VDW.0>
2.4256

>  <SCORE.INTRA.norm>
-0.0390661

>  <SCORE.RESTR>
0

>  <SCORE.RESTR.CAVITY>
0

>  <SCORE.RESTR.norm>
0

>  <SCORE.SYSTEM>
0

>  <SCORE.SYSTEM.CONST>
0

>  <SCORE.SYSTEM.DIHEDRAL>
0

>  <SCORE.SYSTEM.SOLV>
0

>  <SCORE.SYSTEM.norm>
0

>  <SCORE.heavy>
24

>  <SCORE.norm>
-1.11056

>  <RMSD>
4.235

$$$$
lig.pdb
 OpenBabel11021811453D
libRbt.so/2013.1/901 2013/11/27
 24 24  0  0  0  0  0  0  0  0999 V2000
    8.0763   -3.5764   -0.1388 C   0  0  0  0  0  0  0  0  0  0  0  0
    8.3553   -2.3325    0.5214 C   0  0  0  0  0  0  0  0  0  0  0  0
    7.5356   -1.8371    1.5078 C   0  0  0  0  0  0  0  0  0  0  0  0
    6.3647   -2.5400    1.9370 C   0  0  0  0  0  0  0  0  0  0  0  0
    6.0691   -3.7653    1.2536 C   0  0  0  0  0  0  0  0  0  0  0  0
    6.8822   -4.2567    0.2631 C   0  0  0  0  0  0  0  0  0  0  0  0
    8.9006   -4.0930   -1.0971 C   0  0  0  0  0  0  0  0  0  0  0  0
    8.5327   -5.1080   -1.9079 N   0  0  0  0  0  0  0  0  0  0  0  0
    5.8617   -0.9910    3.6850 N   0  0  0  0  0  0  0  0  0  0  0  0
    5.5647   -2.0762    2.9392 C   0  0  0  0  0  0  0  0  0  0  0  0
   10.1539   -3.6205   -1.3096 N   0  0  0  0  0  0  0  0  0  0  0  0
    4.3957   -2.6724    3.2737 N   0  0  0  0  0  0  0  0  0  0  0  0
   10.8385   -3.5082   -2.5961 C   0  0  0  0  0  0  0  0  0  0  0  0
    3.2830   -2.0488    3.9833 C   0  0  0  0  0  0  0  0  0  0  0  0
   11.5691   -2.1561   -2.6288 C   0  0  0  0  0  0  0  0  0  0  0  0
    2.3974   -1.3380    2.9430 C   0  0  0  0  0  0  0  0  0  0  0  0
   12.6813   -2.1075   -1.5720 C   0  0  0  0  0  0  0  0  0  0  0  0
    1.1563   -0.6784    3.5711 C   0  0  0  0  0  0  0  0  0  0  0  0
   13.4849   -0.8452   -1.7527 N   0  0  0  0  0  0  0  0  0  0  0  0
    0.2279   -0.1300    2.5172 N   0  0  0  0  0  0  0  0  0  0  0  0
   14.8919   -1.0583   -1.2645 C   0  0  0  0  0  0  0  0  0  0  0  0
   -0.8486    0.6780    3.1910 C   0  0  0  0  0  0  0  0  0  0  0  0
   12.8577    0.3037   -1.0025 C   0  0  0  0  0  0  0  0  0  0  0  0
   -0.4156   -1.2189    1.7047 C   0  0  0  0  0  0  0  0  0  0  0  0
  1  6  2  0  0  0  0
  2  3  2  0  0  0  0
  2  1  1  0  0  0  0
  3  4  1  0  0  0  0
  4 10  1  0  0  0  0
  4  5  2  0  0  0  0
  6  5  1  0  0  0  0
  7  1  1  0  0  0  0
  7 11  1  0  0  0  0
  8  7  2  0  0  0  0
  9 10  2  0  0  0  0
 10 12  1  0  0  0  0
 12 14  1  0  0  0  0
 13 11  1  0  0  0  0
 13 15  1  0  0  0  0
 14 16  1  0  0  0  0
 16 18  1  0  0  0  0
 17 15  1  0  0  0  0
 17 19  1  0  0  0  0
 18 20  1  0  0  0  0
 19 23  1  0  0  0  0
 20 22  1  0  0  0  0
 20 24  1  0  0  0  0
 21 19  1  0  0  0  0
M  END
>  <CHROM.1>
-5.91693734,-166.56141127,85.90502840,137.73986215,65.05318890,178.04986895
-173.40276525,172.77389233,-152.06578266,-171.49326289,7.02734565,-2.07530544
0.74169107,0.27708836,-0.31693611,-2.64627794

>  <Name>
lig.pdb

>  <RI>
2.48096e+07

>  <Rbt.Current_Directory>
/home/itssahil/PROJECTS/Mol_Feturizer/New_Systems/rnas/2l94

>  <Rbt.Executable>
rbdock ($Id: //depot/dev/client3/rdock/2013.1/src/exe/rbdock.cxx#4 $)

>  <Rbt.Library>
libRbt.so (2013.1, Build901 2013/11/27)

>  <Rbt.Parameter_File>
/export/apps/rDock/src/rDock_2013.1_src/data/scripts/dock_solv.prm

>  <Rbt.Receptor>
prm/pocket_docking_6.prm

>  <SCORE>
-24.3461

>  <SCORE.INTER>
-22.534

>  <SCORE.INTER.CONST>
1

>  <SCORE.INTER.POLAR>
-2.71425

>  <SCORE.INTER.ROT>
10

>  <SCORE.INTER.SOLV>
16.0004

>  <SCORE.INTER.VDW>
-21.5753

>  <SCORE.INTER.norm>
-0.938918

>  <SCORE.INTRA>
-1.81204

>  <SCORE.INTRA.DIHEDRAL>
0.218275

>  <SCORE.INTRA.DIHEDRAL.0>
7.52971

>  <SCORE.INTRA.POLAR>
0

>  <SCORE.INTRA.POLAR.0>
0

>  <SCORE.INTRA.REPUL>
0

>  <SCORE.INTRA.REPUL.0>
0

>  <SCORE.INTRA.SOLV>
-0.0162177

>  <SCORE.INTRA.SOLV.lig_0>
-22.1084

>  <SCORE.INTRA.VDW>
-1.91307

>  <SCORE.INTRA.VDW.0>
2.4256

>  <SCORE.INTRA.norm>
-0.0755016

>  <SCORE.RESTR>
0

>  <SCORE.RESTR.CAVITY>
0

>  <SCORE.RESTR.norm>
0

>  <SCORE.SYSTEM>
0

>  <SCORE.SYSTEM.CONST>
0

>  <SCORE.SYSTEM.DIHEDRAL>
0

>  <SCORE.SYSTEM.SOLV>
0

>  <SCORE.SYSTEM.norm>
0

>  <SCORE.heavy>
24

>  <SCORE.norm>
-1.01442

>  <RMSD>
4.288

$$$$
lig.pdb
 OpenBabel11021811453D
libRbt.so/2013.1/901 2013/11/27
 24 24  0  0  0  0  0  0  0  0999 V2000
    5.6499   -3.0794   -1.3925 C   0  0  0  0  0  0  0  0  0  0  0  0
    5.8510   -1.6649   -1.5335 C   0  0  0  0  0  0  0  0  0  0  0  0
    7.0729   -1.1390   -1.8808 C   0  0  0  0  0  0  0  0  0  0  0  0
    8.2085   -1.9742   -2.1302 C   0  0  0  0  0  0  0  0  0  0  0  0
    8.0148   -3.3841   -1.9561 C   0  0  0  0  0  0  0  0  0  0  0  0
    6.7975   -3.9097   -1.6016 C   0  0  0  0  0  0  0  0  0  0  0  0
    4.4330   -3.6141   -1.0793 C   0  0  0  0  0  0  0  0  0  0  0  0
    4.2406   -4.9385   -0.9010 N   0  0  0  0  0  0  0  0  0  0  0  0
    9.6912   -0.1447   -2.5338 N   0  0  0  0  0  0  0  0  0  0  0  0
    9.4154   -1.4659   -2.5105 C   0  0  0  0  0  0  0  0  0  0  0  0
    3.3232   -2.8512   -0.9194 N   0  0  0  0  0  0  0  0  0  0  0  0
   10.4466   -2.2517   -2.9018 N   0  0  0  0  0  0  0  0  0  0  0  0
    2.2384   -3.0767    0.0338 C   0  0  0  0  0  0  0  0  0  0  0  0
   11.8591   -1.8838   -2.8987 C   0  0  0  0  0  0  0  0  0  0  0  0
    2.1522   -1.8485    0.9543 C   0  0  0  0  0  0  0  0  0  0  0  0
   12.4003   -2.0965   -1.4727 C   0  0  0  0  0  0  0  0  0  0  0  0
    3.4906   -1.5988    1.6630 C   0  0  0  0  0  0  0  0  0  0  0  0
   13.4232   -1.0228   -1.0594 C   0  0  0  0  0  0  0  0  0  0  0  0
    3.3564   -0.4058    2.5744 N   0  0  0  0  0  0  0  0  0  0  0  0
   14.6658   -1.0853   -1.9112 N   0  0  0  0  0  0  0  0  0  0  0  0
    3.3327    0.8604    1.7622 C   0  0  0  0  0  0  0  0  0  0  0  0
   15.8543   -0.7165   -1.0645 C   0  0  0  0  0  0  0  0  0  0  0  0
    4.4958   -0.3522    3.5617 C   0  0  0  0  0  0  0  0  0  0  0  0
   14.5959   -0.1517   -3.0874 C   0  0  0  0  0  0  0  0  0  0  0  0
  1  6  2  0  0  0  0
  2  3  2  0  0  0  0
  2  1  1  0  0  0  0
  3  4  1  0  0  0  0
  4 10  1  0  0  0  0
  4  5  2  0  0  0  0
  6  5  1  0  0  0  0
  7  1  1  0  0  0  0
  7 11  1  0  0  0  0
  8  7  2  0  0  0  0
  9 10  2  0  0  0  0
 10 12  1  0  0  0  0
 12 14  1  0  0  0  0
 13 11  1  0  0  0  0
 13 15  1  0  0  0  0
 14 16  1  0  0  0  0
 16 18  1  0  0  0  0
 17 15  1  0  0  0  0
 17 19  1  0  0  0  0
 18 20  1  0  0  0  0
 19 23  1  0  0  0  0
 20 22  1  0  0  0  0
 20 24  1  0  0  0  0
 21 19  1  0  0  0  0
M  END
>  <CHROM.1>
7.98553486,-177.77279597,82.44602593,120.00019151,-57.16342052,-142.96771098
-64.50676707,-178.88564790,-74.39195688,-145.79404670,7.75001926,-1.78858046
-0.89338546,2.99613575,0.25165463,0.80944008

>  <Name>
lig.pdb

>  <RI>
1.71133e+07

>  <Rbt.Current_Directory>
/home/itssahil/PROJECTS/Mol_Feturizer/New_Systems/rnas/2l94

>  <Rbt.Executable>
rbdock ($Id: //depot/dev/client3/rdock/2013.1/src/exe/rbdock.cxx#4 $)

>  <Rbt.Library>
libRbt.so (2013.1, Build901 2013/11/27)

>  <Rbt.Parameter_File>
/export/apps/rDock/src/rDock_2013.1_src/data/scripts/dock_solv.prm

>  <Rbt.Receptor>
prm/pocket_docking_5.prm

>  <SCORE>
-15.7762

>  <SCORE.INTER>
-15.5724

>  <SCORE.INTER.CONST>
1

>  <SCORE.INTER.POLAR>
-2.76161

>  <SCORE.INTER.ROT>
10

>  <SCORE.INTER.SOLV>
8.01507

>  <SCORE.INTER.VDW>
-14.1146

>  <SCORE.INTER.norm>
-0.64885

>  <SCORE.INTRA>
-0.203788

>  <SCORE.INTRA.DIHEDRAL>
4.10358

>  <SCORE.INTRA.DIHEDRAL.0>
7.52971

>  <SCORE.INTRA.POLAR>
0

>  <SCORE.INTRA.POLAR.0>
0

>  <SCORE.INTRA.REPUL>
0

>  <SCORE.INTRA.REPUL.0>
0

>  <SCORE.INTRA.SOLV>
0.431649

>  <SCORE.INTRA.SOLV.lig_0>
-22.1084

>  <SCORE.INTRA.VDW>
-2.4714

>  <SCORE.INTRA.VDW.0>
2.4256

>  <SCORE.INTRA.norm>
-0.00849115

>  <SCORE.RESTR>
0

>  <SCORE.RESTR.CAVITY>
0

>  <SCORE.RESTR.norm>
0

>  <SCORE.SYSTEM>
0

>  <SCORE.SYSTEM.CONST>
0

>  <SCORE.SYSTEM.DIHEDRAL>
0

>  <SCORE.SYSTEM.SOLV>
0

>  <SCORE.SYSTEM.norm>
0

>  <SCORE.heavy>
24

>  <SCORE.norm>
-0.657341

>  <RMSD>
4.317

$$$$
lig.pdb
 OpenBabel11021811453D
libRbt.so/2013.1/901 2013/11/27
 24 24  0  0  0  0  0  0  0  0999 V2000
    9.0803   -1.5222    0.3390 C   0  0  0  0  0  0  0  0  0  0  0  0
    8.8456   -0.1409    0.0261 C   0  0  0  0  0  0  0  0  0  0  0  0
    7.7440    0.5313    0.5000 C   0  0  0  0  0  0  0  0  0  0  0  0
    6.7761   -0.1073    1.3396 C   0  0  0  0  0  0  0  0  0  0  0  0
    6.9941   -1.4957    1.6236 C   0  0  0  0  0  0  0  0  0  0  0  0
    8.0893   -2.1699    1.1444 C   0  0  0  0  0  0  0  0  0  0  0  0
   10.1874   -2.1903   -0.1001 C   0  0  0  0  0  0  0  0  0  0  0  0
   10.3943   -3.5020    0.1443 N   0  0  0  0  0  0  0  0  0  0  0  0
    5.0003    0.1357    2.9193 N   0  0  0  0  0  0  0  0  0  0  0  0
    5.6992    0.5593    1.8450 C   0  0  0  0  0  0  0  0  0  0  0  0
   11.1637   -1.5848   -0.8207 N   0  0  0  0  0  0  0  0  0  0  0  0
    5.2361    1.7116    1.3048 N   0  0  0  0  0  0  0  0  0  0  0  0
   11.9472   -2.1790   -1.9021 C   0  0  0  0  0  0  0  0  0  0  0  0
    4.4184    2.7128    1.9826 C   0  0  0  0  0  0  0  0  0  0  0  0
   11.7018   -1.3534   -3.1753 C   0  0  0  0  0  0  0  0  0  0  0  0
    3.4891    3.3530    0.9346 C   0  0  0  0  0  0  0  0  0  0  0  0
   10.2368   -1.4557   -3.6219 C   0  0  0  0  0  0  0  0  0  0  0  0
    2.5521    2.3297    0.2677 C   0  0  0  0  0  0  0  0  0  0  0  0
    9.9331   -0.3427   -4.5918 N   0  0  0  0  0  0  0  0  0  0  0  0
    1.6885    2.9749   -0.7865 N   0  0  0  0  0  0  0  0  0  0  0  0
    9.5188    0.8935   -3.8410 C   0  0  0  0  0  0  0  0  0  0  0  0
    0.6771    1.9695   -1.2680 C   0  0  0  0  0  0  0  0  0  0  0  0
    8.8369   -0.7457   -5.5468 C   0  0  0  0  0  0  0  0  0  0  0  0
    2.4921    3.4597   -1.9608 C   0  0  0  0  0  0  0  0  0  0  0  0
  1  6  2  0  0  0  0
  2  3  2  0  0  0  0
  2  1  1  0  0  0  0
  3  4  1  0  0  0  0
  4 10  1  0  0  0  0
  4  5  2  0  0  0  0
  6  5  1  0  0  0  0
  7  1  1  0  0  0  0
  7 11  1  0  0  0  0
  8  7  2  0  0  0  0
  9 10  2  0  0  0  0
 10 12  1  0  0  0  0
 12 14  1  0  0  0  0
 13 11  1  0  0  0  0
 13 15  1  0  0  0  0
 14 16  1  0  0  0  0
 16 18  1  0  0  0  0
 17 15  1  0  0  0  0
 17 19  1  0  0  0  0
 18 20  1  0  0  0  0
 19 23  1  0  0  0  0
 20 22  1  0  0  0  0
 20 24  1  0  0  0  0
 21 19  1  0  0  0  0
M  END
>  <CHROM.1>
-159.90536604,-177.39563474,-147.80734114,119.92081831,-64.69138271,60.32126684
-178.01649799,163.15645700,-86.77728284,-172.60932010,7.15275672,0.11345183
-0.61591417,-0.15039007,-0.52976262,1.83370108

>  <Name>
lig.pdb

>  <RI>
1.71133e+07

>  <Rbt.Current_Directory>
/home/itssahil/PROJECTS/Mol_Feturizer/New_Systems/rnas/2l94

>  <Rbt.Executable>
rbdock ($Id: //depot/dev/client3/rdock/2013.1/src/exe/rbdock.cxx#4 $)

>  <Rbt.Library>
libRbt.so (2013.1, Build901 2013/11/27)

>  <Rbt.Parameter_File>
/export/apps/rDock/src/rDock_2013.1_src/data/scripts/dock_solv.prm

>  <Rbt.Receptor>
prm/pocket_docking_5.prm

>  <SCORE>
-25.1374

>  <SCORE.INTER>
-23.6702

>  <SCORE.INTER.CONST>
1

>  <SCORE.INTER.POLAR>
-2.95733

>  <SCORE.INTER.ROT>
10

>  <SCORE.INTER.SOLV>
11.8622

>  <SCORE.INTER.VDW>
-20.1431

>  <SCORE.INTER.norm>
-0.986259

>  <SCORE.INTRA>
-1.46718

>  <SCORE.INTRA.DIHEDRAL>
1.63988

>  <SCORE.INTRA.DIHEDRAL.0>
7.52971

>  <SCORE.INTRA.POLAR>
0

>  <SCORE.INTRA.POLAR.0>
0

>  <SCORE.INTRA.REPUL>
0

>  <SCORE.INTRA.REPUL.0>
0

>  <SCORE.INTRA.SOLV>
0.501536

>  <SCORE.INTRA.SOLV.lig_0>
-22.1084

>  <SCORE.INTRA.VDW>
-2.53788

>  <SCORE.INTRA.VDW.0>
2.4256

>  <SCORE.INTRA.norm>
-0.0611323

>  <SCORE.RESTR>
0

>  <SCORE.RESTR.CAVITY>
0

>  <SCORE.RESTR.norm>
0

>  <SCORE.SYSTEM>
0

>  <SCORE.SYSTEM.CONST>
0

>  <SCORE.SYSTEM.DIHEDRAL>
0

>  <SCORE.SYSTEM.SOLV>
0

>  <SCORE.SYSTEM.norm>
0

>  <SCORE.heavy>
24

>  <SCORE.norm>
-1.04739

>  <RMSD>
4.339

$$$$
lig.pdb
 OpenBabel11021811453D
libRbt.so/2013.1/901 2013/11/27
 24 24  0  0  0  0  0  0  0  0999 V2000
    9.5270   -2.5384   -1.4546 C   0  0  0  0  0  0  0  0  0  0  0  0
    8.2957   -2.7291   -2.1678 C   0  0  0  0  0  0  0  0  0  0  0  0
    7.1044   -2.9333   -1.5127 C   0  0  0  0  0  0  0  0  0  0  0  0
    7.0256   -2.9567   -0.0835 C   0  0  0  0  0  0  0  0  0  0  0  0
    8.2611   -2.7998    0.6268 C   0  0  0  0  0  0  0  0  0  0  0  0
    9.4523   -2.6040   -0.0263 C   0  0  0  0  0  0  0  0  0  0  0  0
   10.7102   -2.3032   -2.0947 C   0  0  0  0  0  0  0  0  0  0  0  0
   10.7767   -1.8201   -3.3538 N   0  0  0  0  0  0  0  0  0  0  0  0
    5.7555   -3.2699    1.9158 N   0  0  0  0  0  0  0  0  0  0  0  0
    5.8440   -3.1221    0.5769 C   0  0  0  0  0  0  0  0  0  0  0  0
   11.9116   -2.5344   -1.5097 N   0  0  0  0  0  0  0  0  0  0  0  0
    4.6502   -3.1537   -0.0617 N   0  0  0  0  0  0  0  0  0  0  0  0
   13.1323   -1.7492   -1.6819 C   0  0  0  0  0  0  0  0  0  0  0  0
    3.3464   -2.8831    0.5359 C   0  0  0  0  0  0  0  0  0  0  0  0
   13.1402   -0.6433   -0.6142 C   0  0  0  0  0  0  0  0  0  0  0  0
    2.9866   -1.4148    0.2417 C   0  0  0  0  0  0  0  0  0  0  0  0
   13.9082   -1.0932    0.6364 C   0  0  0  0  0  0  0  0  0  0  0  0
    1.5404   -1.0669    0.6383 C   0  0  0  0  0  0  0  0  0  0  0  0
   14.0988    0.0866    1.5548 N   0  0  0  0  0  0  0  0  0  0  0  0
    1.1841    0.3453    0.2480 N   0  0  0  0  0  0  0  0  0  0  0  0
   15.0330    1.0827    0.9235 C   0  0  0  0  0  0  0  0  0  0  0  0
   -0.0295    0.7735    1.0286 C   0  0  0  0  0  0  0  0  0  0  0  0
   14.6533   -0.3531    2.8872 C   0  0  0  0  0  0  0  0  0  0  0  0
    0.8893    0.4716   -1.2207 C   0  0  0  0  0  0  0  0  0  0  0  0
  1  6  2  0  0  0  0
  2  3  2  0  0  0  0
  2  1  1  0  0  0  0
  3  4  1  0  0  0  0
  4 10  1  0  0  0  0
  4  5  2  0  0  0  0
  6  5  1  0  0  0  0
  7  1  1  0  0  0  0
  7 11  1  0  0  0  0
  8  7  2  0  0  0  0
  9 10  2  0  0  0  0
 10 12  1  0  0  0  0
 12 14  1  0  0  0  0
 13 11  1  0  0  0  0
 13 15  1  0  0  0  0
 14 16  1  0  0  0  0
 16 18  1  0  0  0  0
 17 15  1  0  0  0  0
 17 19  1  0  0  0  0
 18 20  1  0  0  0  0
 19 23  1  0  0  0  0
 20 22  1  0  0  0  0
 20 24  1  0  0  0  0
 21 19  1  0  0  0  0
M  END
>  <CHROM.1>
173.75015338,21.44916255,96.91375131,89.76811496,93.48474769,171.37857615
-175.85770711,170.31015052,-67.61437882,-161.90590337,8.03803571,-1.57441247
-0.13457268,0.00783940,-0.01586011,-2.27099460

>  <Name>
lig.pdb

>  <RI>
0

>  <Rbt.Current_Directory>
/home/itssahil/PROJECTS/Mol_Feturizer/New_Systems/rnas/2l94

>  <Rbt.Executable>
rbdock ($Id: //depot/dev/client3/rdock/2013.1/src/exe/rbdock.cxx#4 $)

>  <Rbt.Library>
libRbt.so (2013.1, Build901 2013/11/27)

>  <Rbt.Parameter_File>
/export/apps/rDock/src/rDock_2013.1_src/data/scripts/dock_solv.prm

>  <Rbt.Receptor>
prm/pocket_docking_4.prm

>  <SCORE>
-10.755

>  <SCORE.INTER>
-10.5354

>  <SCORE.INTER.CONST>
1

>  <SCORE.INTER.POLAR>
-1.91524

>  <SCORE.INTER.ROT>
10

>  <SCORE.INTER.SOLV>
7.9398

>  <SCORE.INTER.VDW>
-13.5527

>  <SCORE.INTER.norm>
-0.438974

>  <SCORE.INTRA>
-0.318152

>  <SCORE.INTRA.DIHEDRAL>
4.00077

>  <SCORE.INTRA.DIHEDRAL.0>
7.52971

>  <SCORE.INTRA.POLAR>
0

>  <SCORE.INTRA.POLAR.0>
0

>  <SCORE.INTRA.REPUL>
0

>  <SCORE.INTRA.REPUL.0>
0

>  <SCORE.INTRA.SOLV>
-0.0495218

>  <SCORE.INTRA.SOLV.lig_0>
-22.1084

>  <SCORE.INTRA.VDW>
-2.29378

>  <SCORE.INTRA.VDW.0>
2.4256

>  <SCORE.INTRA.norm>
-0.0132563

>  <SCORE.RESTR>
0.0984937

>  <SCORE.RESTR.CAVITY>
0.0984937

>  <SCORE.RESTR.norm>
0.00410391

>  <SCORE.SYSTEM>
0

>  <SCORE.SYSTEM.CONST>
0

>  <SCORE.SYSTEM.DIHEDRAL>
0

>  <SCORE.SYSTEM.SOLV>
0

>  <SCORE.SYSTEM.norm>
0

>  <SCORE.heavy>
24

>  <SCORE.norm>
-0.448126

>  <RMSD>
4.356

$$$$
lig.pdb
 OpenBabel11021811453D
libRbt.so/2013.1/901 2013/11/27
 24 24  0  0  0  0  0  0  0  0999 V2000
    6.8852   -0.6398    1.2096 C   0  0  0  0  0  0  0  0  0  0  0  0
    7.1662    0.7640    1.1036 C   0  0  0  0  0  0  0  0  0  0  0  0
    6.1670    1.7073    1.1471 C   0  0  0  0  0  0  0  0  0  0  0  0
    4.7927    1.3410    1.3105 C   0  0  0  0  0  0  0  0  0  0  0  0
    4.5102   -0.0628    1.3823 C   0  0  0  0  0  0  0  0  0  0  0  0
    5.5062   -1.0057    1.3308 C   0  0  0  0  0  0  0  0  0  0  0  0
    7.8728   -1.5828    1.1995 C   0  0  0  0  0  0  0  0  0  0  0  0
    7.7950   -2.7302    1.9071 N   0  0  0  0  0  0  0  0  0  0  0  0
    3.9800    3.5136    1.8829 N   0  0  0  0  0  0  0  0  0  0  0  0
    3.7974    2.2697    1.3915 C   0  0  0  0  0  0  0  0  0  0  0  0
    9.0082   -1.4387    0.4721 N   0  0  0  0  0  0  0  0  0  0  0  0
    2.5309    2.0181    0.9834 N   0  0  0  0  0  0  0  0  0  0  0  0
    9.7503   -2.4985   -0.2078 C   0  0  0  0  0  0  0  0  0  0  0  0
    1.5315    3.0152    0.6124 C   0  0  0  0  0  0  0  0  0  0  0  0
    8.9290   -2.9458   -1.4278 C   0  0  0  0  0  0  0  0  0  0  0  0
    1.0961    2.7320   -0.8374 C   0  0  0  0  0  0  0  0  0  0  0  0
    8.7716   -1.7976   -2.4343 C   0  0  0  0  0  0  0  0  0  0  0  0
    2.2885    2.6202   -1.8045 C   0  0  0  0  0  0  0  0  0  0  0  0
    7.9955   -2.2868   -3.6302 N   0  0  0  0  0  0  0  0  0  0  0  0
    2.9495    3.9574   -2.0250 N   0  0  0  0  0  0  0  0  0  0  0  0
    8.1851   -1.3427   -4.7862 C   0  0  0  0  0  0  0  0  0  0  0  0
    2.5336    4.4889   -3.3704 C   0  0  0  0  0  0  0  0  0  0  0  0
    6.5263   -2.4025   -3.3074 C   0  0  0  0  0  0  0  0  0  0  0  0
    4.4492    3.8642   -1.9793 C   0  0  0  0  0  0  0  0  0  0  0  0
  1  6  2  0  0  0  0
  2  3  2  0  0  0  0
  2  1  1  0  0  0  0
  3  4  1  0  0  0  0
  4 10  1  0  0  0  0
  4  5  2  0  0  0  0
  6  5  1  0  0  0  0
  7  1  1  0  0  0  0
  7 11  1  0  0  0  0
  8  7  2  0  0  0  0
  9 10  2  0  0  0  0
 10 12  1  0  0  0  0
 12 14  1  0  0  0  0
 13 11  1  0  0  0  0
 13 15  1  0  0  0  0
 14 16  1  0  0  0  0
 16 18  1  0  0  0  0
 17 15  1  0  0  0  0
 17 19  1  0  0  0  0
 18 20  1  0  0  0  0
 19 23  1  0  0  0  0
 20 22  1  0  0  0  0
 20 24  1  0  0  0  0
 21 19  1  0  0  0  0
M  END
>  <CHROM.1>
-29.02958812,146.37104489,121.46687579,71.88399650,63.23946209,-52.14779793
-70.17968584,178.43135086,-162.79996388,-103.35990280,5.61940105,0.49360574
-0.48361393,-0.04170062,-0.75473247,1.61385230

>  <Name>
lig.pdb

>  <RI>
1.71133e+07

>  <Rbt.Current_Directory>
/home/itssahil/PROJECTS/Mol_Feturizer/New_Systems/rnas/2l94

>  <Rbt.Executable>
rbdock ($Id: //depot/dev/client3/rdock/2013.1/src/exe/rbdock.cxx#4 $)

>  <Rbt.Library>
libRbt.so (2013.1, Build901 2013/11/27)

>  <Rbt.Parameter_File>
/export/apps/rDock/src/rDock_2013.1_src/data/scripts/dock_solv.prm

>  <Rbt.Receptor>
prm/pocket_docking_5.prm

>  <SCORE>
-28.4982

>  <SCORE.INTER>
-29.246

>  <SCORE.INTER.CONST>
1

>  <SCORE.INTER.POLAR>
-4.8328

>  <SCORE.INTER.ROT>
10

>  <SCORE.INTER.SOLV>
11.8854

>  <SCORE.INTER.VDW>
-17.6165

>  <SCORE.INTER.norm>
-1.21858

>  <SCORE.INTRA>
0.74781

>  <SCORE.INTRA.DIHEDRAL>
8.49523

>  <SCORE.INTRA.DIHEDRAL.0>
7.52971

>  <SCORE.INTRA.POLAR>
0

>  <SCORE.INTRA.POLAR.0>
0

>  <SCORE.INTRA.REPUL>
0

>  <SCORE.INTRA.REPUL.0>
0

>  <SCORE.INTRA.SOLV>
1.18096

>  <SCORE.INTRA.SOLV.lig_0>
-22.1084

>  <SCORE.INTRA.VDW>
-4.09028

>  <SCORE.INTRA.VDW.0>
2.4256

>  <SCORE.INTRA.norm>
0.0311588

>  <SCORE.RESTR>
0

>  <SCORE.RESTR.CAVITY>
0

>  <SCORE.RESTR.norm>
0

>  <SCORE.SYSTEM>
0

>  <SCORE.SYSTEM.CONST>
0

>  <SCORE.SYSTEM.DIHEDRAL>
0

>  <SCORE.SYSTEM.SOLV>
0

>  <SCORE.SYSTEM.norm>
0

>  <SCORE.heavy>
24

>  <SCORE.norm>
-1.18742

>  <RMSD>
4.361

$$$$
lig.pdb
 OpenBabel11021811453D
libRbt.so/2013.1/901 2013/11/27
 24 24  0  0  0  0  0  0  0  0999 V2000
    4.4732    1.8078    0.3748 C   0  0  0  0  0  0  0  0  0  0  0  0
    5.5627    1.7813    1.3093 C   0  0  0  0  0  0  0  0  0  0  0  0
    6.3523    0.6672    1.4687 C   0  0  0  0  0  0  0  0  0  0  0  0
    6.1369   -0.5238    0.7041 C   0  0  0  0  0  0  0  0  0  0  0  0
    5.0277   -0.5074   -0.2043 C   0  0  0  0  0  0  0  0  0  0  0  0
    4.2338    0.6015   -0.3584 C   0  0  0  0  0  0  0  0  0  0  0  0
    3.7030    2.9195    0.1858 C   0  0  0  0  0  0  0  0  0  0  0  0
    3.9110    4.0749    0.8528 N   0  0  0  0  0  0  0  0  0  0  0  0
    7.7811   -1.8129    1.8629 N   0  0  0  0  0  0  0  0  0  0  0  0
    6.9361   -1.6218    0.8278 C   0  0  0  0  0  0  0  0  0  0  0  0
    2.6700    2.9475   -0.6924 N   0  0  0  0  0  0  0  0  0  0  0  0
    6.9497   -2.6201   -0.0872 N   0  0  0  0  0  0  0  0  0  0  0  0
    2.2515    4.0825   -1.5127 C   0  0  0  0  0  0  0  0  0  0  0  0
    7.3971   -3.9907    0.1404 C   0  0  0  0  0  0  0  0  0  0  0  0
    2.6690    3.7986   -2.9647 C   0  0  0  0  0  0  0  0  0  0  0  0
    8.5307   -4.2903   -0.8580 C   0  0  0  0  0  0  0  0  0  0  0  0
    4.1827    3.5651   -3.0649 C   0  0  0  0  0  0  0  0  0  0  0  0
    9.8279   -3.5293   -0.5295 C   0  0  0  0  0  0  0  0  0  0  0  0
    4.4589    2.5426   -4.1373 N   0  0  0  0  0  0  0  0  0  0  0  0
    9.7976   -2.1233   -1.0732 N   0  0  0  0  0  0  0  0  0  0  0  0
    4.7345    1.2030   -3.5105 C   0  0  0  0  0  0  0  0  0  0  0  0
   10.3453   -2.1327   -2.4752 C   0  0  0  0  0  0  0  0  0  0  0  0
    5.6365    2.9565   -4.9846 C   0  0  0  0  0  0  0  0  0  0  0  0
   10.6103   -1.1735   -0.2381 C   0  0  0  0  0  0  0  0  0  0  0  0
  1  6  2  0  0  0  0
  2  3  2  0  0  0  0
  2  1  1  0  0  0  0
  3  4  1  0  0  0  0
  4 10  1  0  0  0  0
  4  5  2  0  0  0  0
  6  5  1  0  0  0  0
  7  1  1  0  0  0  0
  7 11  1  0  0  0  0
  8  7  2  0  0  0  0
  9 10  2  0  0  0  0
 10 12  1  0  0  0  0
 12 14  1  0  0  0  0
 13 11  1  0  0  0  0
 13 15  1  0  0  0  0
 14 16  1  0  0  0  0
 16 18  1  0  0  0  0
 17 15  1  0  0  0  0
 17 19  1  0  0  0  0
 18 20  1  0  0  0  0
 19 23  1  0  0  0  0
 20 22  1  0  0  0  0
 20 24  1  0  0  0  0
 21 19  1  0  0  0  0
M  END
>  <CHROM.1>
15.84122997,0.44022681,-122.03573282,106.48555689,-57.72048974,70.63251937
-83.04145286,145.79215169,-101.45723781,-89.10661193,6.04657093,0.35552258
-0.84574547,2.73410874,0.77599131,-1.26845090

>  <Name>
lig.pdb

>  <RI>
1.39428e+07

>  <Rbt.Current_Directory>
/home/itssahil/PROJECTS/Mol_Feturizer/New_Systems/rnas/2l94

>  <Rbt.Executable>
rbdock ($Id: //depot/dev/client3/rdock/2013.1/src/exe/rbdock.cxx#4 $)

>  <Rbt.Library>
libRbt.so (2013.1, Build901 2013/11/27)

>  <Rbt.Parameter_File>
/export/apps/rDock/src/rDock_2013.1_src/data/scripts/dock_solv.prm

>  <Rbt.Receptor>
prm/pocket_docking_8.prm

>  <SCORE>
-19.4702

>  <SCORE.INTER>
-20.1587

>  <SCORE.INTER.CONST>
1

>  <SCORE.INTER.POLAR>
-3.70486

>  <SCORE.INTER.ROT>
10

>  <SCORE.INTER.SOLV>
11.7233

>  <SCORE.INTER.VDW>
-15.264

>  <SCORE.INTER.norm>
-0.839946

>  <SCORE.INTRA>
0.688496

>  <SCORE.INTRA.DIHEDRAL>
8.50487

>  <SCORE.INTRA.DIHEDRAL.0>
7.52971

>  <SCORE.INTRA.POLAR>
0

>  <SCORE.INTRA.POLAR.0>
0

>  <SCORE.INTRA.REPUL>
0

>  <SCORE.INTRA.REPUL.0>
0

>  <SCORE.INTRA.SOLV>
2.32111

>  <SCORE.INTRA.SOLV.lig_0>
-22.1084

>  <SCORE.INTRA.VDW>
-4.72449

>  <SCORE.INTRA.VDW.0>
2.4256

>  <SCORE.INTRA.norm>
0.0286874

>  <SCORE.RESTR>
0

>  <SCORE.RESTR.CAVITY>
0

>  <SCORE.RESTR.norm>
0

>  <SCORE.SYSTEM>
0

>  <SCORE.SYSTEM.CONST>
0

>  <SCORE.SYSTEM.DIHEDRAL>
0

>  <SCORE.SYSTEM.SOLV>
0

>  <SCORE.SYSTEM.norm>
0

>  <SCORE.heavy>
24

>  <SCORE.norm>
-0.811258

>  <RMSD>
4.362

$$$$
lig.pdb
 OpenBabel11021811453D
libRbt.so/2013.1/901 2013/11/27
 24 24  0  0  0  0  0  0  0  0999 V2000
    5.9970   -2.1369    1.3142 C   0  0  0  0  0  0  0  0  0  0  0  0
    6.1727   -3.5592    1.2292 C   0  0  0  0  0  0  0  0  0  0  0  0
    7.0760   -4.1261    0.3615 C   0  0  0  0  0  0  0  0  0  0  0  0
    7.8975   -3.3280   -0.4973 C   0  0  0  0  0  0  0  0  0  0  0  0
    7.6970   -1.9097   -0.4355 C   0  0  0  0  0  0  0  0  0  0  0  0
    6.7898   -1.3431    0.4246 C   0  0  0  0  0  0  0  0  0  0  0  0
    5.1258   -1.5623    2.1949 C   0  0  0  0  0  0  0  0  0  0  0  0
    5.0391   -1.9394    3.4885 N   0  0  0  0  0  0  0  0  0  0  0  0
    8.6012   -4.9998   -2.0524 N   0  0  0  0  0  0  0  0  0  0  0  0
    8.8222   -3.8776   -1.3354 C   0  0  0  0  0  0  0  0  0  0  0  0
    4.2821   -0.5632    1.8356 N   0  0  0  0  0  0  0  0  0  0  0  0
   10.0512   -3.3391   -1.5185 N   0  0  0  0  0  0  0  0  0  0  0  0
    3.8676    0.5692    2.6615 C   0  0  0  0  0  0  0  0  0  0  0  0
   10.9247   -3.5574   -2.6673 C   0  0  0  0  0  0  0  0  0  0  0  0
    4.7595    1.7692    2.3042 C   0  0  0  0  0  0  0  0  0  0  0  0
   11.6084   -2.2188   -3.0029 C   0  0  0  0  0  0  0  0  0  0  0  0
    4.6899    2.0767    0.8020 C   0  0  0  0  0  0  0  0  0  0  0  0
   12.3741   -1.6266   -1.8058 C   0  0  0  0  0  0  0  0  0  0  0  0
    5.6307    3.2099    0.4817 N   0  0  0  0  0  0  0  0  0  0  0  0
   13.7397   -1.1330   -2.2117 N   0  0  0  0  0  0  0  0  0  0  0  0
    4.8588    4.4938    0.3419 C   0  0  0  0  0  0  0  0  0  0  0  0
   14.5643   -0.9112   -0.9722 C   0  0  0  0  0  0  0  0  0  0  0  0
    6.3900    2.9348   -0.7926 C   0  0  0  0  0  0  0  0  0  0  0  0
   13.6714    0.1521   -2.9889 C   0  0  0  0  0  0  0  0  0  0  0  0
  1  6  2  0  0  0  0
  2  3  2  0  0  0  0
  2  1  1  0  0  0  0
  3  4  1  0  0  0  0
  4 10  1  0  0  0  0
  4  5  2  0  0  0  0
  6  5  1  0  0  0  0
  7  1  1  0  0  0  0
  7 11  1  0  0  0  0
  8  7  2  0  0  0  0
  9 10  2  0  0  0  0
 10 12  1  0  0  0  0
 12 14  1  0  0  0  0
 13 11  1  0  0  0  0
 13 15  1  0  0  0  0
 14 16  1  0  0  0  0
 16 18  1  0  0  0  0
 17 15  1  0  0  0  0
 17 19  1  0  0  0  0
 18 20  1  0  0  0  0
 19 23  1  0  0  0  0
 20 22  1  0  0  0  0
 20 24  1  0  0  0  0
 21 19  1  0  0  0  0
M  END
>  <CHROM.1>
41.09923098,45.26012311,140.95431400,96.86005010,56.10295443,56.04052451
134.70786673,-177.06609449,-101.20871242,-165.15441543,7.99666441,-1.05433176
-0.14075215,2.80141397,0.47823896,-0.02970066

>  <Name>
lig.pdb

>  <RI>
1.71133e+07

>  <Rbt.Current_Directory>
/home/itssahil/PROJECTS/Mol_Feturizer/New_Systems/rnas/2l94

>  <Rbt.Executable>
rbdock ($Id: //depot/dev/client3/rdock/2013.1/src/exe/rbdock.cxx#4 $)

>  <Rbt.Library>
libRbt.so (2013.1, Build901 2013/11/27)

>  <Rbt.Parameter_File>
/export/apps/rDock/src/rDock_2013.1_src/data/scripts/dock_solv.prm

>  <Rbt.Receptor>
prm/pocket_docking_5.prm

>  <SCORE>
-21.0309

>  <SCORE.INTER>
-27.0057

>  <SCORE.INTER.CONST>
1

>  <SCORE.INTER.POLAR>
-3.6331

>  <SCORE.INTER.ROT>
10

>  <SCORE.INTER.SOLV>
13.5433

>  <SCORE.INTER.VDW>
-20.6746

>  <SCORE.INTER.norm>
-1.12524

>  <SCORE.INTRA>
5.9748

>  <SCORE.INTRA.DIHEDRAL>
17.5281

>  <SCORE.INTRA.DIHEDRAL.0>
7.52971

>  <SCORE.INTRA.POLAR>
0

>  <SCORE.INTRA.POLAR.0>
0

>  <SCORE.INTRA.REPUL>
0

>  <SCORE.INTRA.REPUL.0>
0

>  <SCORE.INTRA.SOLV>
0.176554

>  <SCORE.INTRA.SOLV.lig_0>
-22.1084

>  <SCORE.INTRA.VDW>
-2.87752

>  <SCORE.INTRA.VDW.0>
2.4256

>  <SCORE.INTRA.norm>
0.24895

>  <SCORE.RESTR>
0

>  <SCORE.RESTR.CAVITY>
0

>  <SCORE.RESTR.norm>
0

>  <SCORE.SYSTEM>
0

>  <SCORE.SYSTEM.CONST>
0

>  <SCORE.SYSTEM.DIHEDRAL>
0

>  <SCORE.SYSTEM.SOLV>
0

>  <SCORE.SYSTEM.norm>
0

>  <SCORE.heavy>
24

>  <SCORE.norm>
-0.876289

>  <RMSD>
4.374

$$$$
lig.pdb
 OpenBabel11021811453D
libRbt.so/2013.1/901 2013/11/27
 24 24  0  0  0  0  0  0  0  0999 V2000
    7.2847   -3.6721    0.0299 C   0  0  0  0  0  0  0  0  0  0  0  0
    6.1360   -4.5318    0.0807 C   0  0  0  0  0  0  0  0  0  0  0  0
    5.1350   -4.3477    1.0049 C   0  0  0  0  0  0  0  0  0  0  0  0
    5.1791   -3.2826    1.9604 C   0  0  0  0  0  0  0  0  0  0  0  0
    6.3428   -2.4456    1.9303 C   0  0  0  0  0  0  0  0  0  0  0  0
    7.3466   -2.6333    1.0133 C   0  0  0  0  0  0  0  0  0  0  0  0
    8.2689   -3.8265   -0.9041 C   0  0  0  0  0  0  0  0  0  0  0  0
    8.0132   -4.1627   -2.1866 N   0  0  0  0  0  0  0  0  0  0  0  0
    3.2694   -4.0103    3.1981 N   0  0  0  0  0  0  0  0  0  0  0  0
    4.1747   -3.0687    2.8577 C   0  0  0  0  0  0  0  0  0  0  0  0
    9.5815   -3.6492   -0.6132 N   0  0  0  0  0  0  0  0  0  0  0  0
    3.9996   -1.8821    3.4864 N   0  0  0  0  0  0  0  0  0  0  0  0
   10.6024   -3.0835   -1.4930 C   0  0  0  0  0  0  0  0  0  0  0  0
    3.2821   -1.6691    4.7396 C   0  0  0  0  0  0  0  0  0  0  0  0
   11.6548   -2.3887   -0.6140 C   0  0  0  0  0  0  0  0  0  0  0  0
    2.6211   -0.2796    4.6760 C   0  0  0  0  0  0  0  0  0  0  0  0
   12.6805   -1.6387   -1.4751 C   0  0  0  0  0  0  0  0  0  0  0  0
    1.8012    0.0462    5.9375 C   0  0  0  0  0  0  0  0  0  0  0  0
   13.9218   -1.3813   -0.6599 N   0  0  0  0  0  0  0  0  0  0  0  0
    0.9811    1.2985    5.7565 N   0  0  0  0  0  0  0  0  0  0  0  0
   13.5902   -0.5050    0.5172 C   0  0  0  0  0  0  0  0  0  0  0  0
    0.4289    1.7151    7.0933 C   0  0  0  0  0  0  0  0  0  0  0  0
   14.9883   -0.7206   -1.4979 C   0  0  0  0  0  0  0  0  0  0  0  0
   -0.1598    1.0969    4.7985 C   0  0  0  0  0  0  0  0  0  0  0  0
  1  6  2  0  0  0  0
  2  3  2  0  0  0  0
  2  1  1  0  0  0  0
  3  4  1  0  0  0  0
  4 10  1  0  0  0  0
  4  5  2  0  0  0  0
  6  5  1  0  0  0  0
  7  1  1  0  0  0  0
  7 11  1  0  0  0  0
  8  7  2  0  0  0  0
  9 10  2  0  0  0  0
 10 12  1  0  0  0  0
 12 14  1  0  0  0  0
 13 11  1  0  0  0  0
 13 15  1  0  0  0  0
 14 16  1  0  0  0  0
 16 18  1  0  0  0  0
 17 15  1  0  0  0  0
 17 19  1  0  0  0  0
 18 20  1  0  0  0  0
 19 23  1  0  0  0  0
 20 22  1  0  0  0  0
 20 24  1  0  0  0  0
 21 19  1  0  0  0  0
M  END
>  <CHROM.1>
19.72005899,38.64854694,-147.17623989,149.91597494,-173.83578124,178.60354470
-170.38402920,-160.75563303,-62.16796877,-168.68585733,6.73120536,-1.98052444
1.67777831,0.43134306,-0.35414870,-2.52659772

>  <Name>
lig.pdb

>  <RI>
2.48096e+07

>  <Rbt.Current_Directory>
/home/itssahil/PROJECTS/Mol_Feturizer/New_Systems/rnas/2l94

>  <Rbt.Executable>
rbdock ($Id: //depot/dev/client3/rdock/2013.1/src/exe/rbdock.cxx#4 $)

>  <Rbt.Library>
libRbt.so (2013.1, Build901 2013/11/27)

>  <Rbt.Parameter_File>
/export/apps/rDock/src/rDock_2013.1_src/data/scripts/dock_solv.prm

>  <Rbt.Receptor>
prm/pocket_docking_6.prm

>  <SCORE>
-23.5979

>  <SCORE.INTER>
-25.5501

>  <SCORE.INTER.CONST>
1

>  <SCORE.INTER.POLAR>
-3.10367

>  <SCORE.INTER.ROT>
10

>  <SCORE.INTER.SOLV>
11.7094

>  <SCORE.INTER.VDW>
-20.8576

>  <SCORE.INTER.norm>
-1.06459

>  <SCORE.INTRA>
1.70668

>  <SCORE.INTRA.DIHEDRAL>
5.79234

>  <SCORE.INTRA.DIHEDRAL.0>
7.52971

>  <SCORE.INTRA.POLAR>
0

>  <SCORE.INTRA.POLAR.0>
0

>  <SCORE.INTRA.REPUL>
0

>  <SCORE.INTRA.REPUL.0>
0

>  <SCORE.INTRA.SOLV>
-0.432422

>  <SCORE.INTRA.SOLV.lig_0>
-22.1084

>  <SCORE.INTRA.VDW>
-0.973279

>  <SCORE.INTRA.VDW.0>
2.4256

>  <SCORE.INTRA.norm>
0.0711117

>  <SCORE.RESTR>
0.245527

>  <SCORE.RESTR.CAVITY>
0.245527

>  <SCORE.RESTR.norm>
0.0102303

>  <SCORE.SYSTEM>
0

>  <SCORE.SYSTEM.CONST>
0

>  <SCORE.SYSTEM.DIHEDRAL>
0

>  <SCORE.SYSTEM.SOLV>
0

>  <SCORE.SYSTEM.norm>
0

>  <SCORE.heavy>
24

>  <SCORE.norm>
-0.983246

>  <RMSD>
4.403

$$$$
lig.pdb
 OpenBabel11021811453D
libRbt.so/2013.1/901 2013/11/27
 24 24  0  0  0  0  0  0  0  0999 V2000
    6.7747   -3.1005   -1.3705 C   0  0  0  0  0  0  0  0  0  0  0  0
    7.7208   -4.1605   -1.5761 C   0  0  0  0  0  0  0  0  0  0  0  0
    9.0681   -3.9145   -1.6962 C   0  0  0  0  0  0  0  0  0  0  0  0
    9.6016   -2.5887   -1.6129 C   0  0  0  0  0  0  0  0  0  0  0  0
    8.6523   -1.5280   -1.4413 C   0  0  0  0  0  0  0  0  0  0  0  0
    7.3062   -1.7716   -1.3294 C   0  0  0  0  0  0  0  0  0  0  0  0
    5.4383   -3.3367   -1.2181 C   0  0  0  0  0  0  0  0  0  0  0  0
    4.9295   -4.5763   -1.0519 N   0  0  0  0  0  0  0  0  0  0  0  0
   11.8072   -3.1353   -2.3510 N   0  0  0  0  0  0  0  0  0  0  0  0
   10.9394   -2.3368   -1.6942 C   0  0  0  0  0  0  0  0  0  0  0  0
    4.5192   -2.3396   -1.2181 N   0  0  0  0  0  0  0  0  0  0  0  0
   11.5139   -1.2553   -1.1160 N   0  0  0  0  0  0  0  0  0  0  0  0
    3.2981   -2.2774   -0.4173 C   0  0  0  0  0  0  0  0  0  0  0  0
   12.7917   -0.6564   -1.4888 C   0  0  0  0  0  0  0  0  0  0  0  0
    3.1985   -0.8679    0.1881 C   0  0  0  0  0  0  0  0  0  0  0  0
   13.8904   -1.3162   -0.6349 C   0  0  0  0  0  0  0  0  0  0  0  0
    2.7460    0.1516   -0.8664 C   0  0  0  0  0  0  0  0  0  0  0  0
   13.7589   -0.9835    0.8623 C   0  0  0  0  0  0  0  0  0  0  0  0
    1.2668   -0.0062   -1.1090 N   0  0  0  0  0  0  0  0  0  0  0  0
   14.1291    0.4505    1.1453 N   0  0  0  0  0  0  0  0  0  0  0  0
    0.8811    0.6790   -2.3916 C   0  0  0  0  0  0  0  0  0  0  0  0
   15.6292    0.5645    1.1933 C   0  0  0  0  0  0  0  0  0  0  0  0
    0.4696    0.5729    0.0335 C   0  0  0  0  0  0  0  0  0  0  0  0
   13.5606    0.9374    2.4489 C   0  0  0  0  0  0  0  0  0  0  0  0
  1  6  2  0  0  0  0
  2  3  2  0  0  0  0
  2  1  1  0  0  0  0
  3  4  1  0  0  0  0
  4 10  1  0  0  0  0
  4  5  2  0  0  0  0
  6  5  1  0  0  0  0
  7  1  1  0  0  0  0
  7 11  1  0  0  0  0
  8  7  2  0  0  0  0
  9 10  2  0  0  0  0
 10 12  1  0  0  0  0
 12 14  1  0  0  0  0
 13 11  1  0  0  0  0
 13 15  1  0  0  0  0
 14 16  1  0  0  0  0
 16 18  1  0  0  0  0
 17 15  1  0  0  0  0
 17 19  1  0  0  0  0
 18 20  1  0  0  0  0
 19 23  1  0  0  0  0
 20 22  1  0  0  0  0
 20 24  1  0  0  0  0
 21 19  1  0  0  0  0
M  END
>  <CHROM.1>
26.86265164,10.00815272,-91.19437461,134.39149071,76.16994375,-66.28978054
-71.67376884,75.95717837,-163.58625022,-79.78224678,8.06856472,-1.48056874
-0.75285817,-3.07545365,-0.07541220,0.47620046

>  <Name>
lig.pdb

>  <RI>
0

>  <Rbt.Current_Directory>
/home/itssahil/PROJECTS/Mol_Feturizer/New_Systems/rnas/2l94

>  <Rbt.Executable>
rbdock ($Id: //depot/dev/client3/rdock/2013.1/src/exe/rbdock.cxx#4 $)

>  <Rbt.Library>
libRbt.so (2013.1, Build901 2013/11/27)

>  <Rbt.Parameter_File>
/export/apps/rDock/src/rDock_2013.1_src/data/scripts/dock_solv.prm

>  <Rbt.Receptor>
prm/pocket_docking_4.prm

>  <SCORE>
-14.2924

>  <SCORE.INTER>
-14.3148

>  <SCORE.INTER.CONST>
1

>  <SCORE.INTER.POLAR>
-2.23226

>  <SCORE.INTER.ROT>
10

>  <SCORE.INTER.SOLV>
9.94725

>  <SCORE.INTER.VDW>
-15.6848

>  <SCORE.INTER.norm>
-0.596451

>  <SCORE.INTRA>
0.0224197

>  <SCORE.INTRA.DIHEDRAL>
4.2373

>  <SCORE.INTRA.DIHEDRAL.0>
7.52971

>  <SCORE.INTRA.POLAR>
0

>  <SCORE.INTRA.POLAR.0>
0

>  <SCORE.INTRA.REPUL>
0

>  <SCORE.INTRA.REPUL.0>
0

>  <SCORE.INTRA.SOLV>
0.617644

>  <SCORE.INTRA.SOLV.lig_0>
-22.1084

>  <SCORE.INTRA.VDW>
-2.40505

>  <SCORE.INTRA.VDW.0>
2.4256

>  <SCORE.INTRA.norm>
0.000934153

>  <SCORE.RESTR>
0

>  <SCORE.RESTR.CAVITY>
0

>  <SCORE.RESTR.norm>
0

>  <SCORE.SYSTEM>
0

>  <SCORE.SYSTEM.CONST>
0

>  <SCORE.SYSTEM.DIHEDRAL>
0

>  <SCORE.SYSTEM.SOLV>
0

>  <SCORE.SYSTEM.norm>
0

>  <SCORE.heavy>
24

>  <SCORE.norm>
-0.595517

>  <RMSD>
4.428

$$$$
lig.pdb
 OpenBabel11021811453D
libRbt.so/2013.1/901 2013/11/27
 24 24  0  0  0  0  0  0  0  0999 V2000
    8.8219   -1.6880    0.3380 C   0  0  0  0  0  0  0  0  0  0  0  0
    8.6041   -0.3000    0.6332 C   0  0  0  0  0  0  0  0  0  0  0  0
    7.3671    0.1769    0.9970 C   0  0  0  0  0  0  0  0  0  0  0  0
    6.2310   -0.6867    1.1109 C   0  0  0  0  0  0  0  0  0  0  0  0
    6.4424   -2.0664    0.7832 C   0  0  0  0  0  0  0  0  0  0  0  0
    7.6752   -2.5422    0.4121 C   0  0  0  0  0  0  0  0  0  0  0  0
   10.0529   -2.1775    0.0069 C   0  0  0  0  0  0  0  0  0  0  0  0
   10.4066   -3.4646    0.2101 N   0  0  0  0  0  0  0  0  0  0  0  0
    4.8318    0.6348    2.5265 N   0  0  0  0  0  0  0  0  0  0  0  0
    5.0080   -0.2310    1.5060 C   0  0  0  0  0  0  0  0  0  0  0  0
   11.0147   -1.4053   -0.5569 N   0  0  0  0  0  0  0  0  0  0  0  0
    3.8577   -0.6142    0.9028 N   0  0  0  0  0  0  0  0  0  0  0  0
   11.9918   -1.8216   -1.5610 C   0  0  0  0  0  0  0  0  0  0  0  0
    2.5894    0.1079    0.9292 C   0  0  0  0  0  0  0  0  0  0  0  0
   11.2220   -2.3407   -2.7861 C   0  0  0  0  0  0  0  0  0  0  0  0
    2.5315    1.0082   -0.3189 C   0  0  0  0  0  0  0  0  0  0  0  0
   10.3642   -1.2294   -3.4067 C   0  0  0  0  0  0  0  0  0  0  0  0
    3.5532    2.1586   -0.2692 C   0  0  0  0  0  0  0  0  0  0  0  0
    9.1298   -1.8379   -4.0214 N   0  0  0  0  0  0  0  0  0  0  0  0
    3.6272    2.8903   -1.5855 N   0  0  0  0  0  0  0  0  0  0  0  0
    8.5525   -0.9013   -5.0476 C   0  0  0  0  0  0  0  0  0  0  0  0
    4.8468    3.7724   -1.5830 C   0  0  0  0  0  0  0  0  0  0  0  0
    8.0930   -2.1331   -2.9660 C   0  0  0  0  0  0  0  0  0  0  0  0
    2.4114    3.7391   -1.8328 C   0  0  0  0  0  0  0  0  0  0  0  0
  1  6  2  0  0  0  0
  2  3  2  0  0  0  0
  2  1  1  0  0  0  0
  3  4  1  0  0  0  0
  4 10  1  0  0  0  0
  4  5  2  0  0  0  0
  6  5  1  0  0  0  0
  7  1  1  0  0  0  0
  7 11  1  0  0  0  0
  8  7  2  0  0  0  0
  9 10  2  0  0  0  0
 10 12  1  0  0  0  0
 12 14  1  0  0  0  0
 13 11  1  0  0  0  0
 13 15  1  0  0  0  0
 14 16  1  0  0  0  0
 16 18  1  0  0  0  0
 17 15  1  0  0  0  0
 17 19  1  0  0  0  0
 18 20  1  0  0  0  0
 19 23  1  0  0  0  0
 20 22  1  0  0  0  0
 20 24  1  0  0  0  0
 21 19  1  0  0  0  0
M  END
>  <CHROM.1>
-42.98132727,154.45756208,93.45638479,58.29764842,62.32642966,-68.28284857
171.05170915,-148.72518769,-158.98643400,-166.84672113,7.02780994,-0.42525678
-0.71060053,-0.00483241,-0.54709534,1.97571859

>  <Name>
lig.pdb

>  <RI>
0

>  <Rbt.Current_Directory>
/home/itssahil/PROJECTS/Mol_Feturizer/New_Systems/rnas/2l94

>  <Rbt.Executable>
rbdock ($Id: //depot/dev/client3/rdock/2013.1/src/exe/rbdock.cxx#4 $)

>  <Rbt.Library>
libRbt.so (2013.1, Build901 2013/11/27)

>  <Rbt.Parameter_File>
/export/apps/rDock/src/rDock_2013.1_src/data/scripts/dock_solv.prm

>  <Rbt.Receptor>
prm/pocket_docking_4.prm

>  <SCORE>
-19.7274

>  <SCORE.INTER>
-21.076

>  <SCORE.INTER.CONST>
1

>  <SCORE.INTER.POLAR>
-3.74694

>  <SCORE.INTER.ROT>
10

>  <SCORE.INTER.SOLV>
8.88527

>  <SCORE.INTER.VDW>
-14.7893

>  <SCORE.INTER.norm>
-0.878168

>  <SCORE.INTRA>
1.33981

>  <SCORE.INTRA.DIHEDRAL>
10.3876

>  <SCORE.INTRA.DIHEDRAL.0>
7.52971

>  <SCORE.INTRA.POLAR>
0

>  <SCORE.INTRA.POLAR.0>
0

>  <SCORE.INTRA.REPUL>
0

>  <SCORE.INTRA.REPUL.0>
0

>  <SCORE.INTRA.SOLV>
1.16245

>  <SCORE.INTRA.SOLV.lig_0>
-22.1084

>  <SCORE.INTRA.VDW>
-4.4352

>  <SCORE.INTRA.VDW.0>
2.4256

>  <SCORE.INTRA.norm>
0.0558253

>  <SCORE.RESTR>
0.00884458

>  <SCORE.RESTR.CAVITY>
0.00884458

>  <SCORE.RESTR.norm>
0.000368524

>  <SCORE.SYSTEM>
0

>  <SCORE.SYSTEM.CONST>
0

>  <SCORE.SYSTEM.DIHEDRAL>
0

>  <SCORE.SYSTEM.SOLV>
0

>  <SCORE.SYSTEM.norm>
0

>  <SCORE.heavy>
24

>  <SCORE.norm>
-0.821974

>  <RMSD>
4.434

$$$$
lig.pdb
 OpenBabel11021811453D
libRbt.so/2013.1/901 2013/11/27
 24 24  0  0  0  0  0  0  0  0999 V2000
    8.1414   -3.5818   -0.1325 C   0  0  0  0  0  0  0  0  0  0  0  0
    8.4307   -2.3454    0.5375 C   0  0  0  0  0  0  0  0  0  0  0  0
    7.6102   -1.8464    1.5212 C   0  0  0  0  0  0  0  0  0  0  0  0
    6.4279   -2.5377    1.9379 C   0  0  0  0  0  0  0  0  0  0  0  0
    6.1223   -3.7551    1.2447 C   0  0  0  0  0  0  0  0  0  0  0  0
    6.9364   -4.2501    0.2568 C   0  0  0  0  0  0  0  0  0  0  0  0
    8.9662   -4.1023   -1.0883 C   0  0  0  0  0  0  0  0  0  0  0  0
    8.6251   -5.1650   -1.8481 N   0  0  0  0  0  0  0  0  0  0  0  0
    5.9216   -0.9818    3.6789 N   0  0  0  0  0  0  0  0  0  0  0  0
    5.6265   -2.0705    2.9374 C   0  0  0  0  0  0  0  0  0  0  0  0
   10.1927   -3.5862   -1.3495 N   0  0  0  0  0  0  0  0  0  0  0  0
    4.4578   -2.6666    3.2734 N   0  0  0  0  0  0  0  0  0  0  0  0
   10.8433   -3.4985   -2.6554 C   0  0  0  0  0  0  0  0  0  0  0  0
    3.3438   -2.0412    3.9793 C   0  0  0  0  0  0  0  0  0  0  0  0
   11.0109   -2.0107   -3.0036 C   0  0  0  0  0  0  0  0  0  0  0  0
    2.5310   -1.2281    2.9546 C   0  0  0  0  0  0  0  0  0  0  0  0
   12.3287   -1.4604   -2.4409 C   0  0  0  0  0  0  0  0  0  0  0  0
    1.1360   -0.8396    3.4769 C   0  0  0  0  0  0  0  0  0  0  0  0
   12.7554   -0.2639   -3.2523 N   0  0  0  0  0  0  0  0  0  0  0  0
    0.3296   -0.1244    2.4225 N   0  0  0  0  0  0  0  0  0  0  0  0
   14.2370   -0.0471   -3.1068 C   0  0  0  0  0  0  0  0  0  0  0  0
   -0.8969    0.4651    3.0657 C   0  0  0  0  0  0  0  0  0  0  0  0
   12.0171    0.9758   -2.8116 C   0  0  0  0  0  0  0  0  0  0  0  0
   -0.0957   -1.0439    1.3118 C   0  0  0  0  0  0  0  0  0  0  0  0
  1  6  2  0  0  0  0
  2  3  2  0  0  0  0
  2  1  1  0  0  0  0
  3  4  1  0  0  0  0
  4 10  1  0  0  0  0
  4  5  2  0  0  0  0
  6  5  1  0  0  0  0
  7  1  1  0  0  0  0
  7 11  1  0  0  0  0
  8  7  2  0  0  0  0
  9 10  2  0  0  0  0
 10 12  1  0  0  0  0
 12 14  1  0  0  0  0
 13 11  1  0  0  0  0
 13 15  1  0  0  0  0
 14 16  1  0  0  0  0
 16 18  1  0  0  0  0
 17 15  1  0  0  0  0
 17 19  1  0  0  0  0
 18 20  1  0  0  0  0
 19 23  1  0  0  0  0
 20 22  1  0  0  0  0
 20 24  1  0  0  0  0
 21 19  1  0  0  0  0
M  END
>  <CHROM.1>
-4.89052701,-171.06850068,80.76970678,115.30731263,87.78590097,164.32634261
-176.25317990,155.63793723,-157.53563956,-168.84585826,6.94442907,-1.94565918
0.42895179,-0.00307576,-0.49676578,3.01436273

>  <Name>
lig.pdb

>  <RI>
2.48096e+07

>  <Rbt.Current_Directory>
/home/itssahil/PROJECTS/Mol_Feturizer/New_Systems/rnas/2l94

>  <Rbt.Executable>
rbdock ($Id: //depot/dev/client3/rdock/2013.1/src/exe/rbdock.cxx#4 $)

>  <Rbt.Library>
libRbt.so (2013.1, Build901 2013/11/27)

>  <Rbt.Parameter_File>
/export/apps/rDock/src/rDock_2013.1_src/data/scripts/dock_solv.prm

>  <Rbt.Receptor>
prm/pocket_docking_6.prm

>  <SCORE>
-27.2586

>  <SCORE.INTER>
-26.9078

>  <SCORE.INTER.CONST>
1

>  <SCORE.INTER.POLAR>
-3.47868

>  <SCORE.INTER.ROT>
10

>  <SCORE.INTER.SOLV>
16.9701

>  <SCORE.INTER.VDW>
-22.2663

>  <SCORE.INTER.norm>
-1.12116

>  <SCORE.INTRA>
-0.350867

>  <SCORE.INTRA.DIHEDRAL>
4.31257

>  <SCORE.INTRA.DIHEDRAL.0>
7.52971

>  <SCORE.INTRA.POLAR>
0

>  <SCORE.INTRA.POLAR.0>
0

>  <SCORE.INTRA.REPUL>
0

>  <SCORE.INTRA.REPUL.0>
0

>  <SCORE.INTRA.SOLV>
-0.0281716

>  <SCORE.INTRA.SOLV.lig_0>
-22.1084

>  <SCORE.INTRA.VDW>
-2.49307

>  <SCORE.INTRA.VDW.0>
2.4256

>  <SCORE.INTRA.norm>
-0.0146194

>  <SCORE.RESTR>
0

>  <SCORE.RESTR.CAVITY>
0

>  <SCORE.RESTR.norm>
0

>  <SCORE.SYSTEM>
0

>  <SCORE.SYSTEM.CONST>
0

>  <SCORE.SYSTEM.DIHEDRAL>
0

>  <SCORE.SYSTEM.SOLV>
0

>  <SCORE.SYSTEM.norm>
0

>  <SCORE.heavy>
24

>  <SCORE.norm>
-1.13578

>  <RMSD>
4.452

$$$$
lig.pdb
 OpenBabel11021811453D
libRbt.so/2013.1/901 2013/11/27
 24 24  0  0  0  0  0  0  0  0999 V2000
    4.7105    1.2897    2.1635 C   0  0  0  0  0  0  0  0  0  0  0  0
    5.8505    1.5786    1.3401 C   0  0  0  0  0  0  0  0  0  0  0  0
    6.8063    0.6284    1.0685 C   0  0  0  0  0  0  0  0  0  0  0  0
    6.7113   -0.7037    1.5841 C   0  0  0  0  0  0  0  0  0  0  0  0
    5.5901   -0.9811    2.4337 C   0  0  0  0  0  0  0  0  0  0  0  0
    4.6396   -0.0310    2.7121 C   0  0  0  0  0  0  0  0  0  0  0  0
    3.7392    2.2164    2.4134 C   0  0  0  0  0  0  0  0  0  0  0  0
    3.8335    3.5013    2.0091 N   0  0  0  0  0  0  0  0  0  0  0  0
    7.7891   -2.7913    2.0178 N   0  0  0  0  0  0  0  0  0  0  0  0
    7.6342   -1.6641    1.2916 C   0  0  0  0  0  0  0  0  0  0  0  0
    2.6009    1.9134    3.0853 N   0  0  0  0  0  0  0  0  0  0  0  0
    8.4808   -1.5649    0.2393 N   0  0  0  0  0  0  0  0  0  0  0  0
    1.2683    2.4603    2.8372 C   0  0  0  0  0  0  0  0  0  0  0  0
    9.1703   -2.6706   -0.4184 C   0  0  0  0  0  0  0  0  0  0  0  0
    0.4490    1.3948    2.0914 C   0  0  0  0  0  0  0  0  0  0  0  0
    8.7495   -2.6763   -1.8998 C   0  0  0  0  0  0  0  0  0  0  0  0
    1.0564    1.1010    0.7127 C   0  0  0  0  0  0  0  0  0  0  0  0
    7.2890   -3.1195   -2.1005 C   0  0  0  0  0  0  0  0  0  0  0  0
    0.6755    2.2017   -0.2440 N   0  0  0  0  0  0  0  0  0  0  0  0
    6.9345   -3.2115   -3.5632 N   0  0  0  0  0  0  0  0  0  0  0  0
    0.5652    1.6527   -1.6404 C   0  0  0  0  0  0  0  0  0  0  0  0
    6.5438   -1.8437   -4.0552 C   0  0  0  0  0  0  0  0  0  0  0  0
    1.6942    3.3142   -0.2169 C   0  0  0  0  0  0  0  0  0  0  0  0
    5.7982   -4.1633   -3.8136 C   0  0  0  0  0  0  0  0  0  0  0  0
  1  6  2  0  0  0  0
  2  3  2  0  0  0  0
  2  1  1  0  0  0  0
  3  4  1  0  0  0  0
  4 10  1  0  0  0  0
  4  5  2  0  0  0  0
  6  5  1  0  0  0  0
  7  1  1  0  0  0  0
  7 11  1  0  0  0  0
  8  7  2  0  0  0  0
  9 10  2  0  0  0  0
 10 12  1  0  0  0  0
 12 14  1  0  0  0  0
 13 11  1  0  0  0  0
 13 15  1  0  0  0  0
 14 16  1  0  0  0  0
 16 18  1  0  0  0  0
 17 15  1  0  0  0  0
 17 19  1  0  0  0  0
 18 20  1  0  0  0  0
 19 23  1  0  0  0  0
 20 22  1  0  0  0  0
 20 24  1  0  0  0  0
 21 19  1  0  0  0  0
M  END
>  <CHROM.1>
161.48602521,-6.09758532,120.94271567,103.44148536,-63.92569871,-70.72385109
-175.89685334,-78.10372957,-149.16119329,-84.05738159,4.90606819,-0.10038619
0.34595951,-2.52247450,0.50086783,-2.00933287

>  <Name>
lig.pdb

>  <RI>
2.48096e+07

>  <Rbt.Current_Directory>
/home/itssahil/PROJECTS/Mol_Feturizer/New_Systems/rnas/2l94

>  <Rbt.Executable>
rbdock ($Id: //depot/dev/client3/rdock/2013.1/src/exe/rbdock.cxx#4 $)

>  <Rbt.Library>
libRbt.so (2013.1, Build901 2013/11/27)

>  <Rbt.Parameter_File>
/export/apps/rDock/src/rDock_2013.1_src/data/scripts/dock_solv.prm

>  <Rbt.Receptor>
prm/pocket_docking_6.prm

>  <SCORE>
-25.4251

>  <SCORE.INTER>
-24.6321

>  <SCORE.INTER.CONST>
1

>  <SCORE.INTER.POLAR>
-3.55003

>  <SCORE.INTER.ROT>
10

>  <SCORE.INTER.SOLV>
11.4788

>  <SCORE.INTER.VDW>
-18.6809

>  <SCORE.INTER.norm>
-1.02634

>  <SCORE.INTRA>
-0.792999

>  <SCORE.INTRA.DIHEDRAL>
3.51333

>  <SCORE.INTRA.DIHEDRAL.0>
7.52971

>  <SCORE.INTRA.POLAR>
0

>  <SCORE.INTRA.POLAR.0>
0

>  <SCORE.INTRA.REPUL>
0

>  <SCORE.INTRA.REPUL.0>
0

>  <SCORE.INTRA.SOLV>
1.22616

>  <SCORE.INTRA.SOLV.lig_0>
-22.1084

>  <SCORE.INTRA.VDW>
-3.16275

>  <SCORE.INTRA.VDW.0>
2.4256

>  <SCORE.INTRA.norm>
-0.0330416

>  <SCORE.RESTR>
0

>  <SCORE.RESTR.CAVITY>
0

>  <SCORE.RESTR.norm>
0

>  <SCORE.SYSTEM>
0

>  <SCORE.SYSTEM.CONST>
0

>  <SCORE.SYSTEM.DIHEDRAL>
0

>  <SCORE.SYSTEM.SOLV>
0

>  <SCORE.SYSTEM.norm>
0

>  <SCORE.heavy>
24

>  <SCORE.norm>
-1.05938

>  <RMSD>
4.453

$$$$
lig.pdb
 OpenBabel11021811453D
libRbt.so/2013.1/901 2013/11/27
 24 24  0  0  0  0  0  0  0  0999 V2000
    4.4287    1.2529    1.8384 C   0  0  0  0  0  0  0  0  0  0  0  0
    4.2310   -0.1471    2.0875 C   0  0  0  0  0  0  0  0  0  0  0  0
    5.2368   -1.0649    1.8973 C   0  0  0  0  0  0  0  0  0  0  0  0
    6.5389   -0.6728    1.4499 C   0  0  0  0  0  0  0  0  0  0  0  0
    6.7249    0.7209    1.1693 C   0  0  0  0  0  0  0  0  0  0  0  0
    5.7192    1.6369    1.3511 C   0  0  0  0  0  0  0  0  0  0  0  0
    3.4465    2.1767    2.0546 C   0  0  0  0  0  0  0  0  0  0  0  0
    3.6839    3.5058    2.0704 N   0  0  0  0  0  0  0  0  0  0  0  0
    7.6334   -2.7300    1.9775 N   0  0  0  0  0  0  0  0  0  0  0  0
    7.5542   -1.5695    1.2926 C   0  0  0  0  0  0  0  0  0  0  0  0
    2.1535    1.8270    2.2662 N   0  0  0  0  0  0  0  0  0  0  0  0
    8.5779   -1.3674    0.4294 N   0  0  0  0  0  0  0  0  0  0  0  0
    0.9675    2.5537    1.8172 C   0  0  0  0  0  0  0  0  0  0  0  0
    9.4421   -2.3978   -0.1380 C   0  0  0  0  0  0  0  0  0  0  0  0
    0.8231    2.3373    0.3022 C   0  0  0  0  0  0  0  0  0  0  0  0
    8.6352   -3.1550   -1.2091 C   0  0  0  0  0  0  0  0  0  0  0  0
    1.9115    3.0986   -0.4671 C   0  0  0  0  0  0  0  0  0  0  0  0
    8.1005   -2.2278   -2.3156 C   0  0  0  0  0  0  0  0  0  0  0  0
    1.8284    2.7434   -1.9296 N   0  0  0  0  0  0  0  0  0  0  0  0
    7.3163   -2.9952   -3.3498 N   0  0  0  0  0  0  0  0  0  0  0  0
    2.4414    1.3897   -2.1645 C   0  0  0  0  0  0  0  0  0  0  0  0
    7.0498   -2.0934   -4.5250 C   0  0  0  0  0  0  0  0  0  0  0  0
    2.5369    3.7732   -2.7743 C   0  0  0  0  0  0  0  0  0  0  0  0
    6.0051   -3.4964   -2.8119 C   0  0  0  0  0  0  0  0  0  0  0  0
  1  6  2  0  0  0  0
  2  3  2  0  0  0  0
  2  1  1  0  0  0  0
  3  4  1  0  0  0  0
  4 10  1  0  0  0  0
  4  5  2  0  0  0  0
  6  5  1  0  0  0  0
  7  1  1  0  0  0  0
  7 11  1  0  0  0  0
  8  7  2  0  0  0  0
  9 10  2  0  0  0  0
 10 12  1  0  0  0  0
 12 14  1  0  0  0  0
 13 11  1  0  0  0  0
 13 15  1  0  0  0  0
 14 16  1  0  0  0  0
 16 18  1  0  0  0  0
 17 15  1  0  0  0  0
 17 19  1  0  0  0  0
 18 20  1  0  0  0  0
 19 23  1  0  0  0  0
 20 22  1  0  0  0  0
 20 24  1  0  0  0  0
 21 19  1  0  0  0  0
M  END
>  <CHROM.1>
-26.11743997,167.12534896,74.34282704,73.81376794,-71.26853562,57.64008046
179.95369680,173.92488280,-77.51734480,-169.30125528,5.10802769,0.12066575
-0.06579440,-2.80287565,0.68895577,-1.77412846

>  <Name>
lig.pdb

>  <RI>
1.71133e+07

>  <Rbt.Current_Directory>
/home/itssahil/PROJECTS/Mol_Feturizer/New_Systems/rnas/2l94

>  <Rbt.Executable>
rbdock ($Id: //depot/dev/client3/rdock/2013.1/src/exe/rbdock.cxx#4 $)

>  <Rbt.Library>
libRbt.so (2013.1, Build901 2013/11/27)

>  <Rbt.Parameter_File>
/export/apps/rDock/src/rDock_2013.1_src/data/scripts/dock_solv.prm

>  <Rbt.Receptor>
prm/pocket_docking_5.prm

>  <SCORE>
-24.9211

>  <SCORE.INTER>
-23.3514

>  <SCORE.INTER.CONST>
1

>  <SCORE.INTER.POLAR>
-3.61596

>  <SCORE.INTER.ROT>
10

>  <SCORE.INTER.SOLV>
11.4194

>  <SCORE.INTER.VDW>
-17.5875

>  <SCORE.INTER.norm>
-0.972975

>  <SCORE.INTRA>
-1.56974

>  <SCORE.INTRA.DIHEDRAL>
2.04711

>  <SCORE.INTRA.DIHEDRAL.0>
7.52971

>  <SCORE.INTRA.POLAR>
0

>  <SCORE.INTRA.POLAR.0>
0

>  <SCORE.INTRA.REPUL>
0

>  <SCORE.INTRA.REPUL.0>
0

>  <SCORE.INTRA.SOLV>
0.949472

>  <SCORE.INTRA.SOLV.lig_0>
-22.1084

>  <SCORE.INTRA.VDW>
-3.06803

>  <SCORE.INTRA.VDW.0>
2.4256

>  <SCORE.INTRA.norm>
-0.0654058

>  <SCORE.RESTR>
0

>  <SCORE.RESTR.CAVITY>
0

>  <SCORE.RESTR.norm>
0

>  <SCORE.SYSTEM>
0

>  <SCORE.SYSTEM.CONST>
0

>  <SCORE.SYSTEM.DIHEDRAL>
0

>  <SCORE.SYSTEM.SOLV>
0

>  <SCORE.SYSTEM.norm>
0

>  <SCORE.heavy>
24

>  <SCORE.norm>
-1.03838

>  <RMSD>
4.487

$$$$
lig.pdb
 OpenBabel11021811453D
libRbt.so/2013.1/901 2013/11/27
 24 24  0  0  0  0  0  0  0  0999 V2000
    8.6394   -1.4559    0.3946 C   0  0  0  0  0  0  0  0  0  0  0  0
    7.9444   -1.9019    1.5689 C   0  0  0  0  0  0  0  0  0  0  0  0
    6.7800   -1.3051    1.9909 C   0  0  0  0  0  0  0  0  0  0  0  0
    6.1920   -0.2129    1.2763 C   0  0  0  0  0  0  0  0  0  0  0  0
    6.9049    0.2532    0.1230 C   0  0  0  0  0  0  0  0  0  0  0  0
    8.0718   -0.3365   -0.2946 C   0  0  0  0  0  0  0  0  0  0  0  0
    9.7791   -2.0619   -0.0511 C   0  0  0  0  0  0  0  0  0  0  0  0
   10.1028   -3.3337    0.2663 N   0  0  0  0  0  0  0  0  0  0  0  0
    4.7881    0.8063    2.9191 N   0  0  0  0  0  0  0  0  0  0  0  0
    5.0185    0.3628    1.6651 C   0  0  0  0  0  0  0  0  0  0  0  0
   10.6725   -1.4303   -0.8524 N   0  0  0  0  0  0  0  0  0  0  0  0
    3.9765    0.5374    0.8180 N   0  0  0  0  0  0  0  0  0  0  0  0
   11.4581   -2.0314   -1.9284 C   0  0  0  0  0  0  0  0  0  0  0  0
    2.8894    1.4984    0.9765 C   0  0  0  0  0  0  0  0  0  0  0  0
   10.9450   -1.4673   -3.2632 C   0  0  0  0  0  0  0  0  0  0  0  0
    3.3189    2.8143    0.3015 C   0  0  0  0  0  0  0  0  0  0  0  0
   10.9229    0.0672   -3.2382 C   0  0  0  0  0  0  0  0  0  0  0  0
    3.2590    2.7405   -1.2350 C   0  0  0  0  0  0  0  0  0  0  0  0
   10.3935    0.5790   -4.5534 N   0  0  0  0  0  0  0  0  0  0  0  0
    3.4605    4.0967   -1.8625 N   0  0  0  0  0  0  0  0  0  0  0  0
   10.6728    2.0518   -4.6809 C   0  0  0  0  0  0  0  0  0  0  0  0
    2.7039    4.1477   -3.1626 C   0  0  0  0  0  0  0  0  0  0  0  0
    8.9093    0.3338   -4.6677 C   0  0  0  0  0  0  0  0  0  0  0  0
    4.9106    4.3892   -2.1298 C   0  0  0  0  0  0  0  0  0  0  0  0
  1  6  2  0  0  0  0
  2  3  2  0  0  0  0
  2  1  1  0  0  0  0
  3  4  1  0  0  0  0
  4 10  1  0  0  0  0
  4  5  2  0  0  0  0
  6  5  1  0  0  0  0
  7  1  1  0  0  0  0
  7 11  1  0  0  0  0
  8  7  2  0  0  0  0
  9 10  2  0  0  0  0
 10 12  1  0  0  0  0
 12 14  1  0  0  0  0
 13 11  1  0  0  0  0
 13 15  1  0  0  0  0
 14 16  1  0  0  0  0
 16 18  1  0  0  0  0
 17 15  1  0  0  0  0
 17 19  1  0  0  0  0
 18 20  1  0  0  0  0
 19 23  1  0  0  0  0
 20 22  1  0  0  0  0
 20 24  1  0  0  0  0
 21 19  1  0  0  0  0
M  END
>  <CHROM.1>
51.84194718,22.43501718,89.14512335,111.49356679,52.44901557,74.84723905
170.56457347,-179.06524763,-166.29400439,-149.89077096,7.18682521,0.43989039
-0.89028516,0.07634322,-0.53454789,2.18724134

>  <Name>
lig.pdb

>  <RI>
9.7521e+06

>  <Rbt.Current_Directory>
/home/itssahil/PROJECTS/Mol_Feturizer/New_Systems/rnas/2l94

>  <Rbt.Executable>
rbdock ($Id: //depot/dev/client3/rdock/2013.1/src/exe/rbdock.cxx#4 $)

>  <Rbt.Library>
libRbt.so (2013.1, Build901 2013/11/27)

>  <Rbt.Parameter_File>
/export/apps/rDock/src/rDock_2013.1_src/data/scripts/dock_solv.prm

>  <Rbt.Receptor>
prm/pocket_docking_7.prm

>  <SCORE>
-26.838

>  <SCORE.INTER>
-28.8382

>  <SCORE.INTER.CONST>
1

>  <SCORE.INTER.POLAR>
-4.95648

>  <SCORE.INTER.ROT>
10

>  <SCORE.INTER.SOLV>
11.1604

>  <SCORE.INTER.VDW>
-16.6907

>  <SCORE.INTER.norm>
-1.20159

>  <SCORE.INTRA>
2.00023

>  <SCORE.INTRA.DIHEDRAL>
10.5778

>  <SCORE.INTRA.DIHEDRAL.0>
7.52971

>  <SCORE.INTRA.POLAR>
0

>  <SCORE.INTRA.POLAR.0>
0

>  <SCORE.INTRA.REPUL>
0

>  <SCORE.INTRA.REPUL.0>
0

>  <SCORE.INTRA.SOLV>
0.26342

>  <SCORE.INTRA.SOLV.lig_0>
-22.1084

>  <SCORE.INTRA.VDW>
-3.42037

>  <SCORE.INTRA.VDW.0>
2.4256

>  <SCORE.INTRA.norm>
0.0833427

>  <SCORE.RESTR>
0

>  <SCORE.RESTR.CAVITY>
0

>  <SCORE.RESTR.norm>
0

>  <SCORE.SYSTEM>
0

>  <SCORE.SYSTEM.CONST>
0

>  <SCORE.SYSTEM.DIHEDRAL>
0

>  <SCORE.SYSTEM.SOLV>
0

>  <SCORE.SYSTEM.norm>
0

>  <SCORE.heavy>
24

>  <SCORE.norm>
-1.11825

>  <RMSD>
4.488

$$$$
lig.pdb
 OpenBabel11021811453D
libRbt.so/2013.1/901 2013/11/27
 24 24  0  0  0  0  0  0  0  0999 V2000
    6.5069   -2.5035    1.9756 C   0  0  0  0  0  0  0  0  0  0  0  0
    7.7203   -1.8353    1.5984 C   0  0  0  0  0  0  0  0  0  0  0  0
    8.5281   -2.3146    0.5945 C   0  0  0  0  0  0  0  0  0  0  0  0
    8.1979   -3.5007   -0.1358 C   0  0  0  0  0  0  0  0  0  0  0  0
    7.0035   -4.1854    0.2646 C   0  0  0  0  0  0  0  0  0  0  0  0
    6.2004   -3.7123    1.2720 C   0  0  0  0  0  0  0  0  0  0  0  0
    5.6812   -2.0187    2.9493 C   0  0  0  0  0  0  0  0  0  0  0  0
    5.9613   -0.9031    3.6565 N   0  0  0  0  0  0  0  0  0  0  0  0
    8.6136   -4.9937   -1.9542 N   0  0  0  0  0  0  0  0  0  0  0  0
    8.9728   -3.9650   -1.1575 C   0  0  0  0  0  0  0  0  0  0  0  0
    4.5116   -2.6217    3.2772 N   0  0  0  0  0  0  0  0  0  0  0  0
   10.1790   -3.4285   -1.4592 N   0  0  0  0  0  0  0  0  0  0  0  0
    3.2727   -1.9615    3.6841 C   0  0  0  0  0  0  0  0  0  0  0  0
   10.8689   -3.5272   -2.7418 C   0  0  0  0  0  0  0  0  0  0  0  0
    2.7776   -1.1113    2.5031 C   0  0  0  0  0  0  0  0  0  0  0  0
   11.1721   -2.0974   -3.2271 C   0  0  0  0  0  0  0  0  0  0  0  0
    1.6590   -1.8325    1.7384 C   0  0  0  0  0  0  0  0  0  0  0  0
   12.3803   -1.4700   -2.5083 C   0  0  0  0  0  0  0  0  0  0  0  0
    0.8553   -0.8216    0.9613 N   0  0  0  0  0  0  0  0  0  0  0  0
   12.7093   -0.1078   -3.0648 N   0  0  0  0  0  0  0  0  0  0  0  0
   -0.5144   -1.3707    0.6681 C   0  0  0  0  0  0  0  0  0  0  0  0
   14.2039    0.0697   -3.0629 C   0  0  0  0  0  0  0  0  0  0  0  0
    1.5452   -0.4657   -0.3323 C   0  0  0  0  0  0  0  0  0  0  0  0
   12.0852    0.9996   -2.2624 C   0  0  0  0  0  0  0  0  0  0  0  0
  1  6  2  0  0  0  0
  2  3  2  0  0  0  0
  2  1  1  0  0  0  0
  3  4  1  0  0  0  0
  4 10  1  0  0  0  0
  4  5  2  0  0  0  0
  6  5  1  0  0  0  0
  7  1  1  0  0  0  0
  7 11  1  0  0  0  0
  8  7  2  0  0  0  0
  9 10  2  0  0  0  0
 10 12  1  0  0  0  0
 12 14  1  0  0  0  0
 13 11  1  0  0  0  0
 13 15  1  0  0  0  0
 14 16  1  0  0  0  0
 16 18  1  0  0  0  0
 17 15  1  0  0  0  0
 17 19  1  0  0  0  0
 18 20  1  0  0  0  0
 19 23  1  0  0  0  0
 20 22  1  0  0  0  0
 20 24  1  0  0  0  0
 21 19  1  0  0  0  0
M  END
>  <CHROM.1>
-172.63383115,-2.10311618,124.22601878,63.64689991,100.13893124,77.80750873
176.29534349,158.61076620,-157.43759910,-143.69260667,7.11832188,-2.01906048
0.09689661,-2.94041062,0.38504596,-0.49037967

>  <Name>
lig.pdb

>  <RI>
2.48096e+07

>  <Rbt.Current_Directory>
/home/itssahil/PROJECTS/Mol_Feturizer/New_Systems/rnas/2l94

>  <Rbt.Executable>
rbdock ($Id: //depot/dev/client3/rdock/2013.1/src/exe/rbdock.cxx#4 $)

>  <Rbt.Library>
libRbt.so (2013.1, Build901 2013/11/27)

>  <Rbt.Parameter_File>
/export/apps/rDock/src/rDock_2013.1_src/data/scripts/dock_solv.prm

>  <Rbt.Receptor>
prm/pocket_docking_6.prm

>  <SCORE>
-22.6748

>  <SCORE.INTER>
-23.7821

>  <SCORE.INTER.CONST>
1

>  <SCORE.INTER.POLAR>
-3.10325

>  <SCORE.INTER.ROT>
10

>  <SCORE.INTER.SOLV>
17.4555

>  <SCORE.INTER.VDW>
-21.5957

>  <SCORE.INTER.norm>
-0.990921

>  <SCORE.INTRA>
1.10731

>  <SCORE.INTRA.DIHEDRAL>
7.74969

>  <SCORE.INTRA.DIHEDRAL.0>
7.52971

>  <SCORE.INTRA.POLAR>
0

>  <SCORE.INTRA.POLAR.0>
0

>  <SCORE.INTRA.REPUL>
0

>  <SCORE.INTRA.REPUL.0>
0

>  <SCORE.INTRA.SOLV>
0.164388

>  <SCORE.INTRA.SOLV.lig_0>
-22.1084

>  <SCORE.INTRA.VDW>
-2.84973

>  <SCORE.INTRA.VDW.0>
2.4256

>  <SCORE.INTRA.norm>
0.0461379

>  <SCORE.RESTR>
0

>  <SCORE.RESTR.CAVITY>
0

>  <SCORE.RESTR.norm>
0

>  <SCORE.SYSTEM>
0

>  <SCORE.SYSTEM.CONST>
0

>  <SCORE.SYSTEM.DIHEDRAL>
0

>  <SCORE.SYSTEM.SOLV>
0

>  <SCORE.SYSTEM.norm>
0

>  <SCORE.heavy>
24

>  <SCORE.norm>
-0.944783

>  <RMSD>
4.560

$$$$
lig.pdb
 OpenBabel11021811453D
libRbt.so/2013.1/901 2013/11/27
 24 24  0  0  0  0  0  0  0  0999 V2000
    8.5213   -1.8600    0.6569 C   0  0  0  0  0  0  0  0  0  0  0  0
    8.2224   -0.4831    0.9322 C   0  0  0  0  0  0  0  0  0  0  0  0
    7.0875   -0.1114    1.6135 C   0  0  0  0  0  0  0  0  0  0  0  0
    6.1474   -1.0782    2.0940 C   0  0  0  0  0  0  0  0  0  0  0  0
    6.4302   -2.4503    1.7890 C   0  0  0  0  0  0  0  0  0  0  0  0
    7.5587   -2.8220    1.1019 C   0  0  0  0  0  0  0  0  0  0  0  0
    9.6612   -2.2421    0.0092 C   0  0  0  0  0  0  0  0  0  0  0  0
   10.1090   -3.5159    0.0077 N   0  0  0  0  0  0  0  0  0  0  0  0
    5.0057   -0.6574    4.1502 N   0  0  0  0  0  0  0  0  0  0  0  0
    5.0374   -0.7234    2.8023 C   0  0  0  0  0  0  0  0  0  0  0  0
   10.4295   -1.3680   -0.6871 N   0  0  0  0  0  0  0  0  0  0  0  0
    3.8632   -0.4064    2.2066 N   0  0  0  0  0  0  0  0  0  0  0  0
   11.1621   -1.6407   -1.9221 C   0  0  0  0  0  0  0  0  0  0  0  0
    2.7872    0.3873    2.7921 C   0  0  0  0  0  0  0  0  0  0  0  0
   11.6014   -0.2947   -2.5206 C   0  0  0  0  0  0  0  0  0  0  0  0
    2.9899    1.8513    2.3591 C   0  0  0  0  0  0  0  0  0  0  0  0
   10.3925    0.4958   -3.0399 C   0  0  0  0  0  0  0  0  0  0  0  0
    2.8377    2.0477    0.8399 C   0  0  0  0  0  0  0  0  0  0  0  0
    9.9674   -0.0635   -4.3734 N   0  0  0  0  0  0  0  0  0  0  0  0
    3.0071    3.4942    0.4491 N   0  0  0  0  0  0  0  0  0  0  0  0
    9.4401    1.0408   -5.2486 C   0  0  0  0  0  0  0  0  0  0  0  0
    2.3114    3.7270   -0.8651 C   0  0  0  0  0  0  0  0  0  0  0  0
    8.9061   -1.1215   -4.1993 C   0  0  0  0  0  0  0  0  0  0  0  0
    4.4535    3.8795    0.3107 C   0  0  0  0  0  0  0  0  0  0  0  0
  1  6  2  0  0  0  0
  2  3  2  0  0  0  0
  2  1  1  0  0  0  0
  3  4  1  0  0  0  0
  4 10  1  0  0  0  0
  4  5  2  0  0  0  0
  6  5  1  0  0  0  0
  7  1  1  0  0  0  0
  7 11  1  0  0  0  0
  8  7  2  0  0  0  0
  9 10  2  0  0  0  0
 10 12  1  0  0  0  0
 12 14  1  0  0  0  0
 13 11  1  0  0  0  0
 13 15  1  0  0  0  0
 14 16  1  0  0  0  0
 16 18  1  0  0  0  0
 17 15  1  0  0  0  0
 17 19  1  0  0  0  0
 18 20  1  0  0  0  0
 19 23  1  0  0  0  0
 20 22  1  0  0  0  0
 20 24  1  0  0  0  0
 21 19  1  0  0  0  0
M  END
>  <CHROM.1>
-91.95528224,164.50193655,93.79279116,166.52338912,-69.19648868,64.92857347
178.58838359,-78.27306350,-146.30241898,-156.71157585,6.98265866,-0.10804459
-0.00733944,-0.21325058,-0.59503064,2.23506330

>  <Name>
lig.pdb

>  <RI>
2.48096e+07

>  <Rbt.Current_Directory>
/home/itssahil/PROJECTS/Mol_Feturizer/New_Systems/rnas/2l94

>  <Rbt.Executable>
rbdock ($Id: //depot/dev/client3/rdock/2013.1/src/exe/rbdock.cxx#4 $)

>  <Rbt.Library>
libRbt.so (2013.1, Build901 2013/11/27)

>  <Rbt.Parameter_File>
/export/apps/rDock/src/rDock_2013.1_src/data/scripts/dock_solv.prm

>  <Rbt.Receptor>
prm/pocket_docking_6.prm

>  <SCORE>
-19.4224

>  <SCORE.INTER>
-24.2937

>  <SCORE.INTER.CONST>
1

>  <SCORE.INTER.POLAR>
-3.9603

>  <SCORE.INTER.ROT>
10

>  <SCORE.INTER.SOLV>
11.4165

>  <SCORE.INTER.VDW>
-17.067

>  <SCORE.INTER.norm>
-1.01224

>  <SCORE.INTRA>
4.87132

>  <SCORE.INTRA.DIHEDRAL>
15.7329

>  <SCORE.INTRA.DIHEDRAL.0>
7.52971

>  <SCORE.INTRA.POLAR>
0

>  <SCORE.INTRA.POLAR.0>
0

>  <SCORE.INTRA.REPUL>
0

>  <SCORE.INTRA.REPUL.0>
0

>  <SCORE.INTRA.SOLV>
0.343079

>  <SCORE.INTRA.SOLV.lig_0>
-22.1084

>  <SCORE.INTRA.VDW>
-3.16667

>  <SCORE.INTRA.VDW.0>
2.4256

>  <SCORE.INTRA.norm>
0.202972

>  <SCORE.RESTR>
0

>  <SCORE.RESTR.CAVITY>
0

>  <SCORE.RESTR.norm>
0

>  <SCORE.SYSTEM>
0

>  <SCORE.SYSTEM.CONST>
0

>  <SCORE.SYSTEM.DIHEDRAL>
0

>  <SCORE.SYSTEM.SOLV>
0

>  <SCORE.SYSTEM.norm>
0

>  <SCORE.heavy>
24

>  <SCORE.norm>
-0.809265

>  <RMSD>
4.566

$$$$
lig.pdb
 OpenBabel11021811453D
libRbt.so/2013.1/901 2013/11/27
 24 24  0  0  0  0  0  0  0  0999 V2000
    8.5727   -3.0932   -0.4758 C   0  0  0  0  0  0  0  0  0  0  0  0
    8.9087   -1.7271   -0.1897 C   0  0  0  0  0  0  0  0  0  0  0  0
    8.1876   -0.9777    0.7094 C   0  0  0  0  0  0  0  0  0  0  0  0
    7.0683   -1.5222    1.4166 C   0  0  0  0  0  0  0  0  0  0  0  0
    6.7133   -2.8759    1.1049 C   0  0  0  0  0  0  0  0  0  0  0  0
    7.4276   -3.6225    0.2014 C   0  0  0  0  0  0  0  0  0  0  0  0
    9.3014   -3.8560   -1.3430 C   0  0  0  0  0  0  0  0  0  0  0  0
    8.8134   -4.9749   -1.9198 N   0  0  0  0  0  0  0  0  0  0  0  0
    6.3458    0.5499    2.3614 N   0  0  0  0  0  0  0  0  0  0  0  0
    6.3684   -0.7996    2.3372 C   0  0  0  0  0  0  0  0  0  0  0  0
   10.5734   -3.5431   -1.6941 N   0  0  0  0  0  0  0  0  0  0  0  0
    5.6323   -1.3813    3.3138 N   0  0  0  0  0  0  0  0  0  0  0  0
   11.1927   -3.7438   -3.0026 C   0  0  0  0  0  0  0  0  0  0  0  0
    4.5300   -0.7640    4.0449 C   0  0  0  0  0  0  0  0  0  0  0  0
   11.4625   -2.3610   -3.6175 C   0  0  0  0  0  0  0  0  0  0  0  0
    3.2253   -1.0828    3.2914 C   0  0  0  0  0  0  0  0  0  0  0  0
   12.4128   -1.5427   -2.7324 C   0  0  0  0  0  0  0  0  0  0  0  0
    1.9798   -0.5110    3.9924 C   0  0  0  0  0  0  0  0  0  0  0  0
   12.7451   -0.2458   -3.4247 N   0  0  0  0  0  0  0  0  0  0  0  0
    1.7464   -1.1683    5.3292 N   0  0  0  0  0  0  0  0  0  0  0  0
   14.2346   -0.0338   -3.4300 C   0  0  0  0  0  0  0  0  0  0  0  0
    1.0588   -2.4888    5.1078 C   0  0  0  0  0  0  0  0  0  0  0  0
   12.0710    0.9174   -2.7402 C   0  0  0  0  0  0  0  0  0  0  0  0
    0.8982   -0.3226    6.2377 C   0  0  0  0  0  0  0  0  0  0  0  0
  1  6  2  0  0  0  0
  2  3  2  0  0  0  0
  2  1  1  0  0  0  0
  3  4  1  0  0  0  0
  4 10  1  0  0  0  0
  4  5  2  0  0  0  0
  6  5  1  0  0  0  0
  7  1  1  0  0  0  0
  7 11  1  0  0  0  0
  8  7  2  0  0  0  0
  9 10  2  0  0  0  0
 10 12  1  0  0  0  0
 12 14  1  0  0  0  0
 13 11  1  0  0  0  0
 13 15  1  0  0  0  0
 14 16  1  0  0  0  0
 16 18  1  0  0  0  0
 17 15  1  0  0  0  0
 17 19  1  0  0  0  0
 18 20  1  0  0  0  0
 19 23  1  0  0  0  0
 20 22  1  0  0  0  0
 20 24  1  0  0  0  0
 21 19  1  0  0  0  0
M  END
>  <CHROM.1>
22.64687897,-160.31088269,91.14369667,112.44071310,60.48087958,178.49825688
-65.64000775,175.18050699,-130.25404900,-80.73401138,7.55048190,-1.68529833
0.63158117,0.25532457,-0.63226724,-2.81409262

>  <Name>
lig.pdb

>  <RI>
9.7521e+06

>  <Rbt.Current_Directory>
/home/itssahil/PROJECTS/Mol_Feturizer/New_Systems/rnas/2l94

>  <Rbt.Executable>
rbdock ($Id: //depot/dev/client3/rdock/2013.1/src/exe/rbdock.cxx#4 $)

>  <Rbt.Library>
libRbt.so (2013.1, Build901 2013/11/27)

>  <Rbt.Parameter_File>
/export/apps/rDock/src/rDock_2013.1_src/data/scripts/dock_solv.prm

>  <Rbt.Receptor>
prm/pocket_docking_7.prm

>  <SCORE>
-26.5629

>  <SCORE.INTER>
-26.3384

>  <SCORE.INTER.CONST>
1

>  <SCORE.INTER.POLAR>
-3.97664

>  <SCORE.INTER.ROT>
10

>  <SCORE.INTER.SOLV>
16.9275

>  <SCORE.INTER.VDW>
-20.2126

>  <SCORE.INTER.norm>
-1.09743

>  <SCORE.INTRA>
-0.229892

>  <SCORE.INTRA.DIHEDRAL>
5.20231

>  <SCORE.INTRA.DIHEDRAL.0>
7.52971

>  <SCORE.INTRA.POLAR>
0

>  <SCORE.INTRA.POLAR.0>
0

>  <SCORE.INTRA.REPUL>
0

>  <SCORE.INTRA.REPUL.0>
0

>  <SCORE.INTRA.SOLV>
0.0845084

>  <SCORE.INTRA.SOLV.lig_0>
-22.1084

>  <SCORE.INTRA.VDW>
-2.8733

>  <SCORE.INTRA.VDW.0>
2.4256

>  <SCORE.INTRA.norm>
-0.00957883

>  <SCORE.RESTR>
0.00540137

>  <SCORE.RESTR.CAVITY>
0.00540137

>  <SCORE.RESTR.norm>
0.000225057

>  <SCORE.SYSTEM>
0

>  <SCORE.SYSTEM.CONST>
0

>  <SCORE.SYSTEM.DIHEDRAL>
0

>  <SCORE.SYSTEM.SOLV>
0

>  <SCORE.SYSTEM.norm>
0

>  <SCORE.heavy>
24

>  <SCORE.norm>
-1.10679

>  <RMSD>
4.591

$$$$
lig.pdb
 OpenBabel11021811453D
libRbt.so/2013.1/901 2013/11/27
 24 24  0  0  0  0  0  0  0  0999 V2000
    6.4985   -2.4626    1.9377 C   0  0  0  0  0  0  0  0  0  0  0  0
    7.7149   -1.8050    1.5518 C   0  0  0  0  0  0  0  0  0  0  0  0
    8.5252   -2.3061    0.5607 C   0  0  0  0  0  0  0  0  0  0  0  0
    8.1949   -3.5058   -0.1471 C   0  0  0  0  0  0  0  0  0  0  0  0
    6.9973   -4.1795    0.2624 C   0  0  0  0  0  0  0  0  0  0  0  0
    6.1917   -3.6845    1.2572 C   0  0  0  0  0  0  0  0  0  0  0  0
    5.6704   -1.9566    2.8984 C   0  0  0  0  0  0  0  0  0  0  0  0
    5.9936   -0.8827    3.6503 N   0  0  0  0  0  0  0  0  0  0  0  0
    8.5983   -5.0129   -1.9566 N   0  0  0  0  0  0  0  0  0  0  0  0
    8.9724   -3.9921   -1.1563 C   0  0  0  0  0  0  0  0  0  0  0  0
    4.4549   -2.4945    3.1674 N   0  0  0  0  0  0  0  0  0  0  0  0
   10.1965   -3.4878   -1.4411 N   0  0  0  0  0  0  0  0  0  0  0  0
    3.2455   -1.7705    3.5539 C   0  0  0  0  0  0  0  0  0  0  0  0
   10.9024   -3.6070   -2.7131 C   0  0  0  0  0  0  0  0  0  0  0  0
    2.2361   -1.8821    2.3999 C   0  0  0  0  0  0  0  0  0  0  0  0
   11.6429   -2.2812   -2.9694 C   0  0  0  0  0  0  0  0  0  0  0  0
    1.1496   -0.8040    2.5149 C   0  0  0  0  0  0  0  0  0  0  0  0
   10.6949   -1.1430   -3.3884 C   0  0  0  0  0  0  0  0  0  0  0  0
   -0.2059   -1.4446    2.3597 N   0  0  0  0  0  0  0  0  0  0  0  0
    9.9036   -0.6217   -2.2154 N   0  0  0  0  0  0  0  0  0  0  0  0
   -1.2415   -0.3914    2.0734 C   0  0  0  0  0  0  0  0  0  0  0  0
    8.7892    0.2494   -2.7299 C   0  0  0  0  0  0  0  0  0  0  0  0
   -0.5878   -2.2039    3.6061 C   0  0  0  0  0  0  0  0  0  0  0  0
   10.7526    0.1801   -1.2687 C   0  0  0  0  0  0  0  0  0  0  0  0
  1  6  2  0  0  0  0
  2  3  2  0  0  0  0
  2  1  1  0  0  0  0
  3  4  1  0  0  0  0
  4 10  1  0  0  0  0
  4  5  2  0  0  0  0
  6  5  1  0  0  0  0
  7  1  1  0  0  0  0
  7 11  1  0  0  0  0
  8  7  2  0  0  0  0
  9 10  2  0  0  0  0
 10 12  1  0  0  0  0
 12 14  1  0  0  0  0
 13 11  1  0  0  0  0
 13 15  1  0  0  0  0
 14 16  1  0  0  0  0
 16 18  1  0  0  0  0
 17 15  1  0  0  0  0
 17 19  1  0  0  0  0
 18 20  1  0  0  0  0
 19 23  1  0  0  0  0
 20 22  1  0  0  0  0
 20 24  1  0  0  0  0
 21 19  1  0  0  0  0
M  END
>  <CHROM.1>
-170.81757920,-6.94962160,142.42642061,111.85396326,-161.64220721,-74.16752837
74.74999346,-131.20064957,-163.78387195,-167.17185894,6.41982402,-2.10971796
0.48165082,-3.01235930,0.48989094,-0.41584556

>  <Name>
lig.pdb

>  <RI>
2.48096e+07

>  <Rbt.Current_Directory>
/home/itssahil/PROJECTS/Mol_Feturizer/New_Systems/rnas/2l94

>  <Rbt.Executable>
rbdock ($Id: //depot/dev/client3/rdock/2013.1/src/exe/rbdock.cxx#4 $)

>  <Rbt.Library>
libRbt.so (2013.1, Build901 2013/11/27)

>  <Rbt.Parameter_File>
/export/apps/rDock/src/rDock_2013.1_src/data/scripts/dock_solv.prm

>  <Rbt.Receptor>
prm/pocket_docking_6.prm

>  <SCORE>
-15.8193

>  <SCORE.INTER>
-16.5287

>  <SCORE.INTER.CONST>
1

>  <SCORE.INTER.POLAR>
-2.37851

>  <SCORE.INTER.ROT>
10

>  <SCORE.INTER.SOLV>
16.7246

>  <SCORE.INTER.VDW>
-18.9323

>  <SCORE.INTER.norm>
-0.688697

>  <SCORE.INTRA>
0.709457

>  <SCORE.INTRA.DIHEDRAL>
6.43767

>  <SCORE.INTRA.DIHEDRAL.0>
7.52971

>  <SCORE.INTRA.POLAR>
0

>  <SCORE.INTRA.POLAR.0>
0

>  <SCORE.INTRA.REPUL>
0

>  <SCORE.INTRA.REPUL.0>
0

>  <SCORE.INTRA.SOLV>
1.02441

>  <SCORE.INTRA.SOLV.lig_0>
-22.1084

>  <SCORE.INTRA.VDW>
-3.02158

>  <SCORE.INTRA.VDW.0>
2.4256

>  <SCORE.INTRA.norm>
0.0295607

>  <SCORE.RESTR>
0

>  <SCORE.RESTR.CAVITY>
0

>  <SCORE.RESTR.norm>
0

>  <SCORE.SYSTEM>
0

>  <SCORE.SYSTEM.CONST>
0

>  <SCORE.SYSTEM.DIHEDRAL>
0

>  <SCORE.SYSTEM.SOLV>
0

>  <SCORE.SYSTEM.norm>
0

>  <SCORE.heavy>
24

>  <SCORE.norm>
-0.659136

>  <RMSD>
4.596

$$$$
lig.pdb
 OpenBabel11021811453D
libRbt.so/2013.1/901 2013/11/27
 24 24  0  0  0  0  0  0  0  0999 V2000
    5.7894   -2.9814    1.5819 C   0  0  0  0  0  0  0  0  0  0  0  0
    7.0409   -2.2811    1.5171 C   0  0  0  0  0  0  0  0  0  0  0  0
    8.0297   -2.6466    0.6346 C   0  0  0  0  0  0  0  0  0  0  0  0
    7.8609   -3.7394   -0.2746 C   0  0  0  0  0  0  0  0  0  0  0  0
    6.6239   -4.4589   -0.1855 C   0  0  0  0  0  0  0  0  0  0  0  0
    5.6393   -4.1000    0.7007 C   0  0  0  0  0  0  0  0  0  0  0  0
    4.7887   -2.6069    2.4322 C   0  0  0  0  0  0  0  0  0  0  0  0
    5.0240   -2.0071    3.6188 N   0  0  0  0  0  0  0  0  0  0  0  0
    8.6689   -5.0851   -2.0759 N   0  0  0  0  0  0  0  0  0  0  0  0
    8.8203   -4.0878   -1.1789 C   0  0  0  0  0  0  0  0  0  0  0  0
    3.4783   -2.8065    2.1455 N   0  0  0  0  0  0  0  0  0  0  0  0
   10.0166   -3.4573   -1.2517 N   0  0  0  0  0  0  0  0  0  0  0  0
    2.3644   -1.9259    2.4920 C   0  0  0  0  0  0  0  0  0  0  0  0
   10.9071   -3.4305   -2.4079 C   0  0  0  0  0  0  0  0  0  0  0  0
    1.4639   -1.7895    1.2537 C   0  0  0  0  0  0  0  0  0  0  0  0
   11.0693   -1.9631   -2.8462 C   0  0  0  0  0  0  0  0  0  0  0  0
    1.9434   -0.6454    0.3498 C   0  0  0  0  0  0  0  0  0  0  0  0
   11.8515   -1.1206   -1.8224 C   0  0  0  0  0  0  0  0  0  0  0  0
    3.2876   -1.0005   -0.2322 N   0  0  0  0  0  0  0  0  0  0  0  0
   13.3403   -1.3022   -1.9782 N   0  0  0  0  0  0  0  0  0  0  0  0
    3.8710    0.1913   -0.9411 C   0  0  0  0  0  0  0  0  0  0  0  0
   14.0038   -1.0310   -0.6547 C   0  0  0  0  0  0  0  0  0  0  0  0
    3.1682   -2.1544   -1.1968 C   0  0  0  0  0  0  0  0  0  0  0  0
   13.9200   -0.3788   -3.0132 C   0  0  0  0  0  0  0  0  0  0  0  0
  1  6  2  0  0  0  0
  2  3  2  0  0  0  0
  2  1  1  0  0  0  0
  3  4  1  0  0  0  0
  4 10  1  0  0  0  0
  4  5  2  0  0  0  0
  6  5  1  0  0  0  0
  7  1  1  0  0  0  0
  7 11  1  0  0  0  0
  8  7  2  0  0  0  0
  9 10  2  0  0  0  0
 10 12  1  0  0  0  0
 12 14  1  0  0  0  0
 13 11  1  0  0  0  0
 13 15  1  0  0  0  0
 14 16  1  0  0  0  0
 16 18  1  0  0  0  0
 17 15  1  0  0  0  0
 17 19  1  0  0  0  0
 18 20  1  0  0  0  0
 19 23  1  0  0  0  0
 20 22  1  0  0  0  0
 20 24  1  0  0  0  0
 21 19  1  0  0  0  0
M  END
>  <CHROM.1>
-177.76189566,-29.74652411,118.85251537,134.94249395,-87.48053432,68.25205506
81.76730674,66.57377372,-171.05080324,-153.65020836,7.24184843,-2.33009454
-0.17131248,-2.99993915,0.30915599,-0.44311913

>  <Name>
lig.pdb

>  <RI>
9.7521e+06

>  <Rbt.Current_Directory>
/home/itssahil/PROJECTS/Mol_Feturizer/New_Systems/rnas/2l94

>  <Rbt.Executable>
rbdock ($Id: //depot/dev/client3/rdock/2013.1/src/exe/rbdock.cxx#4 $)

>  <Rbt.Library>
libRbt.so (2013.1, Build901 2013/11/27)

>  <Rbt.Parameter_File>
/export/apps/rDock/src/rDock_2013.1_src/data/scripts/dock_solv.prm

>  <Rbt.Receptor>
prm/pocket_docking_7.prm

>  <SCORE>
-20.6101

>  <SCORE.INTER>
-21.1278

>  <SCORE.INTER.CONST>
1

>  <SCORE.INTER.POLAR>
-2.99659

>  <SCORE.INTER.ROT>
10

>  <SCORE.INTER.SOLV>
14.0393

>  <SCORE.INTER.VDW>
-19.043

>  <SCORE.INTER.norm>
-0.880324

>  <SCORE.INTRA>
0.517676

>  <SCORE.INTRA.DIHEDRAL>
6.39568

>  <SCORE.INTRA.DIHEDRAL.0>
7.52971

>  <SCORE.INTRA.POLAR>
0

>  <SCORE.INTRA.POLAR.0>
0

>  <SCORE.INTRA.REPUL>
0

>  <SCORE.INTRA.REPUL.0>
0

>  <SCORE.INTRA.SOLV>
1.39298

>  <SCORE.INTRA.SOLV.lig_0>
-22.1084

>  <SCORE.INTRA.VDW>
-3.37666

>  <SCORE.INTRA.VDW.0>
2.4256

>  <SCORE.INTRA.norm>
0.0215698

>  <SCORE.RESTR>
0

>  <SCORE.RESTR.CAVITY>
0

>  <SCORE.RESTR.norm>
0

>  <SCORE.SYSTEM>
0

>  <SCORE.SYSTEM.CONST>
0

>  <SCORE.SYSTEM.DIHEDRAL>
0

>  <SCORE.SYSTEM.SOLV>
0

>  <SCORE.SYSTEM.norm>
0

>  <SCORE.heavy>
24

>  <SCORE.norm>
-0.858754

>  <RMSD>
4.599

$$$$
lig.pdb
 OpenBabel11021811453D
libRbt.so/2013.1/901 2013/11/27
 24 24  0  0  0  0  0  0  0  0999 V2000
    5.3790    1.9327    1.1940 C   0  0  0  0  0  0  0  0  0  0  0  0
    5.7334    0.6925    1.8243 C   0  0  0  0  0  0  0  0  0  0  0  0
    7.0105    0.1875    1.7605 C   0  0  0  0  0  0  0  0  0  0  0  0
    8.0587    0.8763    1.0703 C   0  0  0  0  0  0  0  0  0  0  0  0
    7.6955    2.0976    0.4130 C   0  0  0  0  0  0  0  0  0  0  0  0
    6.4189    2.5986    0.4691 C   0  0  0  0  0  0  0  0  0  0  0  0
    4.1217    2.4590    1.2781 C   0  0  0  0  0  0  0  0  0  0  0  0
    3.8779    3.6958    1.7617 N   0  0  0  0  0  0  0  0  0  0  0  0
    9.8614   -0.3999    1.9814 N   0  0  0  0  0  0  0  0  0  0  0  0
    9.3371    0.4030    1.0314 C   0  0  0  0  0  0  0  0  0  0  0  0
    3.0201    1.7775    0.8768 N   0  0  0  0  0  0  0  0  0  0  0  0
   10.1953    0.7036    0.0279 N   0  0  0  0  0  0  0  0  0  0  0  0
    1.8292    2.3386    0.2418 C   0  0  0  0  0  0  0  0  0  0  0  0
   11.3797   -0.0610   -0.3504 C   0  0  0  0  0  0  0  0  0  0  0  0
    2.2717    3.0674   -1.0373 C   0  0  0  0  0  0  0  0  0  0  0  0
   10.9420   -1.1470   -1.3508 C   0  0  0  0  0  0  0  0  0  0  0  0
    3.3687    2.2793   -1.7664 C   0  0  0  0  0  0  0  0  0  0  0  0
   10.1137   -2.2639   -0.6903 C   0  0  0  0  0  0  0  0  0  0  0  0
    3.6854    2.9596   -3.0736 N   0  0  0  0  0  0  0  0  0  0  0  0
    8.6338   -2.0079   -0.8235 N   0  0  0  0  0  0  0  0  0  0  0  0
    4.7486    2.1896   -3.8085 C   0  0  0  0  0  0  0  0  0  0  0  0
    7.9070   -2.8003    0.2298 C   0  0  0  0  0  0  0  0  0  0  0  0
    4.1537    4.3752   -2.8436 C   0  0  0  0  0  0  0  0  0  0  0  0
    8.1092   -2.3989   -2.1770 C   0  0  0  0  0  0  0  0  0  0  0  0
  1  6  2  0  0  0  0
  2  3  2  0  0  0  0
  2  1  1  0  0  0  0
  3  4  1  0  0  0  0
  4 10  1  0  0  0  0
  4  5  2  0  0  0  0
  6  5  1  0  0  0  0
  7  1  1  0  0  0  0
  7 11  1  0  0  0  0
  8  7  2  0  0  0  0
  9 10  2  0  0  0  0
 10 12  1  0  0  0  0
 12 14  1  0  0  0  0
 13 11  1  0  0  0  0
 13 15  1  0  0  0  0
 14 16  1  0  0  0  0
 16 18  1  0  0  0  0
 17 15  1  0  0  0  0
 17 19  1  0  0  0  0
 18 20  1  0  0  0  0
 19 23  1  0  0  0  0
 20 22  1  0  0  0  0
 20 24  1  0  0  0  0
 21 19  1  0  0  0  0
M  END
>  <CHROM.1>
-26.04496564,123.25163233,87.28291386,57.43728969,39.68358189,-70.97285289
95.01615188,174.90510620,-179.33494535,-159.29406747,6.56600069,0.96841089
-0.20907585,3.11592631,0.56017787,-1.69171717

>  <Name>
lig.pdb

>  <RI>
1.71133e+07

>  <Rbt.Current_Directory>
/home/itssahil/PROJECTS/Mol_Feturizer/New_Systems/rnas/2l94

>  <Rbt.Executable>
rbdock ($Id: //depot/dev/client3/rdock/2013.1/src/exe/rbdock.cxx#4 $)

>  <Rbt.Library>
libRbt.so (2013.1, Build901 2013/11/27)

>  <Rbt.Parameter_File>
/export/apps/rDock/src/rDock_2013.1_src/data/scripts/dock_solv.prm

>  <Rbt.Receptor>
prm/pocket_docking_5.prm

>  <SCORE>
-9.65672

>  <SCORE.INTER>
-14.6695

>  <SCORE.INTER.CONST>
1

>  <SCORE.INTER.POLAR>
-2.58539

>  <SCORE.INTER.ROT>
10

>  <SCORE.INTER.SOLV>
9.49542

>  <SCORE.INTER.VDW>
-14.5935

>  <SCORE.INTER.norm>
-0.611229

>  <SCORE.INTRA>
5.01277

>  <SCORE.INTRA.DIHEDRAL>
15.0266

>  <SCORE.INTRA.DIHEDRAL.0>
7.52971

>  <SCORE.INTRA.POLAR>
0

>  <SCORE.INTRA.POLAR.0>
0

>  <SCORE.INTRA.REPUL>
0

>  <SCORE.INTRA.REPUL.0>
0

>  <SCORE.INTRA.SOLV>
2.35981

>  <SCORE.INTRA.SOLV.lig_0>
-22.1084

>  <SCORE.INTRA.VDW>
-3.68045

>  <SCORE.INTRA.VDW.0>
2.4256

>  <SCORE.INTRA.norm>
0.208866

>  <SCORE.RESTR>
0

>  <SCORE.RESTR.CAVITY>
0

>  <SCORE.RESTR.norm>
0

>  <SCORE.SYSTEM>
0

>  <SCORE.SYSTEM.CONST>
0

>  <SCORE.SYSTEM.DIHEDRAL>
0

>  <SCORE.SYSTEM.SOLV>
0

>  <SCORE.SYSTEM.norm>
0

>  <SCORE.heavy>
24

>  <SCORE.norm>
-0.402363

>  <RMSD>
4.606

$$$$
lig.pdb
 OpenBabel11021811453D
libRbt.so/2013.1/901 2013/11/27
 24 24  0  0  0  0  0  0  0  0999 V2000
    5.8363   -3.3221    1.8911 C   0  0  0  0  0  0  0  0  0  0  0  0
    6.8372   -2.3701    1.4999 C   0  0  0  0  0  0  0  0  0  0  0  0
    7.7879   -2.6679    0.5526 C   0  0  0  0  0  0  0  0  0  0  0  0
    7.8252   -3.9403   -0.1025 C   0  0  0  0  0  0  0  0  0  0  0  0
    6.8460   -4.9015    0.3134 C   0  0  0  0  0  0  0  0  0  0  0  0
    5.9014   -4.6081    1.2649 C   0  0  0  0  0  0  0  0  0  0  0  0
    4.8682   -3.0257    2.8075 C   0  0  0  0  0  0  0  0  0  0  0  0
    4.2321   -3.9720    3.5307 N   0  0  0  0  0  0  0  0  0  0  0  0
    8.6120   -5.2700   -1.9249 N   0  0  0  0  0  0  0  0  0  0  0  0
    8.7409   -4.2337   -1.0695 C   0  0  0  0  0  0  0  0  0  0  0  0
    4.4748   -1.7535    3.0637 N   0  0  0  0  0  0  0  0  0  0  0  0
    9.8669   -3.5040   -1.2524 N   0  0  0  0  0  0  0  0  0  0  0  0
    4.0705   -1.2082    4.3581 C   0  0  0  0  0  0  0  0  0  0  0  0
   10.6615   -3.4385   -2.4751 C   0  0  0  0  0  0  0  0  0  0  0  0
    2.7136   -0.5092    4.1761 C   0  0  0  0  0  0  0  0  0  0  0  0
   10.9350   -1.9544   -2.7826 C   0  0  0  0  0  0  0  0  0  0  0  0
    2.3610    0.3343    5.4091 C   0  0  0  0  0  0  0  0  0  0  0  0
   12.3771   -1.5341   -2.4458 C   0  0  0  0  0  0  0  0  0  0  0  0
    0.9927    0.9388    5.2240 N   0  0  0  0  0  0  0  0  0  0  0  0
   12.7727   -0.2772   -3.1786 N   0  0  0  0  0  0  0  0  0  0  0  0
    1.0539    2.0455    4.2066 C   0  0  0  0  0  0  0  0  0  0  0  0
   14.2734   -0.1617   -3.1699 C   0  0  0  0  0  0  0  0  0  0  0  0
    0.4628    1.4800    6.5288 C   0  0  0  0  0  0  0  0  0  0  0  0
   12.1847    0.9556   -2.5505 C   0  0  0  0  0  0  0  0  0  0  0  0
  1  6  2  0  0  0  0
  2  3  2  0  0  0  0
  2  1  1  0  0  0  0
  3  4  1  0  0  0  0
  4 10  1  0  0  0  0
  4  5  2  0  0  0  0
  6  5  1  0  0  0  0
  7  1  1  0  0  0  0
  7 11  1  0  0  0  0
  8  7  2  0  0  0  0
  9 10  2  0  0  0  0
 10 12  1  0  0  0  0
 12 14  1  0  0  0  0
 13 11  1  0  0  0  0
 13 15  1  0  0  0  0
 14 16  1  0  0  0  0
 16 18  1  0  0  0  0
 17 15  1  0  0  0  0
 17 19  1  0  0  0  0
 18 20  1  0  0  0  0
 19 23  1  0  0  0  0
 20 22  1  0  0  0  0
 20 24  1  0  0  0  0
 21 19  1  0  0  0  0
M  END
>  <CHROM.1>
-163.23658983,-156.13280890,131.84818502,-128.59768527,-168.21605786,104.54051215
159.79008873,-176.83818626,-72.89059576,-162.09146689,6.94122722,-1.88298339
0.99467946,2.90266360,0.63089198,0.15193576

>  <Name>
lig.pdb

>  <RI>
9.7521e+06

>  <Rbt.Current_Directory>
/home/itssahil/PROJECTS/Mol_Feturizer/New_Systems/rnas/2l94

>  <Rbt.Executable>
rbdock ($Id: //depot/dev/client3/rdock/2013.1/src/exe/rbdock.cxx#4 $)

>  <Rbt.Library>
libRbt.so (2013.1, Build901 2013/11/27)

>  <Rbt.Parameter_File>
/export/apps/rDock/src/rDock_2013.1_src/data/scripts/dock_solv.prm

>  <Rbt.Receptor>
prm/pocket_docking_7.prm

>  <SCORE>
-23.7892

>  <SCORE.INTER>
-25.4506

>  <SCORE.INTER.CONST>
1

>  <SCORE.INTER.POLAR>
-2.96398

>  <SCORE.INTER.ROT>
10

>  <SCORE.INTER.SOLV>
16.441

>  <SCORE.INTER.VDW>
-22.8341

>  <SCORE.INTER.norm>
-1.06044

>  <SCORE.INTRA>
1.66141

>  <SCORE.INTRA.DIHEDRAL>
8.19879

>  <SCORE.INTRA.DIHEDRAL.0>
7.52971

>  <SCORE.INTRA.POLAR>
0

>  <SCORE.INTRA.POLAR.0>
0

>  <SCORE.INTRA.REPUL>
0

>  <SCORE.INTRA.REPUL.0>
0

>  <SCORE.INTRA.SOLV>
-0.212491

>  <SCORE.INTRA.SOLV.lig_0>
-22.1084

>  <SCORE.INTRA.VDW>
-2.33174

>  <SCORE.INTRA.VDW.0>
2.4256

>  <SCORE.INTRA.norm>
0.0692254

>  <SCORE.RESTR>
0

>  <SCORE.RESTR.CAVITY>
0

>  <SCORE.RESTR.norm>
0

>  <SCORE.SYSTEM>
0

>  <SCORE.SYSTEM.CONST>
0

>  <SCORE.SYSTEM.DIHEDRAL>
0

>  <SCORE.SYSTEM.SOLV>
0

>  <SCORE.SYSTEM.norm>
0

>  <SCORE.heavy>
24

>  <SCORE.norm>
-0.991216

>  <RMSD>
4.608

$$$$
lig.pdb
 OpenBabel11021811453D
libRbt.so/2013.1/901 2013/11/27
 24 24  0  0  0  0  0  0  0  0999 V2000
    6.7530   -3.0615   -2.3100 C   0  0  0  0  0  0  0  0  0  0  0  0
    7.4239   -2.1618   -3.2053 C   0  0  0  0  0  0  0  0  0  0  0  0
    8.7760   -1.9286   -3.1179 C   0  0  0  0  0  0  0  0  0  0  0  0
    9.5899   -2.5781   -2.1355 C   0  0  0  0  0  0  0  0  0  0  0  0
    8.9130   -3.4503   -1.2208 C   0  0  0  0  0  0  0  0  0  0  0  0
    7.5619   -3.6776   -1.3020 C   0  0  0  0  0  0  0  0  0  0  0  0
    5.4166   -3.3246   -2.4084 C   0  0  0  0  0  0  0  0  0  0  0  0
    4.8568   -4.4548   -1.9265 N   0  0  0  0  0  0  0  0  0  0  0  0
   11.7596   -2.4696   -3.1300 N   0  0  0  0  0  0  0  0  0  0  0  0
   10.9375   -2.3821   -2.0629 C   0  0  0  0  0  0  0  0  0  0  0  0
    4.5478   -2.4651   -2.9962 N   0  0  0  0  0  0  0  0  0  0  0  0
   11.5690   -2.0823   -0.9030 N   0  0  0  0  0  0  0  0  0  0  0  0
    3.1663   -2.2085   -2.5939 C   0  0  0  0  0  0  0  0  0  0  0  0
   12.8709   -1.4352   -0.7736 C   0  0  0  0  0  0  0  0  0  0  0  0
    2.6216   -1.0670   -3.4676 C   0  0  0  0  0  0  0  0  0  0  0  0
   13.0983   -1.1237    0.7173 C   0  0  0  0  0  0  0  0  0  0  0  0
    2.9912    0.3007   -2.8768 C   0  0  0  0  0  0  0  0  0  0  0  0
   14.4632   -0.4638    0.9847 C   0  0  0  0  0  0  0  0  0  0  0  0
    2.1028    0.5885   -1.6937 N   0  0  0  0  0  0  0  0  0  0  0  0
   15.5938   -1.2776    0.4078 N   0  0  0  0  0  0  0  0  0  0  0  0
    0.7090    0.9048   -2.1634 C   0  0  0  0  0  0  0  0  0  0  0  0
   16.7495   -1.2555    1.3719 C   0  0  0  0  0  0  0  0  0  0  0  0
    2.6394    1.7448   -0.8869 C   0  0  0  0  0  0  0  0  0  0  0  0
   16.0560   -0.7464   -0.9205 C   0  0  0  0  0  0  0  0  0  0  0  0
  1  6  2  0  0  0  0
  2  3  2  0  0  0  0
  2  1  1  0  0  0  0
  3  4  1  0  0  0  0
  4 10  1  0  0  0  0
  4  5  2  0  0  0  0
  6  5  1  0  0  0  0
  7  1  1  0  0  0  0
  7 11  1  0  0  0  0
  8  7  2  0  0  0  0
  9 10  2  0  0  0  0
 10 12  1  0  0  0  0
 12 14  1  0  0  0  0
 13 11  1  0  0  0  0
 13 15  1  0  0  0  0
 14 16  1  0  0  0  0
 16 18  1  0  0  0  0
 17 15  1  0  0  0  0
 17 19  1  0  0  0  0
 18 20  1  0  0  0  0
 19 23  1  0  0  0  0
 20 22  1  0  0  0  0
 20 24  1  0  0  0  0
 21 19  1  0  0  0  0
M  END
>  <CHROM.1>
-49.33077404,156.49147426,172.37168072,174.74833274,-85.10978368,178.68591338
-53.49916460,-75.97804036,-72.38153400,-140.54795020,8.39650131,-1.63077418
-1.58225529,-3.10655760,-0.19388693,0.42906079

>  <Name>
lig.pdb

>  <RI>
0

>  <Rbt.Current_Directory>
/home/itssahil/PROJECTS/Mol_Feturizer/New_Systems/rnas/2l94

>  <Rbt.Executable>
rbdock ($Id: //depot/dev/client3/rdock/2013.1/src/exe/rbdock.cxx#4 $)

>  <Rbt.Library>
libRbt.so (2013.1, Build901 2013/11/27)

>  <Rbt.Parameter_File>
/export/apps/rDock/src/rDock_2013.1_src/data/scripts/dock_solv.prm

>  <Rbt.Receptor>
prm/pocket_docking_4.prm

>  <SCORE>
-15.5716

>  <SCORE.INTER>
-20.5606

>  <SCORE.INTER.CONST>
1

>  <SCORE.INTER.POLAR>
-2.77542

>  <SCORE.INTER.ROT>
10

>  <SCORE.INTER.SOLV>
12.6545

>  <SCORE.INTER.VDW>
-18.9405

>  <SCORE.INTER.norm>
-0.856693

>  <SCORE.INTRA>
4.989

>  <SCORE.INTRA.DIHEDRAL>
12.7859

>  <SCORE.INTRA.DIHEDRAL.0>
7.52971

>  <SCORE.INTRA.POLAR>
0

>  <SCORE.INTRA.POLAR.0>
0

>  <SCORE.INTRA.REPUL>
0

>  <SCORE.INTRA.REPUL.0>
0

>  <SCORE.INTRA.SOLV>
-0.148659

>  <SCORE.INTRA.SOLV.lig_0>
-22.1084

>  <SCORE.INTRA.VDW>
-1.32962

>  <SCORE.INTRA.VDW.0>
2.4256

>  <SCORE.INTRA.norm>
0.207875

>  <SCORE.RESTR>
0

>  <SCORE.RESTR.CAVITY>
0

>  <SCORE.RESTR.norm>
0

>  <SCORE.SYSTEM>
0

>  <SCORE.SYSTEM.CONST>
0

>  <SCORE.SYSTEM.DIHEDRAL>
0

>  <SCORE.SYSTEM.SOLV>
0

>  <SCORE.SYSTEM.norm>
0

>  <SCORE.heavy>
24

>  <SCORE.norm>
-0.648818

>  <RMSD>
4.617

$$$$
lig.pdb
 OpenBabel11021811453D
libRbt.so/2013.1/901 2013/11/27
 24 24  0  0  0  0  0  0  0  0999 V2000
    6.4751    0.0249    1.2025 C   0  0  0  0  0  0  0  0  0  0  0  0
    7.7553    0.6690    1.2875 C   0  0  0  0  0  0  0  0  0  0  0  0
    8.9150    0.0240    0.9278 C   0  0  0  0  0  0  0  0  0  0  0  0
    8.9076   -1.3217    0.4397 C   0  0  0  0  0  0  0  0  0  0  0  0
    7.6323   -1.9750    0.3872 C   0  0  0  0  0  0  0  0  0  0  0  0
    6.4749   -1.3348    0.7536 C   0  0  0  0  0  0  0  0  0  0  0  0
    5.3142    0.6667    1.5267 C   0  0  0  0  0  0  0  0  0  0  0  0
    5.1152    1.2566    2.7249 N   0  0  0  0  0  0  0  0  0  0  0  0
   10.2313   -3.2910    0.1603 N   0  0  0  0  0  0  0  0  0  0  0  0
   10.0473   -1.9586    0.0459 C   0  0  0  0  0  0  0  0  0  0  0  0
    4.2717    0.7634    0.6647 N   0  0  0  0  0  0  0  0  0  0  0  0
   11.0997   -1.3008   -0.4961 N   0  0  0  0  0  0  0  0  0  0  0  0
    3.3598    1.8966    0.5206 C   0  0  0  0  0  0  0  0  0  0  0  0
   12.1423   -1.8859   -1.3335 C   0  0  0  0  0  0  0  0  0  0  0  0
    4.1897    3.1877    0.6052 C   0  0  0  0  0  0  0  0  0  0  0  0
   11.9501   -1.3569   -2.7670 C   0  0  0  0  0  0  0  0  0  0  0  0
    4.9764    3.4206   -0.6921 C   0  0  0  0  0  0  0  0  0  0  0  0
   10.6317   -1.8326   -3.4037 C   0  0  0  0  0  0  0  0  0  0  0  0
    4.2338    4.4092   -1.5540 N   0  0  0  0  0  0  0  0  0  0  0  0
   10.1088   -0.8340   -4.4052 N   0  0  0  0  0  0  0  0  0  0  0  0
    3.0933    3.7233   -2.2556 C   0  0  0  0  0  0  0  0  0  0  0  0
    9.4290    0.2862   -3.6646 C   0  0  0  0  0  0  0  0  0  0  0  0
    5.1547    5.0314   -2.5743 C   0  0  0  0  0  0  0  0  0  0  0  0
    9.1288   -1.4507   -5.3639 C   0  0  0  0  0  0  0  0  0  0  0  0
  1  6  2  0  0  0  0
  2  3  2  0  0  0  0
  2  1  1  0  0  0  0
  3  4  1  0  0  0  0
  4 10  1  0  0  0  0
  4  5  2  0  0  0  0
  6  5  1  0  0  0  0
  7  1  1  0  0  0  0
  7 11  1  0  0  0  0
  8  7  2  0  0  0  0
  9 10  2  0  0  0  0
 10 12  1  0  0  0  0
 12 14  1  0  0  0  0
 13 11  1  0  0  0  0
 13 15  1  0  0  0  0
 14 16  1  0  0  0  0
 16 18  1  0  0  0  0
 17 15  1  0  0  0  0
 17 19  1  0  0  0  0
 18 20  1  0  0  0  0
 19 23  1  0  0  0  0
 20 22  1  0  0  0  0
 20 24  1  0  0  0  0
 21 19  1  0  0  0  0
M  END
>  <CHROM.1>
148.89736966,-55.22166982,109.87232836,41.10361169,75.03901988,-65.14198979
150.56261911,98.83510821,-78.54557500,-79.19196075,7.51238933,0.32939536
-0.78832019,3.09497712,0.66106291,-1.12325941

>  <Name>
lig.pdb

>  <RI>
9.7521e+06

>  <Rbt.Current_Directory>
/home/itssahil/PROJECTS/Mol_Feturizer/New_Systems/rnas/2l94

>  <Rbt.Executable>
rbdock ($Id: //depot/dev/client3/rdock/2013.1/src/exe/rbdock.cxx#4 $)

>  <Rbt.Library>
libRbt.so (2013.1, Build901 2013/11/27)

>  <Rbt.Parameter_File>
/export/apps/rDock/src/rDock_2013.1_src/data/scripts/dock_solv.prm

>  <Rbt.Receptor>
prm/pocket_docking_7.prm

>  <SCORE>
-22.8008

>  <SCORE.INTER>
-29.2286

>  <SCORE.INTER.CONST>
1

>  <SCORE.INTER.POLAR>
-4.59647

>  <SCORE.INTER.ROT>
10

>  <SCORE.INTER.SOLV>
12.2461

>  <SCORE.INTER.VDW>
-18.5128

>  <SCORE.INTER.norm>
-1.21786

>  <SCORE.INTRA>
6.42781

>  <SCORE.INTRA.DIHEDRAL>
18.6123

>  <SCORE.INTRA.DIHEDRAL.0>
7.52971

>  <SCORE.INTRA.POLAR>
0

>  <SCORE.INTRA.POLAR.0>
0

>  <SCORE.INTRA.REPUL>
0

>  <SCORE.INTRA.REPUL.0>
0

>  <SCORE.INTRA.SOLV>
0.95322

>  <SCORE.INTRA.SOLV.lig_0>
-22.1084

>  <SCORE.INTRA.VDW>
-3.35497

>  <SCORE.INTRA.VDW.0>
2.4256

>  <SCORE.INTRA.norm>
0.267825

>  <SCORE.RESTR>
0

>  <SCORE.RESTR.CAVITY>
0

>  <SCORE.RESTR.norm>
0

>  <SCORE.SYSTEM>
0

>  <SCORE.SYSTEM.CONST>
0

>  <SCORE.SYSTEM.DIHEDRAL>
0

>  <SCORE.SYSTEM.SOLV>
0

>  <SCORE.SYSTEM.norm>
0

>  <SCORE.heavy>
24

>  <SCORE.norm>
-0.950032

>  <RMSD>
4.622

$$$$
lig.pdb
 OpenBabel11021811453D
libRbt.so/2013.1/901 2013/11/27
 24 24  0  0  0  0  0  0  0  0999 V2000
    8.5412   -1.8312    0.6380 C   0  0  0  0  0  0  0  0  0  0  0  0
    7.5078   -2.7750    0.9583 C   0  0  0  0  0  0  0  0  0  0  0  0
    6.2978   -2.3754    1.4744 C   0  0  0  0  0  0  0  0  0  0  0  0
    5.9991   -0.9956    1.7112 C   0  0  0  0  0  0  0  0  0  0  0  0
    7.0442   -0.0574    1.4225 C   0  0  0  0  0  0  0  0  0  0  0  0
    8.2555   -0.4558    0.9148 C   0  0  0  0  0  0  0  0  0  0  0  0
    9.7343   -2.2143    0.0953 C   0  0  0  0  0  0  0  0  0  0  0  0
   10.1847   -3.4863    0.1442 N   0  0  0  0  0  0  0  0  0  0  0  0
    4.6419    0.4360    3.0591 N   0  0  0  0  0  0  0  0  0  0  0  0
    4.7894   -0.5850    2.1885 C   0  0  0  0  0  0  0  0  0  0  0  0
   10.5574   -1.3432   -0.5393 N   0  0  0  0  0  0  0  0  0  0  0  0
    3.6250   -1.1740    1.8265 N   0  0  0  0  0  0  0  0  0  0  0  0
   11.3956   -1.6235   -1.7034 C   0  0  0  0  0  0  0  0  0  0  0  0
    2.2962   -0.5752    1.9047 C   0  0  0  0  0  0  0  0  0  0  0  0
   10.4985   -2.2132   -2.8035 C   0  0  0  0  0  0  0  0  0  0  0  0
    1.7717   -0.3981    0.4676 C   0  0  0  0  0  0  0  0  0  0  0  0
    9.6085   -1.1286   -3.4261 C   0  0  0  0  0  0  0  0  0  0  0  0
    2.3386    0.8566   -0.2210 C   0  0  0  0  0  0  0  0  0  0  0  0
    8.6529   -1.7676   -4.4009 N   0  0  0  0  0  0  0  0  0  0  0  0
    1.5397    1.2244   -1.4457 N   0  0  0  0  0  0  0  0  0  0  0  0
    8.4255   -0.8513   -5.5722 C   0  0  0  0  0  0  0  0  0  0  0  0
    1.8242    0.2210   -2.5309 C   0  0  0  0  0  0  0  0  0  0  0  0
    7.3339   -2.0767   -3.7369 C   0  0  0  0  0  0  0  0  0  0  0  0
    1.8764    2.5994   -1.9518 C   0  0  0  0  0  0  0  0  0  0  0  0
  1  6  2  0  0  0  0
  2  3  2  0  0  0  0
  2  1  1  0  0  0  0
  3  4  1  0  0  0  0
  4 10  1  0  0  0  0
  4  5  2  0  0  0  0
  6  5  1  0  0  0  0
  7  1  1  0  0  0  0
  7 11  1  0  0  0  0
  8  7  2  0  0  0  0
  9 10  2  0  0  0  0
 10 12  1  0  0  0  0
 12 14  1  0  0  0  0
 13 11  1  0  0  0  0
 13 15  1  0  0  0  0
 14 16  1  0  0  0  0
 16 18  1  0  0  0  0
 17 15  1  0  0  0  0
 17 19  1  0  0  0  0
 18 20  1  0  0  0  0
 19 23  1  0  0  0  0
 20 22  1  0  0  0  0
 20 24  1  0  0  0  0
 21 19  1  0  0  0  0
M  END
>  <CHROM.1>
143.12818316,-18.18002282,113.87526866,53.80520847,73.28490382,-80.60571913
-163.97301354,-174.51042024,-144.36504873,-72.16224807,6.40544596,-0.92162755
-0.55642775,-0.23568493,-0.34348958,1.70656656

>  <Name>
lig.pdb

>  <RI>
1.71133e+07

>  <Rbt.Current_Directory>
/home/itssahil/PROJECTS/Mol_Feturizer/New_Systems/rnas/2l94

>  <Rbt.Executable>
rbdock ($Id: //depot/dev/client3/rdock/2013.1/src/exe/rbdock.cxx#4 $)

>  <Rbt.Library>
libRbt.so (2013.1, Build901 2013/11/27)

>  <Rbt.Parameter_File>
/export/apps/rDock/src/rDock_2013.1_src/data/scripts/dock_solv.prm

>  <Rbt.Receptor>
prm/pocket_docking_5.prm

>  <SCORE>
-21.834

>  <SCORE.INTER>
-23.2647

>  <SCORE.INTER.CONST>
1

>  <SCORE.INTER.POLAR>
-3.81994

>  <SCORE.INTER.ROT>
10

>  <SCORE.INTER.SOLV>
10.5303

>  <SCORE.INTER.VDW>
-16.5534

>  <SCORE.INTER.norm>
-0.969362

>  <SCORE.INTRA>
1.43065

>  <SCORE.INTRA.DIHEDRAL>
8.85617

>  <SCORE.INTRA.DIHEDRAL.0>
7.52971

>  <SCORE.INTRA.POLAR>
0

>  <SCORE.INTRA.POLAR.0>
0

>  <SCORE.INTRA.REPUL>
0

>  <SCORE.INTRA.REPUL.0>
0

>  <SCORE.INTRA.SOLV>
0.523342

>  <SCORE.INTRA.SOLV.lig_0>
-22.1084

>  <SCORE.INTRA.VDW>
-3.25911

>  <SCORE.INTRA.VDW.0>
2.4256

>  <SCORE.INTRA.norm>
0.0596102

>  <SCORE.RESTR>
0

>  <SCORE.RESTR.CAVITY>
0

>  <SCORE.RESTR.norm>
0

>  <SCORE.SYSTEM>
0

>  <SCORE.SYSTEM.CONST>
0

>  <SCORE.SYSTEM.DIHEDRAL>
0

>  <SCORE.SYSTEM.SOLV>
0

>  <SCORE.SYSTEM.norm>
0

>  <SCORE.heavy>
24

>  <SCORE.norm>
-0.909751

>  <RMSD>
4.642

$$$$
lig.pdb
 OpenBabel11021811453D
libRbt.so/2013.1/901 2013/11/27
 24 24  0  0  0  0  0  0  0  0999 V2000
    2.1174    1.9410    2.2755 C   0  0  0  0  0  0  0  0  0  0  0  0
    3.1538    1.8000    1.2922 C   0  0  0  0  0  0  0  0  0  0  0  0
    4.1798    0.8980    1.4467 C   0  0  0  0  0  0  0  0  0  0  0  0
    4.2646    0.0433    2.5920 C   0  0  0  0  0  0  0  0  0  0  0  0
    3.2476    0.2088    3.5890 C   0  0  0  0  0  0  0  0  0  0  0  0
    2.2274    1.1147    3.4397 C   0  0  0  0  0  0  0  0  0  0  0  0
    1.0768    2.8110    2.1170 C   0  0  0  0  0  0  0  0  0  0  0  0
    0.6648    3.2449    0.9066 N   0  0  0  0  0  0  0  0  0  0  0  0
    5.1296   -1.9962    3.4866 N   0  0  0  0  0  0  0  0  0  0  0  0
    5.2574   -0.8802    2.7381 C   0  0  0  0  0  0  0  0  0  0  0  0
    0.3740    3.3030    3.1673 N   0  0  0  0  0  0  0  0  0  0  0  0
    6.4657   -0.7521    2.1403 N   0  0  0  0  0  0  0  0  0  0  0  0
   -1.0576    3.5957    3.2000 C   0  0  0  0  0  0  0  0  0  0  0  0
    7.4067   -1.8321    1.8602 C   0  0  0  0  0  0  0  0  0  0  0  0
   -1.8173    2.2690    3.0405 C   0  0  0  0  0  0  0  0  0  0  0  0
    7.6721   -1.8468    0.3432 C   0  0  0  0  0  0  0  0  0  0  0  0
   -1.2953    1.2155    4.0273 C   0  0  0  0  0  0  0  0  0  0  0  0
    8.9157   -2.6721   -0.0341 C   0  0  0  0  0  0  0  0  0  0  0  0
   -1.6854   -0.1573    3.5425 N   0  0  0  0  0  0  0  0  0  0  0  0
    9.0061   -2.8872   -1.5238 N   0  0  0  0  0  0  0  0  0  0  0  0
   -2.6142   -0.8063    4.5323 C   0  0  0  0  0  0  0  0  0  0  0  0
    8.2607   -4.1457   -1.8790 C   0  0  0  0  0  0  0  0  0  0  0  0
   -0.4670   -1.0254    3.3478 C   0  0  0  0  0  0  0  0  0  0  0  0
   10.4283   -3.0129   -1.9943 C   0  0  0  0  0  0  0  0  0  0  0  0
  1  6  2  0  0  0  0
  2  3  2  0  0  0  0
  2  1  1  0  0  0  0
  3  4  1  0  0  0  0
  4 10  1  0  0  0  0
  4  5  2  0  0  0  0
  6  5  1  0  0  0  0
  7  1  1  0  0  0  0
  7 11  1  0  0  0  0
  8  7  2  0  0  0  0
  9 10  2  0  0  0  0
 10 12  1  0  0  0  0
 12 14  1  0  0  0  0
 13 11  1  0  0  0  0
 13 15  1  0  0  0  0
 14 16  1  0  0  0  0
 16 18  1  0  0  0  0
 17 15  1  0  0  0  0
 17 19  1  0  0  0  0
 18 20  1  0  0  0  0
 19 23  1  0  0  0  0
 20 22  1  0  0  0  0
 20 24  1  0  0  0  0
 21 19  1  0  0  0  0
M  END
>  <CHROM.1>
-154.61738221,23.81097158,121.93874401,65.02813594,50.35779550,164.48747887
169.28186777,-160.19153183,-116.53253582,-89.19498503,3.37897602,-0.03413816
1.95479345,-2.88215691,-0.48070035,2.80444790

>  <Name>
lig.pdb

>  <RI>
1.71133e+07

>  <Rbt.Current_Directory>
/home/itssahil/PROJECTS/Mol_Feturizer/New_Systems/rnas/2l94

>  <Rbt.Executable>
rbdock ($Id: //depot/dev/client3/rdock/2013.1/src/exe/rbdock.cxx#4 $)

>  <Rbt.Library>
libRbt.so (2013.1, Build901 2013/11/27)

>  <Rbt.Parameter_File>
/export/apps/rDock/src/rDock_2013.1_src/data/scripts/dock_solv.prm

>  <Rbt.Receptor>
prm/pocket_docking_5.prm

>  <SCORE>
-14.0464

>  <SCORE.INTER>
-15.6938

>  <SCORE.INTER.CONST>
1

>  <SCORE.INTER.POLAR>
-2.14098

>  <SCORE.INTER.ROT>
10

>  <SCORE.INTER.SOLV>
11.2097

>  <SCORE.INTER.VDW>
-17.3292

>  <SCORE.INTER.norm>
-0.653909

>  <SCORE.INTRA>
1.58717

>  <SCORE.INTRA.DIHEDRAL>
10.0904

>  <SCORE.INTRA.DIHEDRAL.0>
7.52971

>  <SCORE.INTRA.POLAR>
0

>  <SCORE.INTRA.POLAR.0>
0

>  <SCORE.INTRA.REPUL>
0

>  <SCORE.INTRA.REPUL.0>
0

>  <SCORE.INTRA.SOLV>
0.413137

>  <SCORE.INTRA.SOLV.lig_0>
-22.1084

>  <SCORE.INTRA.VDW>
-3.66459

>  <SCORE.INTRA.VDW.0>
2.4256

>  <SCORE.INTRA.norm>
0.0661322

>  <SCORE.RESTR>
0.0602196

>  <SCORE.RESTR.CAVITY>
0.0602196

>  <SCORE.RESTR.norm>
0.00250915

>  <SCORE.SYSTEM>
0

>  <SCORE.SYSTEM.CONST>
0

>  <SCORE.SYSTEM.DIHEDRAL>
0

>  <SCORE.SYSTEM.SOLV>
0

>  <SCORE.SYSTEM.norm>
0

>  <SCORE.heavy>
24

>  <SCORE.norm>
-0.585268

>  <RMSD>
4.643

$$$$
lig.pdb
 OpenBabel11021811453D
libRbt.so/2013.1/901 2013/11/27
 24 24  0  0  0  0  0  0  0  0999 V2000
    6.5909   -1.7351    1.4995 C   0  0  0  0  0  0  0  0  0  0  0  0
    7.7007   -0.8267    1.4351 C   0  0  0  0  0  0  0  0  0  0  0  0
    8.8669   -1.1542    0.7848 C   0  0  0  0  0  0  0  0  0  0  0  0
    9.0341   -2.4152    0.1281 C   0  0  0  0  0  0  0  0  0  0  0  0
    7.9377   -3.3344    0.2221 C   0  0  0  0  0  0  0  0  0  0  0  0
    6.7760   -3.0116    0.8779 C   0  0  0  0  0  0  0  0  0  0  0  0
    5.4168   -1.4076    2.1151 C   0  0  0  0  0  0  0  0  0  0  0  0
    5.0549   -1.9117    3.3143 N   0  0  0  0  0  0  0  0  0  0  0  0
   10.2093   -3.6367   -1.5557 N   0  0  0  0  0  0  0  0  0  0  0  0
   10.1724   -2.7364   -0.5506 C   0  0  0  0  0  0  0  0  0  0  0  0
    4.5249   -0.5450    1.5678 N   0  0  0  0  0  0  0  0  0  0  0  0
   11.3720   -2.1745   -0.2689 N   0  0  0  0  0  0  0  0  0  0  0  0
    3.6864    0.4150    2.2831 C   0  0  0  0  0  0  0  0  0  0  0  0
   12.5186   -2.0957   -1.1687 C   0  0  0  0  0  0  0  0  0  0  0  0
    4.4329    1.7581    2.3257 C   0  0  0  0  0  0  0  0  0  0  0  0
   13.5510   -1.1433   -0.5371 C   0  0  0  0  0  0  0  0  0  0  0  0
    5.0937    2.0619    0.9740 C   0  0  0  0  0  0  0  0  0  0  0  0
   14.9364   -1.2449   -1.2005 C   0  0  0  0  0  0  0  0  0  0  0  0
    5.4344    3.5285    0.9049 N   0  0  0  0  0  0  0  0  0  0  0  0
   15.0987   -0.2277   -2.3016 N   0  0  0  0  0  0  0  0  0  0  0  0
    4.2400    4.3111    0.4309 C   0  0  0  0  0  0  0  0  0  0  0  0
   15.0115    1.1516   -1.7055 C   0  0  0  0  0  0  0  0  0  0  0  0
    6.5974    3.7672   -0.0260 C   0  0  0  0  0  0  0  0  0  0  0  0
   14.0446   -0.3677   -3.3643 C   0  0  0  0  0  0  0  0  0  0  0  0
  1  6  2  0  0  0  0
  2  3  2  0  0  0  0
  2  1  1  0  0  0  0
  3  4  1  0  0  0  0
  4 10  1  0  0  0  0
  4  5  2  0  0  0  0
  6  5  1  0  0  0  0
  7  1  1  0  0  0  0
  7 11  1  0  0  0  0
  8  7  2  0  0  0  0
  9 10  2  0  0  0  0
 10 12  1  0  0  0  0
 12 14  1  0  0  0  0
 13 11  1  0  0  0  0
 13 15  1  0  0  0  0
 14 16  1  0  0  0  0
 16 18  1  0  0  0  0
 17 15  1  0  0  0  0
 17 19  1  0  0  0  0
 18 20  1  0  0  0  0
 19 23  1  0  0  0  0
 20 22  1  0  0  0  0
 20 24  1  0  0  0  0
 21 19  1  0  0  0  0
M  END
>  <CHROM.1>
-154.74465205,-105.88585070,169.06617005,93.05212175,42.16213793,165.63438878
93.22284504,162.47831496,-85.20863325,62.84834780,8.72153604,-0.47228393
0.22660179,2.98099186,0.38306226,-0.15909474

>  <Name>
lig.pdb

>  <RI>
1.71133e+07

>  <Rbt.Current_Directory>
/home/itssahil/PROJECTS/Mol_Feturizer/New_Systems/rnas/2l94

>  <Rbt.Executable>
rbdock ($Id: //depot/dev/client3/rdock/2013.1/src/exe/rbdock.cxx#4 $)

>  <Rbt.Library>
libRbt.so (2013.1, Build901 2013/11/27)

>  <Rbt.Parameter_File>
/export/apps/rDock/src/rDock_2013.1_src/data/scripts/dock_solv.prm

>  <Rbt.Receptor>
prm/pocket_docking_5.prm

>  <SCORE>
-17.8286

>  <SCORE.INTER>
-28.094

>  <SCORE.INTER.CONST>
1

>  <SCORE.INTER.POLAR>
-3.47043

>  <SCORE.INTER.ROT>
10

>  <SCORE.INTER.SOLV>
10.9303

>  <SCORE.INTER.VDW>
-21.0714

>  <SCORE.INTER.norm>
-1.17058

>  <SCORE.INTRA>
10.2557

>  <SCORE.INTRA.DIHEDRAL>
19.1032

>  <SCORE.INTRA.DIHEDRAL.0>
7.52971

>  <SCORE.INTRA.POLAR>
0

>  <SCORE.INTRA.POLAR.0>
0

>  <SCORE.INTRA.REPUL>
0

>  <SCORE.INTRA.REPUL.0>
0

>  <SCORE.INTRA.SOLV>
-0.0210918

>  <SCORE.INTRA.SOLV.lig_0>
-22.1084

>  <SCORE.INTRA.VDW>
0.71469

>  <SCORE.INTRA.VDW.0>
2.4256

>  <SCORE.INTRA.norm>
0.427322

>  <SCORE.RESTR>
0.00969253

>  <SCORE.RESTR.CAVITY>
0.00969253

>  <SCORE.RESTR.norm>
0.000403856

>  <SCORE.SYSTEM>
0

>  <SCORE.SYSTEM.CONST>
0

>  <SCORE.SYSTEM.DIHEDRAL>
0

>  <SCORE.SYSTEM.SOLV>
0

>  <SCORE.SYSTEM.norm>
0

>  <SCORE.heavy>
24

>  <SCORE.norm>
-0.742857

>  <RMSD>
4.646

$$$$
lig.pdb
 OpenBabel11021811453D
libRbt.so/2013.1/901 2013/11/27
 24 24  0  0  0  0  0  0  0  0999 V2000
    7.9749   -3.2479    0.1530 C   0  0  0  0  0  0  0  0  0  0  0  0
    6.8501   -4.0278    0.5860 C   0  0  0  0  0  0  0  0  0  0  0  0
    6.0323   -3.6118    1.6098 C   0  0  0  0  0  0  0  0  0  0  0  0
    6.2524   -2.3733    2.2932 C   0  0  0  0  0  0  0  0  0  0  0  0
    7.3956   -1.6117    1.8824 C   0  0  0  0  0  0  0  0  0  0  0  0
    8.2175   -2.0300    0.8658 C   0  0  0  0  0  0  0  0  0  0  0  0
    8.7745   -3.6363   -0.8836 C   0  0  0  0  0  0  0  0  0  0  0  0
    8.3898   -4.5493   -1.8010 N   0  0  0  0  0  0  0  0  0  0  0  0
    5.5858   -0.7499    3.9144 N   0  0  0  0  0  0  0  0  0  0  0  0
    5.4266   -1.9335    3.2853 C   0  0  0  0  0  0  0  0  0  0  0  0
   10.0179   -3.1291   -1.0722 N   0  0  0  0  0  0  0  0  0  0  0  0
    4.3694   -2.6553    3.7271 N   0  0  0  0  0  0  0  0  0  0  0  0
   10.6642   -2.8549   -2.3542 C   0  0  0  0  0  0  0  0  0  0  0  0
    3.2014   -2.1311    4.4283 C   0  0  0  0  0  0  0  0  0  0  0  0
   11.8944   -1.9728   -2.0868 C   0  0  0  0  0  0  0  0  0  0  0  0
    2.4931   -1.1365    3.4898 C   0  0  0  0  0  0  0  0  0  0  0  0
   12.1848   -1.0582   -3.2849 C   0  0  0  0  0  0  0  0  0  0  0  0
    1.3206   -0.4086    4.1717 C   0  0  0  0  0  0  0  0  0  0  0  0
   13.1845   -0.0064   -2.8774 N   0  0  0  0  0  0  0  0  0  0  0  0
    1.8057    0.5646    5.2163 N   0  0  0  0  0  0  0  0  0  0  0  0
   12.8765    1.2914   -3.5734 C   0  0  0  0  0  0  0  0  0  0  0  0
    1.9250   -0.1554    6.5327 C   0  0  0  0  0  0  0  0  0  0  0  0
   14.5895   -0.4403   -3.2148 C   0  0  0  0  0  0  0  0  0  0  0  0
    0.8735    1.7323    5.3814 C   0  0  0  0  0  0  0  0  0  0  0  0
  1  6  2  0  0  0  0
  2  3  2  0  0  0  0
  2  1  1  0  0  0  0
  3  4  1  0  0  0  0
  4 10  1  0  0  0  0
  4  5  2  0  0  0  0
  6  5  1  0  0  0  0
  7  1  1  0  0  0  0
  7 11  1  0  0  0  0
  8  7  2  0  0  0  0
  9 10  2  0  0  0  0
 10 12  1  0  0  0  0
 12 14  1  0  0  0  0
 13 11  1  0  0  0  0
 13 15  1  0  0  0  0
 14 16  1  0  0  0  0
 16 18  1  0  0  0  0
 17 15  1  0  0  0  0
 17 19  1  0  0  0  0
 18 20  1  0  0  0  0
 19 23  1  0  0  0  0
 20 22  1  0  0  0  0
 20 24  1  0  0  0  0
 21 19  1  0  0  0  0
M  END
>  <CHROM.1>
-177.71283333,18.58037979,61.61891973,165.90638528,-150.04582159,-174.25761852
69.89907790,167.37663215,-144.64293961,-88.85421653,7.18954993,-1.61158413
1.10217807,0.19596044,-0.63225009,-2.92607701

>  <Name>
lig.pdb

>  <RI>
1.39428e+07

>  <Rbt.Current_Directory>
/home/itssahil/PROJECTS/Mol_Feturizer/New_Systems/rnas/2l94

>  <Rbt.Executable>
rbdock ($Id: //depot/dev/client3/rdock/2013.1/src/exe/rbdock.cxx#4 $)

>  <Rbt.Library>
libRbt.so (2013.1, Build901 2013/11/27)

>  <Rbt.Parameter_File>
/export/apps/rDock/src/rDock_2013.1_src/data/scripts/dock_solv.prm

>  <Rbt.Receptor>
prm/pocket_docking_8.prm

>  <SCORE>
-21.7356

>  <SCORE.INTER>
-23.2231

>  <SCORE.INTER.CONST>
1

>  <SCORE.INTER.POLAR>
-2.11736

>  <SCORE.INTER.ROT>
10

>  <SCORE.INTER.SOLV>
14.4769

>  <SCORE.INTER.VDW>
-23.5164

>  <SCORE.INTER.norm>
-0.967627

>  <SCORE.INTRA>
1.48746

>  <SCORE.INTRA.DIHEDRAL>
6.36057

>  <SCORE.INTRA.DIHEDRAL.0>
7.52971

>  <SCORE.INTRA.POLAR>
0

>  <SCORE.INTRA.POLAR.0>
0

>  <SCORE.INTRA.REPUL>
0.00463396

>  <SCORE.INTRA.REPUL.0>
0

>  <SCORE.INTRA.SOLV>
0.147726

>  <SCORE.INTRA.SOLV.lig_0>
-22.1084

>  <SCORE.INTRA.VDW>
-1.78986

>  <SCORE.INTRA.VDW.0>
2.4256

>  <SCORE.INTRA.norm>
0.0619774

>  <SCORE.RESTR>
0

>  <SCORE.RESTR.CAVITY>
0

>  <SCORE.RESTR.norm>
0

>  <SCORE.SYSTEM>
0

>  <SCORE.SYSTEM.CONST>
0

>  <SCORE.SYSTEM.DIHEDRAL>
0

>  <SCORE.SYSTEM.SOLV>
0

>  <SCORE.SYSTEM.norm>
0

>  <SCORE.heavy>
24

>  <SCORE.norm>
-0.90565

>  <RMSD>
4.650

$$$$
lig.pdb
 OpenBabel11021811453D
libRbt.so/2013.1/901 2013/11/27
 24 24  0  0  0  0  0  0  0  0999 V2000
    6.1877   -0.9285    1.7273 C   0  0  0  0  0  0  0  0  0  0  0  0
    4.8494   -1.1969    2.1724 C   0  0  0  0  0  0  0  0  0  0  0  0
    3.9218   -0.1932    2.3218 C   0  0  0  0  0  0  0  0  0  0  0  0
    4.2372    1.1727    2.0320 C   0  0  0  0  0  0  0  0  0  0  0  0
    5.5836    1.4436    1.6201 C   0  0  0  0  0  0  0  0  0  0  0  0
    6.5129    0.4435    1.4784 C   0  0  0  0  0  0  0  0  0  0  0  0
    7.1072   -1.9215    1.5451 C   0  0  0  0  0  0  0  0  0  0  0  0
    6.9190   -3.1825    1.9894 N   0  0  0  0  0  0  0  0  0  0  0  0
    3.6314    3.4827    2.1033 N   0  0  0  0  0  0  0  0  0  0  0  0
    3.3148    2.1711    2.1417 C   0  0  0  0  0  0  0  0  0  0  0  0
    8.2811   -1.7155    0.8980 N   0  0  0  0  0  0  0  0  0  0  0  0
    1.9923    1.9272    2.3016 N   0  0  0  0  0  0  0  0  0  0  0  0
    8.9776   -2.6625    0.0295 C   0  0  0  0  0  0  0  0  0  0  0  0
    0.9032    2.8485    1.9927 C   0  0  0  0  0  0  0  0  0  0  0  0
    8.2669   -2.6682   -1.3335 C   0  0  0  0  0  0  0  0  0  0  0  0
    0.8671    3.0434    0.4654 C   0  0  0  0  0  0  0  0  0  0  0  0
    6.8501   -3.2461   -1.2113 C   0  0  0  0  0  0  0  0  0  0  0  0
    0.8329    1.7097   -0.3027 C   0  0  0  0  0  0  0  0  0  0  0  0
    6.0934   -2.9832   -2.4880 N   0  0  0  0  0  0  0  0  0  0  0  0
    0.8067    1.9304   -1.7940 N   0  0  0  0  0  0  0  0  0  0  0  0
    4.6165   -2.9268   -2.2069 C   0  0  0  0  0  0  0  0  0  0  0  0
    0.7629    0.5926   -2.4824 C   0  0  0  0  0  0  0  0  0  0  0  0
    6.3732   -4.0570   -3.5101 C   0  0  0  0  0  0  0  0  0  0  0  0
    2.0114    2.6888   -2.2773 C   0  0  0  0  0  0  0  0  0  0  0  0
  1  6  2  0  0  0  0
  2  3  2  0  0  0  0
  2  1  1  0  0  0  0
  3  4  1  0  0  0  0
  4 10  1  0  0  0  0
  4  5  2  0  0  0  0
  6  5  1  0  0  0  0
  7  1  1  0  0  0  0
  7 11  1  0  0  0  0
  8  7  2  0  0  0  0
  9 10  2  0  0  0  0
 10 12  1  0  0  0  0
 12 14  1  0  0  0  0
 13 11  1  0  0  0  0
 13 15  1  0  0  0  0
 14 16  1  0  0  0  0
 16 18  1  0  0  0  0
 17 15  1  0  0  0  0
 17 19  1  0  0  0  0
 18 20  1  0  0  0  0
 19 23  1  0  0  0  0
 20 22  1  0  0  0  0
 20 24  1  0  0  0  0
 21 19  1  0  0  0  0
M  END
>  <CHROM.1>
168.10549920,-12.24335310,67.16592419,77.71200857,-66.53720878,51.78184324
-179.64390306,168.72018511,-153.51900395,-179.55300369,4.54677109,-0.18797671
0.22348201,-0.46978962,-0.60806173,1.03053445

>  <Name>
lig.pdb

>  <RI>
0

>  <Rbt.Current_Directory>
/home/itssahil/PROJECTS/Mol_Feturizer/New_Systems/rnas/2l94

>  <Rbt.Executable>
rbdock ($Id: //depot/dev/client3/rdock/2013.1/src/exe/rbdock.cxx#4 $)

>  <Rbt.Library>
libRbt.so (2013.1, Build901 2013/11/27)

>  <Rbt.Parameter_File>
/export/apps/rDock/src/rDock_2013.1_src/data/scripts/dock_solv.prm

>  <Rbt.Receptor>
prm/pocket_docking_4.prm

>  <SCORE>
-19.5678

>  <SCORE.INTER>
-18.0926

>  <SCORE.INTER.CONST>
1

>  <SCORE.INTER.POLAR>
-2.3734

>  <SCORE.INTER.ROT>
10

>  <SCORE.INTER.SOLV>
11.1885

>  <SCORE.INTER.VDW>
-18.1466

>  <SCORE.INTER.norm>
-0.753859

>  <SCORE.INTRA>
-1.4752

>  <SCORE.INTRA.DIHEDRAL>
0.681364

>  <SCORE.INTRA.DIHEDRAL.0>
7.52971

>  <SCORE.INTRA.POLAR>
0

>  <SCORE.INTRA.POLAR.0>
0

>  <SCORE.INTRA.REPUL>
0

>  <SCORE.INTRA.REPUL.0>
0

>  <SCORE.INTRA.SOLV>
1.03184

>  <SCORE.INTRA.SOLV.lig_0>
-22.1084

>  <SCORE.INTRA.VDW>
-2.33181

>  <SCORE.INTRA.VDW.0>
2.4256

>  <SCORE.INTRA.norm>
-0.0614668

>  <SCORE.RESTR>
0

>  <SCORE.RESTR.CAVITY>
0

>  <SCORE.RESTR.norm>
0

>  <SCORE.SYSTEM>
0

>  <SCORE.SYSTEM.CONST>
0

>  <SCORE.SYSTEM.DIHEDRAL>
0

>  <SCORE.SYSTEM.SOLV>
0

>  <SCORE.SYSTEM.norm>
0

>  <SCORE.heavy>
24

>  <SCORE.norm>
-0.815326

>  <RMSD>
4.652

$$$$
lig.pdb
 OpenBabel11021811453D
libRbt.so/2013.1/901 2013/11/27
 24 24  0  0  0  0  0  0  0  0999 V2000
    7.8553   -2.7834    0.6255 C   0  0  0  0  0  0  0  0  0  0  0  0
    7.0000   -3.9211    0.8130 C   0  0  0  0  0  0  0  0  0  0  0  0
    5.9186   -3.8813    1.6611 C   0  0  0  0  0  0  0  0  0  0  0  0
    5.5812   -2.6999    2.3957 C   0  0  0  0  0  0  0  0  0  0  0  0
    6.4557   -1.5754    2.2332 C   0  0  0  0  0  0  0  0  0  0  0  0
    7.5402   -1.6165    1.3930 C   0  0  0  0  0  0  0  0  0  0  0  0
    8.9128   -2.8021   -0.2383 C   0  0  0  0  0  0  0  0  0  0  0  0
    9.8450   -3.7788   -0.2314 N   0  0  0  0  0  0  0  0  0  0  0  0
    4.4581   -1.9226    4.3560 N   0  0  0  0  0  0  0  0  0  0  0  0
    4.4903   -2.6378    3.2116 C   0  0  0  0  0  0  0  0  0  0  0  0
    9.1042   -1.8393   -1.1740 N   0  0  0  0  0  0  0  0  0  0  0  0
    3.3384   -3.2959    2.9397 N   0  0  0  0  0  0  0  0  0  0  0  0
    9.6475   -2.0236   -2.5183 C   0  0  0  0  0  0  0  0  0  0  0  0
    2.0157   -2.9694    3.4635 C   0  0  0  0  0  0  0  0  0  0  0  0
   11.1561   -1.7331   -2.4648 C   0  0  0  0  0  0  0  0  0  0  0  0
    1.0763   -2.7375    2.2654 C   0  0  0  0  0  0  0  0  0  0  0  0
   11.4226   -0.2224   -2.4138 C   0  0  0  0  0  0  0  0  0  0  0  0
    1.4068   -1.4477    1.4927 C   0  0  0  0  0  0  0  0  0  0  0  0
   12.7182    0.0788   -3.1228 N   0  0  0  0  0  0  0  0  0  0  0  0
    0.3504   -1.1328    0.4639 N   0  0  0  0  0  0  0  0  0  0  0  0
   13.8751   -0.4694   -2.3325 C   0  0  0  0  0  0  0  0  0  0  0  0
    0.7475    0.1181   -0.2730 C   0  0  0  0  0  0  0  0  0  0  0  0
   12.8945    1.5650   -3.3128 C   0  0  0  0  0  0  0  0  0  0  0  0
   -1.0029   -0.9248    1.0846 C   0  0  0  0  0  0  0  0  0  0  0  0
  1  6  2  0  0  0  0
  2  3  2  0  0  0  0
  2  1  1  0  0  0  0
  3  4  1  0  0  0  0
  4 10  1  0  0  0  0
  4  5  2  0  0  0  0
  6  5  1  0  0  0  0
  7  1  1  0  0  0  0
  7 11  1  0  0  0  0
  8  7  2  0  0  0  0
  9 10  2  0  0  0  0
 10 12  1  0  0  0  0
 12 14  1  0  0  0  0
 13 11  1  0  0  0  0
 13 15  1  0  0  0  0
 14 16  1  0  0  0  0
 16 18  1  0  0  0  0
 17 15  1  0  0  0  0
 17 19  1  0  0  0  0
 18 20  1  0  0  0  0
 19 23  1  0  0  0  0
 20 22  1  0  0  0  0
 20 24  1  0  0  0  0
 21 19  1  0  0  0  0
M  END
>  <CHROM.1>
145.83689853,-50.63484771,123.18781762,-94.81793525,-76.95138206,-69.62608390
-171.16449675,-147.91279956,-68.83419077,-178.79282069,6.53493894,-1.81783734
0.37994286,-0.37148506,-0.18027301,2.25829804

>  <Name>
lig.pdb

>  <RI>
1.39428e+07

>  <Rbt.Current_Directory>
/home/itssahil/PROJECTS/Mol_Feturizer/New_Systems/rnas/2l94

>  <Rbt.Executable>
rbdock ($Id: //depot/dev/client3/rdock/2013.1/src/exe/rbdock.cxx#4 $)

>  <Rbt.Library>
libRbt.so (2013.1, Build901 2013/11/27)

>  <Rbt.Parameter_File>
/export/apps/rDock/src/rDock_2013.1_src/data/scripts/dock_solv.prm

>  <Rbt.Receptor>
prm/pocket_docking_8.prm

>  <SCORE>
-19.8827

>  <SCORE.INTER>
-24.8052

>  <SCORE.INTER.CONST>
1

>  <SCORE.INTER.POLAR>
-3.5166

>  <SCORE.INTER.ROT>
10

>  <SCORE.INTER.SOLV>
11.2112

>  <SCORE.INTER.VDW>
-18.8185

>  <SCORE.INTER.norm>
-1.03355

>  <SCORE.INTRA>
4.92253

>  <SCORE.INTRA.DIHEDRAL>
13.8447

>  <SCORE.INTRA.DIHEDRAL.0>
7.52971

>  <SCORE.INTRA.POLAR>
0

>  <SCORE.INTRA.POLAR.0>
0

>  <SCORE.INTRA.REPUL>
0

>  <SCORE.INTRA.REPUL.0>
0

>  <SCORE.INTRA.SOLV>
0.296082

>  <SCORE.INTRA.SOLV.lig_0>
-22.1084

>  <SCORE.INTRA.VDW>
-2.14788

>  <SCORE.INTRA.VDW.0>
2.4256

>  <SCORE.INTRA.norm>
0.205105

>  <SCORE.RESTR>
0

>  <SCORE.RESTR.CAVITY>
0

>  <SCORE.RESTR.norm>
0

>  <SCORE.SYSTEM>
0

>  <SCORE.SYSTEM.CONST>
0

>  <SCORE.SYSTEM.DIHEDRAL>
0

>  <SCORE.SYSTEM.SOLV>
0

>  <SCORE.SYSTEM.norm>
0

>  <SCORE.heavy>
24

>  <SCORE.norm>
-0.828445

>  <RMSD>
4.687

$$$$
lig.pdb
 OpenBabel11021811453D
libRbt.so/2013.1/901 2013/11/27
 24 24  0  0  0  0  0  0  0  0999 V2000
    6.0771    2.4260    1.2513 C   0  0  0  0  0  0  0  0  0  0  0  0
    6.8785    1.3969    1.8512 C   0  0  0  0  0  0  0  0  0  0  0  0
    8.1373    1.0971    1.3867 C   0  0  0  0  0  0  0  0  0  0  0  0
    8.7210    1.8016    0.2857 C   0  0  0  0  0  0  0  0  0  0  0  0
    7.9065    2.8058   -0.3338 C   0  0  0  0  0  0  0  0  0  0  0  0
    6.6466    3.1005    0.1240 C   0  0  0  0  0  0  0  0  0  0  0  0
    4.8388    2.7534    1.7248 C   0  0  0  0  0  0  0  0  0  0  0  0
    4.1132    3.7774    1.2268 N   0  0  0  0  0  0  0  0  0  0  0  0
   10.4672    1.9961   -1.3333 N   0  0  0  0  0  0  0  0  0  0  0  0
    9.9824    1.5373   -0.1600 C   0  0  0  0  0  0  0  0  0  0  0  0
    4.2413    2.0694    2.7318 N   0  0  0  0  0  0  0  0  0  0  0  0
   10.8611    0.7842    0.5433 N   0  0  0  0  0  0  0  0  0  0  0  0
    2.8140    1.7857    2.8684 C   0  0  0  0  0  0  0  0  0  0  0  0
   12.3140    0.8003    0.4037 C   0  0  0  0  0  0  0  0  0  0  0  0
    2.5993    0.2882    2.5956 C   0  0  0  0  0  0  0  0  0  0  0  0
   12.8708    1.8589    1.3738 C   0  0  0  0  0  0  0  0  0  0  0  0
    2.8577   -0.0433    1.1193 C   0  0  0  0  0  0  0  0  0  0  0  0
   14.2794    1.5106    1.8880 C   0  0  0  0  0  0  0  0  0  0  0  0
    2.6108   -1.5122    0.8884 N   0  0  0  0  0  0  0  0  0  0  0  0
   14.2692    0.2547    2.7223 N   0  0  0  0  0  0  0  0  0  0  0  0
    3.2627   -1.9464   -0.3962 C   0  0  0  0  0  0  0  0  0  0  0  0
   15.4220    0.3043    3.6888 C   0  0  0  0  0  0  0  0  0  0  0  0
    1.1323   -1.8065    0.8300 C   0  0  0  0  0  0  0  0  0  0  0  0
   14.3894   -0.9863    1.8824 C   0  0  0  0  0  0  0  0  0  0  0  0
  1  6  2  0  0  0  0
  2  3  2  0  0  0  0
  2  1  1  0  0  0  0
  3  4  1  0  0  0  0
  4 10  1  0  0  0  0
  4  5  2  0  0  0  0
  6  5  1  0  0  0  0
  7  1  1  0  0  0  0
  7 11  1  0  0  0  0
  8  7  2  0  0  0  0
  9 10  2  0  0  0  0
 10 12  1  0  0  0  0
 12 14  1  0  0  0  0
 13 11  1  0  0  0  0
 13 15  1  0  0  0  0
 14 16  1  0  0  0  0
 16 18  1  0  0  0  0
 17 15  1  0  0  0  0
 17 19  1  0  0  0  0
 18 20  1  0  0  0  0
 19 23  1  0  0  0  0
 20 22  1  0  0  0  0
 20 24  1  0  0  0  0
 21 19  1  0  0  0  0
M  END
>  <CHROM.1>
167.19089410,175.45165797,89.87199657,108.07201618,-68.68765719,149.67015805
-64.61222617,-178.90438289,-161.98689938,-153.71130252,7.83888238,1.03413982
1.22980620,3.11283240,0.03584396,3.00141700

>  <Name>
lig.pdb

>  <RI>
1.71133e+07

>  <Rbt.Current_Directory>
/home/itssahil/PROJECTS/Mol_Feturizer/New_Systems/rnas/2l94

>  <Rbt.Executable>
rbdock ($Id: //depot/dev/client3/rdock/2013.1/src/exe/rbdock.cxx#4 $)

>  <Rbt.Library>
libRbt.so (2013.1, Build901 2013/11/27)

>  <Rbt.Parameter_File>
/export/apps/rDock/src/rDock_2013.1_src/data/scripts/dock_solv.prm

>  <Rbt.Receptor>
prm/pocket_docking_5.prm

>  <SCORE>
-13.7961

>  <SCORE.INTER>
-13.3358

>  <SCORE.INTER.CONST>
1

>  <SCORE.INTER.POLAR>
-1.97452

>  <SCORE.INTER.ROT>
10

>  <SCORE.INTER.SOLV>
7.25694

>  <SCORE.INTER.VDW>
-14.9945

>  <SCORE.INTER.norm>
-0.555659

>  <SCORE.INTRA>
-0.460248

>  <SCORE.INTRA.DIHEDRAL>
3.24369

>  <SCORE.INTRA.DIHEDRAL.0>
7.52971

>  <SCORE.INTRA.POLAR>
0

>  <SCORE.INTRA.POLAR.0>
0

>  <SCORE.INTRA.REPUL>
0

>  <SCORE.INTRA.REPUL.0>
0

>  <SCORE.INTRA.SOLV>
0.405329

>  <SCORE.INTRA.SOLV.lig_0>
-22.1084

>  <SCORE.INTRA.VDW>
-2.28476

>  <SCORE.INTRA.VDW.0>
2.4256

>  <SCORE.INTRA.norm>
-0.019177

>  <SCORE.RESTR>
0

>  <SCORE.RESTR.CAVITY>
0

>  <SCORE.RESTR.norm>
0

>  <SCORE.SYSTEM>
0

>  <SCORE.SYSTEM.CONST>
0

>  <SCORE.SYSTEM.DIHEDRAL>
0

>  <SCORE.SYSTEM.SOLV>
0

>  <SCORE.SYSTEM.norm>
0

>  <SCORE.heavy>
24

>  <SCORE.norm>
-0.574836

>  <RMSD>
4.698

$$$$
lig.pdb
 OpenBabel11021811453D
libRbt.so/2013.1/901 2013/11/27
 24 24  0  0  0  0  0  0  0  0999 V2000
    6.1225   -4.2850   -0.3733 C   0  0  0  0  0  0  0  0  0  0  0  0
    5.9459   -3.2283   -1.3289 C   0  0  0  0  0  0  0  0  0  0  0  0
    7.0105   -2.6727   -1.9983 C   0  0  0  0  0  0  0  0  0  0  0  0
    8.3521   -3.1248   -1.7859 C   0  0  0  0  0  0  0  0  0  0  0  0
    8.5306   -4.1568   -0.8067 C   0  0  0  0  0  0  0  0  0  0  0  0
    7.4694   -4.7066   -0.1319 C   0  0  0  0  0  0  0  0  0  0  0  0
    5.0691   -4.8654    0.2734 C   0  0  0  0  0  0  0  0  0  0  0  0
    5.1843   -6.0146    0.9729 N   0  0  0  0  0  0  0  0  0  0  0  0
    9.2875   -1.6575   -3.4231 N   0  0  0  0  0  0  0  0  0  0  0  0
    9.4111   -2.6061   -2.4707 C   0  0  0  0  0  0  0  0  0  0  0  0
    3.8246   -4.3268    0.2647 N   0  0  0  0  0  0  0  0  0  0  0  0
   10.6867   -3.0046   -2.2513 N   0  0  0  0  0  0  0  0  0  0  0  0
    2.8567   -4.3465    1.3598 C   0  0  0  0  0  0  0  0  0  0  0  0
   11.8928   -2.2485   -2.5742 C   0  0  0  0  0  0  0  0  0  0  0  0
    1.6242   -3.5406    0.9187 C   0  0  0  0  0  0  0  0  0  0  0  0
   12.6726   -2.0204   -1.2659 C   0  0  0  0  0  0  0  0  0  0  0  0
    1.9347   -2.0378    0.8840 C   0  0  0  0  0  0  0  0  0  0  0  0
   13.8995   -1.1104   -1.4568 C   0  0  0  0  0  0  0  0  0  0  0  0
    0.7152   -1.2883    0.4120 N   0  0  0  0  0  0  0  0  0  0  0  0
   14.8836   -1.2634   -0.3248 N   0  0  0  0  0  0  0  0  0  0  0  0
    1.0763    0.1404    0.1088 C   0  0  0  0  0  0  0  0  0  0  0  0
   14.3075   -0.6232    0.9096 C   0  0  0  0  0  0  0  0  0  0  0  0
   -0.3751   -1.3242    1.4541 C   0  0  0  0  0  0  0  0  0  0  0  0
   16.2085   -0.6236   -0.6334 C   0  0  0  0  0  0  0  0  0  0  0  0
  1  6  2  0  0  0  0
  2  3  2  0  0  0  0
  2  1  1  0  0  0  0
  3  4  1  0  0  0  0
  4 10  1  0  0  0  0
  4  5  2  0  0  0  0
  6  5  1  0  0  0  0
  7  1  1  0  0  0  0
  7 11  1  0  0  0  0
  8  7  2  0  0  0  0
  9 10  2  0  0  0  0
 10 12  1  0  0  0  0
 12 14  1  0  0  0  0
 13 11  1  0  0  0  0
 13 15  1  0  0  0  0
 14 16  1  0  0  0  0
 16 18  1  0  0  0  0
 17 15  1  0  0  0  0
 17 19  1  0  0  0  0
 18 20  1  0  0  0  0
 19 23  1  0  0  0  0
 20 22  1  0  0  0  0
 20 24  1  0  0  0  0
 21 19  1  0  0  0  0
M  END
>  <CHROM.1>
-1.79767551,167.01867403,120.48175384,176.60929707,-71.99381101,-174.31494446
-161.04620203,178.47215599,-168.73823745,-71.87938410,7.45043956,-2.66114931
-0.53260338,-3.04086373,0.15020201,-0.02946088

>  <Name>
lig.pdb

>  <RI>
2.48096e+07

>  <Rbt.Current_Directory>
/home/itssahil/PROJECTS/Mol_Feturizer/New_Systems/rnas/2l94

>  <Rbt.Executable>
rbdock ($Id: //depot/dev/client3/rdock/2013.1/src/exe/rbdock.cxx#4 $)

>  <Rbt.Library>
libRbt.so (2013.1, Build901 2013/11/27)

>  <Rbt.Parameter_File>
/export/apps/rDock/src/rDock_2013.1_src/data/scripts/dock_solv.prm

>  <Rbt.Receptor>
prm/pocket_docking_6.prm

>  <SCORE>
-27.88

>  <SCORE.INTER>
-27.2217

>  <SCORE.INTER.CONST>
1

>  <SCORE.INTER.POLAR>
-4.16114

>  <SCORE.INTER.ROT>
10

>  <SCORE.INTER.SOLV>
14.4215

>  <SCORE.INTER.VDW>
-19.3512

>  <SCORE.INTER.norm>
-1.13424

>  <SCORE.INTRA>
-0.658252

>  <SCORE.INTRA.DIHEDRAL>
0.465768

>  <SCORE.INTRA.DIHEDRAL.0>
7.52971

>  <SCORE.INTRA.POLAR>
0

>  <SCORE.INTRA.POLAR.0>
0

>  <SCORE.INTRA.REPUL>
0

>  <SCORE.INTRA.REPUL.0>
0

>  <SCORE.INTRA.SOLV>
-0.148635

>  <SCORE.INTRA.SOLV.lig_0>
-22.1084

>  <SCORE.INTRA.VDW>
-0.816819

>  <SCORE.INTRA.VDW.0>
2.4256

>  <SCORE.INTRA.norm>
-0.0274272

>  <SCORE.RESTR>
0

>  <SCORE.RESTR.CAVITY>
0

>  <SCORE.RESTR.norm>
0

>  <SCORE.SYSTEM>
0

>  <SCORE.SYSTEM.CONST>
0

>  <SCORE.SYSTEM.DIHEDRAL>
0

>  <SCORE.SYSTEM.SOLV>
0

>  <SCORE.SYSTEM.norm>
0

>  <SCORE.heavy>
24

>  <SCORE.norm>
-1.16167

>  <RMSD>
4.706

$$$$
lig.pdb
 OpenBabel11021811453D
libRbt.so/2013.1/901 2013/11/27
 24 24  0  0  0  0  0  0  0  0999 V2000
    4.2800    1.1574    1.6823 C   0  0  0  0  0  0  0  0  0  0  0  0
    4.2472   -0.1200    2.3367 C   0  0  0  0  0  0  0  0  0  0  0  0
    5.1981   -1.0825    2.0928 C   0  0  0  0  0  0  0  0  0  0  0  0
    6.2784   -0.8593    1.1804 C   0  0  0  0  0  0  0  0  0  0  0  0
    6.2909    0.4041    0.5025 C   0  0  0  0  0  0  0  0  0  0  0  0
    5.3376    1.3626    0.7391 C   0  0  0  0  0  0  0  0  0  0  0  0
    3.3590    2.1318    1.9410 C   0  0  0  0  0  0  0  0  0  0  0  0
    3.6838    3.4394    2.0299 N   0  0  0  0  0  0  0  0  0  0  0  0
    7.6141   -2.7152    1.8731 N   0  0  0  0  0  0  0  0  0  0  0  0
    7.2473   -1.7929    0.9583 C   0  0  0  0  0  0  0  0  0  0  0  0
    2.0435    1.8584    2.1248 N   0  0  0  0  0  0  0  0  0  0  0  0
    7.9294   -1.8719   -0.2090 N   0  0  0  0  0  0  0  0  0  0  0  0
    0.9130    2.6855    1.7074 C   0  0  0  0  0  0  0  0  0  0  0  0
    8.6340   -3.0449   -0.7170 C   0  0  0  0  0  0  0  0  0  0  0  0
    0.9861    2.8546    0.1813 C   0  0  0  0  0  0  0  0  0  0  0  0
    7.8946   -3.5319   -1.9771 C   0  0  0  0  0  0  0  0  0  0  0  0
    0.4825    1.5941   -0.5353 C   0  0  0  0  0  0  0  0  0  0  0  0
    6.4041   -3.8170   -1.7182 C   0  0  0  0  0  0  0  0  0  0  0  0
    1.5616    0.5421   -0.5098 N   0  0  0  0  0  0  0  0  0  0  0  0
    5.6051   -3.7890   -2.9966 N   0  0  0  0  0  0  0  0  0  0  0  0
    1.9392    0.1601   -1.9151 C   0  0  0  0  0  0  0  0  0  0  0  0
    4.1407   -3.7341   -2.6530 C   0  0  0  0  0  0  0  0  0  0  0  0
    1.1010   -0.6827    0.2410 C   0  0  0  0  0  0  0  0  0  0  0  0
    5.8606   -4.9980   -3.8528 C   0  0  0  0  0  0  0  0  0  0  0  0
  1  6  2  0  0  0  0
  2  3  2  0  0  0  0
  2  1  1  0  0  0  0
  3  4  1  0  0  0  0
  4 10  1  0  0  0  0
  4  5  2  0  0  0  0
  6  5  1  0  0  0  0
  7  1  1  0  0  0  0
  7 11  1  0  0  0  0
  8  7  2  0  0  0  0
  9 10  2  0  0  0  0
 10 12  1  0  0  0  0
 12 14  1  0  0  0  0
 13 11  1  0  0  0  0
 13 15  1  0  0  0  0
 14 16  1  0  0  0  0
 16 18  1  0  0  0  0
 17 15  1  0  0  0  0
 17 19  1  0  0  0  0
 18 20  1  0  0  0  0
 19 23  1  0  0  0  0
 20 22  1  0  0  0  0
 20 24  1  0  0  0  0
 21 19  1  0  0  0  0
M  END
>  <CHROM.1>
-27.42404719,140.46183675,113.03523860,59.46404628,77.78064413,-55.63878209
158.90746099,-78.37329547,-120.44850305,-166.23985182,4.51536181,-0.61127114
0.04871745,-2.34363027,0.41463666,-2.33179478

>  <Name>
lig.pdb

>  <RI>
0

>  <Rbt.Current_Directory>
/home/itssahil/PROJECTS/Mol_Feturizer/New_Systems/rnas/2l94

>  <Rbt.Executable>
rbdock ($Id: //depot/dev/client3/rdock/2013.1/src/exe/rbdock.cxx#4 $)

>  <Rbt.Library>
libRbt.so (2013.1, Build901 2013/11/27)

>  <Rbt.Parameter_File>
/export/apps/rDock/src/rDock_2013.1_src/data/scripts/dock_solv.prm

>  <Rbt.Receptor>
prm/pocket_docking_4.prm

>  <SCORE>
-17.1794

>  <SCORE.INTER>
-19.4953

>  <SCORE.INTER.CONST>
1

>  <SCORE.INTER.POLAR>
-3.34941

>  <SCORE.INTER.ROT>
10

>  <SCORE.INTER.SOLV>
10.1144

>  <SCORE.INTER.VDW>
-15.4703

>  <SCORE.INTER.norm>
-0.812304

>  <SCORE.INTRA>
2.3159

>  <SCORE.INTRA.DIHEDRAL>
13.046

>  <SCORE.INTRA.DIHEDRAL.0>
7.52971

>  <SCORE.INTRA.POLAR>
0

>  <SCORE.INTRA.POLAR.0>
0

>  <SCORE.INTRA.REPUL>
0

>  <SCORE.INTRA.REPUL.0>
0

>  <SCORE.INTRA.SOLV>
1.7341

>  <SCORE.INTRA.SOLV.lig_0>
-22.1084

>  <SCORE.INTRA.VDW>
-5.07415

>  <SCORE.INTRA.VDW.0>
2.4256

>  <SCORE.INTRA.norm>
0.0964957

>  <SCORE.RESTR>
0

>  <SCORE.RESTR.CAVITY>
0

>  <SCORE.RESTR.norm>
0

>  <SCORE.SYSTEM>
0

>  <SCORE.SYSTEM.CONST>
0

>  <SCORE.SYSTEM.DIHEDRAL>
0

>  <SCORE.SYSTEM.SOLV>
0

>  <SCORE.SYSTEM.norm>
0

>  <SCORE.heavy>
24

>  <SCORE.norm>
-0.715808

>  <RMSD>
4.707

$$$$
lig.pdb
 OpenBabel11021811453D
libRbt.so/2013.1/901 2013/11/27
 24 24  0  0  0  0  0  0  0  0999 V2000
    8.1030   -3.6307   -0.0725 C   0  0  0  0  0  0  0  0  0  0  0  0
    6.8539   -4.2501    0.2696 C   0  0  0  0  0  0  0  0  0  0  0  0
    6.0438   -3.7466    1.2598 C   0  0  0  0  0  0  0  0  0  0  0  0
    6.3975   -2.5714    1.9967 C   0  0  0  0  0  0  0  0  0  0  0  0
    7.6609   -1.9734    1.6771 C   0  0  0  0  0  0  0  0  0  0  0  0
    8.4741   -2.4798    0.6944 C   0  0  0  0  0  0  0  0  0  0  0  0
    8.8997   -4.1038   -1.0755 C   0  0  0  0  0  0  0  0  0  0  0  0
    8.5070   -5.0794   -1.9223 N   0  0  0  0  0  0  0  0  0  0  0  0
    5.9158   -0.9648    3.6983 N   0  0  0  0  0  0  0  0  0  0  0  0
    5.5850   -2.0424    2.9557 C   0  0  0  0  0  0  0  0  0  0  0  0
   10.1484   -3.6245   -1.2995 N   0  0  0  0  0  0  0  0  0  0  0  0
    4.3679   -2.5603    3.2465 N   0  0  0  0  0  0  0  0  0  0  0  0
   10.7987   -3.4540   -2.5972 C   0  0  0  0  0  0  0  0  0  0  0  0
    3.2661   -1.8577    3.8969 C   0  0  0  0  0  0  0  0  0  0  0  0
   11.6210   -2.1561   -2.5494 C   0  0  0  0  0  0  0  0  0  0  0  0
    2.0724   -1.8460    2.9240 C   0  0  0  0  0  0  0  0  0  0  0  0
   10.7037   -0.9275   -2.4779 C   0  0  0  0  0  0  0  0  0  0  0  0
    0.9388   -0.9127    3.3862 C   0  0  0  0  0  0  0  0  0  0  0  0
   10.2889   -0.5340   -3.8725 N   0  0  0  0  0  0  0  0  0  0  0  0
   -0.2436   -0.9736    2.4525 N   0  0  0  0  0  0  0  0  0  0  0  0
   10.0606    0.9516   -3.9401 C   0  0  0  0  0  0  0  0  0  0  0  0
    0.1187   -0.2843    1.1644 C   0  0  0  0  0  0  0  0  0  0  0  0
    9.0312   -1.2583   -4.2842 C   0  0  0  0  0  0  0  0  0  0  0  0
   -1.4616   -0.3119    3.0343 C   0  0  0  0  0  0  0  0  0  0  0  0
  1  6  2  0  0  0  0
  2  3  2  0  0  0  0
  2  1  1  0  0  0  0
  3  4  1  0  0  0  0
  4 10  1  0  0  0  0
  4  5  2  0  0  0  0
  6  5  1  0  0  0  0
  7  1  1  0  0  0  0
  7 11  1  0  0  0  0
  8  7  2  0  0  0  0
  9 10  2  0  0  0  0
 10 12  1  0  0  0  0
 12 14  1  0  0  0  0
 13 11  1  0  0  0  0
 13 15  1  0  0  0  0
 14 16  1  0  0  0  0
 16 18  1  0  0  0  0
 17 15  1  0  0  0  0
 17 19  1  0  0  0  0
 18 20  1  0  0  0  0
 19 23  1  0  0  0  0
 20 22  1  0  0  0  0
 20 24  1  0  0  0  0
 21 19  1  0  0  0  0
M  END
>  <CHROM.1>
177.50059588,8.23332713,119.36489958,142.03308011,-68.58159057,-169.38176944
-177.14108664,-85.20812288,-149.72491951,-71.79774622,6.37807559,-2.06412158
0.32139172,-0.36195182,-0.44429475,2.24726456

>  <Name>
lig.pdb

>  <RI>
2.48096e+07

>  <Rbt.Current_Directory>
/home/itssahil/PROJECTS/Mol_Feturizer/New_Systems/rnas/2l94

>  <Rbt.Executable>
rbdock ($Id: //depot/dev/client3/rdock/2013.1/src/exe/rbdock.cxx#4 $)

>  <Rbt.Library>
libRbt.so (2013.1, Build901 2013/11/27)

>  <Rbt.Parameter_File>
/export/apps/rDock/src/rDock_2013.1_src/data/scripts/dock_solv.prm

>  <Rbt.Receptor>
prm/pocket_docking_6.prm

>  <SCORE>
-25.2901

>  <SCORE.INTER>
-24.6236

>  <SCORE.INTER.CONST>
1

>  <SCORE.INTER.POLAR>
-3.41567

>  <SCORE.INTER.ROT>
10

>  <SCORE.INTER.SOLV>
17.304

>  <SCORE.INTER.VDW>
-21.0648

>  <SCORE.INTER.norm>
-1.02598

>  <SCORE.INTRA>
-0.666485

>  <SCORE.INTRA.DIHEDRAL>
2.42892

>  <SCORE.INTRA.DIHEDRAL.0>
7.52971

>  <SCORE.INTRA.POLAR>
0

>  <SCORE.INTRA.POLAR.0>
0

>  <SCORE.INTRA.REPUL>
0

>  <SCORE.INTRA.REPUL.0>
0

>  <SCORE.INTRA.SOLV>
0.213975

>  <SCORE.INTRA.SOLV.lig_0>
-22.1084

>  <SCORE.INTRA.VDW>
-1.98793

>  <SCORE.INTRA.VDW.0>
2.4256

>  <SCORE.INTRA.norm>
-0.0277702

>  <SCORE.RESTR>
0

>  <SCORE.RESTR.CAVITY>
0

>  <SCORE.RESTR.norm>
0

>  <SCORE.SYSTEM>
0

>  <SCORE.SYSTEM.CONST>
0

>  <SCORE.SYSTEM.DIHEDRAL>
0

>  <SCORE.SYSTEM.SOLV>
0

>  <SCORE.SYSTEM.norm>
0

>  <SCORE.heavy>
24

>  <SCORE.norm>
-1.05375

>  <RMSD>
4.707

$$$$
lig.pdb
 OpenBabel11021811453D
libRbt.so/2013.1/901 2013/11/27
 24 24  0  0  0  0  0  0  0  0999 V2000
    7.7904   -3.9790   -0.0308 C   0  0  0  0  0  0  0  0  0  0  0  0
    6.7926   -4.9348    0.3589 C   0  0  0  0  0  0  0  0  0  0  0  0
    5.8362   -4.6388    1.3011 C   0  0  0  0  0  0  0  0  0  0  0  0
    5.7774   -3.3578    1.9375 C   0  0  0  0  0  0  0  0  0  0  0  0
    6.7949   -2.4160    1.5720 C   0  0  0  0  0  0  0  0  0  0  0  0
    7.7551   -2.7132    0.6374 C   0  0  0  0  0  0  0  0  0  0  0  0
    8.7250   -4.2516   -0.9884 C   0  0  0  0  0  0  0  0  0  0  0  0
    8.5509   -5.2041   -1.9295 N   0  0  0  0  0  0  0  0  0  0  0  0
    4.0996   -3.9647    3.5265 N   0  0  0  0  0  0  0  0  0  0  0  0
    4.8115   -3.0411    2.8465 C   0  0  0  0  0  0  0  0  0  0  0  0
    9.9008   -3.5807   -1.0686 N   0  0  0  0  0  0  0  0  0  0  0  0
    4.4819   -1.7617    3.1438 N   0  0  0  0  0  0  0  0  0  0  0  0
   10.6170   -3.2163   -2.2894 C   0  0  0  0  0  0  0  0  0  0  0  0
    3.8213   -1.3035    4.3621 C   0  0  0  0  0  0  0  0  0  0  0  0
   10.7411   -1.6846   -2.3280 C   0  0  0  0  0  0  0  0  0  0  0  0
    2.5017   -0.6209    3.9567 C   0  0  0  0  0  0  0  0  0  0  0  0
   11.6923   -1.1832   -1.2326 C   0  0  0  0  0  0  0  0  0  0  0  0
    1.4527   -1.6193    3.4345 C   0  0  0  0  0  0  0  0  0  0  0  0
   13.1114   -1.2520   -1.7357 N   0  0  0  0  0  0  0  0  0  0  0  0
    1.6572   -1.9226    1.9718 N   0  0  0  0  0  0  0  0  0  0  0  0
   14.0711   -1.0951   -0.5878 C   0  0  0  0  0  0  0  0  0  0  0  0
    1.0009   -0.8419    1.1552 C   0  0  0  0  0  0  0  0  0  0  0  0
   13.3707   -0.1774   -2.7624 C   0  0  0  0  0  0  0  0  0  0  0  0
    1.0745   -3.2520    1.5804 C   0  0  0  0  0  0  0  0  0  0  0  0
  1  6  2  0  0  0  0
  2  3  2  0  0  0  0
  2  1  1  0  0  0  0
  3  4  1  0  0  0  0
  4 10  1  0  0  0  0
  4  5  2  0  0  0  0
  6  5  1  0  0  0  0
  7  1  1  0  0  0  0
  7 11  1  0  0  0  0
  8  7  2  0  0  0  0
  9 10  2  0  0  0  0
 10 12  1  0  0  0  0
 12 14  1  0  0  0  0
 13 11  1  0  0  0  0
 13 15  1  0  0  0  0
 14 16  1  0  0  0  0
 16 18  1  0  0  0  0
 17 15  1  0  0  0  0
 17 19  1  0  0  0  0
 18 20  1  0  0  0  0
 19 23  1  0  0  0  0
 20 22  1  0  0  0  0
 20 24  1  0  0  0  0
 21 19  1  0  0  0  0
M  END
>  <CHROM.1>
20.83195332,22.19603015,-120.34746480,119.87463111,68.77984637,70.24614089
-83.87578033,84.84579734,-166.08526663,-83.27929804,6.94565503,-2.55270141
0.67987162,0.16589302,-0.41629271,-2.71229833

>  <Name>
lig.pdb

>  <RI>
9.7521e+06

>  <Rbt.Current_Directory>
/home/itssahil/PROJECTS/Mol_Feturizer/New_Systems/rnas/2l94

>  <Rbt.Executable>
rbdock ($Id: //depot/dev/client3/rdock/2013.1/src/exe/rbdock.cxx#4 $)

>  <Rbt.Library>
libRbt.so (2013.1, Build901 2013/11/27)

>  <Rbt.Parameter_File>
/export/apps/rDock/src/rDock_2013.1_src/data/scripts/dock_solv.prm

>  <Rbt.Receptor>
prm/pocket_docking_7.prm

>  <SCORE>
-25.2092

>  <SCORE.INTER>
-25.7333

>  <SCORE.INTER.CONST>
1

>  <SCORE.INTER.POLAR>
-3.27659

>  <SCORE.INTER.ROT>
10

>  <SCORE.INTER.SOLV>
15.1978

>  <SCORE.INTER.VDW>
-21.5662

>  <SCORE.INTER.norm>
-1.07222

>  <SCORE.INTRA>
0.524075

>  <SCORE.INTRA.DIHEDRAL>
6.96155

>  <SCORE.INTRA.DIHEDRAL.0>
7.52971

>  <SCORE.INTRA.POLAR>
0

>  <SCORE.INTRA.POLAR.0>
0

>  <SCORE.INTRA.REPUL>
0

>  <SCORE.INTRA.REPUL.0>
0

>  <SCORE.INTRA.SOLV>
1.87296

>  <SCORE.INTRA.SOLV.lig_0>
-22.1084

>  <SCORE.INTRA.VDW>
-3.89318

>  <SCORE.INTRA.VDW.0>
2.4256

>  <SCORE.INTRA.norm>
0.0218365

>  <SCORE.RESTR>
0

>  <SCORE.RESTR.CAVITY>
0

>  <SCORE.RESTR.norm>
0

>  <SCORE.SYSTEM>
0

>  <SCORE.SYSTEM.CONST>
0

>  <SCORE.SYSTEM.DIHEDRAL>
0

>  <SCORE.SYSTEM.SOLV>
0

>  <SCORE.SYSTEM.norm>
0

>  <SCORE.heavy>
24

>  <SCORE.norm>
-1.05038

>  <RMSD>
4.743

$$$$
lig.pdb
 OpenBabel11021811453D
libRbt.so/2013.1/901 2013/11/27
 24 24  0  0  0  0  0  0  0  0999 V2000
    5.9396   -3.3111    2.0120 C   0  0  0  0  0  0  0  0  0  0  0  0
    5.8423   -4.5104    1.2290 C   0  0  0  0  0  0  0  0  0  0  0  0
    6.7366   -4.7926    0.2237 C   0  0  0  0  0  0  0  0  0  0  0  0
    7.8195   -3.9104   -0.0902 C   0  0  0  0  0  0  0  0  0  0  0  0
    7.8955   -2.6972    0.6701 C   0  0  0  0  0  0  0  0  0  0  0  0
    6.9985   -2.4105    1.6685 C   0  0  0  0  0  0  0  0  0  0  0  0
    5.0760   -3.0364    3.0335 C   0  0  0  0  0  0  0  0  0  0  0  0
    5.1582   -1.9131    3.7781 N   0  0  0  0  0  0  0  0  0  0  0  0
    8.5784   -5.1966   -1.9551 N   0  0  0  0  0  0  0  0  0  0  0  0
    8.7335   -4.1976   -1.0606 C   0  0  0  0  0  0  0  0  0  0  0  0
    4.0646   -3.8727    3.3752 N   0  0  0  0  0  0  0  0  0  0  0  0
    9.8842   -3.4989   -1.2077 N   0  0  0  0  0  0  0  0  0  0  0  0
    2.7375   -3.4891    3.8525 C   0  0  0  0  0  0  0  0  0  0  0  0
   10.6910   -3.4141   -2.4212 C   0  0  0  0  0  0  0  0  0  0  0  0
    2.0791   -2.6145    2.7734 C   0  0  0  0  0  0  0  0  0  0  0  0
   10.5916   -1.9732   -2.9556 C   0  0  0  0  0  0  0  0  0  0  0  0
    0.8227   -1.9220    3.3193 C   0  0  0  0  0  0  0  0  0  0  0  0
   11.2707   -0.9481   -2.0294 C   0  0  0  0  0  0  0  0  0  0  0  0
    0.2500   -1.0197    2.2565 N   0  0  0  0  0  0  0  0  0  0  0  0
   11.1075    0.4587   -2.5469 N   0  0  0  0  0  0  0  0  0  0  0  0
    1.1540    0.1644    2.0467 C   0  0  0  0  0  0  0  0  0  0  0  0
   12.0769    1.3568   -1.8264 C   0  0  0  0  0  0  0  0  0  0  0  0
   -1.1281   -0.5420    2.6420 C   0  0  0  0  0  0  0  0  0  0  0  0
    9.7130    0.9812   -2.3418 C   0  0  0  0  0  0  0  0  0  0  0  0
  1  6  2  0  0  0  0
  2  3  2  0  0  0  0
  2  1  1  0  0  0  0
  3  4  1  0  0  0  0
  4 10  1  0  0  0  0
  4  5  2  0  0  0  0
  6  5  1  0  0  0  0
  7  1  1  0  0  0  0
  7 11  1  0  0  0  0
  8  7  2  0  0  0  0
  9 10  2  0  0  0  0
 10 12  1  0  0  0  0
 12 14  1  0  0  0  0
 13 11  1  0  0  0  0
 13 15  1  0  0  0  0
 14 16  1  0  0  0  0
 16 18  1  0  0  0  0
 17 15  1  0  0  0  0
 17 19  1  0  0  0  0
 18 20  1  0  0  0  0
 19 23  1  0  0  0  0
 20 22  1  0  0  0  0
 20 24  1  0  0  0  0
 21 19  1  0  0  0  0
M  END
>  <CHROM.1>
11.87603987,179.91349533,111.71651989,58.98196457,-167.55002989,67.49055660
-177.58804701,177.02627316,-70.29924776,-165.14647361,6.39833464,-2.27954347
0.58136536,-2.99918309,0.49002889,-0.22747577

>  <Name>
lig.pdb

>  <RI>
1.39428e+07

>  <Rbt.Current_Directory>
/home/itssahil/PROJECTS/Mol_Feturizer/New_Systems/rnas/2l94

>  <Rbt.Executable>
rbdock ($Id: //depot/dev/client3/rdock/2013.1/src/exe/rbdock.cxx#4 $)

>  <Rbt.Library>
libRbt.so (2013.1, Build901 2013/11/27)

>  <Rbt.Parameter_File>
/export/apps/rDock/src/rDock_2013.1_src/data/scripts/dock_solv.prm

>  <Rbt.Receptor>
prm/pocket_docking_8.prm

>  <SCORE>
-18.5577

>  <SCORE.INTER>
-16.3552

>  <SCORE.INTER.CONST>
1

>  <SCORE.INTER.POLAR>
-2.19

>  <SCORE.INTER.ROT>
10

>  <SCORE.INTER.SOLV>
15.6805

>  <SCORE.INTER.VDW>
-19.097

>  <SCORE.INTER.norm>
-0.681467

>  <SCORE.INTRA>
-2.20252

>  <SCORE.INTRA.DIHEDRAL>
-0.563427

>  <SCORE.INTRA.DIHEDRAL.0>
7.52971

>  <SCORE.INTRA.POLAR>
0

>  <SCORE.INTRA.POLAR.0>
0

>  <SCORE.INTRA.REPUL>
0

>  <SCORE.INTRA.REPUL.0>
0

>  <SCORE.INTRA.SOLV>
0.198613

>  <SCORE.INTRA.SOLV.lig_0>
-22.1084

>  <SCORE.INTRA.VDW>
-2.02011

>  <SCORE.INTRA.VDW.0>
2.4256

>  <SCORE.INTRA.norm>
-0.0917715

>  <SCORE.RESTR>
0

>  <SCORE.RESTR.CAVITY>
0

>  <SCORE.RESTR.norm>
0

>  <SCORE.SYSTEM>
0

>  <SCORE.SYSTEM.CONST>
0

>  <SCORE.SYSTEM.DIHEDRAL>
0

>  <SCORE.SYSTEM.SOLV>
0

>  <SCORE.SYSTEM.norm>
0

>  <SCORE.heavy>
24

>  <SCORE.norm>
-0.773239

>  <RMSD>
4.759

$$$$
lig.pdb
 OpenBabel11021811453D
libRbt.so/2013.1/901 2013/11/27
 24 24  0  0  0  0  0  0  0  0999 V2000
    4.4380   -3.5271    1.8948 C   0  0  0  0  0  0  0  0  0  0  0  0
    5.5939   -4.3623    2.0606 C   0  0  0  0  0  0  0  0  0  0  0  0
    6.5531   -4.4727    1.0820 C   0  0  0  0  0  0  0  0  0  0  0  0
    6.4562   -3.7530   -0.1517 C   0  0  0  0  0  0  0  0  0  0  0  0
    5.2847   -2.9457   -0.3297 C   0  0  0  0  0  0  0  0  0  0  0  0
    4.3225   -2.8410    0.6434 C   0  0  0  0  0  0  0  0  0  0  0  0
    3.4957   -3.3855    2.8729 C   0  0  0  0  0  0  0  0  0  0  0  0
    3.2470   -4.3425    3.7924 N   0  0  0  0  0  0  0  0  0  0  0  0
    7.1510   -3.8102   -2.4369 N   0  0  0  0  0  0  0  0  0  0  0  0
    7.4195   -3.8267   -1.1141 C   0  0  0  0  0  0  0  0  0  0  0  0
    2.7391   -2.2669    2.9970 N   0  0  0  0  0  0  0  0  0  0  0  0
    8.7377   -3.9251   -0.8199 N   0  0  0  0  0  0  0  0  0  0  0  0
    2.2786   -1.6577    4.2432 C   0  0  0  0  0  0  0  0  0  0  0  0
    9.8457   -3.5727   -1.7023 C   0  0  0  0  0  0  0  0  0  0  0  0
    2.9550   -0.2839    4.3785 C   0  0  0  0  0  0  0  0  0  0  0  0
    9.8750   -2.0387   -1.8355 C   0  0  0  0  0  0  0  0  0  0  0  0
    2.5775    0.3852    5.7073 C   0  0  0  0  0  0  0  0  0  0  0  0
   10.2471   -1.5729   -3.2547 C   0  0  0  0  0  0  0  0  0  0  0  0
    1.1163    0.7539    5.6816 N   0  0  0  0  0  0  0  0  0  0  0  0
   10.0296   -0.0906   -3.4256 N   0  0  0  0  0  0  0  0  0  0  0  0
    0.8931    1.9015    4.7347 C   0  0  0  0  0  0  0  0  0  0  0  0
    9.6215    0.1796   -4.8489 C   0  0  0  0  0  0  0  0  0  0  0  0
    0.6331    1.1337    7.0594 C   0  0  0  0  0  0  0  0  0  0  0  0
   11.2664    0.7048   -3.1130 C   0  0  0  0  0  0  0  0  0  0  0  0
  1  6  2  0  0  0  0
  2  3  2  0  0  0  0
  2  1  1  0  0  0  0
  3  4  1  0  0  0  0
  4 10  1  0  0  0  0
  4  5  2  0  0  0  0
  6  5  1  0  0  0  0
  7  1  1  0  0  0  0
  7 11  1  0  0  0  0
  8  7  2  0  0  0  0
  9 10  2  0  0  0  0
 10 12  1  0  0  0  0
 12 14  1  0  0  0  0
 13 11  1  0  0  0  0
 13 15  1  0  0  0  0
 14 16  1  0  0  0  0
 16 18  1  0  0  0  0
 17 15  1  0  0  0  0
 17 19  1  0  0  0  0
 18 20  1  0  0  0  0
 19 23  1  0  0  0  0
 20 22  1  0  0  0  0
 20 24  1  0  0  0  0
 21 19  1  0  0  0  0
M  END
>  <CHROM.1>
143.88751619,-27.43481979,70.69864099,114.40090167,-176.87042192,-142.38104264
169.79986490,-68.18086329,-71.02243614,-147.45132133,5.69534633,-1.91028818
1.00649313,2.99939078,0.78675229,0.02917319

>  <Name>
lig.pdb

>  <RI>
1.39428e+07

>  <Rbt.Current_Directory>
/home/itssahil/PROJECTS/Mol_Feturizer/New_Systems/rnas/2l94

>  <Rbt.Executable>
rbdock ($Id: //depot/dev/client3/rdock/2013.1/src/exe/rbdock.cxx#4 $)

>  <Rbt.Library>
libRbt.so (2013.1, Build901 2013/11/27)

>  <Rbt.Parameter_File>
/export/apps/rDock/src/rDock_2013.1_src/data/scripts/dock_solv.prm

>  <Rbt.Receptor>
prm/pocket_docking_8.prm

>  <SCORE>
-13.0202

>  <SCORE.INTER>
-15.8508

>  <SCORE.INTER.CONST>
1

>  <SCORE.INTER.POLAR>
-2.48619

>  <SCORE.INTER.ROT>
10

>  <SCORE.INTER.SOLV>
10.753

>  <SCORE.INTER.VDW>
-16.1309

>  <SCORE.INTER.norm>
-0.660452

>  <SCORE.INTRA>
2.83063

>  <SCORE.INTRA.DIHEDRAL>
11.2503

>  <SCORE.INTRA.DIHEDRAL.0>
7.52971

>  <SCORE.INTRA.POLAR>
0

>  <SCORE.INTRA.POLAR.0>
0

>  <SCORE.INTRA.REPUL>
0

>  <SCORE.INTRA.REPUL.0>
0

>  <SCORE.INTRA.SOLV>
0.0289365

>  <SCORE.INTRA.SOLV.lig_0>
-22.1084

>  <SCORE.INTRA.VDW>
-2.80901

>  <SCORE.INTRA.VDW.0>
2.4256

>  <SCORE.INTRA.norm>
0.117943

>  <SCORE.RESTR>
0

>  <SCORE.RESTR.CAVITY>
0

>  <SCORE.RESTR.norm>
0

>  <SCORE.SYSTEM>
0

>  <SCORE.SYSTEM.CONST>
0

>  <SCORE.SYSTEM.DIHEDRAL>
0

>  <SCORE.SYSTEM.SOLV>
0

>  <SCORE.SYSTEM.norm>
0

>  <SCORE.heavy>
24

>  <SCORE.norm>
-0.542509

>  <RMSD>
4.764

$$$$
lig.pdb
 OpenBabel11021811453D
libRbt.so/2013.1/901 2013/11/27
 24 24  0  0  0  0  0  0  0  0999 V2000
    9.8180   -2.4700   -2.8002 C   0  0  0  0  0  0  0  0  0  0  0  0
    8.9980   -1.7470   -3.7308 C   0  0  0  0  0  0  0  0  0  0  0  0
    7.6420   -1.9574   -3.8155 C   0  0  0  0  0  0  0  0  0  0  0  0
    6.9727   -2.9017   -2.9731 C   0  0  0  0  0  0  0  0  0  0  0  0
    7.7978   -3.6470   -2.0679 C   0  0  0  0  0  0  0  0  0  0  0  0
    9.1528   -3.4437   -1.9881 C   0  0  0  0  0  0  0  0  0  0  0  0
   11.1602   -2.2461   -2.6857 C   0  0  0  0  0  0  0  0  0  0  0  0
   11.8568   -1.5086   -3.5768 N   0  0  0  0  0  0  0  0  0  0  0  0
    5.0034   -4.1623   -2.4821 N   0  0  0  0  0  0  0  0  0  0  0  0
    5.6233   -3.0923   -3.0233 C   0  0  0  0  0  0  0  0  0  0  0  0
   11.8960   -2.7463   -1.6623 N   0  0  0  0  0  0  0  0  0  0  0  0
    4.7855   -2.2164   -3.6273 N   0  0  0  0  0  0  0  0  0  0  0  0
   13.0273   -2.0983   -1.0016 C   0  0  0  0  0  0  0  0  0  0  0  0
    3.3552   -2.0768   -3.3718 C   0  0  0  0  0  0  0  0  0  0  0  0
   12.6233   -0.6507   -0.6790 C   0  0  0  0  0  0  0  0  0  0  0  0
    3.1510   -0.8276   -2.4946 C   0  0  0  0  0  0  0  0  0  0  0  0
   13.7809    0.1072   -0.0146 C   0  0  0  0  0  0  0  0  0  0  0  0
    3.7625   -0.9817   -1.0903 C   0  0  0  0  0  0  0  0  0  0  0  0
   14.9532    0.1545   -0.9609 N   0  0  0  0  0  0  0  0  0  0  0  0
    3.4996    0.2325   -0.2358 N   0  0  0  0  0  0  0  0  0  0  0  0
   15.9470   -0.9160   -0.6007 C   0  0  0  0  0  0  0  0  0  0  0  0
    4.4355    1.3339   -0.6557 C   0  0  0  0  0  0  0  0  0  0  0  0
   15.6255    1.5044   -0.9173 C   0  0  0  0  0  0  0  0  0  0  0  0
    3.7012   -0.0480    1.2273 C   0  0  0  0  0  0  0  0  0  0  0  0
  1  6  2  0  0  0  0
  2  3  2  0  0  0  0
  2  1  1  0  0  0  0
  3  4  1  0  0  0  0
  4 10  1  0  0  0  0
  4  5  2  0  0  0  0
  6  5  1  0  0  0  0
  7  1  1  0  0  0  0
  7 11  1  0  0  0  0
  8  7  2  0  0  0  0
  9 10  2  0  0  0  0
 10 12  1  0  0  0  0
 12 14  1  0  0  0  0
 13 11  1  0  0  0  0
 13 15  1  0  0  0  0
 14 16  1  0  0  0  0
 16 18  1  0  0  0  0
 17 15  1  0  0  0  0
 17 19  1  0  0  0  0
 18 20  1  0  0  0  0
 19 23  1  0  0  0  0
 20 22  1  0  0  0  0
 20 24  1  0  0  0  0
 21 19  1  0  0  0  0
M  END
>  <CHROM.1>
164.33180388,-11.61290042,102.88649665,47.39602460,-178.46239083,-65.96179722
-177.69871031,61.19209525,-98.94050754,-76.92237105,8.71041144,-1.46361229
-1.84460351,-0.10191291,0.00281198,-2.44841816

>  <Name>
lig.pdb

>  <RI>
1.09765e+07

>  <Rbt.Current_Directory>
/home/itssahil/PROJECTS/Mol_Feturizer/New_Systems/rnas/2l94

>  <Rbt.Executable>
rbdock ($Id: //depot/dev/client3/rdock/2013.1/src/exe/rbdock.cxx#4 $)

>  <Rbt.Library>
libRbt.so (2013.1, Build901 2013/11/27)

>  <Rbt.Parameter_File>
/export/apps/rDock/src/rDock_2013.1_src/data/scripts/dock_solv.prm

>  <Rbt.Receptor>
prm/pocket_docking_3.prm

>  <SCORE>
-8.24675

>  <SCORE.INTER>
-9.33533

>  <SCORE.INTER.CONST>
1

>  <SCORE.INTER.POLAR>
-2.27982

>  <SCORE.INTER.ROT>
10

>  <SCORE.INTER.SOLV>
10.6766

>  <SCORE.INTER.VDW>
-12.4497

>  <SCORE.INTER.norm>
-0.388972

>  <SCORE.INTRA>
-0.402698

>  <SCORE.INTRA.DIHEDRAL>
2.27226

>  <SCORE.INTRA.DIHEDRAL.0>
7.52971

>  <SCORE.INTRA.POLAR>
0

>  <SCORE.INTRA.POLAR.0>
0

>  <SCORE.INTRA.REPUL>
0.0116384

>  <SCORE.INTRA.REPUL.0>
0

>  <SCORE.INTRA.SOLV>
0.637478

>  <SCORE.INTRA.SOLV.lig_0>
-22.1084

>  <SCORE.INTRA.VDW>
-1.91576

>  <SCORE.INTRA.VDW.0>
2.4256

>  <SCORE.INTRA.norm>
-0.0167791

>  <SCORE.RESTR>
1.49128

>  <SCORE.RESTR.CAVITY>
1.49128

>  <SCORE.RESTR.norm>
0.0621368

>  <SCORE.SYSTEM>
0

>  <SCORE.SYSTEM.CONST>
0

>  <SCORE.SYSTEM.DIHEDRAL>
0

>  <SCORE.SYSTEM.SOLV>
0

>  <SCORE.SYSTEM.norm>
0

>  <SCORE.heavy>
24

>  <SCORE.norm>
-0.343614

>  <RMSD>
4.768

$$$$
lig.pdb
 OpenBabel11021811453D
libRbt.so/2013.1/901 2013/11/27
 24 24  0  0  0  0  0  0  0  0999 V2000
    4.8294   -2.7207    2.0750 C   0  0  0  0  0  0  0  0  0  0  0  0
    3.9164   -1.7053    1.6318 C   0  0  0  0  0  0  0  0  0  0  0  0
    2.9064   -1.2381    2.4391 C   0  0  0  0  0  0  0  0  0  0  0  0
    2.7166   -1.7320    3.7693 C   0  0  0  0  0  0  0  0  0  0  0  0
    3.6080   -2.7698    4.1984 C   0  0  0  0  0  0  0  0  0  0  0  0
    4.6116   -3.2426    3.3904 C   0  0  0  0  0  0  0  0  0  0  0  0
    5.8553   -3.1689    1.2931 C   0  0  0  0  0  0  0  0  0  0  0  0
    6.9245   -3.8234    1.7946 N   0  0  0  0  0  0  0  0  0  0  0  0
    1.4529   -1.7866    5.7962 N   0  0  0  0  0  0  0  0  0  0  0  0
    1.7412   -1.2502    4.5915 C   0  0  0  0  0  0  0  0  0  0  0  0
    5.8751   -2.9929   -0.0515 N   0  0  0  0  0  0  0  0  0  0  0  0
    0.9723   -0.1846    4.2639 N   0  0  0  0  0  0  0  0  0  0  0  0
    6.4058   -3.9229   -1.0463 C   0  0  0  0  0  0  0  0  0  0  0  0
    0.2405    0.6683    5.1953 C   0  0  0  0  0  0  0  0  0  0  0  0
    7.9243   -3.7030   -1.1395 C   0  0  0  0  0  0  0  0  0  0  0  0
    0.7698    2.1057    5.0364 C   0  0  0  0  0  0  0  0  0  0  0  0
    8.2438   -2.3353   -1.7587 C   0  0  0  0  0  0  0  0  0  0  0  0
    0.7215    2.5986    3.5789 C   0  0  0  0  0  0  0  0  0  0  0  0
    9.6172   -2.3778   -2.3782 N   0  0  0  0  0  0  0  0  0  0  0  0
   -0.6829    2.5687    3.0308 N   0  0  0  0  0  0  0  0  0  0  0  0
   10.6668   -2.3764   -1.3003 C   0  0  0  0  0  0  0  0  0  0  0  0
   -0.6259    2.7541    1.5382 C   0  0  0  0  0  0  0  0  0  0  0  0
    9.8310   -1.1980   -3.2939 C   0  0  0  0  0  0  0  0  0  0  0  0
   -1.5472    3.6463    3.6239 C   0  0  0  0  0  0  0  0  0  0  0  0
  1  6  2  0  0  0  0
  2  3  2  0  0  0  0
  2  1  1  0  0  0  0
  3  4  1  0  0  0  0
  4 10  1  0  0  0  0
  4  5  2  0  0  0  0
  6  5  1  0  0  0  0
  7  1  1  0  0  0  0
  7 11  1  0  0  0  0
  8  7  2  0  0  0  0
  9 10  2  0  0  0  0
 10 12  1  0  0  0  0
 12 14  1  0  0  0  0
 13 11  1  0  0  0  0
 13 15  1  0  0  0  0
 14 16  1  0  0  0  0
 16 18  1  0  0  0  0
 17 15  1  0  0  0  0
 17 19  1  0  0  0  0
 18 20  1  0  0  0  0
 19 23  1  0  0  0  0
 20 22  1  0  0  0  0
 20 24  1  0  0  0  0
 21 19  1  0  0  0  0
M  END
>  <CHROM.1>
173.10045854,160.98201620,119.89965582,-83.10793957,-68.37563709,53.69504547
58.94199596,-155.62382438,-73.25500438,-167.25070655,4.05655516,-1.13334978
1.88371670,-0.04287716,-0.67947410,2.40632111

>  <Name>
lig.pdb

>  <RI>
1.39428e+07

>  <Rbt.Current_Directory>
/home/itssahil/PROJECTS/Mol_Feturizer/New_Systems/rnas/2l94

>  <Rbt.Executable>
rbdock ($Id: //depot/dev/client3/rdock/2013.1/src/exe/rbdock.cxx#4 $)

>  <Rbt.Library>
libRbt.so (2013.1, Build901 2013/11/27)

>  <Rbt.Parameter_File>
/export/apps/rDock/src/rDock_2013.1_src/data/scripts/dock_solv.prm

>  <Rbt.Receptor>
prm/pocket_docking_8.prm

>  <SCORE>
-17.2255

>  <SCORE.INTER>
-17.9301

>  <SCORE.INTER.CONST>
1

>  <SCORE.INTER.POLAR>
-3.02389

>  <SCORE.INTER.ROT>
10

>  <SCORE.INTER.SOLV>
7.69798

>  <SCORE.INTER.VDW>
-14.7064

>  <SCORE.INTER.norm>
-0.747086

>  <SCORE.INTRA>
0.704604

>  <SCORE.INTRA.DIHEDRAL>
1.97464

>  <SCORE.INTRA.DIHEDRAL.0>
7.52971

>  <SCORE.INTRA.POLAR>
0

>  <SCORE.INTRA.POLAR.0>
0

>  <SCORE.INTRA.REPUL>
0

>  <SCORE.INTRA.REPUL.0>
0

>  <SCORE.INTRA.SOLV>
0.979084

>  <SCORE.INTRA.SOLV.lig_0>
-22.1084

>  <SCORE.INTRA.VDW>
-0.772257

>  <SCORE.INTRA.VDW.0>
2.4256

>  <SCORE.INTRA.norm>
0.0293585

>  <SCORE.RESTR>
0

>  <SCORE.RESTR.CAVITY>
0

>  <SCORE.RESTR.norm>
0

>  <SCORE.SYSTEM>
0

>  <SCORE.SYSTEM.CONST>
0

>  <SCORE.SYSTEM.DIHEDRAL>
0

>  <SCORE.SYSTEM.SOLV>
0

>  <SCORE.SYSTEM.norm>
0

>  <SCORE.heavy>
24

>  <SCORE.norm>
-0.717727

>  <RMSD>
4.769

$$$$
lig.pdb
 OpenBabel11021811453D
libRbt.so/2013.1/901 2013/11/27
 24 24  0  0  0  0  0  0  0  0999 V2000
   10.3677   -2.1640   -2.9072 C   0  0  0  0  0  0  0  0  0  0  0  0
    9.7529   -1.6858   -4.1132 C   0  0  0  0  0  0  0  0  0  0  0  0
    8.3934   -1.7510   -4.3072 C   0  0  0  0  0  0  0  0  0  0  0  0
    7.5161   -2.2903   -3.3129 C   0  0  0  0  0  0  0  0  0  0  0  0
    8.1347   -2.7983   -2.1233 C   0  0  0  0  0  0  0  0  0  0  0  0
    9.4925   -2.7411   -1.9319 C   0  0  0  0  0  0  0  0  0  0  0  0
   11.7131   -2.0748   -2.6910 C   0  0  0  0  0  0  0  0  0  0  0  0
   12.5657   -1.5497   -3.5967 N   0  0  0  0  0  0  0  0  0  0  0  0
    5.5661   -2.4728   -4.6814 N   0  0  0  0  0  0  0  0  0  0  0  0
    6.1631   -2.3267   -3.4795 C   0  0  0  0  0  0  0  0  0  0  0  0
   12.2952   -2.5051   -1.5442 N   0  0  0  0  0  0  0  0  0  0  0  0
    5.2979   -2.2165   -2.4435 N   0  0  0  0  0  0  0  0  0  0  0  0
   13.4385   -1.8993   -0.8644 C   0  0  0  0  0  0  0  0  0  0  0  0
    3.9108   -2.6707   -2.4279 C   0  0  0  0  0  0  0  0  0  0  0  0
   12.9001   -0.9922    0.2537 C   0  0  0  0  0  0  0  0  0  0  0  0
    3.0305   -1.5204   -2.9509 C   0  0  0  0  0  0  0  0  0  0  0  0
   11.7430   -0.1215   -0.2552 C   0  0  0  0  0  0  0  0  0  0  0  0
    3.1154   -0.2602   -2.0708 C   0  0  0  0  0  0  0  0  0  0  0  0
   11.2939    0.8035    0.8468 N   0  0  0  0  0  0  0  0  0  0  0  0
    2.1292    0.7912   -2.5130 N   0  0  0  0  0  0  0  0  0  0  0  0
    9.8283    1.1080    0.6959 C   0  0  0  0  0  0  0  0  0  0  0  0
    2.5586    2.1234   -1.9596 C   0  0  0  0  0  0  0  0  0  0  0  0
   12.0826    2.0893    0.8246 C   0  0  0  0  0  0  0  0  0  0  0  0
    0.7329    0.4942   -2.0420 C   0  0  0  0  0  0  0  0  0  0  0  0
  1  6  2  0  0  0  0
  2  3  2  0  0  0  0
  2  1  1  0  0  0  0
  3  4  1  0  0  0  0
  4 10  1  0  0  0  0
  4  5  2  0  0  0  0
  6  5  1  0  0  0  0
  7  1  1  0  0  0  0
  7 11  1  0  0  0  0
  8  7  2  0  0  0  0
  9 10  2  0  0  0  0
 10 12  1  0  0  0  0
 12 14  1  0  0  0  0
 13 11  1  0  0  0  0
 13 15  1  0  0  0  0
 14 16  1  0  0  0  0
 16 18  1  0  0  0  0
 17 15  1  0  0  0  0
 17 19  1  0  0  0  0
 18 20  1  0  0  0  0
 19 23  1  0  0  0  0
 20 22  1  0  0  0  0
 20 24  1  0  0  0  0
 21 19  1  0  0  0  0
M  END
>  <CHROM.1>
31.82177622,-0.90997854,-88.87386625,97.00053489,-45.80007648,-61.45759019
-173.50826438,-176.97139196,-150.17515685,-160.91718245,8.04067999,-1.04722028
-2.03014052,-0.08408892,0.16226883,-2.38822358

>  <Name>
lig.pdb

>  <RI>
0

>  <Rbt.Current_Directory>
/home/itssahil/PROJECTS/Mol_Feturizer/New_Systems/rnas/2l94

>  <Rbt.Executable>
rbdock ($Id: //depot/dev/client3/rdock/2013.1/src/exe/rbdock.cxx#4 $)

>  <Rbt.Library>
libRbt.so (2013.1, Build901 2013/11/27)

>  <Rbt.Parameter_File>
/export/apps/rDock/src/rDock_2013.1_src/data/scripts/dock_solv.prm

>  <Rbt.Receptor>
prm/pocket_docking_4.prm

>  <SCORE>
-17.8469

>  <SCORE.INTER>
-17.6064

>  <SCORE.INTER.CONST>
1

>  <SCORE.INTER.POLAR>
-2.76153

>  <SCORE.INTER.ROT>
10

>  <SCORE.INTER.SOLV>
13.1638

>  <SCORE.INTER.VDW>
-17.1871

>  <SCORE.INTER.norm>
-0.733599

>  <SCORE.INTRA>
-0.291041

>  <SCORE.INTRA.DIHEDRAL>
4.26936

>  <SCORE.INTRA.DIHEDRAL.0>
7.52971

>  <SCORE.INTRA.POLAR>
0

>  <SCORE.INTRA.POLAR.0>
0

>  <SCORE.INTRA.REPUL>
0

>  <SCORE.INTRA.REPUL.0>
0

>  <SCORE.INTRA.SOLV>
0.754268

>  <SCORE.INTRA.SOLV.lig_0>
-22.1084

>  <SCORE.INTRA.VDW>
-2.80285

>  <SCORE.INTRA.VDW.0>
2.4256

>  <SCORE.INTRA.norm>
-0.0121267

>  <SCORE.RESTR>
0.0505218

>  <SCORE.RESTR.CAVITY>
0.0505218

>  <SCORE.RESTR.norm>
0.00210507

>  <SCORE.SYSTEM>
0

>  <SCORE.SYSTEM.CONST>
0

>  <SCORE.SYSTEM.DIHEDRAL>
0

>  <SCORE.SYSTEM.SOLV>
0

>  <SCORE.SYSTEM.norm>
0

>  <SCORE.heavy>
24

>  <SCORE.norm>
-0.743621

>  <RMSD>
4.770

$$$$
lig.pdb
 OpenBabel11021811453D
libRbt.so/2013.1/901 2013/11/27
 24 24  0  0  0  0  0  0  0  0999 V2000
    6.7998   -1.2966    1.7402 C   0  0  0  0  0  0  0  0  0  0  0  0
    6.8904   -2.6358    1.2309 C   0  0  0  0  0  0  0  0  0  0  0  0
    7.9665   -3.0550    0.4850 C   0  0  0  0  0  0  0  0  0  0  0  0
    9.0599   -2.1814    0.1840 C   0  0  0  0  0  0  0  0  0  0  0  0
    8.9523   -0.8348    0.6646 C   0  0  0  0  0  0  0  0  0  0  0  0
    7.8747   -0.4130    1.4025 C   0  0  0  0  0  0  0  0  0  0  0  0
    5.7510   -0.8792    2.5087 C   0  0  0  0  0  0  0  0  0  0  0  0
    5.3369    0.4054    2.5447 N   0  0  0  0  0  0  0  0  0  0  0  0
   10.1589   -3.7107   -1.2863 N   0  0  0  0  0  0  0  0  0  0  0  0
   10.1489   -2.5968   -0.5238 C   0  0  0  0  0  0  0  0  0  0  0  0
    5.0416   -1.7280    3.2932 N   0  0  0  0  0  0  0  0  0  0  0  0
   11.3224   -1.9209   -0.5193 N   0  0  0  0  0  0  0  0  0  0  0  0
    3.6072   -1.6709    3.5676 C   0  0  0  0  0  0  0  0  0  0  0  0
   12.3669   -2.0019   -1.5356 C   0  0  0  0  0  0  0  0  0  0  0  0
    2.8893   -2.5442    2.5260 C   0  0  0  0  0  0  0  0  0  0  0  0
   11.9563   -1.0935   -2.7095 C   0  0  0  0  0  0  0  0  0  0  0  0
    3.0132   -1.9371    1.1216 C   0  0  0  0  0  0  0  0  0  0  0  0
   10.6175   -1.5118   -3.3439 C   0  0  0  0  0  0  0  0  0  0  0  0
    2.1290   -0.7203    1.0254 N   0  0  0  0  0  0  0  0  0  0  0  0
   10.1481   -0.5029   -4.3615 N   0  0  0  0  0  0  0  0  0  0  0  0
    0.6855   -1.1389    0.9576 C   0  0  0  0  0  0  0  0  0  0  0  0
    9.6091    0.7019   -3.6381 C   0  0  0  0  0  0  0  0  0  0  0  0
    2.4752    0.1013   -0.1916 C   0  0  0  0  0  0  0  0  0  0  0  0
    9.0741   -1.0559   -5.2562 C   0  0  0  0  0  0  0  0  0  0  0  0
  1  6  2  0  0  0  0
  2  3  2  0  0  0  0
  2  1  1  0  0  0  0
  3  4  1  0  0  0  0
  4 10  1  0  0  0  0
  4  5  2  0  0  0  0
  6  5  1  0  0  0  0
  7  1  1  0  0  0  0
  7 11  1  0  0  0  0
  8  7  2  0  0  0  0
  9 10  2  0  0  0  0
 10 12  1  0  0  0  0
 12 14  1  0  0  0  0
 13 11  1  0  0  0  0
 13 15  1  0  0  0  0
 14 16  1  0  0  0  0
 16 18  1  0  0  0  0
 17 15  1  0  0  0  0
 17 19  1  0  0  0  0
 18 20  1  0  0  0  0
 19 23  1  0  0  0  0
 20 22  1  0  0  0  0
 20 24  1  0  0  0  0
 21 19  1  0  0  0  0
M  END
>  <CHROM.1>
17.74209506,-151.93865252,80.98487355,91.74407186,-67.07183633,-60.02025011
172.29511250,-72.87609229,-73.03167364,-75.35481539,7.20756327,-1.39940812
-0.05529981,-2.63895323,0.20055049,-1.27684660

>  <Name>
lig.pdb

>  <RI>
1.71133e+07

>  <Rbt.Current_Directory>
/home/itssahil/PROJECTS/Mol_Feturizer/New_Systems/rnas/2l94

>  <Rbt.Executable>
rbdock ($Id: //depot/dev/client3/rdock/2013.1/src/exe/rbdock.cxx#4 $)

>  <Rbt.Library>
libRbt.so (2013.1, Build901 2013/11/27)

>  <Rbt.Parameter_File>
/export/apps/rDock/src/rDock_2013.1_src/data/scripts/dock_solv.prm

>  <Rbt.Receptor>
prm/pocket_docking_5.prm

>  <SCORE>
-15.1858

>  <SCORE.INTER>
-14.7517

>  <SCORE.INTER.CONST>
1

>  <SCORE.INTER.POLAR>
-2.16924

>  <SCORE.INTER.ROT>
10

>  <SCORE.INTER.SOLV>
10.8228

>  <SCORE.INTER.VDW>
-16.4779

>  <SCORE.INTER.norm>
-0.614652

>  <SCORE.INTRA>
-0.944478

>  <SCORE.INTRA.DIHEDRAL>
3.42458

>  <SCORE.INTRA.DIHEDRAL.0>
7.52971

>  <SCORE.INTRA.POLAR>
0

>  <SCORE.INTRA.POLAR.0>
0

>  <SCORE.INTRA.REPUL>
0

>  <SCORE.INTRA.REPUL.0>
0

>  <SCORE.INTRA.SOLV>
1.6694

>  <SCORE.INTRA.SOLV.lig_0>
-22.1084

>  <SCORE.INTRA.VDW>
-3.49147

>  <SCORE.INTRA.VDW.0>
2.4256

>  <SCORE.INTRA.norm>
-0.0393533

>  <SCORE.RESTR>
0.510367

>  <SCORE.RESTR.CAVITY>
0.510367

>  <SCORE.RESTR.norm>
0.0212653

>  <SCORE.SYSTEM>
0

>  <SCORE.SYSTEM.CONST>
0

>  <SCORE.SYSTEM.DIHEDRAL>
0

>  <SCORE.SYSTEM.SOLV>
0

>  <SCORE.SYSTEM.norm>
0

>  <SCORE.heavy>
24

>  <SCORE.norm>
-0.63274

>  <RMSD>
4.844

$$$$
lig.pdb
 OpenBabel11021811453D
libRbt.so/2013.1/901 2013/11/27
 24 24  0  0  0  0  0  0  0  0999 V2000
    6.5076   -4.0860   -0.0886 C   0  0  0  0  0  0  0  0  0  0  0  0
    7.7492   -4.7863   -0.2589 C   0  0  0  0  0  0  0  0  0  0  0  0
    8.7542   -4.2936   -1.0573 C   0  0  0  0  0  0  0  0  0  0  0  0
    8.6208   -3.0503   -1.7542 C   0  0  0  0  0  0  0  0  0  0  0  0
    7.3676   -2.3687   -1.6100 C   0  0  0  0  0  0  0  0  0  0  0  0
    6.3605   -2.8637   -0.8197 C   0  0  0  0  0  0  0  0  0  0  0  0
    5.5156   -4.5504    0.7269 C   0  0  0  0  0  0  0  0  0  0  0  0
    5.5158   -5.7995    1.2396 N   0  0  0  0  0  0  0  0  0  0  0  0
    9.4291   -1.5877   -3.4618 N   0  0  0  0  0  0  0  0  0  0  0  0
    9.6246   -2.5344   -2.5196 C   0  0  0  0  0  0  0  0  0  0  0  0
    4.4540   -3.7875    1.0874 N   0  0  0  0  0  0  0  0  0  0  0  0
   10.9128   -2.9339   -2.3979 N   0  0  0  0  0  0  0  0  0  0  0  0
    3.7674   -3.8001    2.3776 C   0  0  0  0  0  0  0  0  0  0  0  0
   12.0913   -2.1800   -2.8143 C   0  0  0  0  0  0  0  0  0  0  0  0
    3.3473   -2.3584    2.7061 C   0  0  0  0  0  0  0  0  0  0  0  0
   12.7238   -1.5577   -1.5556 C   0  0  0  0  0  0  0  0  0  0  0  0
    2.7161   -2.2754    4.1028 C   0  0  0  0  0  0  0  0  0  0  0  0
   11.7693   -0.5962   -0.8247 C   0  0  0  0  0  0  0  0  0  0  0  0
    2.0823   -0.9198    4.2830 N   0  0  0  0  0  0  0  0  0  0  0  0
   12.4557    0.0978    0.3245 N   0  0  0  0  0  0  0  0  0  0  0  0
    3.1449    0.1131    4.5425 C   0  0  0  0  0  0  0  0  0  0  0  0
   12.4997   -0.8394    1.5015 C   0  0  0  0  0  0  0  0  0  0  0  0
    1.0997   -0.9333    5.4276 C   0  0  0  0  0  0  0  0  0  0  0  0
   11.7468    1.3595    0.7314 C   0  0  0  0  0  0  0  0  0  0  0  0
  1  6  2  0  0  0  0
  2  3  2  0  0  0  0
  2  1  1  0  0  0  0
  3  4  1  0  0  0  0
  4 10  1  0  0  0  0
  4  5  2  0  0  0  0
  6  5  1  0  0  0  0
  7  1  1  0  0  0  0
  7 11  1  0  0  0  0
  8  7  2  0  0  0  0
  9 10  2  0  0  0  0
 10 12  1  0  0  0  0
 12 14  1  0  0  0  0
 13 11  1  0  0  0  0
 13 15  1  0  0  0  0
 14 16  1  0  0  0  0
 16 18  1  0  0  0  0
 17 15  1  0  0  0  0
 17 19  1  0  0  0  0
 18 20  1  0  0  0  0
 19 23  1  0  0  0  0
 20 22  1  0  0  0  0
 20 24  1  0  0  0  0
 21 19  1  0  0  0  0
M  END
>  <CHROM.1>
161.27580710,-12.31565020,102.29925340,143.59676391,-175.51414775,-60.53232947
-174.54531849,-169.20595958,-76.37240653,-79.91048044,7.50369887,-2.29510815
0.47297220,2.85659371,0.44776813,0.73032046

>  <Name>
lig.pdb

>  <RI>
2.48096e+07

>  <Rbt.Current_Directory>
/home/itssahil/PROJECTS/Mol_Feturizer/New_Systems/rnas/2l94

>  <Rbt.Executable>
rbdock ($Id: //depot/dev/client3/rdock/2013.1/src/exe/rbdock.cxx#4 $)

>  <Rbt.Library>
libRbt.so (2013.1, Build901 2013/11/27)

>  <Rbt.Parameter_File>
/export/apps/rDock/src/rDock_2013.1_src/data/scripts/dock_solv.prm

>  <Rbt.Receptor>
prm/pocket_docking_6.prm

>  <SCORE>
-18.2562

>  <SCORE.INTER>
-16.8858

>  <SCORE.INTER.CONST>
1

>  <SCORE.INTER.POLAR>
-2.68187

>  <SCORE.INTER.ROT>
10

>  <SCORE.INTER.SOLV>
12.0544

>  <SCORE.INTER.VDW>
-16.6024

>  <SCORE.INTER.norm>
-0.703573

>  <SCORE.INTRA>
-1.37044

>  <SCORE.INTRA.DIHEDRAL>
1.39576

>  <SCORE.INTRA.DIHEDRAL.0>
7.52971

>  <SCORE.INTRA.POLAR>
0

>  <SCORE.INTRA.POLAR.0>
0

>  <SCORE.INTRA.REPUL>
0

>  <SCORE.INTRA.REPUL.0>
0

>  <SCORE.INTRA.SOLV>
0.152978

>  <SCORE.INTRA.SOLV.lig_0>
-22.1084

>  <SCORE.INTRA.VDW>
-2.14481

>  <SCORE.INTRA.VDW.0>
2.4256

>  <SCORE.INTRA.norm>
-0.0571016

>  <SCORE.RESTR>
0

>  <SCORE.RESTR.CAVITY>
0

>  <SCORE.RESTR.norm>
0

>  <SCORE.SYSTEM>
0

>  <SCORE.SYSTEM.CONST>
0

>  <SCORE.SYSTEM.DIHEDRAL>
0

>  <SCORE.SYSTEM.SOLV>
0

>  <SCORE.SYSTEM.norm>
0

>  <SCORE.heavy>
24

>  <SCORE.norm>
-0.760675

>  <RMSD>
4.864

$$$$
lig.pdb
 OpenBabel11021811453D
libRbt.so/2013.1/901 2013/11/27
 24 24  0  0  0  0  0  0  0  0999 V2000
    8.0972   -3.6497   -0.0832 C   0  0  0  0  0  0  0  0  0  0  0  0
    6.8503   -4.2707    0.2641 C   0  0  0  0  0  0  0  0  0  0  0  0
    6.0385   -3.7618    1.2501 C   0  0  0  0  0  0  0  0  0  0  0  0
    6.3880   -2.5791    1.9771 C   0  0  0  0  0  0  0  0  0  0  0  0
    7.6492   -1.9793    1.6524 C   0  0  0  0  0  0  0  0  0  0  0  0
    8.4642   -2.4911    0.6739 C   0  0  0  0  0  0  0  0  0  0  0  0
    8.8956   -4.1284   -1.0823 C   0  0  0  0  0  0  0  0  0  0  0  0
    8.5166   -5.1304   -1.9041 N   0  0  0  0  0  0  0  0  0  0  0  0
    5.9130   -0.9783    3.6859 N   0  0  0  0  0  0  0  0  0  0  0  0
    5.5736   -2.0451    2.9316 C   0  0  0  0  0  0  0  0  0  0  0  0
   10.1322   -3.6285   -1.3272 N   0  0  0  0  0  0  0  0  0  0  0  0
    4.3457   -2.5463    3.2057 N   0  0  0  0  0  0  0  0  0  0  0  0
   10.7684   -3.4734   -2.6339 C   0  0  0  0  0  0  0  0  0  0  0  0
    3.2481   -1.8319    3.8501 C   0  0  0  0  0  0  0  0  0  0  0  0
   11.0903   -1.9833   -2.8315 C   0  0  0  0  0  0  0  0  0  0  0  0
    2.0617   -1.8027    2.8685 C   0  0  0  0  0  0  0  0  0  0  0  0
    9.8059   -1.1651   -3.0237 C   0  0  0  0  0  0  0  0  0  0  0  0
    2.3382   -0.9332    1.6286 C   0  0  0  0  0  0  0  0  0  0  0  0
    9.8037   -0.5587   -4.4036 N   0  0  0  0  0  0  0  0  0  0  0  0
    1.1524   -0.9035    0.6978 N   0  0  0  0  0  0  0  0  0  0  0  0
    9.1136    0.7779   -4.3757 C   0  0  0  0  0  0  0  0  0  0  0  0
    1.5688   -0.2636   -0.5993 C   0  0  0  0  0  0  0  0  0  0  0  0
    9.1095   -1.4660   -5.3888 C   0  0  0  0  0  0  0  0  0  0  0  0
   -0.0026   -0.1327    1.2737 C   0  0  0  0  0  0  0  0  0  0  0  0
  1  6  2  0  0  0  0
  2  3  2  0  0  0  0
  2  1  1  0  0  0  0
  3  4  1  0  0  0  0
  4 10  1  0  0  0  0
  4  5  2  0  0  0  0
  6  5  1  0  0  0  0
  7  1  1  0  0  0  0
  7 11  1  0  0  0  0
  8  7  2  0  0  0  0
  9 10  2  0  0  0  0
 10 12  1  0  0  0  0
 12 14  1  0  0  0  0
 13 11  1  0  0  0  0
 13 15  1  0  0  0  0
 14 16  1  0  0  0  0
 16 18  1  0  0  0  0
 17 15  1  0  0  0  0
 17 19  1  0  0  0  0
 18 20  1  0  0  0  0
 19 23  1  0  0  0  0
 20 22  1  0  0  0  0
 20 24  1  0  0  0  0
 21 19  1  0  0  0  0
M  END
>  <CHROM.1>
175.95747089,6.88933810,119.73774819,120.48467560,-69.83609847,-67.73327436
-179.00558822,-116.20773159,-146.79475283,-169.43148552,6.50292621,-2.07705480
-0.12658701,-0.48333199,-0.41508048,2.05833990

>  <Name>
lig.pdb

>  <RI>
2.48096e+07

>  <Rbt.Current_Directory>
/home/itssahil/PROJECTS/Mol_Feturizer/New_Systems/rnas/2l94

>  <Rbt.Executable>
rbdock ($Id: //depot/dev/client3/rdock/2013.1/src/exe/rbdock.cxx#4 $)

>  <Rbt.Library>
libRbt.so (2013.1, Build901 2013/11/27)

>  <Rbt.Parameter_File>
/export/apps/rDock/src/rDock_2013.1_src/data/scripts/dock_solv.prm

>  <Rbt.Receptor>
prm/pocket_docking_6.prm

>  <SCORE>
-23.7183

>  <SCORE.INTER>
-23.9902

>  <SCORE.INTER.CONST>
1

>  <SCORE.INTER.POLAR>
-3.42393

>  <SCORE.INTER.ROT>
10

>  <SCORE.INTER.SOLV>
17.5001

>  <SCORE.INTER.VDW>
-20.6804

>  <SCORE.INTER.norm>
-0.999592

>  <SCORE.INTRA>
0.271861

>  <SCORE.INTRA.DIHEDRAL>
5.81405

>  <SCORE.INTRA.DIHEDRAL.0>
7.52971

>  <SCORE.INTRA.POLAR>
0

>  <SCORE.INTRA.POLAR.0>
0

>  <SCORE.INTRA.REPUL>
0

>  <SCORE.INTRA.REPUL.0>
0

>  <SCORE.INTRA.SOLV>
0.376976

>  <SCORE.INTRA.SOLV.lig_0>
-22.1084

>  <SCORE.INTRA.VDW>
-2.82365

>  <SCORE.INTRA.VDW.0>
2.4256

>  <SCORE.INTRA.norm>
0.0113275

>  <SCORE.RESTR>
0

>  <SCORE.RESTR.CAVITY>
0

>  <SCORE.RESTR.norm>
0

>  <SCORE.SYSTEM>
0

>  <SCORE.SYSTEM.CONST>
0

>  <SCORE.SYSTEM.DIHEDRAL>
0

>  <SCORE.SYSTEM.SOLV>
0

>  <SCORE.SYSTEM.norm>
0

>  <SCORE.heavy>
24

>  <SCORE.norm>
-0.988264

>  <RMSD>
4.901

$$$$
lig.pdb
 OpenBabel11021811453D
libRbt.so/2013.1/901 2013/11/27
 24 24  0  0  0  0  0  0  0  0999 V2000
    7.1198   -3.1192   -3.0664 C   0  0  0  0  0  0  0  0  0  0  0  0
    7.7264   -2.0903   -3.8630 C   0  0  0  0  0  0  0  0  0  0  0  0
    9.0427   -1.7294   -3.6984 C   0  0  0  0  0  0  0  0  0  0  0  0
    9.8827   -2.3670   -2.7303 C   0  0  0  0  0  0  0  0  0  0  0  0
    9.2666   -3.3707   -1.9126 C   0  0  0  0  0  0  0  0  0  0  0  0
    7.9504   -3.7262   -2.0705 C   0  0  0  0  0  0  0  0  0  0  0  0
    5.8226   -3.5073   -3.2434 C   0  0  0  0  0  0  0  0  0  0  0  0
    5.3342   -4.6682   -2.7567 N   0  0  0  0  0  0  0  0  0  0  0  0
   11.8597   -1.2191   -3.4248 N   0  0  0  0  0  0  0  0  0  0  0  0
   11.1990   -2.0423   -2.5834 C   0  0  0  0  0  0  0  0  0  0  0  0
    4.9234   -2.7509   -3.9204 N   0  0  0  0  0  0  0  0  0  0  0  0
   11.9603   -2.5247   -1.5726 N   0  0  0  0  0  0  0  0  0  0  0  0
    3.4997   -2.6099   -3.6213 C   0  0  0  0  0  0  0  0  0  0  0  0
   13.1937   -1.9320   -1.0648 C   0  0  0  0  0  0  0  0  0  0  0  0
    3.0689   -1.1894   -4.0208 C   0  0  0  0  0  0  0  0  0  0  0  0
   12.8173   -0.9400    0.0514 C   0  0  0  0  0  0  0  0  0  0  0  0
    3.2655   -0.2084   -2.8568 C   0  0  0  0  0  0  0  0  0  0  0  0
   11.9020    0.1937   -0.4455 C   0  0  0  0  0  0  0  0  0  0  0  0
    2.1272   -0.3598   -1.8805 N   0  0  0  0  0  0  0  0  0  0  0  0
   11.1921    0.8733    0.6981 N   0  0  0  0  0  0  0  0  0  0  0  0
    1.0025    0.5662   -2.2560 C   0  0  0  0  0  0  0  0  0  0  0  0
   10.0645   -0.0088    1.1628 C   0  0  0  0  0  0  0  0  0  0  0  0
    2.5816   -0.0592   -0.4736 C   0  0  0  0  0  0  0  0  0  0  0  0
   10.6338    2.2125    0.3047 C   0  0  0  0  0  0  0  0  0  0  0  0
  1  6  2  0  0  0  0
  2  3  2  0  0  0  0
  2  1  1  0  0  0  0
  3  4  1  0  0  0  0
  4 10  1  0  0  0  0
  4  5  2  0  0  0  0
  6  5  1  0  0  0  0
  7  1  1  0  0  0  0
  7 11  1  0  0  0  0
  8  7  2  0  0  0  0
  9 10  2  0  0  0  0
 10 12  1  0  0  0  0
 12 14  1  0  0  0  0
 13 11  1  0  0  0  0
 13 15  1  0  0  0  0
 14 16  1  0  0  0  0
 16 18  1  0  0  0  0
 17 15  1  0  0  0  0
 17 19  1  0  0  0  0
 18 20  1  0  0  0  0
 19 23  1  0  0  0  0
 20 22  1  0  0  0  0
 20 24  1  0  0  0  0
 21 19  1  0  0  0  0
M  END
>  <CHROM.1>
-7.95729045,163.03613784,89.47048411,147.95088371,-88.81661250,-60.36611404
161.42530680,-79.03801885,-89.71945523,-76.58105532,7.77186912,-1.47082496
-2.00801716,-2.98026140,-0.13574929,0.64698679

>  <Name>
lig.pdb

>  <RI>
1.71133e+07

>  <Rbt.Current_Directory>
/home/itssahil/PROJECTS/Mol_Feturizer/New_Systems/rnas/2l94

>  <Rbt.Executable>
rbdock ($Id: //depot/dev/client3/rdock/2013.1/src/exe/rbdock.cxx#4 $)

>  <Rbt.Library>
libRbt.so (2013.1, Build901 2013/11/27)

>  <Rbt.Parameter_File>
/export/apps/rDock/src/rDock_2013.1_src/data/scripts/dock_solv.prm

>  <Rbt.Receptor>
prm/pocket_docking_5.prm

>  <SCORE>
-18.209

>  <SCORE.INTER>
-18.9014

>  <SCORE.INTER.CONST>
1

>  <SCORE.INTER.POLAR>
-2.84075

>  <SCORE.INTER.ROT>
10

>  <SCORE.INTER.SOLV>
14.3545

>  <SCORE.INTER.VDW>
-18.1832

>  <SCORE.INTER.norm>
-0.787557

>  <SCORE.INTRA>
0.692347

>  <SCORE.INTRA.DIHEDRAL>
6.18848

>  <SCORE.INTRA.DIHEDRAL.0>
7.52971

>  <SCORE.INTRA.POLAR>
0

>  <SCORE.INTRA.POLAR.0>
0

>  <SCORE.INTRA.REPUL>
0

>  <SCORE.INTRA.REPUL.0>
0

>  <SCORE.INTRA.SOLV>
0.695939

>  <SCORE.INTRA.SOLV.lig_0>
-22.1084

>  <SCORE.INTRA.VDW>
-2.74986

>  <SCORE.INTRA.VDW.0>
2.4256

>  <SCORE.INTRA.norm>
0.0288478

>  <SCORE.RESTR>
0

>  <SCORE.RESTR.CAVITY>
0

>  <SCORE.RESTR.norm>
0

>  <SCORE.SYSTEM>
0

>  <SCORE.SYSTEM.CONST>
0

>  <SCORE.SYSTEM.DIHEDRAL>
0

>  <SCORE.SYSTEM.SOLV>
0

>  <SCORE.SYSTEM.norm>
0

>  <SCORE.heavy>
24

>  <SCORE.norm>
-0.758709

>  <RMSD>
4.955

$$$$
lig.pdb
 OpenBabel11021811453D
libRbt.so/2013.1/901 2013/11/27
 24 24  0  0  0  0  0  0  0  0999 V2000
    6.5178   -3.0885   -1.4405 C   0  0  0  0  0  0  0  0  0  0  0  0
    7.3222   -4.2319   -1.7673 C   0  0  0  0  0  0  0  0  0  0  0  0
    8.6894   -4.1455   -1.8823 C   0  0  0  0  0  0  0  0  0  0  0  0
    9.3862   -2.9126   -1.6726 C   0  0  0  0  0  0  0  0  0  0  0  0
    8.5786   -1.7647   -1.3796 C   0  0  0  0  0  0  0  0  0  0  0  0
    7.2128   -1.8480   -1.2725 C   0  0  0  0  0  0  0  0  0  0  0  0
    5.1627   -3.1699   -1.2925 C   0  0  0  0  0  0  0  0  0  0  0  0
    4.4821   -4.3293   -1.4181 N   0  0  0  0  0  0  0  0  0  0  0  0
   11.4693   -3.3532   -2.7565 N   0  0  0  0  0  0  0  0  0  0  0  0
   10.7448   -2.8232   -1.7483 C   0  0  0  0  0  0  0  0  0  0  0  0
    4.3967   -2.0889   -1.0032 N   0  0  0  0  0  0  0  0  0  0  0  0
   11.4871   -2.1908   -0.8086 N   0  0  0  0  0  0  0  0  0  0  0  0
    3.2041   -2.0643   -0.1587 C   0  0  0  0  0  0  0  0  0  0  0  0
   12.8334   -1.6570   -0.9903 C   0  0  0  0  0  0  0  0  0  0  0  0
    3.3317   -0.8767    0.8089 C   0  0  0  0  0  0  0  0  0  0  0  0
   13.1644   -0.7819    0.2330 C   0  0  0  0  0  0  0  0  0  0  0  0
    4.3403   -1.1836    1.9245 C   0  0  0  0  0  0  0  0  0  0  0  0
   14.5100   -0.0476    0.0912 C   0  0  0  0  0  0  0  0  0  0  0  0
    5.7243   -0.8057    1.4622 N   0  0  0  0  0  0  0  0  0  0  0  0
   15.6750   -0.9906    0.2558 N   0  0  0  0  0  0  0  0  0  0  0  0
    6.7242   -1.8149    1.9574 C   0  0  0  0  0  0  0  0  0  0  0  0
   15.8881   -1.2479    1.7234 C   0  0  0  0  0  0  0  0  0  0  0  0
    6.1017    0.5672    1.9610 C   0  0  0  0  0  0  0  0  0  0  0  0
   16.9426   -0.4354   -0.3315 C   0  0  0  0  0  0  0  0  0  0  0  0
  1  6  2  0  0  0  0
  2  3  2  0  0  0  0
  2  1  1  0  0  0  0
  3  4  1  0  0  0  0
  4 10  1  0  0  0  0
  4  5  2  0  0  0  0
  6  5  1  0  0  0  0
  7  1  1  0  0  0  0
  7 11  1  0  0  0  0
  8  7  2  0  0  0  0
  9 10  2  0  0  0  0
 10 12  1  0  0  0  0
 12 14  1  0  0  0  0
 13 11  1  0  0  0  0
 13 15  1  0  0  0  0
 14 16  1  0  0  0  0
 16 18  1  0  0  0  0
 17 15  1  0  0  0  0
 17 19  1  0  0  0  0
 18 20  1  0  0  0  0
 19 23  1  0  0  0  0
 20 22  1  0  0  0  0
 20 24  1  0  0  0  0
 21 19  1  0  0  0  0
M  END
>  <CHROM.1>
47.20914972,1.19573623,168.54989451,132.85246941,-74.98526214,-174.28386630
-73.47043148,87.32049989,-141.81248224,-79.13034193,8.96936117,-1.93893600
-0.35516784,-3.08759627,0.07701814,0.85097588

>  <Name>
lig.pdb

>  <RI>
0

>  <Rbt.Current_Directory>
/home/itssahil/PROJECTS/Mol_Feturizer/New_Systems/rnas/2l94

>  <Rbt.Executable>
rbdock ($Id: //depot/dev/client3/rdock/2013.1/src/exe/rbdock.cxx#4 $)

>  <Rbt.Library>
libRbt.so (2013.1, Build901 2013/11/27)

>  <Rbt.Parameter_File>
/export/apps/rDock/src/rDock_2013.1_src/data/scripts/dock_solv.prm

>  <Rbt.Receptor>
prm/pocket_docking_4.prm

>  <SCORE>
-16.8788

>  <SCORE.INTER>
-19.4327

>  <SCORE.INTER.CONST>
1

>  <SCORE.INTER.POLAR>
-3.09464

>  <SCORE.INTER.ROT>
10

>  <SCORE.INTER.SOLV>
9.69468

>  <SCORE.INTER.VDW>
-16.1379

>  <SCORE.INTER.norm>
-0.809698

>  <SCORE.INTRA>
2.55396

>  <SCORE.INTRA.DIHEDRAL>
11.4796

>  <SCORE.INTRA.DIHEDRAL.0>
7.52971

>  <SCORE.INTRA.POLAR>
0

>  <SCORE.INTRA.POLAR.0>
0

>  <SCORE.INTRA.REPUL>
0

>  <SCORE.INTRA.REPUL.0>
0

>  <SCORE.INTRA.SOLV>
0.901784

>  <SCORE.INTRA.SOLV.lig_0>
-22.1084

>  <SCORE.INTRA.VDW>
-3.63675

>  <SCORE.INTRA.VDW.0>
2.4256

>  <SCORE.INTRA.norm>
0.106415

>  <SCORE.RESTR>
0

>  <SCORE.RESTR.CAVITY>
0

>  <SCORE.RESTR.norm>
0

>  <SCORE.SYSTEM>
0

>  <SCORE.SYSTEM.CONST>
0

>  <SCORE.SYSTEM.DIHEDRAL>
0

>  <SCORE.SYSTEM.SOLV>
0

>  <SCORE.SYSTEM.norm>
0

>  <SCORE.heavy>
24

>  <SCORE.norm>
-0.703283

>  <RMSD>
4.965

$$$$
lig.pdb
 OpenBabel11021811453D
libRbt.so/2013.1/901 2013/11/27
 24 24  0  0  0  0  0  0  0  0999 V2000
    8.1814   -3.5547   -0.1597 C   0  0  0  0  0  0  0  0  0  0  0  0
    8.4754   -2.3171    0.5058 C   0  0  0  0  0  0  0  0  0  0  0  0
    7.6767   -1.8297    1.5131 C   0  0  0  0  0  0  0  0  0  0  0  0
    6.5139   -2.5352    1.9599 C   0  0  0  0  0  0  0  0  0  0  0  0
    6.2028   -3.7539    1.2717 C   0  0  0  0  0  0  0  0  0  0  0  0
    6.9949   -4.2373    0.2604 C   0  0  0  0  0  0  0  0  0  0  0  0
    8.9853   -4.0636   -1.1392 C   0  0  0  0  0  0  0  0  0  0  0  0
    8.6219   -5.1081   -1.9139 N   0  0  0  0  0  0  0  0  0  0  0  0
    5.9684   -0.9209    3.6347 N   0  0  0  0  0  0  0  0  0  0  0  0
    5.7351   -2.0795    2.9824 C   0  0  0  0  0  0  0  0  0  0  0  0
   10.2120   -3.5532   -1.4110 N   0  0  0  0  0  0  0  0  0  0  0  0
    4.6539   -2.7587    3.4336 N   0  0  0  0  0  0  0  0  0  0  0  0
   10.8415   -3.4456   -2.7257 C   0  0  0  0  0  0  0  0  0  0  0  0
    3.5307   -2.1946    4.1757 C   0  0  0  0  0  0  0  0  0  0  0  0
   11.2446   -1.9779   -2.9405 C   0  0  0  0  0  0  0  0  0  0  0  0
    2.3017   -3.0882    3.9252 C   0  0  0  0  0  0  0  0  0  0  0  0
   12.4956   -1.6270   -2.1234 C   0  0  0  0  0  0  0  0  0  0  0  0
    1.6272   -2.8042    2.5709 C   0  0  0  0  0  0  0  0  0  0  0  0
   12.9561   -0.2392   -2.4891 N   0  0  0  0  0  0  0  0  0  0  0  0
    2.4847   -3.2628    1.4186 N   0  0  0  0  0  0  0  0  0  0  0  0
   14.4322   -0.1037   -2.2315 C   0  0  0  0  0  0  0  0  0  0  0  0
    3.1083   -2.0576    0.7673 C   0  0  0  0  0  0  0  0  0  0  0  0
   12.2066    0.8027   -1.6962 C   0  0  0  0  0  0  0  0  0  0  0  0
    1.6942   -4.0201    0.3883 C   0  0  0  0  0  0  0  0  0  0  0  0
  1  6  2  0  0  0  0
  2  3  2  0  0  0  0
  2  1  1  0  0  0  0
  3  4  1  0  0  0  0
  4 10  1  0  0  0  0
  4  5  2  0  0  0  0
  6  5  1  0  0  0  0
  7  1  1  0  0  0  0
  7 11  1  0  0  0  0
  8  7  2  0  0  0  0
  9 10  2  0  0  0  0
 10 12  1  0  0  0  0
 12 14  1  0  0  0  0
 13 11  1  0  0  0  0
 13 15  1  0  0  0  0
 14 16  1  0  0  0  0
 16 18  1  0  0  0  0
 17 15  1  0  0  0  0
 17 19  1  0  0  0  0
 18 20  1  0  0  0  0
 19 23  1  0  0  0  0
 20 22  1  0  0  0  0
 20 24  1  0  0  0  0
 21 19  1  0  0  0  0
M  END
>  <CHROM.1>
1.68152650,-169.45398654,154.36544705,125.22862389,75.56164759,-79.67223647
69.91783271,173.09428248,-154.18569580,-105.03336252,7.39214217,-2.50539654
0.38763588,0.23532471,-0.44927799,-2.35231021

>  <Name>
lig.pdb

>  <RI>
9.7521e+06

>  <Rbt.Current_Directory>
/home/itssahil/PROJECTS/Mol_Feturizer/New_Systems/rnas/2l94

>  <Rbt.Executable>
rbdock ($Id: //depot/dev/client3/rdock/2013.1/src/exe/rbdock.cxx#4 $)

>  <Rbt.Library>
libRbt.so (2013.1, Build901 2013/11/27)

>  <Rbt.Parameter_File>
/export/apps/rDock/src/rDock_2013.1_src/data/scripts/dock_solv.prm

>  <Rbt.Receptor>
prm/pocket_docking_7.prm

>  <SCORE>
-22.3149

>  <SCORE.INTER>
-21.9721

>  <SCORE.INTER.CONST>
1

>  <SCORE.INTER.POLAR>
-2.7936

>  <SCORE.INTER.ROT>
10

>  <SCORE.INTER.SOLV>
15.9403

>  <SCORE.INTER.VDW>
-20.9161

>  <SCORE.INTER.norm>
-0.915504

>  <SCORE.INTRA>
-0.377462

>  <SCORE.INTRA.DIHEDRAL>
4.8753

>  <SCORE.INTRA.DIHEDRAL.0>
7.52971

>  <SCORE.INTRA.POLAR>
0

>  <SCORE.INTRA.POLAR.0>
0

>  <SCORE.INTRA.REPUL>
0

>  <SCORE.INTRA.REPUL.0>
0

>  <SCORE.INTRA.SOLV>
1.21224

>  <SCORE.INTRA.SOLV.lig_0>
-22.1084

>  <SCORE.INTRA.VDW>
-3.42123

>  <SCORE.INTRA.VDW.0>
2.4256

>  <SCORE.INTRA.norm>
-0.0157276

>  <SCORE.RESTR>
0.0346758

>  <SCORE.RESTR.CAVITY>
0.0346758

>  <SCORE.RESTR.norm>
0.00144483

>  <SCORE.SYSTEM>
0

>  <SCORE.SYSTEM.CONST>
0

>  <SCORE.SYSTEM.DIHEDRAL>
0

>  <SCORE.SYSTEM.SOLV>
0

>  <SCORE.SYSTEM.norm>
0

>  <SCORE.heavy>
24

>  <SCORE.norm>
-0.929786

>  <RMSD>
5.093

$$$$
lig.pdb
 OpenBabel11021811453D
libRbt.so/2013.1/901 2013/11/27
 24 24  0  0  0  0  0  0  0  0999 V2000
    7.7894   -3.8751   -0.0373 C   0  0  0  0  0  0  0  0  0  0  0  0
    7.8228   -2.6404    0.6944 C   0  0  0  0  0  0  0  0  0  0  0  0
    6.9264   -2.3718    1.7016 C   0  0  0  0  0  0  0  0  0  0  0  0
    5.9173   -3.3133    2.0822 C   0  0  0  0  0  0  0  0  0  0  0  0
    5.8639   -4.5317    1.3282 C   0  0  0  0  0  0  0  0  0  0  0  0
    6.7531   -4.7974    0.3171 C   0  0  0  0  0  0  0  0  0  0  0  0
    8.6946   -4.1652   -1.0177 C   0  0  0  0  0  0  0  0  0  0  0  0
    8.4984   -5.1433   -1.9275 N   0  0  0  0  0  0  0  0  0  0  0  0
    4.9673   -1.8900    3.7495 N   0  0  0  0  0  0  0  0  0  0  0  0
    5.0465   -3.0726    3.1036 C   0  0  0  0  0  0  0  0  0  0  0  0
    9.8611   -3.4870   -1.1538 N   0  0  0  0  0  0  0  0  0  0  0  0
    4.1817   -4.0095    3.5601 N   0  0  0  0  0  0  0  0  0  0  0  0
   10.5338   -3.1490   -2.4066 C   0  0  0  0  0  0  0  0  0  0  0  0
    2.9500   -3.7563    4.3012 C   0  0  0  0  0  0  0  0  0  0  0  0
   11.9405   -2.6315   -2.0656 C   0  0  0  0  0  0  0  0  0  0  0  0
    1.7912   -3.7014    3.2883 C   0  0  0  0  0  0  0  0  0  0  0  0
   12.2970   -1.4072   -2.9202 C   0  0  0  0  0  0  0  0  0  0  0  0
    0.4406   -3.3699    3.9485 C   0  0  0  0  0  0  0  0  0  0  0  0
   13.7280   -1.0148   -2.6554 N   0  0  0  0  0  0  0  0  0  0  0  0
    0.3861   -1.9343    4.4064 N   0  0  0  0  0  0  0  0  0  0  0  0
   13.8273   -0.2948   -1.3381 C   0  0  0  0  0  0  0  0  0  0  0  0
    0.6467   -1.8868    5.8881 C   0  0  0  0  0  0  0  0  0  0  0  0
   14.2555   -0.1292   -3.7570 C   0  0  0  0  0  0  0  0  0  0  0  0
   -0.9466   -1.2984    4.1246 C   0  0  0  0  0  0  0  0  0  0  0  0
  1  6  2  0  0  0  0
  2  3  2  0  0  0  0
  2  1  1  0  0  0  0
  3  4  1  0  0  0  0
  4 10  1  0  0  0  0
  4  5  2  0  0  0  0
  6  5  1  0  0  0  0
  7  1  1  0  0  0  0
  7 11  1  0  0  0  0
  8  7  2  0  0  0  0
  9 10  2  0  0  0  0
 10 12  1  0  0  0  0
 12 14  1  0  0  0  0
 13 11  1  0  0  0  0
 13 15  1  0  0  0  0
 14 16  1  0  0  0  0
 16 18  1  0  0  0  0
 17 15  1  0  0  0  0
 17 19  1  0  0  0  0
 18 20  1  0  0  0  0
 19 23  1  0  0  0  0
 20 22  1  0  0  0  0
 20 24  1  0  0  0  0
 21 19  1  0  0  0  0
M  END
>  <CHROM.1>
6.90969125,-163.27699328,93.94533451,-169.02165627,-137.80656488,-177.20664958
70.94532035,-174.44207338,-76.76828908,-100.37672836,6.84762156,-2.78521740
0.96858240,0.14922161,-0.52972073,-2.72404451

>  <Name>
lig.pdb

>  <RI>
1.39428e+07

>  <Rbt.Current_Directory>
/home/itssahil/PROJECTS/Mol_Feturizer/New_Systems/rnas/2l94

>  <Rbt.Executable>
rbdock ($Id: //depot/dev/client3/rdock/2013.1/src/exe/rbdock.cxx#4 $)

>  <Rbt.Library>
libRbt.so (2013.1, Build901 2013/11/27)

>  <Rbt.Parameter_File>
/export/apps/rDock/src/rDock_2013.1_src/data/scripts/dock_solv.prm

>  <Rbt.Receptor>
prm/pocket_docking_8.prm

>  <SCORE>
-28.271

>  <SCORE.INTER>
-29.5927

>  <SCORE.INTER.CONST>
1

>  <SCORE.INTER.POLAR>
-3.31887

>  <SCORE.INTER.ROT>
10

>  <SCORE.INTER.SOLV>
18.8816

>  <SCORE.INTER.VDW>
-25.2261

>  <SCORE.INTER.norm>
-1.23303

>  <SCORE.INTRA>
1.32175

>  <SCORE.INTRA.DIHEDRAL>
7.05072

>  <SCORE.INTRA.DIHEDRAL.0>
7.52971

>  <SCORE.INTRA.POLAR>
0

>  <SCORE.INTRA.POLAR.0>
0

>  <SCORE.INTRA.REPUL>
0

>  <SCORE.INTRA.REPUL.0>
0

>  <SCORE.INTRA.SOLV>
-0.191182

>  <SCORE.INTRA.SOLV.lig_0>
-22.1084

>  <SCORE.INTRA.VDW>
-2.10802

>  <SCORE.INTRA.VDW.0>
2.4256

>  <SCORE.INTRA.norm>
0.0550728

>  <SCORE.RESTR>
0

>  <SCORE.RESTR.CAVITY>
0

>  <SCORE.RESTR.norm>
0

>  <SCORE.SYSTEM>
0

>  <SCORE.SYSTEM.CONST>
0

>  <SCORE.SYSTEM.DIHEDRAL>
0

>  <SCORE.SYSTEM.SOLV>
0

>  <SCORE.SYSTEM.norm>
0

>  <SCORE.heavy>
24

>  <SCORE.norm>
-1.17796

>  <RMSD>
5.097

$$$$
lig.pdb
 OpenBabel11021811453D
libRbt.so/2013.1/901 2013/11/27
 24 24  0  0  0  0  0  0  0  0999 V2000
    9.7288   -2.6580   -1.9548 C   0  0  0  0  0  0  0  0  0  0  0  0
    8.5340   -2.4287   -2.7171 C   0  0  0  0  0  0  0  0  0  0  0  0
    7.2909   -2.7565   -2.2298 C   0  0  0  0  0  0  0  0  0  0  0  0
    7.1198   -3.3352   -0.9317 C   0  0  0  0  0  0  0  0  0  0  0  0
    8.3163   -3.5946   -0.1855 C   0  0  0  0  0  0  0  0  0  0  0  0
    9.5584   -3.2752   -0.6742 C   0  0  0  0  0  0  0  0  0  0  0  0
   10.9652   -2.3069   -2.4161 C   0  0  0  0  0  0  0  0  0  0  0  0
   11.1588   -1.7278   -3.6203 N   0  0  0  0  0  0  0  0  0  0  0  0
    4.7780   -3.7369   -1.1828 N   0  0  0  0  0  0  0  0  0  0  0  0
    5.8892   -3.6306   -0.4238 C   0  0  0  0  0  0  0  0  0  0  0  0
   12.0952   -2.5109   -1.6945 N   0  0  0  0  0  0  0  0  0  0  0  0
    5.6775   -3.8423    0.8970 N   0  0  0  0  0  0  0  0  0  0  0  0
   13.2721   -1.6452   -1.6513 C   0  0  0  0  0  0  0  0  0  0  0  0
    4.5588   -4.5739    1.4834 C   0  0  0  0  0  0  0  0  0  0  0  0
   13.3069   -0.9592   -0.2761 C   0  0  0  0  0  0  0  0  0  0  0  0
    4.1436   -3.8469    2.7760 C   0  0  0  0  0  0  0  0  0  0  0  0
   14.5764   -0.1112   -0.1178 C   0  0  0  0  0  0  0  0  0  0  0  0
    3.7687   -2.3735    2.5343 C   0  0  0  0  0  0  0  0  0  0  0  0
   15.7460   -1.0157    0.1750 N   0  0  0  0  0  0  0  0  0  0  0  0
    3.5297   -1.6433    3.8316 N   0  0  0  0  0  0  0  0  0  0  0  0
   15.8596   -1.2441    1.6577 C   0  0  0  0  0  0  0  0  0  0  0  0
    2.1308   -1.9364    4.3035 C   0  0  0  0  0  0  0  0  0  0  0  0
   17.0306   -0.4191   -0.3448 C   0  0  0  0  0  0  0  0  0  0  0  0
    3.6938   -0.1561    3.6851 C   0  0  0  0  0  0  0  0  0  0  0  0
  1  6  2  0  0  0  0
  2  3  2  0  0  0  0
  2  1  1  0  0  0  0
  3  4  1  0  0  0  0
  4 10  1  0  0  0  0
  4  5  2  0  0  0  0
  6  5  1  0  0  0  0
  7  1  1  0  0  0  0
  7 11  1  0  0  0  0
  8  7  2  0  0  0  0
  9 10  2  0  0  0  0
 10 12  1  0  0  0  0
 12 14  1  0  0  0  0
 13 11  1  0  0  0  0
 13 15  1  0  0  0  0
 14 16  1  0  0  0  0
 16 18  1  0  0  0  0
 17 15  1  0  0  0  0
 17 19  1  0  0  0  0
 18 20  1  0  0  0  0
 19 23  1  0  0  0  0
 20 22  1  0  0  0  0
 20 24  1  0  0  0  0
 21 19  1  0  0  0  0
M  END
>  <CHROM.1>
17.61174261,-0.39213701,-142.02201796,108.59409151,175.77781486,57.27506444
-173.07178709,-77.24668114,-87.90327329,-81.65970130,8.88480673,-2.28939473
0.09883243,0.20599707,-0.22609871,-1.92016274

>  <Name>
lig.pdb

>  <RI>
2.48096e+07

>  <Rbt.Current_Directory>
/home/itssahil/PROJECTS/Mol_Feturizer/New_Systems/rnas/2l94

>  <Rbt.Executable>
rbdock ($Id: //depot/dev/client3/rdock/2013.1/src/exe/rbdock.cxx#4 $)

>  <Rbt.Library>
libRbt.so (2013.1, Build901 2013/11/27)

>  <Rbt.Parameter_File>
/export/apps/rDock/src/rDock_2013.1_src/data/scripts/dock_solv.prm

>  <Rbt.Receptor>
prm/pocket_docking_6.prm

>  <SCORE>
-17.8962

>  <SCORE.INTER>
-16.8784

>  <SCORE.INTER.CONST>
1

>  <SCORE.INTER.POLAR>
-2.32791

>  <SCORE.INTER.ROT>
10

>  <SCORE.INTER.SOLV>
10.3388

>  <SCORE.INTER.VDW>
-17.2055

>  <SCORE.INTER.norm>
-0.703268

>  <SCORE.INTRA>
-1.01782

>  <SCORE.INTRA.DIHEDRAL>
2.6062

>  <SCORE.INTRA.DIHEDRAL.0>
7.52971

>  <SCORE.INTRA.POLAR>
0

>  <SCORE.INTRA.POLAR.0>
0

>  <SCORE.INTRA.REPUL>
0

>  <SCORE.INTRA.REPUL.0>
0

>  <SCORE.INTRA.SOLV>
0.141939

>  <SCORE.INTRA.SOLV.lig_0>
-22.1084

>  <SCORE.INTRA.VDW>
-2.39189

>  <SCORE.INTRA.VDW.0>
2.4256

>  <SCORE.INTRA.norm>
-0.0424091

>  <SCORE.RESTR>
0

>  <SCORE.RESTR.CAVITY>
0

>  <SCORE.RESTR.norm>
0

>  <SCORE.SYSTEM>
0

>  <SCORE.SYSTEM.CONST>
0

>  <SCORE.SYSTEM.DIHEDRAL>
0

>  <SCORE.SYSTEM.SOLV>
0

>  <SCORE.SYSTEM.norm>
0

>  <SCORE.heavy>
24

>  <SCORE.norm>
-0.745677

>  <RMSD>
5.165

$$$$
lig.pdb
 OpenBabel11021811453D
libRbt.so/2013.1/901 2013/11/27
 24 24  0  0  0  0  0  0  0  0999 V2000
    6.4911   -3.5665   -2.1938 C   0  0  0  0  0  0  0  0  0  0  0  0
    6.5717   -2.2444   -1.6401 C   0  0  0  0  0  0  0  0  0  0  0  0
    7.7533   -1.7324   -1.1586 C   0  0  0  0  0  0  0  0  0  0  0  0
    8.9697   -2.4864   -1.1926 C   0  0  0  0  0  0  0  0  0  0  0  0
    8.8807   -3.8188   -1.7149 C   0  0  0  0  0  0  0  0  0  0  0  0
    7.6999   -4.3339   -2.1883 C   0  0  0  0  0  0  0  0  0  0  0  0
    5.3299   -4.0728   -2.7037 C   0  0  0  0  0  0  0  0  0  0  0  0
    5.2369   -5.3211   -3.2099 N   0  0  0  0  0  0  0  0  0  0  0  0
   11.2882   -2.7021   -0.6575 N   0  0  0  0  0  0  0  0  0  0  0  0
   10.1545   -1.9754   -0.7514 C   0  0  0  0  0  0  0  0  0  0  0  0
    4.1778   -3.3582   -2.7363 N   0  0  0  0  0  0  0  0  0  0  0  0
   10.2930   -0.6847   -0.3656 N   0  0  0  0  0  0  0  0  0  0  0  0
    2.8236   -3.8755   -2.5495 C   0  0  0  0  0  0  0  0  0  0  0  0
   11.5426    0.0674   -0.3073 C   0  0  0  0  0  0  0  0  0  0  0  0
    2.7207   -4.4319   -1.1202 C   0  0  0  0  0  0  0  0  0  0  0  0
   12.0576    0.0175    1.1432 C   0  0  0  0  0  0  0  0  0  0  0  0
    3.0161   -3.3393   -0.0834 C   0  0  0  0  0  0  0  0  0  0  0  0
   13.3180    0.8755    1.3557 C   0  0  0  0  0  0  0  0  0  0  0  0
    1.8274   -2.4185    0.0220 N   0  0  0  0  0  0  0  0  0  0  0  0
   13.8508    0.7380    2.7595 N   0  0  0  0  0  0  0  0  0  0  0  0
    2.2553   -1.0906    0.5851 C   0  0  0  0  0  0  0  0  0  0  0  0
   14.3352    2.0835    3.2292 C   0  0  0  0  0  0  0  0  0  0  0  0
    0.7578   -3.0194    0.8999 C   0  0  0  0  0  0  0  0  0  0  0  0
   14.9849   -0.2453    2.8429 C   0  0  0  0  0  0  0  0  0  0  0  0
  1  6  2  0  0  0  0
  2  3  2  0  0  0  0
  2  1  1  0  0  0  0
  3  4  1  0  0  0  0
  4 10  1  0  0  0  0
  4  5  2  0  0  0  0
  6  5  1  0  0  0  0
  7  1  1  0  0  0  0
  7 11  1  0  0  0  0
  8  7  2  0  0  0  0
  9 10  2  0  0  0  0
 10 12  1  0  0  0  0
 12 14  1  0  0  0  0
 13 11  1  0  0  0  0
 13 15  1  0  0  0  0
 14 16  1  0  0  0  0
 16 18  1  0  0  0  0
 17 15  1  0  0  0  0
 17 19  1  0  0  0  0
 18 20  1  0  0  0  0
 19 23  1  0  0  0  0
 20 22  1  0  0  0  0
 20 24  1  0  0  0  0
 21 19  1  0  0  0  0
M  END
>  <CHROM.1>
173.70923416,-179.03739023,-96.75650809,63.45921073,59.23131537,-175.34766510
-176.32778952,75.45061713,-158.08756039,-141.21409318,7.76891976,-2.08601776
-0.43092930,-2.71642494,0.09172870,0.85901534

>  <Name>
lig.pdb

>  <RI>
2.48096e+07

>  <Rbt.Current_Directory>
/home/itssahil/PROJECTS/Mol_Feturizer/New_Systems/rnas/2l94

>  <Rbt.Executable>
rbdock ($Id: //depot/dev/client3/rdock/2013.1/src/exe/rbdock.cxx#4 $)

>  <Rbt.Library>
libRbt.so (2013.1, Build901 2013/11/27)

>  <Rbt.Parameter_File>
/export/apps/rDock/src/rDock_2013.1_src/data/scripts/dock_solv.prm

>  <Rbt.Receptor>
prm/pocket_docking_6.prm

>  <SCORE>
-19.2061

>  <SCORE.INTER>
-17.6499

>  <SCORE.INTER.CONST>
1

>  <SCORE.INTER.POLAR>
-3.12348

>  <SCORE.INTER.ROT>
10

>  <SCORE.INTER.SOLV>
10.9474

>  <SCORE.INTER.VDW>
-15.2708

>  <SCORE.INTER.norm>
-0.735414

>  <SCORE.INTRA>
-1.55614

>  <SCORE.INTRA.DIHEDRAL>
1.9244

>  <SCORE.INTRA.DIHEDRAL.0>
7.52971

>  <SCORE.INTRA.POLAR>
0

>  <SCORE.INTRA.POLAR.0>
0

>  <SCORE.INTRA.REPUL>
0

>  <SCORE.INTRA.REPUL.0>
0

>  <SCORE.INTRA.SOLV>
0.621409

>  <SCORE.INTRA.SOLV.lig_0>
-22.1084

>  <SCORE.INTRA.VDW>
-2.82904

>  <SCORE.INTRA.VDW.0>
2.4256

>  <SCORE.INTRA.norm>
-0.0648391

>  <SCORE.RESTR>
0

>  <SCORE.RESTR.CAVITY>
0

>  <SCORE.RESTR.norm>
0

>  <SCORE.SYSTEM>
0

>  <SCORE.SYSTEM.CONST>
0

>  <SCORE.SYSTEM.DIHEDRAL>
0

>  <SCORE.SYSTEM.SOLV>
0

>  <SCORE.SYSTEM.norm>
0

>  <SCORE.heavy>
24

>  <SCORE.norm>
-0.800253

>  <RMSD>
5.189

$$$$
lig.pdb
 OpenBabel11021811453D
libRbt.so/2013.1/901 2013/11/27
 24 24  0  0  0  0  0  0  0  0999 V2000
    6.9854   -3.8898    0.3843 C   0  0  0  0  0  0  0  0  0  0  0  0
    7.5154   -4.5304   -0.7861 C   0  0  0  0  0  0  0  0  0  0  0  0
    8.7332   -4.1756   -1.3164 C   0  0  0  0  0  0  0  0  0  0  0  0
    9.5435   -3.1548   -0.7241 C   0  0  0  0  0  0  0  0  0  0  0  0
    8.9979   -2.4928    0.4247 C   0  0  0  0  0  0  0  0  0  0  0  0
    7.7786   -2.8406    0.9502 C   0  0  0  0  0  0  0  0  0  0  0  0
    5.7920   -4.2563    0.9376 C   0  0  0  0  0  0  0  0  0  0  0  0
    5.4964   -4.0522    2.2391 N   0  0  0  0  0  0  0  0  0  0  0  0
   11.1629   -3.1023   -2.4799 N   0  0  0  0  0  0  0  0  0  0  0  0
   10.7688   -2.8200   -1.2201 C   0  0  0  0  0  0  0  0  0  0  0  0
    4.8090   -4.8512    0.2173 N   0  0  0  0  0  0  0  0  0  0  0  0
   11.7015   -2.1719   -0.4824 N   0  0  0  0  0  0  0  0  0  0  0  0
    3.3691   -4.6609    0.3807 C   0  0  0  0  0  0  0  0  0  0  0  0
   12.8213   -1.3929   -1.0017 C   0  0  0  0  0  0  0  0  0  0  0  0
    3.0220   -3.2382   -0.0866 C   0  0  0  0  0  0  0  0  0  0  0  0
   13.7110   -0.9915    0.1895 C   0  0  0  0  0  0  0  0  0  0  0  0
    3.4635   -2.1967    0.9509 C   0  0  0  0  0  0  0  0  0  0  0  0
   13.3827    0.4123    0.7294 C   0  0  0  0  0  0  0  0  0  0  0  0
    2.8676   -0.8581    0.5972 N   0  0  0  0  0  0  0  0  0  0  0  0
   13.6732    0.5197    2.2050 N   0  0  0  0  0  0  0  0  0  0  0  0
    3.5876    0.2359    1.3376 C   0  0  0  0  0  0  0  0  0  0  0  0
   13.5604    1.9625    2.6186 C   0  0  0  0  0  0  0  0  0  0  0  0
    1.3983   -0.8168    0.9372 C   0  0  0  0  0  0  0  0  0  0  0  0
   15.0476    0.0187    2.5514 C   0  0  0  0  0  0  0  0  0  0  0  0
  1  6  2  0  0  0  0
  2  3  2  0  0  0  0
  2  1  1  0  0  0  0
  3  4  1  0  0  0  0
  4 10  1  0  0  0  0
  4  5  2  0  0  0  0
  6  5  1  0  0  0  0
  7  1  1  0  0  0  0
  7 11  1  0  0  0  0
  8  7  2  0  0  0  0
  9 10  2  0  0  0  0
 10 12  1  0  0  0  0
 12 14  1  0  0  0  0
 13 11  1  0  0  0  0
 13 15  1  0  0  0  0
 14 16  1  0  0  0  0
 16 18  1  0  0  0  0
 17 15  1  0  0  0  0
 17 19  1  0  0  0  0
 18 20  1  0  0  0  0
 19 23  1  0  0  0  0
 20 22  1  0  0  0  0
 20 24  1  0  0  0  0
 21 19  1  0  0  0  0
M  END
>  <CHROM.1>
20.04836053,155.15796152,-173.02959897,69.62280063,-75.00401174,-95.20993555
150.27713417,-168.70474349,-163.56360085,170.36184691,8.30092783,-2.16007720
0.43185973,-2.93811735,0.11068387,0.55985160

>  <Name>
lig.pdb

>  <RI>
9.7521e+06

>  <Rbt.Current_Directory>
/home/itssahil/PROJECTS/Mol_Feturizer/New_Systems/rnas/2l94

>  <Rbt.Executable>
rbdock ($Id: //depot/dev/client3/rdock/2013.1/src/exe/rbdock.cxx#4 $)

>  <Rbt.Library>
libRbt.so (2013.1, Build901 2013/11/27)

>  <Rbt.Parameter_File>
/export/apps/rDock/src/rDock_2013.1_src/data/scripts/dock_solv.prm

>  <Rbt.Receptor>
prm/pocket_docking_7.prm

>  <SCORE>
-20.8109

>  <SCORE.INTER>
-25.1179

>  <SCORE.INTER.CONST>
1

>  <SCORE.INTER.POLAR>
-3.60741

>  <SCORE.INTER.ROT>
10

>  <SCORE.INTER.SOLV>
11.4054

>  <SCORE.INTER.VDW>
-18.789

>  <SCORE.INTER.norm>
-1.04658

>  <SCORE.INTRA>
4.30698

>  <SCORE.INTRA.DIHEDRAL>
9.39912

>  <SCORE.INTRA.DIHEDRAL.0>
7.52971

>  <SCORE.INTRA.POLAR>
0

>  <SCORE.INTRA.POLAR.0>
0

>  <SCORE.INTRA.REPUL>
0

>  <SCORE.INTRA.REPUL.0>
0

>  <SCORE.INTRA.SOLV>
0.465215

>  <SCORE.INTRA.SOLV.lig_0>
-22.1084

>  <SCORE.INTRA.VDW>
-0.625191

>  <SCORE.INTRA.VDW.0>
2.4256

>  <SCORE.INTRA.norm>
0.179457

>  <SCORE.RESTR>
0

>  <SCORE.RESTR.CAVITY>
0

>  <SCORE.RESTR.norm>
0

>  <SCORE.SYSTEM>
0

>  <SCORE.SYSTEM.CONST>
0

>  <SCORE.SYSTEM.DIHEDRAL>
0

>  <SCORE.SYSTEM.SOLV>
0

>  <SCORE.SYSTEM.norm>
0

>  <SCORE.heavy>
24

>  <SCORE.norm>
-0.867123

>  <RMSD>
5.207

$$$$
lig.pdb
 OpenBabel11021811453D
libRbt.so/2013.1/901 2013/11/27
 24 24  0  0  0  0  0  0  0  0999 V2000
    7.3897   -3.8446    0.2391 C   0  0  0  0  0  0  0  0  0  0  0  0
    8.1754   -2.7366    0.7041 C   0  0  0  0  0  0  0  0  0  0  0  0
    9.3500   -2.3739    0.0887 C   0  0  0  0  0  0  0  0  0  0  0  0
    9.8483   -3.0755   -1.0554 C   0  0  0  0  0  0  0  0  0  0  0  0
    9.0801   -4.2024   -1.4979 C   0  0  0  0  0  0  0  0  0  0  0  0
    7.9115   -4.5703   -0.8794 C   0  0  0  0  0  0  0  0  0  0  0  0
    6.2056   -4.1934    0.8232 C   0  0  0  0  0  0  0  0  0  0  0  0
    5.9505   -3.9939    2.1340 N   0  0  0  0  0  0  0  0  0  0  0  0
   11.4152   -3.2613   -2.8494 N   0  0  0  0  0  0  0  0  0  0  0  0
   10.9930   -2.7021   -1.6956 C   0  0  0  0  0  0  0  0  0  0  0  0
    5.1920   -4.7648    0.1267 N   0  0  0  0  0  0  0  0  0  0  0  0
   11.8098   -1.7314   -1.2217 N   0  0  0  0  0  0  0  0  0  0  0  0
    3.7610   -4.5495    0.3321 C   0  0  0  0  0  0  0  0  0  0  0  0
   12.7746   -0.9614   -2.0006 C   0  0  0  0  0  0  0  0  0  0  0  0
    3.4866   -3.0412    0.2185 C   0  0  0  0  0  0  0  0  0  0  0  0
   13.7184   -0.2491   -1.0140 C   0  0  0  0  0  0  0  0  0  0  0  0
    2.0305   -2.7193    0.5819 C   0  0  0  0  0  0  0  0  0  0  0  0
   14.5348   -1.2336   -0.1573 C   0  0  0  0  0  0  0  0  0  0  0  0
    1.8006   -1.2356    0.4495 N   0  0  0  0  0  0  0  0  0  0  0  0
   15.5459   -0.5147    0.6997 N   0  0  0  0  0  0  0  0  0  0  0  0
    2.5116   -0.5053    1.5560 C   0  0  0  0  0  0  0  0  0  0  0  0
   16.7859   -0.2667   -0.1166 C   0  0  0  0  0  0  0  0  0  0  0  0
    0.3275   -0.9134    0.4956 C   0  0  0  0  0  0  0  0  0  0  0  0
   15.9172   -1.3046    1.9237 C   0  0  0  0  0  0  0  0  0  0  0  0
  1  6  2  0  0  0  0
  2  3  2  0  0  0  0
  2  1  1  0  0  0  0
  3  4  1  0  0  0  0
  4 10  1  0  0  0  0
  4  5  2  0  0  0  0
  6  5  1  0  0  0  0
  7  1  1  0  0  0  0
  7 11  1  0  0  0  0
  8  7  2  0  0  0  0
  9 10  2  0  0  0  0
 10 12  1  0  0  0  0
 12 14  1  0  0  0  0
 13 11  1  0  0  0  0
 13 15  1  0  0  0  0
 14 16  1  0  0  0  0
 16 18  1  0  0  0  0
 17 15  1  0  0  0  0
 17 19  1  0  0  0  0
 18 20  1  0  0  0  0
 19 23  1  0  0  0  0
 20 22  1  0  0  0  0
 20 24  1  0  0  0  0
 21 19  1  0  0  0  0
M  END
>  <CHROM.1>
-173.29470139,-30.38683864,-165.57624090,55.97821965,-173.50055932,62.73034749
174.34611355,-179.62780531,-71.25590477,-84.21447153,8.60947301,-2.40712429
-0.06657476,-3.06983385,0.12949208,0.46132352

>  <Name>
lig.pdb

>  <RI>
9.7521e+06

>  <Rbt.Current_Directory>
/home/itssahil/PROJECTS/Mol_Feturizer/New_Systems/rnas/2l94

>  <Rbt.Executable>
rbdock ($Id: //depot/dev/client3/rdock/2013.1/src/exe/rbdock.cxx#4 $)

>  <Rbt.Library>
libRbt.so (2013.1, Build901 2013/11/27)

>  <Rbt.Parameter_File>
/export/apps/rDock/src/rDock_2013.1_src/data/scripts/dock_solv.prm

>  <Rbt.Receptor>
prm/pocket_docking_7.prm

>  <SCORE>
-23.01

>  <SCORE.INTER>
-22.8395

>  <SCORE.INTER.CONST>
1

>  <SCORE.INTER.POLAR>
-2.86248

>  <SCORE.INTER.ROT>
10

>  <SCORE.INTER.SOLV>
12.7774

>  <SCORE.INTER.VDW>
-20.2105

>  <SCORE.INTER.norm>
-0.951645

>  <SCORE.INTRA>
-0.170539

>  <SCORE.INTRA.DIHEDRAL>
2.72238

>  <SCORE.INTRA.DIHEDRAL.0>
7.52971

>  <SCORE.INTRA.POLAR>
0

>  <SCORE.INTRA.POLAR.0>
0

>  <SCORE.INTRA.REPUL>
0

>  <SCORE.INTRA.REPUL.0>
0

>  <SCORE.INTRA.SOLV>
0.118198

>  <SCORE.INTRA.SOLV.lig_0>
-22.1084

>  <SCORE.INTRA.VDW>
-1.59083

>  <SCORE.INTRA.VDW.0>
2.4256

>  <SCORE.INTRA.norm>
-0.00710578

>  <SCORE.RESTR>
0

>  <SCORE.RESTR.CAVITY>
0

>  <SCORE.RESTR.norm>
0

>  <SCORE.SYSTEM>
0

>  <SCORE.SYSTEM.CONST>
0

>  <SCORE.SYSTEM.DIHEDRAL>
0

>  <SCORE.SYSTEM.SOLV>
0

>  <SCORE.SYSTEM.norm>
0

>  <SCORE.heavy>
24

>  <SCORE.norm>
-0.958751

>  <RMSD>
5.228

$$$$
lig.pdb
 OpenBabel11021811453D
libRbt.so/2013.1/901 2013/11/27
 24 24  0  0  0  0  0  0  0  0999 V2000
    6.4962   -2.4957    1.9497 C   0  0  0  0  0  0  0  0  0  0  0  0
    6.2256   -3.7403    1.2873 C   0  0  0  0  0  0  0  0  0  0  0  0
    7.0166   -4.2009    0.2615 C   0  0  0  0  0  0  0  0  0  0  0  0
    8.1590   -3.4689   -0.1952 C   0  0  0  0  0  0  0  0  0  0  0  0
    8.4083   -2.2101    0.4445 C   0  0  0  0  0  0  0  0  0  0  0  0
    7.6146   -1.7455    1.4632 C   0  0  0  0  0  0  0  0  0  0  0  0
    5.7360   -2.0445    2.9905 C   0  0  0  0  0  0  0  0  0  0  0  0
    5.9877   -0.8819    3.6293 N   0  0  0  0  0  0  0  0  0  0  0  0
    8.6384   -4.9568   -2.0020 N   0  0  0  0  0  0  0  0  0  0  0  0
    8.9714   -3.9335   -1.1870 C   0  0  0  0  0  0  0  0  0  0  0  0
    4.6647   -2.7311    3.4595 N   0  0  0  0  0  0  0  0  0  0  0  0
   10.1918   -3.4030   -1.4380 N   0  0  0  0  0  0  0  0  0  0  0  0
    3.4209   -2.1630    3.9757 C   0  0  0  0  0  0  0  0  0  0  0  0
   10.9319   -3.5004   -2.6923 C   0  0  0  0  0  0  0  0  0  0  0  0
    2.3704   -2.2228    2.8550 C   0  0  0  0  0  0  0  0  0  0  0  0
   11.0508   -2.0831   -3.2828 C   0  0  0  0  0  0  0  0  0  0  0  0
    2.8444   -1.4497    1.6166 C   0  0  0  0  0  0  0  0  0  0  0  0
    9.7052   -1.5386   -3.7956 C   0  0  0  0  0  0  0  0  0  0  0  0
    1.9032   -1.7198    0.4707 N   0  0  0  0  0  0  0  0  0  0  0  0
    9.8695   -0.1970   -4.4637 N   0  0  0  0  0  0  0  0  0  0  0  0
    2.1688   -3.0860   -0.1005 C   0  0  0  0  0  0  0  0  0  0  0  0
    9.8080    0.8795   -3.4135 C   0  0  0  0  0  0  0  0  0  0  0  0
    2.0604   -0.6800   -0.6110 C   0  0  0  0  0  0  0  0  0  0  0  0
    8.8020    0.0610   -5.4902 C   0  0  0  0  0  0  0  0  0  0  0  0
  1  6  2  0  0  0  0
  2  3  2  0  0  0  0
  2  1  1  0  0  0  0
  3  4  1  0  0  0  0
  4 10  1  0  0  0  0
  4  5  2  0  0  0  0
  6  5  1  0  0  0  0
  7  1  1  0  0  0  0
  7 11  1  0  0  0  0
  8  7  2  0  0  0  0
  9 10  2  0  0  0  0
 10 12  1  0  0  0  0
 12 14  1  0  0  0  0
 13 11  1  0  0  0  0
 13 15  1  0  0  0  0
 14 16  1  0  0  0  0
 16 18  1  0  0  0  0
 17 15  1  0  0  0  0
 17 19  1  0  0  0  0
 18 20  1  0  0  0  0
 19 23  1  0  0  0  0
 20 22  1  0  0  0  0
 20 24  1  0  0  0  0
 21 19  1  0  0  0  0
M  END
>  <CHROM.1>
13.98343372,179.37837206,114.60802931,99.26750316,-58.62548086,-70.08846046
-175.58461669,170.68001043,-76.36030396,-85.94857831,6.76697112,-2.19097560
-0.23307245,-2.51136658,0.33846714,-1.08756441

>  <Name>
lig.pdb

>  <RI>
9.7521e+06

>  <Rbt.Current_Directory>
/home/itssahil/PROJECTS/Mol_Feturizer/New_Systems/rnas/2l94

>  <Rbt.Executable>
rbdock ($Id: //depot/dev/client3/rdock/2013.1/src/exe/rbdock.cxx#4 $)

>  <Rbt.Library>
libRbt.so (2013.1, Build901 2013/11/27)

>  <Rbt.Parameter_File>
/export/apps/rDock/src/rDock_2013.1_src/data/scripts/dock_solv.prm

>  <Rbt.Receptor>
prm/pocket_docking_7.prm

>  <SCORE>
-23.3478

>  <SCORE.INTER>
-21.0737

>  <SCORE.INTER.CONST>
1

>  <SCORE.INTER.POLAR>
-3.17655

>  <SCORE.INTER.ROT>
10

>  <SCORE.INTER.SOLV>
17.5647

>  <SCORE.INTER.VDW>
-19.5822

>  <SCORE.INTER.norm>
-0.878072

>  <SCORE.INTRA>
-2.30339

>  <SCORE.INTRA.DIHEDRAL>
1.01864

>  <SCORE.INTRA.DIHEDRAL.0>
7.52971

>  <SCORE.INTRA.POLAR>
0

>  <SCORE.INTRA.POLAR.0>
0

>  <SCORE.INTRA.REPUL>
0

>  <SCORE.INTRA.REPUL.0>
0

>  <SCORE.INTRA.SOLV>
0.687319

>  <SCORE.INTRA.SOLV.lig_0>
-22.1084

>  <SCORE.INTRA.VDW>
-3.15637

>  <SCORE.INTRA.VDW.0>
2.4256

>  <SCORE.INTRA.norm>
-0.0959744

>  <SCORE.RESTR>
0.0292953

>  <SCORE.RESTR.CAVITY>
0.0292953

>  <SCORE.RESTR.norm>
0.00122064

>  <SCORE.SYSTEM>
0

>  <SCORE.SYSTEM.CONST>
0

>  <SCORE.SYSTEM.DIHEDRAL>
0

>  <SCORE.SYSTEM.SOLV>
0

>  <SCORE.SYSTEM.norm>
0

>  <SCORE.heavy>
24

>  <SCORE.norm>
-0.972825

>  <RMSD>
5.231

$$$$
lig.pdb
 OpenBabel11021811453D
libRbt.so/2013.1/901 2013/11/27
 24 24  0  0  0  0  0  0  0  0999 V2000
    7.2448   -3.9905    0.5786 C   0  0  0  0  0  0  0  0  0  0  0  0
    7.9200   -2.7695    0.9166 C   0  0  0  0  0  0  0  0  0  0  0  0
    9.0575   -2.3656    0.2584 C   0  0  0  0  0  0  0  0  0  0  0  0
    9.6246   -3.1361   -0.8065 C   0  0  0  0  0  0  0  0  0  0  0  0
    8.9686   -4.3718   -1.1203 C   0  0  0  0  0  0  0  0  0  0  0  0
    7.8376   -4.7799   -0.4585 C   0  0  0  0  0  0  0  0  0  0  0  0
    6.0968   -4.3848    1.2042 C   0  0  0  0  0  0  0  0  0  0  0  0
    5.6907   -5.6719    1.2430 N   0  0  0  0  0  0  0  0  0  0  0  0
   11.1106   -3.2546   -2.6737 N   0  0  0  0  0  0  0  0  0  0  0  0
   10.7314   -2.7272   -1.4904 C   0  0  0  0  0  0  0  0  0  0  0  0
    5.2777   -3.5103    1.8393 N   0  0  0  0  0  0  0  0  0  0  0  0
   11.5505   -1.7501   -1.0339 N   0  0  0  0  0  0  0  0  0  0  0  0
    4.5132   -3.7584    3.0600 C   0  0  0  0  0  0  0  0  0  0  0  0
   12.4636   -0.9456   -1.8398 C   0  0  0  0  0  0  0  0  0  0  0  0
    3.4914   -2.6211    3.2199 C   0  0  0  0  0  0  0  0  0  0  0  0
   13.9015   -1.2797   -1.4009 C   0  0  0  0  0  0  0  0  0  0  0  0
    4.1825   -1.3180    3.6445 C   0  0  0  0  0  0  0  0  0  0  0  0
   14.1177   -1.0983    0.1124 C   0  0  0  0  0  0  0  0  0  0  0  0
    3.1648   -0.2073    3.6921 N   0  0  0  0  0  0  0  0  0  0  0  0
   13.8187    0.3136    0.5489 N   0  0  0  0  0  0  0  0  0  0  0  0
    3.7299    1.0341    3.0573 C   0  0  0  0  0  0  0  0  0  0  0  0
   14.9292    1.2135    0.0771 C   0  0  0  0  0  0  0  0  0  0  0  0
    2.7604    0.0911    5.1146 C   0  0  0  0  0  0  0  0  0  0  0  0
   13.6953    0.4324    2.0424 C   0  0  0  0  0  0  0  0  0  0  0  0
  1  6  2  0  0  0  0
  2  3  2  0  0  0  0
  2  1  1  0  0  0  0
  3  4  1  0  0  0  0
  4 10  1  0  0  0  0
  4  5  2  0  0  0  0
  6  5  1  0  0  0  0
  7  1  1  0  0  0  0
  7 11  1  0  0  0  0
  8  7  2  0  0  0  0
  9 10  2  0  0  0  0
 10 12  1  0  0  0  0
 12 14  1  0  0  0  0
 13 11  1  0  0  0  0
 13 15  1  0  0  0  0
 14 16  1  0  0  0  0
 16 18  1  0  0  0  0
 17 15  1  0  0  0  0
 17 19  1  0  0  0  0
 18 20  1  0  0  0  0
 19 23  1  0  0  0  0
 20 22  1  0  0  0  0
 20 24  1  0  0  0  0
 21 19  1  0  0  0  0
M  END
>  <CHROM.1>
-164.36862249,-157.42482868,-114.86047451,-166.88055783,-73.04536368,-54.61488574
-58.57791208,175.89492961,-136.18737255,-73.33382741,8.57682729,-2.05223232
0.86231139,3.02639048,0.38077751,0.57511480

>  <Name>
lig.pdb

>  <RI>
9.7521e+06

>  <Rbt.Current_Directory>
/home/itssahil/PROJECTS/Mol_Feturizer/New_Systems/rnas/2l94

>  <Rbt.Executable>
rbdock ($Id: //depot/dev/client3/rdock/2013.1/src/exe/rbdock.cxx#4 $)

>  <Rbt.Library>
libRbt.so (2013.1, Build901 2013/11/27)

>  <Rbt.Parameter_File>
/export/apps/rDock/src/rDock_2013.1_src/data/scripts/dock_solv.prm

>  <Rbt.Receptor>
prm/pocket_docking_7.prm

>  <SCORE>
-22.6543

>  <SCORE.INTER>
-23.4881

>  <SCORE.INTER.CONST>
1

>  <SCORE.INTER.POLAR>
-2.52746

>  <SCORE.INTER.ROT>
10

>  <SCORE.INTER.SOLV>
13.6934

>  <SCORE.INTER.VDW>
-22.065

>  <SCORE.INTER.norm>
-0.978672

>  <SCORE.INTRA>
0.833855

>  <SCORE.INTRA.DIHEDRAL>
4.30171

>  <SCORE.INTRA.DIHEDRAL.0>
7.52971

>  <SCORE.INTRA.POLAR>
0

>  <SCORE.INTRA.POLAR.0>
0

>  <SCORE.INTRA.REPUL>
0

>  <SCORE.INTRA.REPUL.0>
0

>  <SCORE.INTRA.SOLV>
0.660748

>  <SCORE.INTRA.SOLV.lig_0>
-22.1084

>  <SCORE.INTRA.VDW>
-1.64737

>  <SCORE.INTRA.VDW.0>
2.4256

>  <SCORE.INTRA.norm>
0.034744

>  <SCORE.RESTR>
0

>  <SCORE.RESTR.CAVITY>
0

>  <SCORE.RESTR.norm>
0

>  <SCORE.SYSTEM>
0

>  <SCORE.SYSTEM.CONST>
0

>  <SCORE.SYSTEM.DIHEDRAL>
0

>  <SCORE.SYSTEM.SOLV>
0

>  <SCORE.SYSTEM.norm>
0

>  <SCORE.heavy>
24

>  <SCORE.norm>
-0.943928

>  <RMSD>
5.247

$$$$
lig.pdb
 OpenBabel11021811453D
libRbt.so/2013.1/901 2013/11/27
 24 24  0  0  0  0  0  0  0  0999 V2000
    7.3873   -3.4270    0.2628 C   0  0  0  0  0  0  0  0  0  0  0  0
    7.3193   -2.2823    1.1266 C   0  0  0  0  0  0  0  0  0  0  0  0
    6.4209   -2.2119    2.1649 C   0  0  0  0  0  0  0  0  0  0  0  0
    5.5112   -3.2807    2.4471 C   0  0  0  0  0  0  0  0  0  0  0  0
    5.5574   -4.4086    1.5631 C   0  0  0  0  0  0  0  0  0  0  0  0
    6.4483   -4.4765    0.5213 C   0  0  0  0  0  0  0  0  0  0  0  0
    8.2971   -3.5207   -0.7513 C   0  0  0  0  0  0  0  0  0  0  0  0
    8.1479   -4.3693   -1.7909 N   0  0  0  0  0  0  0  0  0  0  0  0
    4.7310   -2.3381    4.4992 N   0  0  0  0  0  0  0  0  0  0  0  0
    4.6411   -3.2370    3.4962 C   0  0  0  0  0  0  0  0  0  0  0  0
    9.4208   -2.7626   -0.7923 N   0  0  0  0  0  0  0  0  0  0  0  0
    3.6058   -4.1011    3.6208 N   0  0  0  0  0  0  0  0  0  0  0  0
   10.0590   -2.2107   -1.9857 C   0  0  0  0  0  0  0  0  0  0  0  0
    2.3977   -3.8892    4.4121 C   0  0  0  0  0  0  0  0  0  0  0  0
    9.7367   -0.7089   -2.0452 C   0  0  0  0  0  0  0  0  0  0  0  0
    1.7330   -2.5893    3.9219 C   0  0  0  0  0  0  0  0  0  0  0  0
   10.5331   -0.0204   -3.1623 C   0  0  0  0  0  0  0  0  0  0  0  0
    0.5828   -2.1293    4.8358 C   0  0  0  0  0  0  0  0  0  0  0  0
   11.9438    0.2229   -2.6906 N   0  0  0  0  0  0  0  0  0  0  0  0
    1.0637   -1.8642    6.2400 N   0  0  0  0  0  0  0  0  0  0  0  0
   12.5141    1.4322   -3.3804 C   0  0  0  0  0  0  0  0  0  0  0  0
   -0.1306   -1.6415    7.1286 C   0  0  0  0  0  0  0  0  0  0  0  0
   12.8174   -0.9758   -2.9665 C   0  0  0  0  0  0  0  0  0  0  0  0
    1.9598   -0.6596    6.3157 C   0  0  0  0  0  0  0  0  0  0  0  0
  1  6  2  0  0  0  0
  2  3  2  0  0  0  0
  2  1  1  0  0  0  0
  3  4  1  0  0  0  0
  4 10  1  0  0  0  0
  4  5  2  0  0  0  0
  6  5  1  0  0  0  0
  7  1  1  0  0  0  0
  7 11  1  0  0  0  0
  8  7  2  0  0  0  0
  9 10  2  0  0  0  0
 10 12  1  0  0  0  0
 12 14  1  0  0  0  0
 13 11  1  0  0  0  0
 13 15  1  0  0  0  0
 14 16  1  0  0  0  0
 16 18  1  0  0  0  0
 17 15  1  0  0  0  0
 17 19  1  0  0  0  0
 18 20  1  0  0  0  0
 19 23  1  0  0  0  0
 20 22  1  0  0  0  0
 20 24  1  0  0  0  0
 21 19  1  0  0  0  0
M  END
>  <CHROM.1>
-13.59305277,-160.49454251,56.94479657,104.34951846,172.06471173,-170.18466284
60.13965187,-78.96456460,-151.28988848,-170.79519384,6.36985434,-2.26455482
1.38753842,0.06947798,-0.70861436,-2.85493447

>  <Name>
lig.pdb

>  <RI>
1.39428e+07

>  <Rbt.Current_Directory>
/home/itssahil/PROJECTS/Mol_Feturizer/New_Systems/rnas/2l94

>  <Rbt.Executable>
rbdock ($Id: //depot/dev/client3/rdock/2013.1/src/exe/rbdock.cxx#4 $)

>  <Rbt.Library>
libRbt.so (2013.1, Build901 2013/11/27)

>  <Rbt.Parameter_File>
/export/apps/rDock/src/rDock_2013.1_src/data/scripts/dock_solv.prm

>  <Rbt.Receptor>
prm/pocket_docking_8.prm

>  <SCORE>
-22.8726

>  <SCORE.INTER>
-22.6229

>  <SCORE.INTER.CONST>
1

>  <SCORE.INTER.POLAR>
-3.07676

>  <SCORE.INTER.ROT>
10

>  <SCORE.INTER.SOLV>
13.7866

>  <SCORE.INTER.VDW>
-19.6883

>  <SCORE.INTER.norm>
-0.942621

>  <SCORE.INTRA>
-0.249714

>  <SCORE.INTRA.DIHEDRAL>
3.02444

>  <SCORE.INTRA.DIHEDRAL.0>
7.52971

>  <SCORE.INTRA.POLAR>
0

>  <SCORE.INTRA.POLAR.0>
0

>  <SCORE.INTRA.REPUL>
0

>  <SCORE.INTRA.REPUL.0>
0

>  <SCORE.INTRA.SOLV>
0.459181

>  <SCORE.INTRA.SOLV.lig_0>
-22.1084

>  <SCORE.INTRA.VDW>
-1.99152

>  <SCORE.INTRA.VDW.0>
2.4256

>  <SCORE.INTRA.norm>
-0.0104047

>  <SCORE.RESTR>
0

>  <SCORE.RESTR.CAVITY>
0

>  <SCORE.RESTR.norm>
0

>  <SCORE.SYSTEM>
0

>  <SCORE.SYSTEM.CONST>
0

>  <SCORE.SYSTEM.DIHEDRAL>
0

>  <SCORE.SYSTEM.SOLV>
0

>  <SCORE.SYSTEM.norm>
0

>  <SCORE.heavy>
24

>  <SCORE.norm>
-0.953026

>  <RMSD>
5.267

$$$$
lig.pdb
 OpenBabel11021811453D
libRbt.so/2013.1/901 2013/11/27
 24 24  0  0  0  0  0  0  0  0999 V2000
    8.5865   -1.6046   -0.0162 C   0  0  0  0  0  0  0  0  0  0  0  0
    8.4313   -0.4691   -0.8808 C   0  0  0  0  0  0  0  0  0  0  0  0
    9.3751   -0.1456   -1.8267 C   0  0  0  0  0  0  0  0  0  0  0  0
   10.5592   -0.9295   -2.0075 C   0  0  0  0  0  0  0  0  0  0  0  0
   10.7290   -2.0434   -1.1209 C   0  0  0  0  0  0  0  0  0  0  0  0
    9.7914   -2.3626   -0.1707 C   0  0  0  0  0  0  0  0  0  0  0  0
    7.6404   -1.9532    0.9047 C   0  0  0  0  0  0  0  0  0  0  0  0
    7.7612   -3.0355    1.7029 N   0  0  0  0  0  0  0  0  0  0  0  0
   11.2618    0.2316   -3.9738 N   0  0  0  0  0  0  0  0  0  0  0  0
   11.4841   -0.6392   -2.9666 C   0  0  0  0  0  0  0  0  0  0  0  0
    6.5062   -1.2332    1.0900 N   0  0  0  0  0  0  0  0  0  0  0  0
   12.7133   -1.2070   -2.9894 N   0  0  0  0  0  0  0  0  0  0  0  0
    5.8163   -1.0012    2.3575 C   0  0  0  0  0  0  0  0  0  0  0  0
   13.8958   -0.6742   -3.6591 C   0  0  0  0  0  0  0  0  0  0  0  0
    5.6216    0.5147    2.5217 C   0  0  0  0  0  0  0  0  0  0  0  0
   14.2848    0.6404   -2.9574 C   0  0  0  0  0  0  0  0  0  0  0  0
    4.5068    1.0280    1.5999 C   0  0  0  0  0  0  0  0  0  0  0  0
   14.9326    0.4092   -1.5802 C   0  0  0  0  0  0  0  0  0  0  0  0
    4.3919    2.5240    1.7429 N   0  0  0  0  0  0  0  0  0  0  0  0
   16.4242    0.2206   -1.6949 N   0  0  0  0  0  0  0  0  0  0  0  0
    3.0560    2.9876    1.2291 C   0  0  0  0  0  0  0  0  0  0  0  0
   16.9400   -0.3657   -0.4081 C   0  0  0  0  0  0  0  0  0  0  0  0
    5.4947    3.2229    0.9870 C   0  0  0  0  0  0  0  0  0  0  0  0
   17.1414    1.5141   -1.9639 C   0  0  0  0  0  0  0  0  0  0  0  0
  1  6  2  0  0  0  0
  2  3  2  0  0  0  0
  2  1  1  0  0  0  0
  3  4  1  0  0  0  0
  4 10  1  0  0  0  0
  4  5  2  0  0  0  0
  6  5  1  0  0  0  0
  7  1  1  0  0  0  0
  7 11  1  0  0  0  0
  8  7  2  0  0  0  0
  9 10  2  0  0  0  0
 10 12  1  0  0  0  0
 12 14  1  0  0  0  0
 13 11  1  0  0  0  0
 13 15  1  0  0  0  0
 14 16  1  0  0  0  0
 16 18  1  0  0  0  0
 17 15  1  0  0  0  0
 17 19  1  0  0  0  0
 18 20  1  0  0  0  0
 19 23  1  0  0  0  0
 20 22  1  0  0  0  0
 20 24  1  0  0  0  0
 21 19  1  0  0  0  0
M  END
>  <CHROM.1>
-12.78666687,178.49478433,65.58946722,127.04844968,74.63973254,73.94502655
87.78428706,-177.35386424,-161.28900356,-164.65658111,9.90663887,-0.13320467
-0.57058289,3.12960551,0.37378318,-0.17716302

>  <Name>
lig.pdb

>  <RI>
1.39428e+07

>  <Rbt.Current_Directory>
/home/itssahil/PROJECTS/Mol_Feturizer/New_Systems/rnas/2l94

>  <Rbt.Executable>
rbdock ($Id: //depot/dev/client3/rdock/2013.1/src/exe/rbdock.cxx#4 $)

>  <Rbt.Library>
libRbt.so (2013.1, Build901 2013/11/27)

>  <Rbt.Parameter_File>
/export/apps/rDock/src/rDock_2013.1_src/data/scripts/dock_solv.prm

>  <Rbt.Receptor>
prm/pocket_docking_8.prm

>  <SCORE>
-22.2335

>  <SCORE.INTER>
-21.5079

>  <SCORE.INTER.CONST>
1

>  <SCORE.INTER.POLAR>
-3.39844

>  <SCORE.INTER.ROT>
10

>  <SCORE.INTER.SOLV>
11.0071

>  <SCORE.INTER.VDW>
-16.9462

>  <SCORE.INTER.norm>
-0.896164

>  <SCORE.INTRA>
-0.725576

>  <SCORE.INTRA.DIHEDRAL>
3.06194

>  <SCORE.INTRA.DIHEDRAL.0>
7.52971

>  <SCORE.INTRA.POLAR>
0

>  <SCORE.INTRA.POLAR.0>
0

>  <SCORE.INTRA.REPUL>
0

>  <SCORE.INTRA.REPUL.0>
0

>  <SCORE.INTRA.SOLV>
0.405076

>  <SCORE.INTRA.SOLV.lig_0>
-22.1084

>  <SCORE.INTRA.VDW>
-2.45908

>  <SCORE.INTRA.VDW.0>
2.4256

>  <SCORE.INTRA.norm>
-0.0302323

>  <SCORE.RESTR>
0

>  <SCORE.RESTR.CAVITY>
0

>  <SCORE.RESTR.norm>
0

>  <SCORE.SYSTEM>
0

>  <SCORE.SYSTEM.CONST>
0

>  <SCORE.SYSTEM.DIHEDRAL>
0

>  <SCORE.SYSTEM.SOLV>
0

>  <SCORE.SYSTEM.norm>
0

>  <SCORE.heavy>
24

>  <SCORE.norm>
-0.926396

>  <RMSD>
5.303

$$$$
lig.pdb
 OpenBabel11021811453D
libRbt.so/2013.1/901 2013/11/27
 24 24  0  0  0  0  0  0  0  0999 V2000
    8.9317   -2.8149   -1.0985 C   0  0  0  0  0  0  0  0  0  0  0  0
    8.6298   -4.2184   -1.0974 C   0  0  0  0  0  0  0  0  0  0  0  0
    7.6740   -4.7522   -0.2656 C   0  0  0  0  0  0  0  0  0  0  0  0
    6.9211   -3.9357    0.6375 C   0  0  0  0  0  0  0  0  0  0  0  0
    7.2473   -2.5396    0.6594 C   0  0  0  0  0  0  0  0  0  0  0  0
    8.2069   -2.0069   -0.1648 C   0  0  0  0  0  0  0  0  0  0  0  0
    9.8563   -2.2698   -1.9428 C   0  0  0  0  0  0  0  0  0  0  0  0
    9.5880   -1.2089   -2.7337 N   0  0  0  0  0  0  0  0  0  0  0  0
    5.6344   -5.7613    1.4858 N   0  0  0  0  0  0  0  0  0  0  0  0
    5.9458   -4.4486    1.4408 C   0  0  0  0  0  0  0  0  0  0  0  0
   11.1192   -2.7526   -2.0475 N   0  0  0  0  0  0  0  0  0  0  0  0
    5.2006   -3.6762    2.2666 N   0  0  0  0  0  0  0  0  0  0  0  0
   12.3358   -1.9746   -2.2728 C   0  0  0  0  0  0  0  0  0  0  0  0
    4.4745   -4.1305    3.4485 C   0  0  0  0  0  0  0  0  0  0  0  0
   12.9676   -1.6740   -0.9040 C   0  0  0  0  0  0  0  0  0  0  0  0
    3.4046   -3.0739    3.7815 C   0  0  0  0  0  0  0  0  0  0  0  0
   13.8502   -0.4199   -0.9704 C   0  0  0  0  0  0  0  0  0  0  0  0
    4.0103   -1.7635    4.3162 C   0  0  0  0  0  0  0  0  0  0  0  0
   15.0180   -0.6810   -1.8868 N   0  0  0  0  0  0  0  0  0  0  0  0
    3.0305   -0.6215    4.2206 N   0  0  0  0  0  0  0  0  0  0  0  0
   16.3001   -0.6715   -1.0998 C   0  0  0  0  0  0  0  0  0  0  0  0
    3.7453    0.5879    3.6803 C   0  0  0  0  0  0  0  0  0  0  0  0
   15.0872    0.3575   -2.9790 C   0  0  0  0  0  0  0  0  0  0  0  0
    2.4278   -0.2770    5.5541 C   0  0  0  0  0  0  0  0  0  0  0  0
  1  6  2  0  0  0  0
  2  3  2  0  0  0  0
  2  1  1  0  0  0  0
  3  4  1  0  0  0  0
  4 10  1  0  0  0  0
  4  5  2  0  0  0  0
  6  5  1  0  0  0  0
  7  1  1  0  0  0  0
  7 11  1  0  0  0  0
  8  7  2  0  0  0  0
  9 10  2  0  0  0  0
 10 12  1  0  0  0  0
 12 14  1  0  0  0  0
 13 11  1  0  0  0  0
 13 15  1  0  0  0  0
 14 16  1  0  0  0  0
 16 18  1  0  0  0  0
 17 15  1  0  0  0  0
 17 19  1  0  0  0  0
 18 20  1  0  0  0  0
 19 23  1  0  0  0  0
 20 22  1  0  0  0  0
 20 24  1  0  0  0  0
 21 19  1  0  0  0  0
M  END
>  <CHROM.1>
2.06739931,128.02581907,-160.48464806,94.49832156,-155.73464769,-70.16456924
161.90574492,-64.82593081,-113.92864317,-135.47418252,8.41840125,-2.22819337
0.51994256,0.14004598,-0.50393846,-2.65020970

>  <Name>
lig.pdb

>  <RI>
9.7521e+06

>  <Rbt.Current_Directory>
/home/itssahil/PROJECTS/Mol_Feturizer/New_Systems/rnas/2l94

>  <Rbt.Executable>
rbdock ($Id: //depot/dev/client3/rdock/2013.1/src/exe/rbdock.cxx#4 $)

>  <Rbt.Library>
libRbt.so (2013.1, Build901 2013/11/27)

>  <Rbt.Parameter_File>
/export/apps/rDock/src/rDock_2013.1_src/data/scripts/dock_solv.prm

>  <Rbt.Receptor>
prm/pocket_docking_7.prm

>  <SCORE>
-26.3251

>  <SCORE.INTER>
-31.345

>  <SCORE.INTER.CONST>
1

>  <SCORE.INTER.POLAR>
-3.8933

>  <SCORE.INTER.ROT>
10

>  <SCORE.INTER.SOLV>
14.1609

>  <SCORE.INTER.VDW>
-22.906

>  <SCORE.INTER.norm>
-1.30604

>  <SCORE.INTRA>
5.01988

>  <SCORE.INTRA.DIHEDRAL>
15.3727

>  <SCORE.INTRA.DIHEDRAL.0>
7.52971

>  <SCORE.INTRA.POLAR>
0

>  <SCORE.INTRA.POLAR.0>
0

>  <SCORE.INTRA.REPUL>
0

>  <SCORE.INTRA.REPUL.0>
0

>  <SCORE.INTRA.SOLV>
-0.0272598

>  <SCORE.INTRA.SOLV.lig_0>
-22.1084

>  <SCORE.INTRA.VDW>
-2.65285

>  <SCORE.INTRA.VDW.0>
2.4256

>  <SCORE.INTRA.norm>
0.209162

>  <SCORE.RESTR>
0

>  <SCORE.RESTR.CAVITY>
0

>  <SCORE.RESTR.norm>
0

>  <SCORE.SYSTEM>
0

>  <SCORE.SYSTEM.CONST>
0

>  <SCORE.SYSTEM.DIHEDRAL>
0

>  <SCORE.SYSTEM.SOLV>
0

>  <SCORE.SYSTEM.norm>
0

>  <SCORE.heavy>
24

>  <SCORE.norm>
-1.09688

>  <RMSD>
5.312

$$$$
lig.pdb
 OpenBabel11021811453D
libRbt.so/2013.1/901 2013/11/27
 24 24  0  0  0  0  0  0  0  0999 V2000
    9.7404   -3.1868   -0.8593 C   0  0  0  0  0  0  0  0  0  0  0  0
    9.2133   -2.4663    0.2650 C   0  0  0  0  0  0  0  0  0  0  0  0
    8.0097   -2.8009    0.8391 C   0  0  0  0  0  0  0  0  0  0  0  0
    7.2215   -3.8926    0.3529 C   0  0  0  0  0  0  0  0  0  0  0  0
    7.7329   -4.5898   -0.7908 C   0  0  0  0  0  0  0  0  0  0  0  0
    8.9304   -4.2515   -1.3698 C   0  0  0  0  0  0  0  0  0  0  0  0
   10.9494   -2.8831   -1.4169 C   0  0  0  0  0  0  0  0  0  0  0  0
   11.3436   -3.3653   -2.6148 N   0  0  0  0  0  0  0  0  0  0  0  0
    5.7521   -4.0152    2.2328 N   0  0  0  0  0  0  0  0  0  0  0  0
    6.0442   -4.2562    0.9372 C   0  0  0  0  0  0  0  0  0  0  0  0
   11.8463   -2.0679   -0.8085 N   0  0  0  0  0  0  0  0  0  0  0  0
    5.0618   -4.8967    0.2600 N   0  0  0  0  0  0  0  0  0  0  0  0
   12.7455   -1.1178   -1.4603 C   0  0  0  0  0  0  0  0  0  0  0  0
    3.6489   -4.9359    0.6246 C   0  0  0  0  0  0  0  0  0  0  0  0
   14.0237   -1.0154   -0.6126 C   0  0  0  0  0  0  0  0  0  0  0  0
    3.0038   -3.6167    0.1607 C   0  0  0  0  0  0  0  0  0  0  0  0
   13.7224   -0.4054    0.7633 C   0  0  0  0  0  0  0  0  0  0  0  0
    1.6665   -3.3291    0.8668 C   0  0  0  0  0  0  0  0  0  0  0  0
   15.0196   -0.1056    1.4699 N   0  0  0  0  0  0  0  0  0  0  0  0
    0.9985   -2.0986    0.3072 N   0  0  0  0  0  0  0  0  0  0  0  0
   15.7191   -1.3894    1.8250 C   0  0  0  0  0  0  0  0  0  0  0  0
    1.7940   -0.8870    0.7132 C   0  0  0  0  0  0  0  0  0  0  0  0
   14.7765    0.7010    2.7214 C   0  0  0  0  0  0  0  0  0  0  0  0
   -0.4128   -1.9439    0.8012 C   0  0  0  0  0  0  0  0  0  0  0  0
  1  6  2  0  0  0  0
  2  3  2  0  0  0  0
  2  1  1  0  0  0  0
  3  4  1  0  0  0  0
  4 10  1  0  0  0  0
  4  5  2  0  0  0  0
  6  5  1  0  0  0  0
  7  1  1  0  0  0  0
  7 11  1  0  0  0  0
  8  7  2  0  0  0  0
  9 10  2  0  0  0  0
 10 12  1  0  0  0  0
 12 14  1  0  0  0  0
 13 11  1  0  0  0  0
 13 15  1  0  0  0  0
 14 16  1  0  0  0  0
 16 18  1  0  0  0  0
 17 15  1  0  0  0  0
 17 19  1  0  0  0  0
 18 20  1  0  0  0  0
 19 23  1  0  0  0  0
 20 22  1  0  0  0  0
 20 24  1  0  0  0  0
 21 19  1  0  0  0  0
M  END
>  <CHROM.1>
-25.69824289,-166.84347890,80.11529654,-148.87044776,-65.19351404,-161.35776187
-174.93499331,-170.46794202,-68.06516680,-69.83735164,8.26749701,-2.57281382
0.24132536,-0.12061765,-0.12584546,-2.43951182

>  <Name>
lig.pdb

>  <RI>
1.39428e+07

>  <Rbt.Current_Directory>
/home/itssahil/PROJECTS/Mol_Feturizer/New_Systems/rnas/2l94

>  <Rbt.Executable>
rbdock ($Id: //depot/dev/client3/rdock/2013.1/src/exe/rbdock.cxx#4 $)

>  <Rbt.Library>
libRbt.so (2013.1, Build901 2013/11/27)

>  <Rbt.Parameter_File>
/export/apps/rDock/src/rDock_2013.1_src/data/scripts/dock_solv.prm

>  <Rbt.Receptor>
prm/pocket_docking_8.prm

>  <SCORE>
-27.3102

>  <SCORE.INTER>
-27.7361

>  <SCORE.INTER.CONST>
1

>  <SCORE.INTER.POLAR>
-3.56647

>  <SCORE.INTER.ROT>
10

>  <SCORE.INTER.SOLV>
15.2403

>  <SCORE.INTER.VDW>
-21.9492

>  <SCORE.INTER.norm>
-1.15567

>  <SCORE.INTRA>
0.425808

>  <SCORE.INTRA.DIHEDRAL>
2.57869

>  <SCORE.INTRA.DIHEDRAL.0>
7.52971

>  <SCORE.INTRA.POLAR>
0

>  <SCORE.INTRA.POLAR.0>
0

>  <SCORE.INTRA.REPUL>
0

>  <SCORE.INTRA.REPUL.0>
0

>  <SCORE.INTRA.SOLV>
0.0866974

>  <SCORE.INTRA.SOLV.lig_0>
-22.1084

>  <SCORE.INTRA.VDW>
-0.906888

>  <SCORE.INTRA.VDW.0>
2.4256

>  <SCORE.INTRA.norm>
0.017742

>  <SCORE.RESTR>
0

>  <SCORE.RESTR.CAVITY>
0

>  <SCORE.RESTR.norm>
0

>  <SCORE.SYSTEM>
0

>  <SCORE.SYSTEM.CONST>
0

>  <SCORE.SYSTEM.DIHEDRAL>
0

>  <SCORE.SYSTEM.SOLV>
0

>  <SCORE.SYSTEM.norm>
0

>  <SCORE.heavy>
24

>  <SCORE.norm>
-1.13793

>  <RMSD>
5.324

$$$$
lig.pdb
 OpenBabel11021811453D
libRbt.so/2013.1/901 2013/11/27
 24 24  0  0  0  0  0  0  0  0999 V2000
    9.7566   -3.1530   -1.0080 C   0  0  0  0  0  0  0  0  0  0  0  0
    9.2213   -2.3439    0.0502 C   0  0  0  0  0  0  0  0  0  0  0  0
    8.0992   -2.7187    0.7506 C   0  0  0  0  0  0  0  0  0  0  0  0
    7.4095   -3.9412    0.4692 C   0  0  0  0  0  0  0  0  0  0  0  0
    7.9256   -4.7316   -0.6100 C   0  0  0  0  0  0  0  0  0  0  0  0
    9.0409   -4.3544   -1.3153 C   0  0  0  0  0  0  0  0  0  0  0  0
   10.8885   -2.8059   -1.6885 C   0  0  0  0  0  0  0  0  0  0  0  0
   11.1469   -3.2327   -2.9432 N   0  0  0  0  0  0  0  0  0  0  0  0
    5.8407   -5.6033    1.1653 N   0  0  0  0  0  0  0  0  0  0  0  0
    6.3173   -4.3405    1.1815 C   0  0  0  0  0  0  0  0  0  0  0  0
   11.8396   -2.0001   -1.1544 N   0  0  0  0  0  0  0  0  0  0  0  0
    5.6126   -3.4949    1.9703 N   0  0  0  0  0  0  0  0  0  0  0  0
   12.6445   -1.0088   -1.8656 C   0  0  0  0  0  0  0  0  0  0  0  0
    4.7445   -3.8748    3.0805 C   0  0  0  0  0  0  0  0  0  0  0  0
   11.9620    0.3594   -1.7070 C   0  0  0  0  0  0  0  0  0  0  0  0
    3.5726   -2.8767    3.1276 C   0  0  0  0  0  0  0  0  0  0  0  0
   11.7601    0.7036   -0.2249 C   0  0  0  0  0  0  0  0  0  0  0  0
    4.0224   -1.4493    3.4880 C   0  0  0  0  0  0  0  0  0  0  0  0
   13.0956    1.0155    0.4003 N   0  0  0  0  0  0  0  0  0  0  0  0
    3.9591   -0.5310    2.2937 N   0  0  0  0  0  0  0  0  0  0  0  0
   13.0333    0.7853    1.8857 C   0  0  0  0  0  0  0  0  0  0  0  0
    4.9465    0.5882    2.4886 C   0  0  0  0  0  0  0  0  0  0  0  0
   13.4973    2.4437    0.1261 C   0  0  0  0  0  0  0  0  0  0  0  0
    2.5886    0.0555    2.1001 C   0  0  0  0  0  0  0  0  0  0  0  0
  1  6  2  0  0  0  0
  2  3  2  0  0  0  0
  2  1  1  0  0  0  0
  3  4  1  0  0  0  0
  4 10  1  0  0  0  0
  4  5  2  0  0  0  0
  6  5  1  0  0  0  0
  7  1  1  0  0  0  0
  7 11  1  0  0  0  0
  8  7  2  0  0  0  0
  9 10  2  0  0  0  0
 10 12  1  0  0  0  0
 12 14  1  0  0  0  0
 13 11  1  0  0  0  0
 13 15  1  0  0  0  0
 14 16  1  0  0  0  0
 16 18  1  0  0  0  0
 17 15  1  0  0  0  0
 17 19  1  0  0  0  0
 18 20  1  0  0  0  0
 19 23  1  0  0  0  0
 20 22  1  0  0  0  0
 20 24  1  0  0  0  0
 21 19  1  0  0  0  0
M  END
>  <CHROM.1>
-163.69089718,-155.21774532,-146.03634320,95.53498143,55.68540610,-66.10528000
107.69087282,71.16902820,-156.20915677,-154.25470566,8.45686785,-1.87113337
0.52758232,-0.08384843,-0.43311915,-2.72824848

>  <Name>
lig.pdb

>  <RI>
2.48096e+07

>  <Rbt.Current_Directory>
/home/itssahil/PROJECTS/Mol_Feturizer/New_Systems/rnas/2l94

>  <Rbt.Executable>
rbdock ($Id: //depot/dev/client3/rdock/2013.1/src/exe/rbdock.cxx#4 $)

>  <Rbt.Library>
libRbt.so (2013.1, Build901 2013/11/27)

>  <Rbt.Parameter_File>
/export/apps/rDock/src/rDock_2013.1_src/data/scripts/dock_solv.prm

>  <Rbt.Receptor>
prm/pocket_docking_6.prm

>  <SCORE>
-19.0877

>  <SCORE.INTER>
-20.8406

>  <SCORE.INTER.CONST>
1

>  <SCORE.INTER.POLAR>
-2.58658

>  <SCORE.INTER.ROT>
10

>  <SCORE.INTER.SOLV>
13.5089

>  <SCORE.INTER.VDW>
-20.0415

>  <SCORE.INTER.norm>
-0.868359

>  <SCORE.INTRA>
1.75288

>  <SCORE.INTRA.DIHEDRAL>
8.70855

>  <SCORE.INTRA.DIHEDRAL.0>
7.52971

>  <SCORE.INTRA.POLAR>
0

>  <SCORE.INTRA.POLAR.0>
0

>  <SCORE.INTRA.REPUL>
0

>  <SCORE.INTRA.REPUL.0>
0

>  <SCORE.INTRA.SOLV>
1.10663

>  <SCORE.INTRA.SOLV.lig_0>
-22.1084

>  <SCORE.INTRA.VDW>
-3.15471

>  <SCORE.INTRA.VDW.0>
2.4256

>  <SCORE.INTRA.norm>
0.0730367

>  <SCORE.RESTR>
0

>  <SCORE.RESTR.CAVITY>
0

>  <SCORE.RESTR.norm>
0

>  <SCORE.SYSTEM>
0

>  <SCORE.SYSTEM.CONST>
0

>  <SCORE.SYSTEM.DIHEDRAL>
0

>  <SCORE.SYSTEM.SOLV>
0

>  <SCORE.SYSTEM.norm>
0

>  <SCORE.heavy>
24

>  <SCORE.norm>
-0.795322

>  <RMSD>
5.343

$$$$
lig.pdb
 OpenBabel11021811453D
libRbt.so/2013.1/901 2013/11/27
 24 24  0  0  0  0  0  0  0  0999 V2000
    9.7127   -3.1755   -1.0154 C   0  0  0  0  0  0  0  0  0  0  0  0
    9.1609   -2.3401    0.0135 C   0  0  0  0  0  0  0  0  0  0  0  0
    8.0363   -2.7042    0.7156 C   0  0  0  0  0  0  0  0  0  0  0  0
    7.3603   -3.9410    0.4654 C   0  0  0  0  0  0  0  0  0  0  0  0
    7.8928   -4.7586   -0.5852 C   0  0  0  0  0  0  0  0  0  0  0  0
    9.0107   -4.3923   -1.2923 C   0  0  0  0  0  0  0  0  0  0  0  0
   10.8471   -2.8383   -1.6966 C   0  0  0  0  0  0  0  0  0  0  0  0
   11.1624   -3.3670   -2.8984 N   0  0  0  0  0  0  0  0  0  0  0  0
    5.8158   -5.6011    1.2184 N   0  0  0  0  0  0  0  0  0  0  0  0
    6.2658   -4.3290    1.1803 C   0  0  0  0  0  0  0  0  0  0  0  0
   11.7434   -1.9407   -1.2170 N   0  0  0  0  0  0  0  0  0  0  0  0
    5.5315   -3.4617    1.9170 N   0  0  0  0  0  0  0  0  0  0  0  0
   12.5225   -0.9819   -1.9979 C   0  0  0  0  0  0  0  0  0  0  0  0
    4.6543   -3.8064    3.0316 C   0  0  0  0  0  0  0  0  0  0  0  0
   12.9224    0.1747   -1.0677 C   0  0  0  0  0  0  0  0  0  0  0  0
    4.5277   -2.5658    3.9351 C   0  0  0  0  0  0  0  0  0  0  0  0
   13.9826   -0.2777   -0.0540 C   0  0  0  0  0  0  0  0  0  0  0  0
    3.3228   -1.6820    3.5649 C   0  0  0  0  0  0  0  0  0  0  0  0
   15.2527   -0.6293   -0.7854 N   0  0  0  0  0  0  0  0  0  0  0  0
    3.3616   -0.3609    4.2907 N   0  0  0  0  0  0  0  0  0  0  0  0
   16.2768   -1.1501    0.1859 C   0  0  0  0  0  0  0  0  0  0  0  0
    1.9510    0.0708    4.5895 C   0  0  0  0  0  0  0  0  0  0  0  0
   15.8071    0.5729   -1.5089 C   0  0  0  0  0  0  0  0  0  0  0  0
    4.0395    0.7110    3.4836 C   0  0  0  0  0  0  0  0  0  0  0  0
  1  6  2  0  0  0  0
  2  3  2  0  0  0  0
  2  1  1  0  0  0  0
  3  4  1  0  0  0  0
  4 10  1  0  0  0  0
  4  5  2  0  0  0  0
  6  5  1  0  0  0  0
  7  1  1  0  0  0  0
  7 11  1  0  0  0  0
  8  7  2  0  0  0  0
  9 10  2  0  0  0  0
 10 12  1  0  0  0  0
 12 14  1  0  0  0  0
 13 11  1  0  0  0  0
 13 15  1  0  0  0  0
 14 16  1  0  0  0  0
 16 18  1  0  0  0  0
 17 15  1  0  0  0  0
 17 19  1  0  0  0  0
 18 20  1  0  0  0  0
 19 23  1  0  0  0  0
 20 22  1  0  0  0  0
 20 24  1  0  0  0  0
 21 19  1  0  0  0  0
M  END
>  <CHROM.1>
-162.38995717,-159.62881228,155.35916049,156.50214454,71.04470744,92.12964479
-169.76247219,65.32101331,-176.76230798,-146.24166873,8.81586968,-2.14675131
0.63590421,0.13469432,-0.40801795,-2.60493705

>  <Name>
lig.pdb

>  <RI>
1.39428e+07

>  <Rbt.Current_Directory>
/home/itssahil/PROJECTS/Mol_Feturizer/New_Systems/rnas/2l94

>  <Rbt.Executable>
rbdock ($Id: //depot/dev/client3/rdock/2013.1/src/exe/rbdock.cxx#4 $)

>  <Rbt.Library>
libRbt.so (2013.1, Build901 2013/11/27)

>  <Rbt.Parameter_File>
/export/apps/rDock/src/rDock_2013.1_src/data/scripts/dock_solv.prm

>  <Rbt.Receptor>
prm/pocket_docking_8.prm

>  <SCORE>
-28.7856

>  <SCORE.INTER>
-31.078

>  <SCORE.INTER.CONST>
1

>  <SCORE.INTER.POLAR>
-3.6012

>  <SCORE.INTER.ROT>
10

>  <SCORE.INTER.SOLV>
15.1361

>  <SCORE.INTER.VDW>
-24.0267

>  <SCORE.INTER.norm>
-1.29492

>  <SCORE.INTRA>
2.29239

>  <SCORE.INTRA.DIHEDRAL>
6.06867

>  <SCORE.INTRA.DIHEDRAL.0>
7.52971

>  <SCORE.INTRA.POLAR>
0

>  <SCORE.INTRA.POLAR.0>
0

>  <SCORE.INTRA.REPUL>
0

>  <SCORE.INTRA.REPUL.0>
0

>  <SCORE.INTRA.SOLV>
0.167744

>  <SCORE.INTRA.SOLV.lig_0>
-22.1084

>  <SCORE.INTRA.VDW>
-0.825814

>  <SCORE.INTRA.VDW.0>
2.4256

>  <SCORE.INTRA.norm>
0.0955164

>  <SCORE.RESTR>
0

>  <SCORE.RESTR.CAVITY>
0

>  <SCORE.RESTR.norm>
0

>  <SCORE.SYSTEM>
0

>  <SCORE.SYSTEM.CONST>
0

>  <SCORE.SYSTEM.DIHEDRAL>
0

>  <SCORE.SYSTEM.SOLV>
0

>  <SCORE.SYSTEM.norm>
0

>  <SCORE.heavy>
24

>  <SCORE.norm>
-1.1994

>  <RMSD>
5.352

$$$$
lig.pdb
 OpenBabel11021811453D
libRbt.so/2013.1/901 2013/11/27
 24 24  0  0  0  0  0  0  0  0999 V2000
   10.2163   -2.5359   -2.1893 C   0  0  0  0  0  0  0  0  0  0  0  0
    8.8646   -2.5006   -2.6717 C   0  0  0  0  0  0  0  0  0  0  0  0
    7.7928   -2.7128   -1.8372 C   0  0  0  0  0  0  0  0  0  0  0  0
    7.9663   -2.9707   -0.4398 C   0  0  0  0  0  0  0  0  0  0  0  0
    9.3178   -3.0390    0.0339 C   0  0  0  0  0  0  0  0  0  0  0  0
   10.3888   -2.8353   -0.7998 C   0  0  0  0  0  0  0  0  0  0  0  0
   11.2862   -2.2950   -3.0029 C   0  0  0  0  0  0  0  0  0  0  0  0
   11.3111   -2.6560   -4.3038 N   0  0  0  0  0  0  0  0  0  0  0  0
    7.0202   -3.7066    1.6270 N   0  0  0  0  0  0  0  0  0  0  0  0
    6.9094   -3.1465    0.4038 C   0  0  0  0  0  0  0  0  0  0  0  0
   12.4065   -1.6691   -2.5645 N   0  0  0  0  0  0  0  0  0  0  0  0
    5.6487   -2.7718    0.0808 N   0  0  0  0  0  0  0  0  0  0  0  0
   13.2453   -0.7452   -3.3254 C   0  0  0  0  0  0  0  0  0  0  0  0
    4.5636   -2.5013    1.0188 C   0  0  0  0  0  0  0  0  0  0  0  0
   14.3205   -0.1895   -2.3777 C   0  0  0  0  0  0  0  0  0  0  0  0
    4.9554   -1.2669    1.8521 C   0  0  0  0  0  0  0  0  0  0  0  0
   14.8618    1.1529   -2.8885 C   0  0  0  0  0  0  0  0  0  0  0  0
    4.0622   -1.0795    3.0919 C   0  0  0  0  0  0  0  0  0  0  0  0
   15.6818    1.8041   -1.8044 N   0  0  0  0  0  0  0  0  0  0  0  0
    4.0606    0.3533    3.5615 N   0  0  0  0  0  0  0  0  0  0  0  0
   15.6163    3.3010   -1.9405 C   0  0  0  0  0  0  0  0  0  0  0  0
    3.1978    0.4609    4.7900 C   0  0  0  0  0  0  0  0  0  0  0  0
   17.1196    1.3523   -1.8727 C   0  0  0  0  0  0  0  0  0  0  0  0
    3.5363    1.2942    2.5128 C   0  0  0  0  0  0  0  0  0  0  0  0
  1  6  2  0  0  0  0
  2  3  2  0  0  0  0
  2  1  1  0  0  0  0
  3  4  1  0  0  0  0
  4 10  1  0  0  0  0
  4  5  2  0  0  0  0
  6  5  1  0  0  0  0
  7  1  1  0  0  0  0
  7 11  1  0  0  0  0
  8  7  2  0  0  0  0
  9 10  2  0  0  0  0
 10 12  1  0  0  0  0
 12 14  1  0  0  0  0
 13 11  1  0  0  0  0
 13 15  1  0  0  0  0
 14 16  1  0  0  0  0
 16 18  1  0  0  0  0
 17 15  1  0  0  0  0
 17 19  1  0  0  0  0
 18 20  1  0  0  0  0
 19 23  1  0  0  0  0
 20 22  1  0  0  0  0
 20 24  1  0  0  0  0
 21 19  1  0  0  0  0
M  END
>  <CHROM.1>
163.08358415,-34.19345648,64.95003620,174.72106665,-157.07093266,-166.27541410
-156.72458997,167.94885688,-150.50296295,-178.69412288,9.36453958,-1.13346870
-0.50094786,0.14060308,-0.45517933,-2.52754030

>  <Name>
lig.pdb

>  <RI>
2.48096e+07

>  <Rbt.Current_Directory>
/home/itssahil/PROJECTS/Mol_Feturizer/New_Systems/rnas/2l94

>  <Rbt.Executable>
rbdock ($Id: //depot/dev/client3/rdock/2013.1/src/exe/rbdock.cxx#4 $)

>  <Rbt.Library>
libRbt.so (2013.1, Build901 2013/11/27)

>  <Rbt.Parameter_File>
/export/apps/rDock/src/rDock_2013.1_src/data/scripts/dock_solv.prm

>  <Rbt.Receptor>
prm/pocket_docking_6.prm

>  <SCORE>
-19.0889

>  <SCORE.INTER>
-21.9337

>  <SCORE.INTER.CONST>
1

>  <SCORE.INTER.POLAR>
-3.38217

>  <SCORE.INTER.ROT>
10

>  <SCORE.INTER.SOLV>
13.8888

>  <SCORE.INTER.VDW>
-18.2449

>  <SCORE.INTER.norm>
-0.913905

>  <SCORE.INTRA>
2.8122

>  <SCORE.INTRA.DIHEDRAL>
8.83319

>  <SCORE.INTRA.DIHEDRAL.0>
7.52971

>  <SCORE.INTRA.POLAR>
0

>  <SCORE.INTRA.POLAR.0>
0

>  <SCORE.INTRA.REPUL>
0

>  <SCORE.INTRA.REPUL.0>
0

>  <SCORE.INTRA.SOLV>
-0.11901

>  <SCORE.INTRA.SOLV.lig_0>
-22.1084

>  <SCORE.INTRA.VDW>
-1.54489

>  <SCORE.INTRA.VDW.0>
2.4256

>  <SCORE.INTRA.norm>
0.117175

>  <SCORE.RESTR>
0.032649

>  <SCORE.RESTR.CAVITY>
0.032649

>  <SCORE.RESTR.norm>
0.00136037

>  <SCORE.SYSTEM>
0

>  <SCORE.SYSTEM.CONST>
0

>  <SCORE.SYSTEM.DIHEDRAL>
0

>  <SCORE.SYSTEM.SOLV>
0

>  <SCORE.SYSTEM.norm>
0

>  <SCORE.heavy>
24

>  <SCORE.norm>
-0.79537

>  <RMSD>
5.358

$$$$
lig.pdb
 OpenBabel11021811453D
libRbt.so/2013.1/901 2013/11/27
 24 24  0  0  0  0  0  0  0  0999 V2000
    7.3244   -3.8436    0.4081 C   0  0  0  0  0  0  0  0  0  0  0  0
    8.0634   -4.6473   -0.5241 C   0  0  0  0  0  0  0  0  0  0  0  0
    9.1390   -4.1458   -1.2181 C   0  0  0  0  0  0  0  0  0  0  0  0
    9.5867   -2.7976   -1.0411 C   0  0  0  0  0  0  0  0  0  0  0  0
    8.8272   -1.9863   -0.1351 C   0  0  0  0  0  0  0  0  0  0  0  0
    7.7483   -2.4835    0.5521 C   0  0  0  0  0  0  0  0  0  0  0  0
    6.2746   -4.3409    1.1260 C   0  0  0  0  0  0  0  0  0  0  0  0
    5.9675   -5.6554    1.1565 N   0  0  0  0  0  0  0  0  0  0  0  0
   11.7292   -3.0574   -2.0660 N   0  0  0  0  0  0  0  0  0  0  0  0
   10.6743   -2.3006   -1.6967 C   0  0  0  0  0  0  0  0  0  0  0  0
    5.4613   -3.5492    1.8681 N   0  0  0  0  0  0  0  0  0  0  0  0
   10.7880   -0.9938   -2.0335 N   0  0  0  0  0  0  0  0  0  0  0  0
    4.8402   -3.8895    3.1466 C   0  0  0  0  0  0  0  0  0  0  0  0
   11.6448   -0.4457   -3.0804 C   0  0  0  0  0  0  0  0  0  0  0  0
    3.5298   -3.0945    3.2645 C   0  0  0  0  0  0  0  0  0  0  0  0
   12.4301    0.7348   -2.4792 C   0  0  0  0  0  0  0  0  0  0  0  0
    3.8092   -1.6216    3.5939 C   0  0  0  0  0  0  0  0  0  0  0  0
   13.5349    0.2800   -1.5084 C   0  0  0  0  0  0  0  0  0  0  0  0
    2.5085   -0.9249    3.9016 N   0  0  0  0  0  0  0  0  0  0  0  0
   14.7579   -0.2009   -2.2477 N   0  0  0  0  0  0  0  0  0  0  0  0
    1.8224   -0.5305    2.6222 C   0  0  0  0  0  0  0  0  0  0  0  0
   15.6344   -0.9645   -1.2917 C   0  0  0  0  0  0  0  0  0  0  0  0
    2.7425    0.3012    4.7489 C   0  0  0  0  0  0  0  0  0  0  0  0
   15.5493    0.9341   -2.8353 C   0  0  0  0  0  0  0  0  0  0  0  0
  1  6  2  0  0  0  0
  2  3  2  0  0  0  0
  2  1  1  0  0  0  0
  3  4  1  0  0  0  0
  4 10  1  0  0  0  0
  4  5  2  0  0  0  0
  6  5  1  0  0  0  0
  7  1  1  0  0  0  0
  7 11  1  0  0  0  0
  8  7  2  0  0  0  0
  9 10  2  0  0  0  0
 10 12  1  0  0  0  0
 12 14  1  0  0  0  0
 13 11  1  0  0  0  0
 13 15  1  0  0  0  0
 14 16  1  0  0  0  0
 16 18  1  0  0  0  0
 17 15  1  0  0  0  0
 17 19  1  0  0  0  0
 18 20  1  0  0  0  0
 19 23  1  0  0  0  0
 20 22  1  0  0  0  0
 20 24  1  0  0  0  0
 21 19  1  0  0  0  0
M  END
>  <CHROM.1>
-30.11501673,9.36783746,-131.00414342,-151.55708737,-75.42181512,72.74489638
78.99005055,-171.68655133,-81.79254115,-164.87201974,8.52239547,-2.00542059
0.19515231,-3.09810954,0.50791399,0.21596234

>  <Name>
lig.pdb

>  <RI>
2.48096e+07

>  <Rbt.Current_Directory>
/home/itssahil/PROJECTS/Mol_Feturizer/New_Systems/rnas/2l94

>  <Rbt.Executable>
rbdock ($Id: //depot/dev/client3/rdock/2013.1/src/exe/rbdock.cxx#4 $)

>  <Rbt.Library>
libRbt.so (2013.1, Build901 2013/11/27)

>  <Rbt.Parameter_File>
/export/apps/rDock/src/rDock_2013.1_src/data/scripts/dock_solv.prm

>  <Rbt.Receptor>
prm/pocket_docking_6.prm

>  <SCORE>
-22.0723

>  <SCORE.INTER>
-22.2824

>  <SCORE.INTER.CONST>
1

>  <SCORE.INTER.POLAR>
-3.0164

>  <SCORE.INTER.ROT>
10

>  <SCORE.INTER.SOLV>
13.3302

>  <SCORE.INTER.VDW>
-19.5103

>  <SCORE.INTER.norm>
-0.928433

>  <SCORE.INTRA>
0.210098

>  <SCORE.INTRA.DIHEDRAL>
5.42899

>  <SCORE.INTRA.DIHEDRAL.0>
7.52971

>  <SCORE.INTRA.POLAR>
0

>  <SCORE.INTRA.POLAR.0>
0

>  <SCORE.INTRA.REPUL>
0

>  <SCORE.INTRA.REPUL.0>
0

>  <SCORE.INTRA.SOLV>
0.491418

>  <SCORE.INTRA.SOLV.lig_0>
-22.1084

>  <SCORE.INTRA.VDW>
-2.75011

>  <SCORE.INTRA.VDW.0>
2.4256

>  <SCORE.INTRA.norm>
0.00875408

>  <SCORE.RESTR>
0

>  <SCORE.RESTR.CAVITY>
0

>  <SCORE.RESTR.norm>
0

>  <SCORE.SYSTEM>
0

>  <SCORE.SYSTEM.CONST>
0

>  <SCORE.SYSTEM.DIHEDRAL>
0

>  <SCORE.SYSTEM.SOLV>
0

>  <SCORE.SYSTEM.norm>
0

>  <SCORE.heavy>
24

>  <SCORE.norm>
-0.919678

>  <RMSD>
5.361

$$$$
lig.pdb
 OpenBabel11021811453D
libRbt.so/2013.1/901 2013/11/27
 24 24  0  0  0  0  0  0  0  0999 V2000
    9.5513   -2.9535   -1.1915 C   0  0  0  0  0  0  0  0  0  0  0  0
    8.9462   -4.2369   -1.4101 C   0  0  0  0  0  0  0  0  0  0  0  0
    7.9068   -4.6887   -0.6318 C   0  0  0  0  0  0  0  0  0  0  0  0
    7.3648   -3.8994    0.4325 C   0  0  0  0  0  0  0  0  0  0  0  0
    7.9922   -2.6324    0.6711 C   0  0  0  0  0  0  0  0  0  0  0  0
    9.0352   -2.1839   -0.0999 C   0  0  0  0  0  0  0  0  0  0  0  0
   10.5627   -2.4819   -1.9785 C   0  0  0  0  0  0  0  0  0  0  0  0
   10.3431   -1.8683   -3.1611 N   0  0  0  0  0  0  0  0  0  0  0  0
    5.9333   -5.6149    1.2787 N   0  0  0  0  0  0  0  0  0  0  0  0
    6.3105   -4.3220    1.1871 C   0  0  0  0  0  0  0  0  0  0  0  0
   11.8681   -2.5914   -1.6280 N   0  0  0  0  0  0  0  0  0  0  0  0
    5.5463   -3.4715    1.9127 N   0  0  0  0  0  0  0  0  0  0  0  0
   12.9282   -1.6210   -1.8939 C   0  0  0  0  0  0  0  0  0  0  0  0
    4.7159   -3.8252    3.0598 C   0  0  0  0  0  0  0  0  0  0  0  0
   13.7352   -1.4325   -0.5992 C   0  0  0  0  0  0  0  0  0  0  0  0
    3.7392   -2.6618    3.3134 C   0  0  0  0  0  0  0  0  0  0  0  0
   13.0843   -0.3763    0.3045 C   0  0  0  0  0  0  0  0  0  0  0  0
    2.8397   -2.8983    4.5401 C   0  0  0  0  0  0  0  0  0  0  0  0
   13.9647   -0.1366    1.5041 N   0  0  0  0  0  0  0  0  0  0  0  0
    1.8043   -1.8118    4.6849 N   0  0  0  0  0  0  0  0  0  0  0  0
   13.3202    0.8667    2.4215 C   0  0  0  0  0  0  0  0  0  0  0  0
    2.4472   -0.6102    5.3239 C   0  0  0  0  0  0  0  0  0  0  0  0
   15.3240    0.3639    1.0823 C   0  0  0  0  0  0  0  0  0  0  0  0
    0.6379   -2.2472    5.5274 C   0  0  0  0  0  0  0  0  0  0  0  0
  1  6  2  0  0  0  0
  2  3  2  0  0  0  0
  2  1  1  0  0  0  0
  3  4  1  0  0  0  0
  4 10  1  0  0  0  0
  4  5  2  0  0  0  0
  6  5  1  0  0  0  0
  7  1  1  0  0  0  0
  7 11  1  0  0  0  0
  8  7  2  0  0  0  0
  9 10  2  0  0  0  0
 10 12  1  0  0  0  0
 12 14  1  0  0  0  0
 13 11  1  0  0  0  0
 13 15  1  0  0  0  0
 14 16  1  0  0  0  0
 16 18  1  0  0  0  0
 17 15  1  0  0  0  0
 17 19  1  0  0  0  0
 18 20  1  0  0  0  0
 19 23  1  0  0  0  0
 20 22  1  0  0  0  0
 20 24  1  0  0  0  0
 21 19  1  0  0  0  0
M  END
>  <CHROM.1>
19.61723530,83.20018654,-164.19871165,133.88086712,-85.58842193,-177.87691754
-174.37139866,-175.22006541,-178.29962791,-80.03357372,8.31598950,-2.34263668
1.08890118,0.22865712,-0.37727606,-2.23682044

>  <Name>
lig.pdb

>  <RI>
9.7521e+06

>  <Rbt.Current_Directory>
/home/itssahil/PROJECTS/Mol_Feturizer/New_Systems/rnas/2l94

>  <Rbt.Executable>
rbdock ($Id: //depot/dev/client3/rdock/2013.1/src/exe/rbdock.cxx#4 $)

>  <Rbt.Library>
libRbt.so (2013.1, Build901 2013/11/27)

>  <Rbt.Parameter_File>
/export/apps/rDock/src/rDock_2013.1_src/data/scripts/dock_solv.prm

>  <Rbt.Receptor>
prm/pocket_docking_7.prm

>  <SCORE>
-18.5891

>  <SCORE.INTER>
-24.3007

>  <SCORE.INTER.CONST>
1

>  <SCORE.INTER.POLAR>
-2.76862

>  <SCORE.INTER.ROT>
10

>  <SCORE.INTER.SOLV>
13.6855

>  <SCORE.INTER.VDW>
-21.8002

>  <SCORE.INTER.norm>
-1.01253

>  <SCORE.INTRA>
5.66214

>  <SCORE.INTRA.DIHEDRAL>
14.652

>  <SCORE.INTRA.DIHEDRAL.0>
7.52971

>  <SCORE.INTRA.POLAR>
0

>  <SCORE.INTRA.POLAR.0>
0

>  <SCORE.INTRA.REPUL>
0

>  <SCORE.INTRA.REPUL.0>
0

>  <SCORE.INTRA.SOLV>
-0.340585

>  <SCORE.INTRA.SOLV.lig_0>
-22.1084

>  <SCORE.INTRA.VDW>
-1.49357

>  <SCORE.INTRA.VDW.0>
2.4256

>  <SCORE.INTRA.norm>
0.235923

>  <SCORE.RESTR>
0.0494335

>  <SCORE.RESTR.CAVITY>
0.0494335

>  <SCORE.RESTR.norm>
0.00205973

>  <SCORE.SYSTEM>
0

>  <SCORE.SYSTEM.CONST>
0

>  <SCORE.SYSTEM.DIHEDRAL>
0

>  <SCORE.SYSTEM.SOLV>
0

>  <SCORE.SYSTEM.norm>
0

>  <SCORE.heavy>
24

>  <SCORE.norm>
-0.774545

>  <RMSD>
5.370

$$$$
lig.pdb
 OpenBabel11021811453D
libRbt.so/2013.1/901 2013/11/27
 24 24  0  0  0  0  0  0  0  0999 V2000
   10.7262   -1.9338   -1.9449 C   0  0  0  0  0  0  0  0  0  0  0  0
    9.9027   -3.0742   -1.6579 C   0  0  0  0  0  0  0  0  0  0  0  0
    8.9207   -3.0340   -0.6966 C   0  0  0  0  0  0  0  0  0  0  0  0
    8.6594   -1.8494    0.0635 C   0  0  0  0  0  0  0  0  0  0  0  0
    9.5048   -0.7218   -0.2006 C   0  0  0  0  0  0  0  0  0  0  0  0
   10.4908   -0.7634   -1.1544 C   0  0  0  0  0  0  0  0  0  0  0  0
   11.6826   -1.9532   -2.9194 C   0  0  0  0  0  0  0  0  0  0  0  0
   11.4707   -2.4877   -4.1410 N   0  0  0  0  0  0  0  0  0  0  0  0
    7.4474   -2.7491    1.9155 N   0  0  0  0  0  0  0  0  0  0  0  0
    7.6643   -1.7870    0.9938 C   0  0  0  0  0  0  0  0  0  0  0  0
   12.9204   -1.4313   -2.7335 N   0  0  0  0  0  0  0  0  0  0  0  0
    6.8018   -0.7457    1.0697 N   0  0  0  0  0  0  0  0  0  0  0  0
   13.7364   -0.7418   -3.7310 C   0  0  0  0  0  0  0  0  0  0  0  0
    6.0203   -0.3584    2.2401 C   0  0  0  0  0  0  0  0  0  0  0  0
   15.0004   -0.2177   -3.0306 C   0  0  0  0  0  0  0  0  0  0  0  0
    5.8863    1.1758    2.2329 C   0  0  0  0  0  0  0  0  0  0  0  0
   14.6365    0.6335   -1.8063 C   0  0  0  0  0  0  0  0  0  0  0  0
    5.0282    1.6915    1.0634 C   0  0  0  0  0  0  0  0  0  0  0  0
   13.9897    1.9152   -2.2654 N   0  0  0  0  0  0  0  0  0  0  0  0
    4.9918    3.1984    1.0260 N   0  0  0  0  0  0  0  0  0  0  0  0
   14.6001    3.0854   -1.5433 C   0  0  0  0  0  0  0  0  0  0  0  0
    3.6520    3.6391    0.5005 C   0  0  0  0  0  0  0  0  0  0  0  0
   12.5022    1.8866   -2.0155 C   0  0  0  0  0  0  0  0  0  0  0  0
    6.0718    3.7711    0.1511 C   0  0  0  0  0  0  0  0  0  0  0  0
  1  6  2  0  0  0  0
  2  3  2  0  0  0  0
  2  1  1  0  0  0  0
  3  4  1  0  0  0  0
  4 10  1  0  0  0  0
  4  5  2  0  0  0  0
  6  5  1  0  0  0  0
  7  1  1  0  0  0  0
  7 11  1  0  0  0  0
  8  7  2  0  0  0  0
  9 10  2  0  0  0  0
 10 12  1  0  0  0  0
 12 14  1  0  0  0  0
 13 11  1  0  0  0  0
 13 15  1  0  0  0  0
 14 16  1  0  0  0  0
 16 18  1  0  0  0  0
 17 15  1  0  0  0  0
 17 19  1  0  0  0  0
 18 20  1  0  0  0  0
 19 23  1  0  0  0  0
 20 22  1  0  0  0  0
 20 24  1  0  0  0  0
 21 19  1  0  0  0  0
M  END
>  <CHROM.1>
45.91407008,43.93694209,146.38964235,174.91226397,-53.71631847,67.19600465
-176.10408057,-68.72543308,-133.01974811,-147.31780942,9.67148567,-0.03698034
-0.77167731,0.18131171,-0.45272057,-3.10327696

>  <Name>
lig.pdb

>  <RI>
1.71133e+07

>  <Rbt.Current_Directory>
/home/itssahil/PROJECTS/Mol_Feturizer/New_Systems/rnas/2l94

>  <Rbt.Executable>
rbdock ($Id: //depot/dev/client3/rdock/2013.1/src/exe/rbdock.cxx#4 $)

>  <Rbt.Library>
libRbt.so (2013.1, Build901 2013/11/27)

>  <Rbt.Parameter_File>
/export/apps/rDock/src/rDock_2013.1_src/data/scripts/dock_solv.prm

>  <Rbt.Receptor>
prm/pocket_docking_5.prm

>  <SCORE>
-19.4529

>  <SCORE.INTER>
-25.0619

>  <SCORE.INTER.CONST>
1

>  <SCORE.INTER.POLAR>
-3.966

>  <SCORE.INTER.ROT>
10

>  <SCORE.INTER.SOLV>
13.2935

>  <SCORE.INTER.VDW>
-18.1858

>  <SCORE.INTER.norm>
-1.04425

>  <SCORE.INTRA>
5.60905

>  <SCORE.INTRA.DIHEDRAL>
15.8439

>  <SCORE.INTRA.DIHEDRAL.0>
7.52971

>  <SCORE.INTRA.POLAR>
0

>  <SCORE.INTRA.POLAR.0>
0

>  <SCORE.INTRA.REPUL>
0

>  <SCORE.INTRA.REPUL.0>
0

>  <SCORE.INTRA.SOLV>
0.536228

>  <SCORE.INTRA.SOLV.lig_0>
-22.1084

>  <SCORE.INTRA.VDW>
-2.58102

>  <SCORE.INTRA.VDW.0>
2.4256

>  <SCORE.INTRA.norm>
0.23371

>  <SCORE.RESTR>
0

>  <SCORE.RESTR.CAVITY>
0

>  <SCORE.RESTR.norm>
0

>  <SCORE.SYSTEM>
0

>  <SCORE.SYSTEM.CONST>
0

>  <SCORE.SYSTEM.DIHEDRAL>
0

>  <SCORE.SYSTEM.SOLV>
0

>  <SCORE.SYSTEM.norm>
0

>  <SCORE.heavy>
24

>  <SCORE.norm>
-0.810537

>  <RMSD>
5.371

$$$$
lig.pdb
 OpenBabel11021811453D
libRbt.so/2013.1/901 2013/11/27
 24 24  0  0  0  0  0  0  0  0999 V2000
    7.4206   -3.9671    0.1430 C   0  0  0  0  0  0  0  0  0  0  0  0
    7.9368   -4.6097   -1.0324 C   0  0  0  0  0  0  0  0  0  0  0  0
    9.1309   -4.2309   -1.5988 C   0  0  0  0  0  0  0  0  0  0  0  0
    9.9292   -3.1815   -1.0411 C   0  0  0  0  0  0  0  0  0  0  0  0
    9.3961   -2.5181    0.1128 C   0  0  0  0  0  0  0  0  0  0  0  0
    8.2003   -2.8901    0.6743 C   0  0  0  0  0  0  0  0  0  0  0  0
    6.2517   -4.3566    0.7318 C   0  0  0  0  0  0  0  0  0  0  0  0
    6.0173   -4.2166    2.0542 N   0  0  0  0  0  0  0  0  0  0  0  0
   11.5198   -3.1511   -2.8236 N   0  0  0  0  0  0  0  0  0  0  0  0
   11.1322   -2.8220   -1.5732 C   0  0  0  0  0  0  0  0  0  0  0  0
    5.2333   -4.9117    0.0291 N   0  0  0  0  0  0  0  0  0  0  0  0
   12.0472   -2.0995   -0.8841 N   0  0  0  0  0  0  0  0  0  0  0  0
    3.8035   -4.7249    0.2680 C   0  0  0  0  0  0  0  0  0  0  0  0
   13.1259   -1.3023   -1.4598 C   0  0  0  0  0  0  0  0  0  0  0  0
    3.4195   -3.3199   -0.2235 C   0  0  0  0  0  0  0  0  0  0  0  0
   12.8334    0.1789   -1.1563 C   0  0  0  0  0  0  0  0  0  0  0  0
    2.0088   -2.9403    0.2474 C   0  0  0  0  0  0  0  0  0  0  0  0
   12.6265    0.4477    0.3453 C   0  0  0  0  0  0  0  0  0  0  0  0
    2.0275   -2.7045    1.7360 N   0  0  0  0  0  0  0  0  0  0  0  0
   13.9356    0.4458    1.0934 N   0  0  0  0  0  0  0  0  0  0  0  0
    0.6198   -2.6380    2.2628 C   0  0  0  0  0  0  0  0  0  0  0  0
   14.2855   -0.9724    1.4567 C   0  0  0  0  0  0  0  0  0  0  0  0
    2.7531   -1.4243    2.0688 C   0  0  0  0  0  0  0  0  0  0  0  0
   13.8736    1.2701    2.3491 C   0  0  0  0  0  0  0  0  0  0  0  0
  1  6  2  0  0  0  0
  2  3  2  0  0  0  0
  2  1  1  0  0  0  0
  3  4  1  0  0  0  0
  4 10  1  0  0  0  0
  4  5  2  0  0  0  0
  6  5  1  0  0  0  0
  7  1  1  0  0  0  0
  7 11  1  0  0  0  0
  8  7  2  0  0  0  0
  9 10  2  0  0  0  0
 10 12  1  0  0  0  0
 12 14  1  0  0  0  0
 13 11  1  0  0  0  0
 13 15  1  0  0  0  0
 14 16  1  0  0  0  0
 16 18  1  0  0  0  0
 17 15  1  0  0  0  0
 17 19  1  0  0  0  0
 18 20  1  0  0  0  0
 19 23  1  0  0  0  0
 20 22  1  0  0  0  0
 20 24  1  0  0  0  0
 21 19  1  0  0  0  0
M  END
>  <CHROM.1>
17.67487481,150.97992401,113.29207680,74.37522942,-168.49693911,54.71464447
75.84082069,70.51405678,-167.31606175,-84.86260101,8.30540550,-2.48469852
0.19948908,-3.02801300,0.25260085,0.73663786

>  <Name>
lig.pdb

>  <RI>
2.48096e+07

>  <Rbt.Current_Directory>
/home/itssahil/PROJECTS/Mol_Feturizer/New_Systems/rnas/2l94

>  <Rbt.Executable>
rbdock ($Id: //depot/dev/client3/rdock/2013.1/src/exe/rbdock.cxx#4 $)

>  <Rbt.Library>
libRbt.so (2013.1, Build901 2013/11/27)

>  <Rbt.Parameter_File>
/export/apps/rDock/src/rDock_2013.1_src/data/scripts/dock_solv.prm

>  <Rbt.Receptor>
prm/pocket_docking_6.prm

>  <SCORE>
-21.5201

>  <SCORE.INTER>
-22.278

>  <SCORE.INTER.CONST>
1

>  <SCORE.INTER.POLAR>
-3.08859

>  <SCORE.INTER.ROT>
10

>  <SCORE.INTER.SOLV>
13.7975

>  <SCORE.INTER.VDW>
-19.4226

>  <SCORE.INTER.norm>
-0.928252

>  <SCORE.INTRA>
0.757903

>  <SCORE.INTRA.DIHEDRAL>
5.12219

>  <SCORE.INTRA.DIHEDRAL.0>
7.52971

>  <SCORE.INTRA.POLAR>
0

>  <SCORE.INTRA.POLAR.0>
0

>  <SCORE.INTRA.REPUL>
0

>  <SCORE.INTRA.REPUL.0>
0

>  <SCORE.INTRA.SOLV>
0.747713

>  <SCORE.INTRA.SOLV.lig_0>
-22.1084

>  <SCORE.INTRA.VDW>
-2.17705

>  <SCORE.INTRA.VDW.0>
2.4256

>  <SCORE.INTRA.norm>
0.0315793

>  <SCORE.RESTR>
0

>  <SCORE.RESTR.CAVITY>
0

>  <SCORE.RESTR.norm>
0

>  <SCORE.SYSTEM>
0

>  <SCORE.SYSTEM.CONST>
0

>  <SCORE.SYSTEM.DIHEDRAL>
0

>  <SCORE.SYSTEM.SOLV>
0

>  <SCORE.SYSTEM.norm>
0

>  <SCORE.heavy>
24

>  <SCORE.norm>
-0.896673

>  <RMSD>
5.386

$$$$
lig.pdb
 OpenBabel11021811453D
libRbt.so/2013.1/901 2013/11/27
 24 24  0  0  0  0  0  0  0  0999 V2000
    7.1558   -4.1303    0.2905 C   0  0  0  0  0  0  0  0  0  0  0  0
    7.6723   -4.5865   -0.9690 C   0  0  0  0  0  0  0  0  0  0  0  0
    8.7742   -4.0066   -1.5518 C   0  0  0  0  0  0  0  0  0  0  0  0
    9.4723   -2.9228   -0.9294 C   0  0  0  0  0  0  0  0  0  0  0  0
    8.9353   -2.4463    0.3117 C   0  0  0  0  0  0  0  0  0  0  0  0
    7.8306   -3.0191    0.8905 C   0  0  0  0  0  0  0  0  0  0  0  0
    6.0816   -4.7198    0.8933 C   0  0  0  0  0  0  0  0  0  0  0  0
    5.9668   -4.8326    2.2339 N   0  0  0  0  0  0  0  0  0  0  0  0
   11.0508   -2.6855   -2.7071 N   0  0  0  0  0  0  0  0  0  0  0  0
   10.5875   -2.3641   -1.4807 C   0  0  0  0  0  0  0  0  0  0  0  0
    5.0440   -5.2344    0.1880 N   0  0  0  0  0  0  0  0  0  0  0  0
   11.3306   -1.4330   -0.8366 N   0  0  0  0  0  0  0  0  0  0  0  0
    3.6342   -5.2215    0.5734 C   0  0  0  0  0  0  0  0  0  0  0  0
   12.2376   -0.4737   -1.4593 C   0  0  0  0  0  0  0  0  0  0  0  0
    3.2623   -3.7826    0.9661 C   0  0  0  0  0  0  0  0  0  0  0  0
   13.6524   -1.0819   -1.4444 C   0  0  0  0  0  0  0  0  0  0  0  0
    1.8362   -3.7187    1.5302 C   0  0  0  0  0  0  0  0  0  0  0  0
   14.1584   -1.3736   -0.0201 C   0  0  0  0  0  0  0  0  0  0  0  0
    1.5311   -2.3046    1.9533 N   0  0  0  0  0  0  0  0  0  0  0  0
   14.4504   -0.1015    0.7349 N   0  0  0  0  0  0  0  0  0  0  0  0
    0.5941   -2.3120    3.1304 C   0  0  0  0  0  0  0  0  0  0  0  0
   15.7828    0.4352    0.2854 C   0  0  0  0  0  0  0  0  0  0  0  0
    0.9125   -1.5254    0.8192 C   0  0  0  0  0  0  0  0  0  0  0  0
   14.4884   -0.3194    2.2219 C   0  0  0  0  0  0  0  0  0  0  0  0
  1  6  2  0  0  0  0
  2  3  2  0  0  0  0
  2  1  1  0  0  0  0
  3  4  1  0  0  0  0
  4 10  1  0  0  0  0
  4  5  2  0  0  0  0
  6  5  1  0  0  0  0
  7  1  1  0  0  0  0
  7 11  1  0  0  0  0
  8  7  2  0  0  0  0
  9 10  2  0  0  0  0
 10 12  1  0  0  0  0
 12 14  1  0  0  0  0
 13 11  1  0  0  0  0
 13 15  1  0  0  0  0
 14 16  1  0  0  0  0
 16 18  1  0  0  0  0
 17 15  1  0  0  0  0
 17 19  1  0  0  0  0
 18 20  1  0  0  0  0
 19 23  1  0  0  0  0
 20 22  1  0  0  0  0
 20 24  1  0  0  0  0
 21 19  1  0  0  0  0
M  END
>  <CHROM.1>
6.76998653,145.53366078,-94.17337324,50.25889240,-173.78491029,-60.41754313
-70.10608418,177.75166991,-148.10166215,-78.77683704,8.18185264,-2.62855036
0.26907688,-3.07250754,0.26667139,0.73384265

>  <Name>
lig.pdb

>  <RI>
2.48096e+07

>  <Rbt.Current_Directory>
/home/itssahil/PROJECTS/Mol_Feturizer/New_Systems/rnas/2l94

>  <Rbt.Executable>
rbdock ($Id: //depot/dev/client3/rdock/2013.1/src/exe/rbdock.cxx#4 $)

>  <Rbt.Library>
libRbt.so (2013.1, Build901 2013/11/27)

>  <Rbt.Parameter_File>
/export/apps/rDock/src/rDock_2013.1_src/data/scripts/dock_solv.prm

>  <Rbt.Receptor>
prm/pocket_docking_6.prm

>  <SCORE>
-21.4639

>  <SCORE.INTER>
-21.5755

>  <SCORE.INTER.CONST>
1

>  <SCORE.INTER.POLAR>
-3.24244

>  <SCORE.INTER.ROT>
10

>  <SCORE.INTER.SOLV>
13.2325

>  <SCORE.INTER.VDW>
-18.2531

>  <SCORE.INTER.norm>
-0.89898

>  <SCORE.INTRA>
0.111583

>  <SCORE.INTRA.DIHEDRAL>
4.81564

>  <SCORE.INTRA.DIHEDRAL.0>
7.52971

>  <SCORE.INTRA.POLAR>
0

>  <SCORE.INTRA.POLAR.0>
0

>  <SCORE.INTRA.REPUL>
0

>  <SCORE.INTRA.REPUL.0>
0

>  <SCORE.INTRA.SOLV>
0.673664

>  <SCORE.INTRA.SOLV.lig_0>
-22.1084

>  <SCORE.INTRA.VDW>
-2.63307

>  <SCORE.INTRA.VDW.0>
2.4256

>  <SCORE.INTRA.norm>
0.0046493

>  <SCORE.RESTR>
0

>  <SCORE.RESTR.CAVITY>
0

>  <SCORE.RESTR.norm>
0

>  <SCORE.SYSTEM>
0

>  <SCORE.SYSTEM.CONST>
0

>  <SCORE.SYSTEM.DIHEDRAL>
0

>  <SCORE.SYSTEM.SOLV>
0

>  <SCORE.SYSTEM.norm>
0

>  <SCORE.heavy>
24

>  <SCORE.norm>
-0.894331

>  <RMSD>
5.390

$$$$
lig.pdb
 OpenBabel11021811453D
libRbt.so/2013.1/901 2013/11/27
 24 24  0  0  0  0  0  0  0  0999 V2000
   10.7491   -1.8752   -1.9576 C   0  0  0  0  0  0  0  0  0  0  0  0
   10.5103   -2.9915   -1.0870 C   0  0  0  0  0  0  0  0  0  0  0  0
    9.5230   -2.9648   -0.1307 C   0  0  0  0  0  0  0  0  0  0  0  0
    8.6729   -1.8261    0.0422 C   0  0  0  0  0  0  0  0  0  0  0  0
    8.9345   -0.6995   -0.8052 C   0  0  0  0  0  0  0  0  0  0  0  0
    9.9252   -0.7219   -1.7549 C   0  0  0  0  0  0  0  0  0  0  0  0
   11.7057   -1.9032   -2.9317 C   0  0  0  0  0  0  0  0  0  0  0  0
   11.4781   -2.4022   -4.1656 N   0  0  0  0  0  0  0  0  0  0  0  0
    7.5176   -2.7384    1.9240 N   0  0  0  0  0  0  0  0  0  0  0  0
    7.6671   -1.8026    0.9627 C   0  0  0  0  0  0  0  0  0  0  0  0
   12.9596   -1.4264   -2.7332 N   0  0  0  0  0  0  0  0  0  0  0  0
    6.7249   -0.8301    0.9882 N   0  0  0  0  0  0  0  0  0  0  0  0
   13.7989   -0.7411   -3.7140 C   0  0  0  0  0  0  0  0  0  0  0  0
    5.9044   -0.4558    2.1359 C   0  0  0  0  0  0  0  0  0  0  0  0
   14.6753    0.2740   -2.9625 C   0  0  0  0  0  0  0  0  0  0  0  0
    5.8507    1.0821    2.1976 C   0  0  0  0  0  0  0  0  0  0  0  0
   15.6164   -0.4354   -1.9791 C   0  0  0  0  0  0  0  0  0  0  0  0
    4.9605    1.6897    1.0984 C   0  0  0  0  0  0  0  0  0  0  0  0
   16.0644    0.5438   -0.9245 N   0  0  0  0  0  0  0  0  0  0  0  0
    5.0801    3.1922    1.0571 N   0  0  0  0  0  0  0  0  0  0  0  0
   17.0560    1.5116   -1.5107 C   0  0  0  0  0  0  0  0  0  0  0  0
    3.8338    3.7617    0.4341 C   0  0  0  0  0  0  0  0  0  0  0  0
   16.6897   -0.1746    0.2455 C   0  0  0  0  0  0  0  0  0  0  0  0
    6.2735    3.6456    0.2633 C   0  0  0  0  0  0  0  0  0  0  0  0
  1  6  2  0  0  0  0
  2  3  2  0  0  0  0
  2  1  1  0  0  0  0
  3  4  1  0  0  0  0
  4 10  1  0  0  0  0
  4  5  2  0  0  0  0
  6  5  1  0  0  0  0
  7  1  1  0  0  0  0
  7 11  1  0  0  0  0
  8  7  2  0  0  0  0
  9 10  2  0  0  0  0
 10 12  1  0  0  0  0
 12 14  1  0  0  0  0
 13 11  1  0  0  0  0
 13 15  1  0  0  0  0
 14 16  1  0  0  0  0
 16 18  1  0  0  0  0
 17 15  1  0  0  0  0
 17 19  1  0  0  0  0
 18 20  1  0  0  0  0
 19 23  1  0  0  0  0
 20 22  1  0  0  0  0
 20 24  1  0  0  0  0
 21 19  1  0  0  0  0
M  END
>  <CHROM.1>
11.02393446,85.98504165,136.88095950,147.93311178,62.87025586,73.20684479
-171.88621793,-158.90087402,-73.26455742,-156.13903450,10.10669358,-0.27836349
-0.61971049,0.22065526,-0.29724810,-2.96604659

>  <Name>
lig.pdb

>  <RI>
1.71133e+07

>  <Rbt.Current_Directory>
/home/itssahil/PROJECTS/Mol_Feturizer/New_Systems/rnas/2l94

>  <Rbt.Executable>
rbdock ($Id: //depot/dev/client3/rdock/2013.1/src/exe/rbdock.cxx#4 $)

>  <Rbt.Library>
libRbt.so (2013.1, Build901 2013/11/27)

>  <Rbt.Parameter_File>
/export/apps/rDock/src/rDock_2013.1_src/data/scripts/dock_solv.prm

>  <Rbt.Receptor>
prm/pocket_docking_5.prm

>  <SCORE>
-22.8598

>  <SCORE.INTER>
-28.0332

>  <SCORE.INTER.CONST>
1

>  <SCORE.INTER.POLAR>
-3.99668

>  <SCORE.INTER.ROT>
10

>  <SCORE.INTER.SOLV>
13.9624

>  <SCORE.INTER.VDW>
-20.2873

>  <SCORE.INTER.norm>
-1.16805

>  <SCORE.INTRA>
5.17335

>  <SCORE.INTRA.DIHEDRAL>
14.5131

>  <SCORE.INTRA.DIHEDRAL.0>
7.52971

>  <SCORE.INTRA.POLAR>
0

>  <SCORE.INTRA.POLAR.0>
0

>  <SCORE.INTRA.REPUL>
0

>  <SCORE.INTRA.REPUL.0>
0

>  <SCORE.INTRA.SOLV>
-0.00174996

>  <SCORE.INTRA.SOLV.lig_0>
-22.1084

>  <SCORE.INTRA.VDW>
-2.08235

>  <SCORE.INTRA.VDW.0>
2.4256

>  <SCORE.INTRA.norm>
0.215556

>  <SCORE.RESTR>
0

>  <SCORE.RESTR.CAVITY>
0

>  <SCORE.RESTR.norm>
0

>  <SCORE.SYSTEM>
0

>  <SCORE.SYSTEM.CONST>
0

>  <SCORE.SYSTEM.DIHEDRAL>
0

>  <SCORE.SYSTEM.SOLV>
0

>  <SCORE.SYSTEM.norm>
0

>  <SCORE.heavy>
24

>  <SCORE.norm>
-0.952494

>  <RMSD>
5.394

$$$$
lig.pdb
 OpenBabel11021811453D
libRbt.so/2013.1/901 2013/11/27
 24 24  0  0  0  0  0  0  0  0999 V2000
    6.9171   -3.8929    0.4535 C   0  0  0  0  0  0  0  0  0  0  0  0
    7.7795   -4.7295   -0.3322 C   0  0  0  0  0  0  0  0  0  0  0  0
    8.7775   -4.2040   -1.1183 C   0  0  0  0  0  0  0  0  0  0  0  0
    9.0171   -2.7944   -1.1883 C   0  0  0  0  0  0  0  0  0  0  0  0
    8.1336   -1.9581   -0.4295 C   0  0  0  0  0  0  0  0  0  0  0  0
    7.1318   -2.4811    0.3494 C   0  0  0  0  0  0  0  0  0  0  0  0
    5.9438   -4.4063    1.2621 C   0  0  0  0  0  0  0  0  0  0  0  0
    5.7508   -5.7331    1.4218 N   0  0  0  0  0  0  0  0  0  0  0  0
    9.8232   -1.4113   -2.9619 N   0  0  0  0  0  0  0  0  0  0  0  0
   10.0270   -2.2647   -1.9361 C   0  0  0  0  0  0  0  0  0  0  0  0
    5.0975   -3.6188    1.9712 N   0  0  0  0  0  0  0  0  0  0  0  0
   11.3304   -2.5550   -1.7105 N   0  0  0  0  0  0  0  0  0  0  0  0
    4.5608   -3.8909    3.3031 C   0  0  0  0  0  0  0  0  0  0  0  0
   12.4758   -1.7485   -2.1208 C   0  0  0  0  0  0  0  0  0  0  0  0
    3.0310   -3.9877    3.1880 C   0  0  0  0  0  0  0  0  0  0  0  0
   13.5058   -1.7729   -0.9761 C   0  0  0  0  0  0  0  0  0  0  0  0
    2.3516   -3.4978    4.4742 C   0  0  0  0  0  0  0  0  0  0  0  0
   14.6934   -0.8256   -1.2257 C   0  0  0  0  0  0  0  0  0  0  0  0
    2.4163   -1.9929    4.5293 N   0  0  0  0  0  0  0  0  0  0  0  0
   15.8100   -1.0669   -0.2416 N   0  0  0  0  0  0  0  0  0  0  0  0
    2.2844   -1.5254    5.9532 C   0  0  0  0  0  0  0  0  0  0  0  0
   15.3443   -0.6608    1.1308 C   0  0  0  0  0  0  0  0  0  0  0  0
    1.3237   -1.3766    3.6913 C   0  0  0  0  0  0  0  0  0  0  0  0
   17.0492   -0.2890   -0.5866 C   0  0  0  0  0  0  0  0  0  0  0  0
  1  6  2  0  0  0  0
  2  3  2  0  0  0  0
  2  1  1  0  0  0  0
  3  4  1  0  0  0  0
  4 10  1  0  0  0  0
  4  5  2  0  0  0  0
  6  5  1  0  0  0  0
  7  1  1  0  0  0  0
  7 11  1  0  0  0  0
  8  7  2  0  0  0  0
  9 10  2  0  0  0  0
 10 12  1  0  0  0  0
 12 14  1  0  0  0  0
 13 11  1  0  0  0  0
 13 15  1  0  0  0  0
 14 16  1  0  0  0  0
 16 18  1  0  0  0  0
 17 15  1  0  0  0  0
 17 19  1  0  0  0  0
 18 20  1  0  0  0  0
 19 23  1  0  0  0  0
 20 22  1  0  0  0  0
 20 24  1  0  0  0  0
 21 19  1  0  0  0  0
M  END
>  <CHROM.1>
118.85621461,2.48537137,140.12248068,-118.22286367,-148.37835318,-173.51016733
-168.61783258,75.11316859,-157.28050889,-67.35785927,8.37811431,-2.57686714
0.74935425,2.88136023,0.33320534,1.04707951

>  <Name>
lig.pdb

>  <RI>
1.39428e+07

>  <Rbt.Current_Directory>
/home/itssahil/PROJECTS/Mol_Feturizer/New_Systems/rnas/2l94

>  <Rbt.Executable>
rbdock ($Id: //depot/dev/client3/rdock/2013.1/src/exe/rbdock.cxx#4 $)

>  <Rbt.Library>
libRbt.so (2013.1, Build901 2013/11/27)

>  <Rbt.Parameter_File>
/export/apps/rDock/src/rDock_2013.1_src/data/scripts/dock_solv.prm

>  <Rbt.Receptor>
prm/pocket_docking_8.prm

>  <SCORE>
-24.8791

>  <SCORE.INTER>
-28.8811

>  <SCORE.INTER.CONST>
1

>  <SCORE.INTER.POLAR>
-3.87452

>  <SCORE.INTER.ROT>
10

>  <SCORE.INTER.SOLV>
13.6709

>  <SCORE.INTER.VDW>
-21.1626

>  <SCORE.INTER.norm>
-1.20338

>  <SCORE.INTRA>
4.00198

>  <SCORE.INTRA.DIHEDRAL>
12.7276

>  <SCORE.INTRA.DIHEDRAL.0>
7.52971

>  <SCORE.INTRA.POLAR>
0

>  <SCORE.INTRA.POLAR.0>
0

>  <SCORE.INTRA.REPUL>
0

>  <SCORE.INTRA.REPUL.0>
0

>  <SCORE.INTRA.SOLV>
-0.165146

>  <SCORE.INTRA.SOLV.lig_0>
-22.1084

>  <SCORE.INTRA.VDW>
-2.27925

>  <SCORE.INTRA.VDW.0>
2.4256

>  <SCORE.INTRA.norm>
0.166749

>  <SCORE.RESTR>
0

>  <SCORE.RESTR.CAVITY>
0

>  <SCORE.RESTR.norm>
0

>  <SCORE.SYSTEM>
0

>  <SCORE.SYSTEM.CONST>
0

>  <SCORE.SYSTEM.DIHEDRAL>
0

>  <SCORE.SYSTEM.SOLV>
0

>  <SCORE.SYSTEM.norm>
0

>  <SCORE.heavy>
24

>  <SCORE.norm>
-1.03663

>  <RMSD>
5.395

$$$$
lig.pdb
 OpenBabel11021811453D
libRbt.so/2013.1/901 2013/11/27
 24 24  0  0  0  0  0  0  0  0999 V2000
    9.7409   -3.1420   -1.0069 C   0  0  0  0  0  0  0  0  0  0  0  0
    9.0555   -4.3659   -1.3126 C   0  0  0  0  0  0  0  0  0  0  0  0
    7.9521   -4.7743   -0.6014 C   0  0  0  0  0  0  0  0  0  0  0  0
    7.4207   -3.9961    0.4763 C   0  0  0  0  0  0  0  0  0  0  0  0
    8.1261   -2.7911    0.8022 C   0  0  0  0  0  0  0  0  0  0  0  0
    9.2326   -2.3864    0.0981 C   0  0  0  0  0  0  0  0  0  0  0  0
   10.8182   -2.7113   -1.7271 C   0  0  0  0  0  0  0  0  0  0  0  0
   11.0491   -3.0995   -2.9995 N   0  0  0  0  0  0  0  0  0  0  0  0
    5.8739   -5.6501    1.2376 N   0  0  0  0  0  0  0  0  0  0  0  0
    6.3056   -4.3732    1.1648 C   0  0  0  0  0  0  0  0  0  0  0  0
   11.7380   -1.8550   -1.2175 N   0  0  0  0  0  0  0  0  0  0  0  0
    5.5307   -3.4895    1.8374 N   0  0  0  0  0  0  0  0  0  0  0  0
   12.4470   -0.8022   -1.9422 C   0  0  0  0  0  0  0  0  0  0  0  0
    4.6169   -3.8038    2.9314 C   0  0  0  0  0  0  0  0  0  0  0  0
   13.9533   -0.9912   -1.7009 C   0  0  0  0  0  0  0  0  0  0  0  0
    3.5069   -2.7363    2.9422 C   0  0  0  0  0  0  0  0  0  0  0  0
   14.3158   -0.6985   -0.2384 C   0  0  0  0  0  0  0  0  0  0  0  0
    2.3028   -3.1229    2.0644 C   0  0  0  0  0  0  0  0  0  0  0  0
   15.7106   -1.1983    0.0385 N   0  0  0  0  0  0  0  0  0  0  0  0
    1.2706   -2.0244    2.0261 N   0  0  0  0  0  0  0  0  0  0  0  0
   15.9549   -1.2424    1.5223 C   0  0  0  0  0  0  0  0  0  0  0  0
    0.6003   -1.9404    3.3711 C   0  0  0  0  0  0  0  0  0  0  0  0
   16.7398   -0.3115   -0.6175 C   0  0  0  0  0  0  0  0  0  0  0  0
    0.2244   -2.2644    0.9736 C   0  0  0  0  0  0  0  0  0  0  0  0
  1  6  2  0  0  0  0
  2  3  2  0  0  0  0
  2  1  1  0  0  0  0
  3  4  1  0  0  0  0
  4 10  1  0  0  0  0
  4  5  2  0  0  0  0
  6  5  1  0  0  0  0
  7  1  1  0  0  0  0
  7 11  1  0  0  0  0
  8  7  2  0  0  0  0
  9 10  2  0  0  0  0
 10 12  1  0  0  0  0
 12 14  1  0  0  0  0
 13 11  1  0  0  0  0
 13 15  1  0  0  0  0
 14 16  1  0  0  0  0
 16 18  1  0  0  0  0
 17 15  1  0  0  0  0
 17 19  1  0  0  0  0
 18 20  1  0  0  0  0
 19 23  1  0  0  0  0
 20 22  1  0  0  0  0
 20 24  1  0  0  0  0
 21 19  1  0  0  0  0
M  END
>  <CHROM.1>
23.37256179,23.42926291,-153.39404724,-127.23305896,-68.11869519,89.86480521
-176.49896946,166.82858825,-165.72436842,-70.51449496,8.51832540,-2.62565065
0.35891245,0.09329892,-0.25548631,-2.25234993

>  <Name>
lig.pdb

>  <RI>
2.48096e+07

>  <Rbt.Current_Directory>
/home/itssahil/PROJECTS/Mol_Feturizer/New_Systems/rnas/2l94

>  <Rbt.Executable>
rbdock ($Id: //depot/dev/client3/rdock/2013.1/src/exe/rbdock.cxx#4 $)

>  <Rbt.Library>
libRbt.so (2013.1, Build901 2013/11/27)

>  <Rbt.Parameter_File>
/export/apps/rDock/src/rDock_2013.1_src/data/scripts/dock_solv.prm

>  <Rbt.Receptor>
prm/pocket_docking_6.prm

>  <SCORE>
-29.171

>  <SCORE.INTER>
-30.4089

>  <SCORE.INTER.CONST>
1

>  <SCORE.INTER.POLAR>
-3.60708

>  <SCORE.INTER.ROT>
10

>  <SCORE.INTER.SOLV>
15.5807

>  <SCORE.INTER.VDW>
-23.7093

>  <SCORE.INTER.norm>
-1.26704

>  <SCORE.INTRA>
1.23791

>  <SCORE.INTRA.DIHEDRAL>
5.74215

>  <SCORE.INTRA.DIHEDRAL.0>
7.52971

>  <SCORE.INTRA.POLAR>
0

>  <SCORE.INTRA.POLAR.0>
0

>  <SCORE.INTRA.REPUL>
0

>  <SCORE.INTRA.REPUL.0>
0

>  <SCORE.INTRA.SOLV>
0.129878

>  <SCORE.INTRA.SOLV.lig_0>
-22.1084

>  <SCORE.INTRA.VDW>
-1.6981

>  <SCORE.INTRA.VDW.0>
2.4256

>  <SCORE.INTRA.norm>
0.0515797

>  <SCORE.RESTR>
0

>  <SCORE.RESTR.CAVITY>
0

>  <SCORE.RESTR.norm>
0

>  <SCORE.SYSTEM>
0

>  <SCORE.SYSTEM.CONST>
0

>  <SCORE.SYSTEM.DIHEDRAL>
0

>  <SCORE.SYSTEM.SOLV>
0

>  <SCORE.SYSTEM.norm>
0

>  <SCORE.heavy>
24

>  <SCORE.norm>
-1.21546

>  <RMSD>
5.408

$$$$
lig.pdb
 OpenBabel11021811453D
libRbt.so/2013.1/901 2013/11/27
 24 24  0  0  0  0  0  0  0  0999 V2000
    9.9014   -3.2129   -0.9856 C   0  0  0  0  0  0  0  0  0  0  0  0
    9.1109   -4.3052   -1.4786 C   0  0  0  0  0  0  0  0  0  0  0  0
    7.9042   -4.6392   -0.9108 C   0  0  0  0  0  0  0  0  0  0  0  0
    7.3658   -3.9094    0.1968 C   0  0  0  0  0  0  0  0  0  0  0  0
    8.1720   -2.8403    0.7095 C   0  0  0  0  0  0  0  0  0  0  0  0
    9.3806   -2.5111    0.1486 C   0  0  0  0  0  0  0  0  0  0  0  0
   11.0857   -2.8528   -1.5621 C   0  0  0  0  0  0  0  0  0  0  0  0
   11.4622   -3.2797   -2.7865 N   0  0  0  0  0  0  0  0  0  0  0  0
    5.8289   -3.9351    2.0259 N   0  0  0  0  0  0  0  0  0  0  0  0
    6.1534   -4.2089    0.7446 C   0  0  0  0  0  0  0  0  0  0  0  0
   11.9740   -2.0330   -0.9473 N   0  0  0  0  0  0  0  0  0  0  0  0
    5.1656   -4.8130    0.0423 N   0  0  0  0  0  0  0  0  0  0  0  0
   12.8272   -1.0332   -1.5866 C   0  0  0  0  0  0  0  0  0  0  0  0
    3.7408   -4.7807    0.3579 C   0  0  0  0  0  0  0  0  0  0  0  0
   14.0286   -0.7739   -0.6633 C   0  0  0  0  0  0  0  0  0  0  0  0
    3.2845   -3.3100    0.3357 C   0  0  0  0  0  0  0  0  0  0  0  0
   15.2304   -0.2489   -1.4608 C   0  0  0  0  0  0  0  0  0  0  0  0
    1.7772   -3.1518    0.6058 C   0  0  0  0  0  0  0  0  0  0  0  0
   16.3154    0.1756   -0.5046 N   0  0  0  0  0  0  0  0  0  0  0  0
    1.4213   -1.7248    0.9383 N   0  0  0  0  0  0  0  0  0  0  0  0
   17.4038    0.8978   -1.2512 C   0  0  0  0  0  0  0  0  0  0  0  0
   -0.0143   -1.6742    1.3875 C   0  0  0  0  0  0  0  0  0  0  0  0
   16.8987   -1.0175    0.2111 C   0  0  0  0  0  0  0  0  0  0  0  0
    1.5971   -0.8065   -0.2389 C   0  0  0  0  0  0  0  0  0  0  0  0
  1  6  2  0  0  0  0
  2  3  2  0  0  0  0
  2  1  1  0  0  0  0
  3  4  1  0  0  0  0
  4 10  1  0  0  0  0
  4  5  2  0  0  0  0
  6  5  1  0  0  0  0
  7  1  1  0  0  0  0
  7 11  1  0  0  0  0
  8  7  2  0  0  0  0
  9 10  2  0  0  0  0
 10 12  1  0  0  0  0
 12 14  1  0  0  0  0
 13 11  1  0  0  0  0
 13 15  1  0  0  0  0
 14 16  1  0  0  0  0
 16 18  1  0  0  0  0
 17 15  1  0  0  0  0
 17 19  1  0  0  0  0
 18 20  1  0  0  0  0
 19 23  1  0  0  0  0
 20 22  1  0  0  0  0
 20 24  1  0  0  0  0
 21 19  1  0  0  0  0
M  END
>  <CHROM.1>
153.99307779,15.00766409,60.05015866,-156.92476225,155.43428574,177.90658569
164.99940331,172.06847796,-170.76235215,-171.72871562,8.67429985,-2.44706628
-0.26438215,-0.14497857,-0.16195534,-2.95258167

>  <Name>
lig.pdb

>  <RI>
1.39428e+07

>  <Rbt.Current_Directory>
/home/itssahil/PROJECTS/Mol_Feturizer/New_Systems/rnas/2l94

>  <Rbt.Executable>
rbdock ($Id: //depot/dev/client3/rdock/2013.1/src/exe/rbdock.cxx#4 $)

>  <Rbt.Library>
libRbt.so (2013.1, Build901 2013/11/27)

>  <Rbt.Parameter_File>
/export/apps/rDock/src/rDock_2013.1_src/data/scripts/dock_solv.prm

>  <Rbt.Receptor>
prm/pocket_docking_8.prm

>  <SCORE>
-21.7848

>  <SCORE.INTER>
-22.464

>  <SCORE.INTER.CONST>
1

>  <SCORE.INTER.POLAR>
-2.7766

>  <SCORE.INTER.ROT>
10

>  <SCORE.INTER.SOLV>
14.5493

>  <SCORE.INTER.VDW>
-20.8371

>  <SCORE.INTER.norm>
-0.936002

>  <SCORE.INTRA>
0.679279

>  <SCORE.INTRA.DIHEDRAL>
3.95323

>  <SCORE.INTRA.DIHEDRAL.0>
7.52971

>  <SCORE.INTRA.POLAR>
0

>  <SCORE.INTRA.POLAR.0>
0

>  <SCORE.INTRA.REPUL>
0

>  <SCORE.INTRA.REPUL.0>
0

>  <SCORE.INTRA.SOLV>
-0.0897776

>  <SCORE.INTRA.SOLV.lig_0>
-22.1084

>  <SCORE.INTRA.VDW>
-1.25245

>  <SCORE.INTRA.VDW.0>
2.4256

>  <SCORE.INTRA.norm>
0.0283033

>  <SCORE.RESTR>
0

>  <SCORE.RESTR.CAVITY>
0

>  <SCORE.RESTR.norm>
0

>  <SCORE.SYSTEM>
0

>  <SCORE.SYSTEM.CONST>
0

>  <SCORE.SYSTEM.DIHEDRAL>
0

>  <SCORE.SYSTEM.SOLV>
0

>  <SCORE.SYSTEM.norm>
0

>  <SCORE.heavy>
24

>  <SCORE.norm>
-0.907699

>  <RMSD>
5.448

$$$$
lig.pdb
 OpenBabel11021811453D
libRbt.so/2013.1/901 2013/11/27
 24 24  0  0  0  0  0  0  0  0999 V2000
    9.5797   -2.9135   -1.3242 C   0  0  0  0  0  0  0  0  0  0  0  0
    8.7138   -3.9273   -1.8567 C   0  0  0  0  0  0  0  0  0  0  0  0
    7.6419   -4.4105   -1.1443 C   0  0  0  0  0  0  0  0  0  0  0  0
    7.3252   -3.9217    0.1635 C   0  0  0  0  0  0  0  0  0  0  0  0
    8.2104   -2.9337    0.7075 C   0  0  0  0  0  0  0  0  0  0  0  0
    9.2855   -2.4564    0.0004 C   0  0  0  0  0  0  0  0  0  0  0  0
   10.6278   -2.4039   -2.0359 C   0  0  0  0  0  0  0  0  0  0  0  0
   10.4666   -1.7403   -3.2007 N   0  0  0  0  0  0  0  0  0  0  0  0
    6.0688   -4.1424    2.1836 N   0  0  0  0  0  0  0  0  0  0  0  0
    6.2436   -4.3676    0.8642 C   0  0  0  0  0  0  0  0  0  0  0  0
   11.9138   -2.5232   -1.6223 N   0  0  0  0  0  0  0  0  0  0  0  0
    5.2466   -5.0814    0.2895 N   0  0  0  0  0  0  0  0  0  0  0  0
   12.9801   -1.5378   -1.7899 C   0  0  0  0  0  0  0  0  0  0  0  0
    3.8852   -5.2220    0.7967 C   0  0  0  0  0  0  0  0  0  0  0  0
   13.6829   -1.3633   -0.4339 C   0  0  0  0  0  0  0  0  0  0  0  0
    3.0455   -4.0644    0.2253 C   0  0  0  0  0  0  0  0  0  0  0  0
   14.9152   -0.4578   -0.5669 C   0  0  0  0  0  0  0  0  0  0  0  0
    3.3712   -2.7123    0.8855 C   0  0  0  0  0  0  0  0  0  0  0  0
   16.0446   -1.0309    0.2503 N   0  0  0  0  0  0  0  0  0  0  0  0
    2.4233   -1.6316    0.4303 N   0  0  0  0  0  0  0  0  0  0  0  0
   15.8174   -0.7468    1.7101 C   0  0  0  0  0  0  0  0  0  0  0  0
    2.8844   -1.1118   -0.9048 C   0  0  0  0  0  0  0  0  0  0  0  0
   17.3684   -0.4481   -0.1785 C   0  0  0  0  0  0  0  0  0  0  0  0
    2.3570   -0.4875    1.4032 C   0  0  0  0  0  0  0  0  0  0  0  0
  1  6  2  0  0  0  0
  2  3  2  0  0  0  0
  2  1  1  0  0  0  0
  3  4  1  0  0  0  0
  4 10  1  0  0  0  0
  4  5  2  0  0  0  0
  6  5  1  0  0  0  0
  7  1  1  0  0  0  0
  7 11  1  0  0  0  0
  8  7  2  0  0  0  0
  9 10  2  0  0  0  0
 10 12  1  0  0  0  0
 12 14  1  0  0  0  0
 13 11  1  0  0  0  0
 13 15  1  0  0  0  0
 14 16  1  0  0  0  0
 16 18  1  0  0  0  0
 17 15  1  0  0  0  0
 17 19  1  0  0  0  0
 18 20  1  0  0  0  0
 19 23  1  0  0  0  0
 20 22  1  0  0  0  0
 20 24  1  0  0  0  0
 21 19  1  0  0  0  0
M  END
>  <CHROM.1>
165.89801056,62.03583947,88.61317923,131.77046341,173.73759235,-73.36166988
-173.06370573,-138.43793323,-76.53710074,-81.46175914,8.76907668,-2.52607922
-0.19711173,-0.10897259,-0.15610943,-2.63844137

>  <Name>
lig.pdb

>  <RI>
2.48096e+07

>  <Rbt.Current_Directory>
/home/itssahil/PROJECTS/Mol_Feturizer/New_Systems/rnas/2l94

>  <Rbt.Executable>
rbdock ($Id: //depot/dev/client3/rdock/2013.1/src/exe/rbdock.cxx#4 $)

>  <Rbt.Library>
libRbt.so (2013.1, Build901 2013/11/27)

>  <Rbt.Parameter_File>
/export/apps/rDock/src/rDock_2013.1_src/data/scripts/dock_solv.prm

>  <Rbt.Receptor>
prm/pocket_docking_6.prm

>  <SCORE>
-21.7003

>  <SCORE.INTER>
-26.0625

>  <SCORE.INTER.CONST>
1

>  <SCORE.INTER.POLAR>
-3.88192

>  <SCORE.INTER.ROT>
10

>  <SCORE.INTER.SOLV>
13.2128

>  <SCORE.INTER.VDW>
-19.1062

>  <SCORE.INTER.norm>
-1.08594

>  <SCORE.INTRA>
4.36218

>  <SCORE.INTRA.DIHEDRAL>
15.0854

>  <SCORE.INTRA.DIHEDRAL.0>
7.52971

>  <SCORE.INTRA.POLAR>
0

>  <SCORE.INTRA.POLAR.0>
0

>  <SCORE.INTRA.REPUL>
0

>  <SCORE.INTRA.REPUL.0>
0

>  <SCORE.INTRA.SOLV>
0.154139

>  <SCORE.INTRA.SOLV.lig_0>
-22.1084

>  <SCORE.INTRA.VDW>
-3.25761

>  <SCORE.INTRA.VDW.0>
2.4256

>  <SCORE.INTRA.norm>
0.181758

>  <SCORE.RESTR>
0

>  <SCORE.RESTR.CAVITY>
0

>  <SCORE.RESTR.norm>
0

>  <SCORE.SYSTEM>
0

>  <SCORE.SYSTEM.CONST>
0

>  <SCORE.SYSTEM.DIHEDRAL>
0

>  <SCORE.SYSTEM.SOLV>
0

>  <SCORE.SYSTEM.norm>
0

>  <SCORE.heavy>
24

>  <SCORE.norm>
-0.904179

>  <RMSD>
5.450

$$$$
lig.pdb
 OpenBabel11021811453D
libRbt.so/2013.1/901 2013/11/27
 24 24  0  0  0  0  0  0  0  0999 V2000
    7.3452   -3.9725    0.4850 C   0  0  0  0  0  0  0  0  0  0  0  0
    7.9378   -4.7903   -0.5353 C   0  0  0  0  0  0  0  0  0  0  0  0
    9.1018   -4.4257   -1.1695 C   0  0  0  0  0  0  0  0  0  0  0  0
    9.7914   -3.2153   -0.8397 C   0  0  0  0  0  0  0  0  0  0  0  0
    9.1806   -2.3832    0.1554 C   0  0  0  0  0  0  0  0  0  0  0  0
    8.0142   -2.7423    0.7835 C   0  0  0  0  0  0  0  0  0  0  0  0
    6.2069   -4.3407    1.1434 C   0  0  0  0  0  0  0  0  0  0  0  0
    5.7649   -5.6159    1.1822 N   0  0  0  0  0  0  0  0  0  0  0  0
   11.3834   -3.3714   -2.6144 N   0  0  0  0  0  0  0  0  0  0  0  0
   10.9655   -2.8617   -1.4364 C   0  0  0  0  0  0  0  0  0  0  0  0
    5.4343   -3.4501    1.8136 N   0  0  0  0  0  0  0  0  0  0  0  0
   11.8185   -1.9624   -0.8907 N   0  0  0  0  0  0  0  0  0  0  0  0
    4.7026   -3.6898    3.0559 C   0  0  0  0  0  0  0  0  0  0  0  0
   12.8350   -1.1962   -1.6051 C   0  0  0  0  0  0  0  0  0  0  0  0
    3.6718   -2.5620    3.2250 C   0  0  0  0  0  0  0  0  0  0  0  0
   14.1856   -1.4333   -0.9042 C   0  0  0  0  0  0  0  0  0  0  0  0
    4.3670   -1.2050    3.4014 C   0  0  0  0  0  0  0  0  0  0  0  0
   15.3506   -0.7041   -1.5978 C   0  0  0  0  0  0  0  0  0  0  0  0
    3.3276   -0.1139    3.4365 N   0  0  0  0  0  0  0  0  0  0  0  0
   15.2500    0.7903   -1.4241 N   0  0  0  0  0  0  0  0  0  0  0  0
    3.9337    1.1870    2.9850 C   0  0  0  0  0  0  0  0  0  0  0  0
   16.0829    1.4597   -2.4841 C   0  0  0  0  0  0  0  0  0  0  0  0
    2.7628    0.0464    4.8262 C   0  0  0  0  0  0  0  0  0  0  0  0
   15.7291    1.2385   -0.0715 C   0  0  0  0  0  0  0  0  0  0  0  0
  1  6  2  0  0  0  0
  2  3  2  0  0  0  0
  2  1  1  0  0  0  0
  3  4  1  0  0  0  0
  4 10  1  0  0  0  0
  4  5  2  0  0  0  0
  6  5  1  0  0  0  0
  7  1  1  0  0  0  0
  7 11  1  0  0  0  0
  8  7  2  0  0  0  0
  9 10  2  0  0  0  0
 10 12  1  0  0  0  0
 12 14  1  0  0  0  0
 13 11  1  0  0  0  0
 13 15  1  0  0  0  0
 14 16  1  0  0  0  0
 16 18  1  0  0  0  0
 17 15  1  0  0  0  0
 17 19  1  0  0  0  0
 18 20  1  0  0  0  0
 19 23  1  0  0  0  0
 20 22  1  0  0  0  0
 20 24  1  0  0  0  0
 21 19  1  0  0  0  0
M  END
>  <CHROM.1>
19.75441309,19.35631665,-126.06355259,-164.13380241,-64.34831785,178.29774097
69.51924436,174.84071159,-154.34099743,-160.17468068,8.97594551,-1.98249981
0.47406290,3.11350540,0.43187444,0.40904116

>  <Name>
lig.pdb

>  <RI>
2.48096e+07

>  <Rbt.Current_Directory>
/home/itssahil/PROJECTS/Mol_Feturizer/New_Systems/rnas/2l94

>  <Rbt.Executable>
rbdock ($Id: //depot/dev/client3/rdock/2013.1/src/exe/rbdock.cxx#4 $)

>  <Rbt.Library>
libRbt.so (2013.1, Build901 2013/11/27)

>  <Rbt.Parameter_File>
/export/apps/rDock/src/rDock_2013.1_src/data/scripts/dock_solv.prm

>  <Rbt.Receptor>
prm/pocket_docking_6.prm

>  <SCORE>
-26.6239

>  <SCORE.INTER>
-25.9463

>  <SCORE.INTER.CONST>
1

>  <SCORE.INTER.POLAR>
-2.7219

>  <SCORE.INTER.ROT>
10

>  <SCORE.INTER.SOLV>
15.0673

>  <SCORE.INTER.VDW>
-23.5136

>  <SCORE.INTER.norm>
-1.0811

>  <SCORE.INTRA>
-0.677569

>  <SCORE.INTRA.DIHEDRAL>
2.84398

>  <SCORE.INTRA.DIHEDRAL.0>
7.52971

>  <SCORE.INTRA.POLAR>
0

>  <SCORE.INTRA.POLAR.0>
0

>  <SCORE.INTRA.REPUL>
0

>  <SCORE.INTRA.REPUL.0>
0

>  <SCORE.INTRA.SOLV>
-0.0147365

>  <SCORE.INTRA.SOLV.lig_0>
-22.1084

>  <SCORE.INTRA.VDW>
-2.09219

>  <SCORE.INTRA.VDW.0>
2.4256

>  <SCORE.INTRA.norm>
-0.028232

>  <SCORE.RESTR>
0

>  <SCORE.RESTR.CAVITY>
0

>  <SCORE.RESTR.norm>
0

>  <SCORE.SYSTEM>
0

>  <SCORE.SYSTEM.CONST>
0

>  <SCORE.SYSTEM.DIHEDRAL>
0

>  <SCORE.SYSTEM.SOLV>
0

>  <SCORE.SYSTEM.norm>
0

>  <SCORE.heavy>
24

>  <SCORE.norm>
-1.10933

>  <RMSD>
5.453

$$$$
lig.pdb
 OpenBabel11021811453D
libRbt.so/2013.1/901 2013/11/27
 24 24  0  0  0  0  0  0  0  0999 V2000
    9.7719   -3.1648   -0.9742 C   0  0  0  0  0  0  0  0  0  0  0  0
    9.2257   -2.3484    0.0727 C   0  0  0  0  0  0  0  0  0  0  0  0
    8.0905   -2.7133    0.7572 C   0  0  0  0  0  0  0  0  0  0  0  0
    7.3973   -3.9323    0.4695 C   0  0  0  0  0  0  0  0  0  0  0  0
    7.9246   -4.7300   -0.5988 C   0  0  0  0  0  0  0  0  0  0  0  0
    9.0531   -4.3627   -1.2882 C   0  0  0  0  0  0  0  0  0  0  0  0
   10.9164   -2.8276   -1.6385 C   0  0  0  0  0  0  0  0  0  0  0  0
   11.2432   -3.3465   -2.8414 N   0  0  0  0  0  0  0  0  0  0  0  0
    5.8508   -5.5970    1.2083 N   0  0  0  0  0  0  0  0  0  0  0  0
    6.2916   -4.3218    1.1663 C   0  0  0  0  0  0  0  0  0  0  0  0
   11.8118   -1.9398   -1.1394 N   0  0  0  0  0  0  0  0  0  0  0  0
    5.5360   -3.4531    1.8794 N   0  0  0  0  0  0  0  0  0  0  0  0
   12.6057   -0.9780   -1.9016 C   0  0  0  0  0  0  0  0  0  0  0  0
    4.6394   -3.7937    2.9797 C   0  0  0  0  0  0  0  0  0  0  0  0
   14.0808   -1.1645   -1.5113 C   0  0  0  0  0  0  0  0  0  0  0  0
    3.6251   -2.6454    3.1361 C   0  0  0  0  0  0  0  0  0  0  0  0
   14.9707   -0.1348   -2.2210 C   0  0  0  0  0  0  0  0  0  0  0  0
    4.2896   -1.3172    3.5413 C   0  0  0  0  0  0  0  0  0  0  0  0
   14.7993    1.2098   -1.5619 N   0  0  0  0  0  0  0  0  0  0  0  0
    3.2979   -0.1814    3.5473 N   0  0  0  0  0  0  0  0  0  0  0  0
   15.3669    2.2892   -2.4429 C   0  0  0  0  0  0  0  0  0  0  0  0
    4.0079    1.0856    3.1523 C   0  0  0  0  0  0  0  0  0  0  0  0
   15.4843    1.2413   -0.2181 C   0  0  0  0  0  0  0  0  0  0  0  0
    2.6660    0.0137    4.8973 C   0  0  0  0  0  0  0  0  0  0  0  0
  1  6  2  0  0  0  0
  2  3  2  0  0  0  0
  2  1  1  0  0  0  0
  3  4  1  0  0  0  0
  4 10  1  0  0  0  0
  4  5  2  0  0  0  0
  6  5  1  0  0  0  0
  7  1  1  0  0  0  0
  7 11  1  0  0  0  0
  8  7  2  0  0  0  0
  9 10  2  0  0  0  0
 10 12  1  0  0  0  0
 12 14  1  0  0  0  0
 13 11  1  0  0  0  0
 13 15  1  0  0  0  0
 14 16  1  0  0  0  0
 16 18  1  0  0  0  0
 17 15  1  0  0  0  0
 17 19  1  0  0  0  0
 18 20  1  0  0  0  0
 19 23  1  0  0  0  0
 20 22  1  0  0  0  0
 20 24  1  0  0  0  0
 21 19  1  0  0  0  0
M  END
>  <CHROM.1>
-159.79098364,-160.78927723,-159.13427606,-127.38042921,-177.06173413,-63.87920162
174.07491955,75.24508868,-165.27823408,-147.48153336,8.88014009,-1.88923104
0.37441475,0.00498331,-0.47997009,-2.74694599

>  <Name>
lig.pdb

>  <RI>
2.48096e+07

>  <Rbt.Current_Directory>
/home/itssahil/PROJECTS/Mol_Feturizer/New_Systems/rnas/2l94

>  <Rbt.Executable>
rbdock ($Id: //depot/dev/client3/rdock/2013.1/src/exe/rbdock.cxx#4 $)

>  <Rbt.Library>
libRbt.so (2013.1, Build901 2013/11/27)

>  <Rbt.Parameter_File>
/export/apps/rDock/src/rDock_2013.1_src/data/scripts/dock_solv.prm

>  <Rbt.Receptor>
prm/pocket_docking_6.prm

>  <SCORE>
-24.3378

>  <SCORE.INTER>
-24.1938

>  <SCORE.INTER.CONST>
1

>  <SCORE.INTER.POLAR>
-2.52978

>  <SCORE.INTER.ROT>
10

>  <SCORE.INTER.SOLV>
14.9571

>  <SCORE.INTER.VDW>
-22.9489

>  <SCORE.INTER.norm>
-1.00807

>  <SCORE.INTRA>
-0.144074

>  <SCORE.INTRA.DIHEDRAL>
3.70445

>  <SCORE.INTRA.DIHEDRAL.0>
7.52971

>  <SCORE.INTRA.POLAR>
0

>  <SCORE.INTRA.POLAR.0>
0

>  <SCORE.INTRA.REPUL>
0

>  <SCORE.INTRA.REPUL.0>
0

>  <SCORE.INTRA.SOLV>
-0.0242656

>  <SCORE.INTRA.SOLV.lig_0>
-22.1084

>  <SCORE.INTRA.VDW>
-1.98417

>  <SCORE.INTRA.VDW.0>
2.4256

>  <SCORE.INTRA.norm>
-0.00600307

>  <SCORE.RESTR>
0

>  <SCORE.RESTR.CAVITY>
0

>  <SCORE.RESTR.norm>
0

>  <SCORE.SYSTEM>
0

>  <SCORE.SYSTEM.CONST>
0

>  <SCORE.SYSTEM.DIHEDRAL>
0

>  <SCORE.SYSTEM.SOLV>
0

>  <SCORE.SYSTEM.norm>
0

>  <SCORE.heavy>
24

>  <SCORE.norm>
-1.01408

>  <RMSD>
5.460

$$$$
lig.pdb
 OpenBabel11021811453D
libRbt.so/2013.1/901 2013/11/27
 24 24  0  0  0  0  0  0  0  0999 V2000
    7.3478   -3.9763    0.4267 C   0  0  0  0  0  0  0  0  0  0  0  0
    7.9293   -4.7739   -0.6157 C   0  0  0  0  0  0  0  0  0  0  0  0
    9.1049   -4.4146   -1.2312 C   0  0  0  0  0  0  0  0  0  0  0  0
    9.8183   -3.2306   -0.8589 C   0  0  0  0  0  0  0  0  0  0  0  0
    9.2191   -2.4176    0.1588 C   0  0  0  0  0  0  0  0  0  0  0  0
    8.0412   -2.7711    0.7683 C   0  0  0  0  0  0  0  0  0  0  0  0
    6.1976   -4.3405    1.0665 C   0  0  0  0  0  0  0  0  0  0  0  0
    5.7964   -5.6252    1.1739 N   0  0  0  0  0  0  0  0  0  0  0  0
   11.4098   -3.3508   -2.6368 N   0  0  0  0  0  0  0  0  0  0  0  0
   11.0035   -2.8837   -1.4372 C   0  0  0  0  0  0  0  0  0  0  0  0
    5.3712   -3.4357    1.6474 N   0  0  0  0  0  0  0  0  0  0  0  0
   11.8804   -2.0351   -0.8498 N   0  0  0  0  0  0  0  0  0  0  0  0
    4.6003   -3.6193    2.8756 C   0  0  0  0  0  0  0  0  0  0  0  0
   12.9201   -1.2664   -1.5269 C   0  0  0  0  0  0  0  0  0  0  0  0
    3.1796   -4.0564    2.4837 C   0  0  0  0  0  0  0  0  0  0  0  0
   12.9573    0.1377   -0.8954 C   0  0  0  0  0  0  0  0  0  0  0  0
    2.5048   -2.9995    1.5984 C   0  0  0  0  0  0  0  0  0  0  0  0
   14.1749    0.9619   -1.3515 C   0  0  0  0  0  0  0  0  0  0  0  0
    2.1497   -1.7995    2.4384 N   0  0  0  0  0  0  0  0  0  0  0  0
   15.4325    0.5320   -0.6394 N   0  0  0  0  0  0  0  0  0  0  0  0
    0.9263   -2.0942    3.2629 C   0  0  0  0  0  0  0  0  0  0  0  0
   16.4332    1.6547   -0.7003 C   0  0  0  0  0  0  0  0  0  0  0  0
    1.8962   -0.5916    1.5708 C   0  0  0  0  0  0  0  0  0  0  0  0
   16.0408   -0.6979   -1.2533 C   0  0  0  0  0  0  0  0  0  0  0  0
  1  6  2  0  0  0  0
  2  3  2  0  0  0  0
  2  1  1  0  0  0  0
  3  4  1  0  0  0  0
  4 10  1  0  0  0  0
  4  5  2  0  0  0  0
  6  5  1  0  0  0  0
  7  1  1  0  0  0  0
  7 11  1  0  0  0  0
  8  7  2  0  0  0  0
  9 10  2  0  0  0  0
 10 12  1  0  0  0  0
 12 14  1  0  0  0  0
 13 11  1  0  0  0  0
 13 15  1  0  0  0  0
 14 16  1  0  0  0  0
 16 18  1  0  0  0  0
 17 15  1  0  0  0  0
 17 19  1  0  0  0  0
 18 20  1  0  0  0  0
 19 23  1  0  0  0  0
 20 22  1  0  0  0  0
 20 24  1  0  0  0  0
 21 19  1  0  0  0  0
M  END
>  <CHROM.1>
20.67460256,26.05033305,139.42005540,-95.99784309,-59.57992447,169.87946137
-77.36669457,-72.24257279,-76.56983634,-158.41981867,8.60306582,-2.32942032
0.24736018,-3.01033675,0.33730056,0.30006620

>  <Name>
lig.pdb

>  <RI>
9.7521e+06

>  <Rbt.Current_Directory>
/home/itssahil/PROJECTS/Mol_Feturizer/New_Systems/rnas/2l94

>  <Rbt.Executable>
rbdock ($Id: //depot/dev/client3/rdock/2013.1/src/exe/rbdock.cxx#4 $)

>  <Rbt.Library>
libRbt.so (2013.1, Build901 2013/11/27)

>  <Rbt.Parameter_File>
/export/apps/rDock/src/rDock_2013.1_src/data/scripts/dock_solv.prm

>  <Rbt.Receptor>
prm/pocket_docking_7.prm

>  <SCORE>
-19.6886

>  <SCORE.INTER>
-20.3766

>  <SCORE.INTER.CONST>
1

>  <SCORE.INTER.POLAR>
-2.77966

>  <SCORE.INTER.ROT>
10

>  <SCORE.INTER.SOLV>
13.6117

>  <SCORE.INTER.VDW>
-19.1227

>  <SCORE.INTER.norm>
-0.849023

>  <SCORE.INTRA>
0.688001

>  <SCORE.INTRA.DIHEDRAL>
4.97128

>  <SCORE.INTRA.DIHEDRAL.0>
7.52971

>  <SCORE.INTRA.POLAR>
0

>  <SCORE.INTRA.POLAR.0>
0

>  <SCORE.INTRA.REPUL>
0

>  <SCORE.INTRA.REPUL.0>
0

>  <SCORE.INTRA.SOLV>
0.521521

>  <SCORE.INTRA.SOLV.lig_0>
-22.1084

>  <SCORE.INTRA.VDW>
-2.0584

>  <SCORE.INTRA.VDW.0>
2.4256

>  <SCORE.INTRA.norm>
0.0286667

>  <SCORE.RESTR>
0

>  <SCORE.RESTR.CAVITY>
0

>  <SCORE.RESTR.norm>
0

>  <SCORE.SYSTEM>
0

>  <SCORE.SYSTEM.CONST>
0

>  <SCORE.SYSTEM.DIHEDRAL>
0

>  <SCORE.SYSTEM.SOLV>
0

>  <SCORE.SYSTEM.norm>
0

>  <SCORE.heavy>
24

>  <SCORE.norm>
-0.820356

>  <RMSD>
5.470

$$$$
lig.pdb
 OpenBabel11021811453D
libRbt.so/2013.1/901 2013/11/27
 24 24  0  0  0  0  0  0  0  0999 V2000
    9.7272   -3.1859   -0.9891 C   0  0  0  0  0  0  0  0  0  0  0  0
    9.1959   -2.3698    0.0657 C   0  0  0  0  0  0  0  0  0  0  0  0
    8.0679   -2.7327    0.7630 C   0  0  0  0  0  0  0  0  0  0  0  0
    7.3678   -3.9492    0.4815 C   0  0  0  0  0  0  0  0  0  0  0  0
    7.8800   -4.7465   -0.5945 C   0  0  0  0  0  0  0  0  0  0  0  0
    9.0013   -4.3812   -1.2966 C   0  0  0  0  0  0  0  0  0  0  0  0
   10.8647   -2.8508   -1.6663 C   0  0  0  0  0  0  0  0  0  0  0  0
   11.1740   -3.3658   -2.8756 N   0  0  0  0  0  0  0  0  0  0  0  0
    5.8414   -5.6153    1.2578 N   0  0  0  0  0  0  0  0  0  0  0  0
    6.2694   -4.3368    1.1907 C   0  0  0  0  0  0  0  0  0  0  0  0
   11.7703   -1.9691   -1.1748 N   0  0  0  0  0  0  0  0  0  0  0  0
    5.5087   -3.4628    1.8917 N   0  0  0  0  0  0  0  0  0  0  0  0
   12.5586   -1.0073   -1.9428 C   0  0  0  0  0  0  0  0  0  0  0  0
    4.6209   -3.7921    3.0025 C   0  0  0  0  0  0  0  0  0  0  0  0
   12.4760    0.3518   -1.2295 C   0  0  0  0  0  0  0  0  0  0  0  0
    4.4833   -2.5382    3.8860 C   0  0  0  0  0  0  0  0  0  0  0  0
   11.0219    0.8340   -1.1339 C   0  0  0  0  0  0  0  0  0  0  0  0
    3.9240   -1.3280    3.1164 C   0  0  0  0  0  0  0  0  0  0  0  0
   10.9754    2.1246   -0.3567 N   0  0  0  0  0  0  0  0  0  0  0  0
    3.8948   -0.0902    3.9770 N   0  0  0  0  0  0  0  0  0  0  0  0
    9.5824    2.3630    0.1593 C   0  0  0  0  0  0  0  0  0  0  0  0
    2.6107   -0.0745    4.7620 C   0  0  0  0  0  0  0  0  0  0  0  0
   11.4015    3.2871   -1.2186 C   0  0  0  0  0  0  0  0  0  0  0  0
    3.9844    1.1702    3.1626 C   0  0  0  0  0  0  0  0  0  0  0  0
  1  6  2  0  0  0  0
  2  3  2  0  0  0  0
  2  1  1  0  0  0  0
  3  4  1  0  0  0  0
  4 10  1  0  0  0  0
  4  5  2  0  0  0  0
  6  5  1  0  0  0  0
  7  1  1  0  0  0  0
  7 11  1  0  0  0  0
  8  7  2  0  0  0  0
  9 10  2  0  0  0  0
 10 12  1  0  0  0  0
 12 14  1  0  0  0  0
 13 11  1  0  0  0  0
 13 15  1  0  0  0  0
 14 16  1  0  0  0  0
 16 18  1  0  0  0  0
 17 15  1  0  0  0  0
 17 19  1  0  0  0  0
 18 20  1  0  0  0  0
 19 23  1  0  0  0  0
 20 22  1  0  0  0  0
 20 24  1  0  0  0  0
 21 19  1  0  0  0  0
M  END
>  <CHROM.1>
-158.38503050,-160.61249173,154.13039862,133.25206229,-59.75037011,58.76731668
-175.83104438,176.59095451,-160.34753017,-86.02586410,8.06983532,-1.65283721
0.58853570,-0.04777595,-0.59624015,-2.92312870

>  <Name>
lig.pdb

>  <RI>
2.48096e+07

>  <Rbt.Current_Directory>
/home/itssahil/PROJECTS/Mol_Feturizer/New_Systems/rnas/2l94

>  <Rbt.Executable>
rbdock ($Id: //depot/dev/client3/rdock/2013.1/src/exe/rbdock.cxx#4 $)

>  <Rbt.Library>
libRbt.so (2013.1, Build901 2013/11/27)

>  <Rbt.Parameter_File>
/export/apps/rDock/src/rDock_2013.1_src/data/scripts/dock_solv.prm

>  <Rbt.Receptor>
prm/pocket_docking_6.prm

>  <SCORE>
-29.4153

>  <SCORE.INTER>
-29.0748

>  <SCORE.INTER.CONST>
1

>  <SCORE.INTER.POLAR>
-3.59341

>  <SCORE.INTER.ROT>
10

>  <SCORE.INTER.SOLV>
14.5097

>  <SCORE.INTER.VDW>
-22.5084

>  <SCORE.INTER.norm>
-1.21145

>  <SCORE.INTRA>
-0.340467

>  <SCORE.INTRA.DIHEDRAL>
2.80003

>  <SCORE.INTRA.DIHEDRAL.0>
7.52971

>  <SCORE.INTRA.POLAR>
0

>  <SCORE.INTRA.POLAR.0>
0

>  <SCORE.INTRA.REPUL>
0

>  <SCORE.INTRA.REPUL.0>
0

>  <SCORE.INTRA.SOLV>
0.181892

>  <SCORE.INTRA.SOLV.lig_0>
-22.1084

>  <SCORE.INTRA.VDW>
-1.83143

>  <SCORE.INTRA.VDW.0>
2.4256

>  <SCORE.INTRA.norm>
-0.0141861

>  <SCORE.RESTR>
0

>  <SCORE.RESTR.CAVITY>
0

>  <SCORE.RESTR.norm>
0

>  <SCORE.SYSTEM>
0

>  <SCORE.SYSTEM.CONST>
0

>  <SCORE.SYSTEM.DIHEDRAL>
0

>  <SCORE.SYSTEM.SOLV>
0

>  <SCORE.SYSTEM.norm>
0

>  <SCORE.heavy>
24

>  <SCORE.norm>
-1.22564

>  <RMSD>
5.473

$$$$
lig.pdb
 OpenBabel11021811453D
libRbt.so/2013.1/901 2013/11/27
 24 24  0  0  0  0  0  0  0  0999 V2000
    7.4450   -3.9665    0.3508 C   0  0  0  0  0  0  0  0  0  0  0  0
    8.1846   -2.7691    0.6338 C   0  0  0  0  0  0  0  0  0  0  0  0
    9.3086   -2.4272   -0.0802 C   0  0  0  0  0  0  0  0  0  0  0  0
    9.7968   -3.2419   -1.1513 C   0  0  0  0  0  0  0  0  0  0  0  0
    9.0767   -4.4544   -1.4106 C   0  0  0  0  0  0  0  0  0  0  0  0
    7.9591   -4.8008   -0.6931 C   0  0  0  0  0  0  0  0  0  0  0  0
    6.3095   -4.2991    1.0326 C   0  0  0  0  0  0  0  0  0  0  0  0
    5.9391   -5.5783    1.2556 N   0  0  0  0  0  0  0  0  0  0  0  0
   11.1484   -3.3973   -3.1153 N   0  0  0  0  0  0  0  0  0  0  0  0
   10.8892   -2.8942   -1.8898 C   0  0  0  0  0  0  0  0  0  0  0  0
    5.4677   -3.3659    1.5420 N   0  0  0  0  0  0  0  0  0  0  0  0
   11.8143   -2.0083   -1.4501 N   0  0  0  0  0  0  0  0  0  0  0  0
    4.7126   -3.4591    2.7900 C   0  0  0  0  0  0  0  0  0  0  0  0
   12.7398   -1.2454   -2.2819 C   0  0  0  0  0  0  0  0  0  0  0  0
    4.8795   -2.1312    3.5463 C   0  0  0  0  0  0  0  0  0  0  0  0
   12.8274    0.1805   -1.7068 C   0  0  0  0  0  0  0  0  0  0  0  0
    4.1329   -0.9956    2.8328 C   0  0  0  0  0  0  0  0  0  0  0  0
   13.8546    0.2987   -0.5663 C   0  0  0  0  0  0  0  0  0  0  0  0
    5.0266    0.2156    2.7542 N   0  0  0  0  0  0  0  0  0  0  0  0
   15.2663    0.3363   -1.0946 N   0  0  0  0  0  0  0  0  0  0  0  0
    4.2316    1.4118    2.3065 C   0  0  0  0  0  0  0  0  0  0  0  0
   15.7755   -1.0746   -1.2205 C   0  0  0  0  0  0  0  0  0  0  0  0
    6.1687   -0.0199    1.7970 C   0  0  0  0  0  0  0  0  0  0  0  0
   16.1893    1.1097   -0.1947 C   0  0  0  0  0  0  0  0  0  0  0  0
  1  6  2  0  0  0  0
  2  3  2  0  0  0  0
  2  1  1  0  0  0  0
  3  4  1  0  0  0  0
  4 10  1  0  0  0  0
  4  5  2  0  0  0  0
  6  5  1  0  0  0  0
  7  1  1  0  0  0  0
  7 11  1  0  0  0  0
  8  7  2  0  0  0  0
  9 10  2  0  0  0  0
 10 12  1  0  0  0  0
 12 14  1  0  0  0  0
 13 11  1  0  0  0  0
 13 15  1  0  0  0  0
 14 16  1  0  0  0  0
 16 18  1  0  0  0  0
 17 15  1  0  0  0  0
 17 19  1  0  0  0  0
 18 20  1  0  0  0  0
 19 23  1  0  0  0  0
 20 22  1  0  0  0  0
 20 24  1  0  0  0  0
 21 19  1  0  0  0  0
M  END
>  <CHROM.1>
-159.92178327,-149.09137074,139.53827589,133.74366766,70.03837932,84.93570484
76.79042422,-134.21875284,-168.98971578,-88.25888334,9.16380630,-1.95748900
0.18197538,3.13930228,0.40679357,0.42687907

>  <Name>
lig.pdb

>  <RI>
2.48096e+07

>  <Rbt.Current_Directory>
/home/itssahil/PROJECTS/Mol_Feturizer/New_Systems/rnas/2l94

>  <Rbt.Executable>
rbdock ($Id: //depot/dev/client3/rdock/2013.1/src/exe/rbdock.cxx#4 $)

>  <Rbt.Library>
libRbt.so (2013.1, Build901 2013/11/27)

>  <Rbt.Parameter_File>
/export/apps/rDock/src/rDock_2013.1_src/data/scripts/dock_solv.prm

>  <Rbt.Receptor>
prm/pocket_docking_6.prm

>  <SCORE>
-23.6855

>  <SCORE.INTER>
-27.7594

>  <SCORE.INTER.CONST>
1

>  <SCORE.INTER.POLAR>
-3.32088

>  <SCORE.INTER.ROT>
10

>  <SCORE.INTER.SOLV>
14.6921

>  <SCORE.INTER.VDW>
-22.6006

>  <SCORE.INTER.norm>
-1.15664

>  <SCORE.INTRA>
4.07389

>  <SCORE.INTRA.DIHEDRAL>
12.2772

>  <SCORE.INTRA.DIHEDRAL.0>
7.52971

>  <SCORE.INTRA.POLAR>
0

>  <SCORE.INTRA.POLAR.0>
0

>  <SCORE.INTRA.REPUL>
0

>  <SCORE.INTRA.REPUL.0>
0

>  <SCORE.INTRA.SOLV>
0.56351

>  <SCORE.INTRA.SOLV.lig_0>
-22.1084

>  <SCORE.INTRA.VDW>
-2.34644

>  <SCORE.INTRA.VDW.0>
2.4256

>  <SCORE.INTRA.norm>
0.169746

>  <SCORE.RESTR>
0

>  <SCORE.RESTR.CAVITY>
0

>  <SCORE.RESTR.norm>
0

>  <SCORE.SYSTEM>
0

>  <SCORE.SYSTEM.CONST>
0

>  <SCORE.SYSTEM.DIHEDRAL>
0

>  <SCORE.SYSTEM.SOLV>
0

>  <SCORE.SYSTEM.norm>
0

>  <SCORE.heavy>
24

>  <SCORE.norm>
-0.986895

>  <RMSD>
5.506

$$$$
lig.pdb
 OpenBabel11021811453D
libRbt.so/2013.1/901 2013/11/27
 24 24  0  0  0  0  0  0  0  0999 V2000
   10.5600   -2.0421   -1.9656 C   0  0  0  0  0  0  0  0  0  0  0  0
   10.3215   -0.9043   -1.1232 C   0  0  0  0  0  0  0  0  0  0  0  0
    9.3652   -0.9231   -0.1356 C   0  0  0  0  0  0  0  0  0  0  0  0
    8.5621   -2.0819    0.1128 C   0  0  0  0  0  0  0  0  0  0  0  0
    8.7782   -3.2056   -0.7512 C   0  0  0  0  0  0  0  0  0  0  0  0
    9.7270   -3.1852   -1.7427 C   0  0  0  0  0  0  0  0  0  0  0  0
   11.5287   -2.0452   -2.9280 C   0  0  0  0  0  0  0  0  0  0  0  0
   11.3358   -2.5685   -4.1576 N   0  0  0  0  0  0  0  0  0  0  0  0
    7.3532   -3.2405    1.8169 N   0  0  0  0  0  0  0  0  0  0  0  0
    7.6362   -2.1240    1.1130 C   0  0  0  0  0  0  0  0  0  0  0  0
   12.7606   -1.5171   -2.7212 N   0  0  0  0  0  0  0  0  0  0  0  0
    6.9157   -1.0395    1.4854 N   0  0  0  0  0  0  0  0  0  0  0  0
   13.5843   -0.8120   -3.7013 C   0  0  0  0  0  0  0  0  0  0  0  0
    6.2553   -0.8449    2.7725 C   0  0  0  0  0  0  0  0  0  0  0  0
   14.4667    0.1936   -2.9444 C   0  0  0  0  0  0  0  0  0  0  0  0
    4.8823   -0.2000    2.5070 C   0  0  0  0  0  0  0  0  0  0  0  0
   13.6087    1.2384   -2.2175 C   0  0  0  0  0  0  0  0  0  0  0  0
    4.0327   -0.0652    3.7837 C   0  0  0  0  0  0  0  0  0  0  0  0
   14.4993    2.1151   -1.3749 N   0  0  0  0  0  0  0  0  0  0  0  0
    3.2612   -1.3285    4.0711 N   0  0  0  0  0  0  0  0  0  0  0  0
   13.6770    2.8475   -0.3498 C   0  0  0  0  0  0  0  0  0  0  0  0
    2.2130   -1.0318    5.1097 C   0  0  0  0  0  0  0  0  0  0  0  0
   15.2417    3.1098   -2.2325 C   0  0  0  0  0  0  0  0  0  0  0  0
    4.1477   -2.4335    4.5740 C   0  0  0  0  0  0  0  0  0  0  0  0
  1  6  2  0  0  0  0
  2  3  2  0  0  0  0
  2  1  1  0  0  0  0
  3  4  1  0  0  0  0
  4 10  1  0  0  0  0
  4  5  2  0  0  0  0
  6  5  1  0  0  0  0
  7  1  1  0  0  0  0
  7 11  1  0  0  0  0
  8  7  2  0  0  0  0
  9 10  2  0  0  0  0
 10 12  1  0  0  0  0
 12 14  1  0  0  0  0
 13 11  1  0  0  0  0
 13 15  1  0  0  0  0
 14 16  1  0  0  0  0
 16 18  1  0  0  0  0
 17 15  1  0  0  0  0
 17 19  1  0  0  0  0
 18 20  1  0  0  0  0
 19 23  1  0  0  0  0
 20 22  1  0  0  0  0
 20 24  1  0  0  0  0
 21 19  1  0  0  0  0
M  END
>  <CHROM.1>
-145.79055399,-138.06413280,-139.12714118,150.95125682,-62.16484960,174.62263102
-85.38229978,174.16272979,-162.64285815,-166.30497444,9.34951515,-0.88314405
0.00167749,0.17777658,-0.57927419,-2.54157726

>  <Name>
lig.pdb

>  <RI>
9.7521e+06

>  <Rbt.Current_Directory>
/home/itssahil/PROJECTS/Mol_Feturizer/New_Systems/rnas/2l94

>  <Rbt.Executable>
rbdock ($Id: //depot/dev/client3/rdock/2013.1/src/exe/rbdock.cxx#4 $)

>  <Rbt.Library>
libRbt.so (2013.1, Build901 2013/11/27)

>  <Rbt.Parameter_File>
/export/apps/rDock/src/rDock_2013.1_src/data/scripts/dock_solv.prm

>  <Rbt.Receptor>
prm/pocket_docking_7.prm

>  <SCORE>
-17.2308

>  <SCORE.INTER>
-20.019

>  <SCORE.INTER.CONST>
1

>  <SCORE.INTER.POLAR>
-3.03744

>  <SCORE.INTER.ROT>
10

>  <SCORE.INTER.SOLV>
13.84

>  <SCORE.INTER.VDW>
-18.1012

>  <SCORE.INTER.norm>
-0.834126

>  <SCORE.INTRA>
2.7753

>  <SCORE.INTRA.DIHEDRAL>
10.4175

>  <SCORE.INTRA.DIHEDRAL.0>
7.52971

>  <SCORE.INTRA.POLAR>
0

>  <SCORE.INTRA.POLAR.0>
0

>  <SCORE.INTRA.REPUL>
0

>  <SCORE.INTRA.REPUL.0>
0

>  <SCORE.INTRA.SOLV>
0.0257583

>  <SCORE.INTRA.SOLV.lig_0>
-22.1084

>  <SCORE.INTRA.VDW>
-2.44633

>  <SCORE.INTRA.VDW.0>
2.4256

>  <SCORE.INTRA.norm>
0.115638

>  <SCORE.RESTR>
0.0129501

>  <SCORE.RESTR.CAVITY>
0.0129501

>  <SCORE.RESTR.norm>
0.000539586

>  <SCORE.SYSTEM>
0

>  <SCORE.SYSTEM.CONST>
0

>  <SCORE.SYSTEM.DIHEDRAL>
0

>  <SCORE.SYSTEM.SOLV>
0

>  <SCORE.SYSTEM.norm>
0

>  <SCORE.heavy>
24

>  <SCORE.norm>
-0.717949

>  <RMSD>
5.524

$$$$
lig.pdb
 OpenBabel11021811453D
libRbt.so/2013.1/901 2013/11/27
 24 24  0  0  0  0  0  0  0  0999 V2000
    7.1804   -4.1590    0.3698 C   0  0  0  0  0  0  0  0  0  0  0  0
    7.7973   -2.9829    0.9149 C   0  0  0  0  0  0  0  0  0  0  0  0
    8.9173   -2.4238    0.3464 C   0  0  0  0  0  0  0  0  0  0  0  0
    9.5233   -2.9786   -0.8259 C   0  0  0  0  0  0  0  0  0  0  0  0
    8.9261   -4.1724   -1.3493 C   0  0  0  0  0  0  0  0  0  0  0  0
    7.8128   -4.7361   -0.7779 C   0  0  0  0  0  0  0  0  0  0  0  0
    6.0496   -4.7038    0.9076 C   0  0  0  0  0  0  0  0  0  0  0  0
    5.8240   -4.7545    2.2379 N   0  0  0  0  0  0  0  0  0  0  0  0
   10.9823   -2.6668   -2.6920 N   0  0  0  0  0  0  0  0  0  0  0  0
   10.6125   -2.4116   -1.4191 C   0  0  0  0  0  0  0  0  0  0  0  0
    5.0628   -5.2331    0.1425 N   0  0  0  0  0  0  0  0  0  0  0  0
   11.4220   -1.5386   -0.7738 N   0  0  0  0  0  0  0  0  0  0  0  0
    3.6269   -5.1808    0.4101 C   0  0  0  0  0  0  0  0  0  0  0  0
   12.3091   -0.5629   -1.3995 C   0  0  0  0  0  0  0  0  0  0  0  0
    2.9748   -4.2999   -0.6677 C   0  0  0  0  0  0  0  0  0  0  0  0
   13.6739   -1.2401   -1.6241 C   0  0  0  0  0  0  0  0  0  0  0  0
    3.5344   -2.8713   -0.6215 C   0  0  0  0  0  0  0  0  0  0  0  0
   14.8087   -0.5666   -0.8313 C   0  0  0  0  0  0  0  0  0  0  0  0
    3.0155   -2.1730    0.6093 N   0  0  0  0  0  0  0  0  0  0  0  0
   15.1068   -1.3086    0.4470 N   0  0  0  0  0  0  0  0  0  0  0  0
    1.5764   -1.7826    0.4097 C   0  0  0  0  0  0  0  0  0  0  0  0
   14.0506   -0.9682    1.4639 C   0  0  0  0  0  0  0  0  0  0  0  0
    3.8351   -0.9441    0.9162 C   0  0  0  0  0  0  0  0  0  0  0  0
   16.4561   -0.9551    1.0076 C   0  0  0  0  0  0  0  0  0  0  0  0
  1  6  2  0  0  0  0
  2  3  2  0  0  0  0
  2  1  1  0  0  0  0
  3  4  1  0  0  0  0
  4 10  1  0  0  0  0
  4  5  2  0  0  0  0
  6  5  1  0  0  0  0
  7  1  1  0  0  0  0
  7 11  1  0  0  0  0
  8  7  2  0  0  0  0
  9 10  2  0  0  0  0
 10 12  1  0  0  0  0
 12 14  1  0  0  0  0
 13 11  1  0  0  0  0
 13 15  1  0  0  0  0
 14 16  1  0  0  0  0
 16 18  1  0  0  0  0
 17 15  1  0  0  0  0
 17 19  1  0  0  0  0
 18 20  1  0  0  0  0
 19 23  1  0  0  0  0
 20 22  1  0  0  0  0
 20 24  1  0  0  0  0
 21 19  1  0  0  0  0
M  END
>  <CHROM.1>
-161.03391211,-38.05285163,-89.66653262,112.83629742,-61.06321438,-117.18919410
98.46852127,-71.53454723,-75.38116753,-77.61879862,8.55801007,-2.70187231
-0.09589014,-2.94372199,0.10766889,0.20032309

>  <Name>
lig.pdb

>  <RI>
1.39428e+07

>  <Rbt.Current_Directory>
/home/itssahil/PROJECTS/Mol_Feturizer/New_Systems/rnas/2l94

>  <Rbt.Executable>
rbdock ($Id: //depot/dev/client3/rdock/2013.1/src/exe/rbdock.cxx#4 $)

>  <Rbt.Library>
libRbt.so (2013.1, Build901 2013/11/27)

>  <Rbt.Parameter_File>
/export/apps/rDock/src/rDock_2013.1_src/data/scripts/dock_solv.prm

>  <Rbt.Receptor>
prm/pocket_docking_8.prm

>  <SCORE>
-24.2887

>  <SCORE.INTER>
-29.1191

>  <SCORE.INTER.CONST>
1

>  <SCORE.INTER.POLAR>
-4.36436

>  <SCORE.INTER.ROT>
10

>  <SCORE.INTER.SOLV>
13.5779

>  <SCORE.INTER.VDW>
-19.6575

>  <SCORE.INTER.norm>
-1.2133

>  <SCORE.INTRA>
4.83037

>  <SCORE.INTRA.DIHEDRAL>
14.8107

>  <SCORE.INTRA.DIHEDRAL.0>
7.52971

>  <SCORE.INTRA.POLAR>
0

>  <SCORE.INTRA.POLAR.0>
0

>  <SCORE.INTRA.REPUL>
0

>  <SCORE.INTRA.REPUL.0>
0

>  <SCORE.INTRA.SOLV>
1.14227

>  <SCORE.INTRA.SOLV.lig_0>
-22.1084

>  <SCORE.INTRA.VDW>
-3.14613

>  <SCORE.INTRA.VDW.0>
2.4256

>  <SCORE.INTRA.norm>
0.201265

>  <SCORE.RESTR>
0

>  <SCORE.RESTR.CAVITY>
0

>  <SCORE.RESTR.norm>
0

>  <SCORE.SYSTEM>
0

>  <SCORE.SYSTEM.CONST>
0

>  <SCORE.SYSTEM.DIHEDRAL>
0

>  <SCORE.SYSTEM.SOLV>
0

>  <SCORE.SYSTEM.norm>
0

>  <SCORE.heavy>
24

>  <SCORE.norm>
-1.01203

>  <RMSD>
5.525

$$$$
lig.pdb
 OpenBabel11021811453D
libRbt.so/2013.1/901 2013/11/27
 24 24  0  0  0  0  0  0  0  0999 V2000
    8.6409   -1.9373   -0.0125 C   0  0  0  0  0  0  0  0  0  0  0  0
    9.7616   -2.8335    0.0335 C   0  0  0  0  0  0  0  0  0  0  0  0
   10.7369   -2.8226   -0.9353 C   0  0  0  0  0  0  0  0  0  0  0  0
   10.6930   -1.9100   -2.0374 C   0  0  0  0  0  0  0  0  0  0  0  0
    9.5560   -1.0387   -2.1001 C   0  0  0  0  0  0  0  0  0  0  0  0
    8.5775   -1.0543   -1.1378 C   0  0  0  0  0  0  0  0  0  0  0  0
    7.6836   -1.9181    0.9612 C   0  0  0  0  0  0  0  0  0  0  0  0
    7.6268   -2.8372    1.9486 N   0  0  0  0  0  0  0  0  0  0  0  0
   11.5442   -2.4079   -4.2136 N   0  0  0  0  0  0  0  0  0  0  0  0
   11.6735   -1.8656   -2.9842 C   0  0  0  0  0  0  0  0  0  0  0  0
    6.7171   -0.9682    1.0116 N   0  0  0  0  0  0  0  0  0  0  0  0
   12.8700   -1.2698   -2.7670 N   0  0  0  0  0  0  0  0  0  0  0  0
    6.1363   -0.3761    2.2152 C   0  0  0  0  0  0  0  0  0  0  0  0
   13.7866   -0.7796   -3.7918 C   0  0  0  0  0  0  0  0  0  0  0  0
    6.2310    1.1526    2.0855 C   0  0  0  0  0  0  0  0  0  0  0  0
   14.4553    0.4999   -3.2555 C   0  0  0  0  0  0  0  0  0  0  0  0
    5.1761    1.6869    1.1069 C   0  0  0  0  0  0  0  0  0  0  0  0
   15.5195    0.2085   -2.1820 C   0  0  0  0  0  0  0  0  0  0  0  0
    5.2745    3.1895    1.0402 N   0  0  0  0  0  0  0  0  0  0  0  0
   16.1546    1.4779   -1.6734 N   0  0  0  0  0  0  0  0  0  0  0  0
    3.9981    3.7633    0.4878 C   0  0  0  0  0  0  0  0  0  0  0  0
   17.2665    1.8729   -2.6079 C   0  0  0  0  0  0  0  0  0  0  0  0
    6.4359    3.6147    0.1763 C   0  0  0  0  0  0  0  0  0  0  0  0
   16.7154    1.3170   -0.2880 C   0  0  0  0  0  0  0  0  0  0  0  0
  1  6  2  0  0  0  0
  2  3  2  0  0  0  0
  2  1  1  0  0  0  0
  3  4  1  0  0  0  0
  4 10  1  0  0  0  0
  4  5  2  0  0  0  0
  6  5  1  0  0  0  0
  7  1  1  0  0  0  0
  7 11  1  0  0  0  0
  8  7  2  0  0  0  0
  9 10  2  0  0  0  0
 10 12  1  0  0  0  0
 12 14  1  0  0  0  0
 13 11  1  0  0  0  0
 13 15  1  0  0  0  0
 14 16  1  0  0  0  0
 16 18  1  0  0  0  0
 17 15  1  0  0  0  0
 17 19  1  0  0  0  0
 18 20  1  0  0  0  0
 19 23  1  0  0  0  0
 20 22  1  0  0  0  0
 20 24  1  0  0  0  0
 21 19  1  0  0  0  0
M  END
>  <CHROM.1>
102.63784898,-8.15928513,144.27791264,127.56734260,75.56271508,74.30193445
-179.87393298,178.28872754,-160.66675596,-84.10578862,10.15558584,-0.14024485
-0.77635991,2.99298446,0.35575218,0.16271017

>  <Name>
lig.pdb

>  <RI>
9.7521e+06

>  <Rbt.Current_Directory>
/home/itssahil/PROJECTS/Mol_Feturizer/New_Systems/rnas/2l94

>  <Rbt.Executable>
rbdock ($Id: //depot/dev/client3/rdock/2013.1/src/exe/rbdock.cxx#4 $)

>  <Rbt.Library>
libRbt.so (2013.1, Build901 2013/11/27)

>  <Rbt.Parameter_File>
/export/apps/rDock/src/rDock_2013.1_src/data/scripts/dock_solv.prm

>  <Rbt.Receptor>
prm/pocket_docking_7.prm

>  <SCORE>
-24.4642

>  <SCORE.INTER>
-28.3886

>  <SCORE.INTER.CONST>
1

>  <SCORE.INTER.POLAR>
-4.07763

>  <SCORE.INTER.ROT>
10

>  <SCORE.INTER.SOLV>
14.8403

>  <SCORE.INTER.VDW>
-20.5471

>  <SCORE.INTER.norm>
-1.18286

>  <SCORE.INTRA>
3.86557

>  <SCORE.INTRA.DIHEDRAL>
13.3804

>  <SCORE.INTRA.DIHEDRAL.0>
7.52971

>  <SCORE.INTRA.POLAR>
0

>  <SCORE.INTRA.POLAR.0>
0

>  <SCORE.INTRA.REPUL>
0

>  <SCORE.INTRA.REPUL.0>
0

>  <SCORE.INTRA.SOLV>
-0.0978418

>  <SCORE.INTRA.SOLV.lig_0>
-22.1084

>  <SCORE.INTRA.VDW>
-2.77573

>  <SCORE.INTRA.VDW.0>
2.4256

>  <SCORE.INTRA.norm>
0.161065

>  <SCORE.RESTR>
0.0588538

>  <SCORE.RESTR.CAVITY>
0.0588538

>  <SCORE.RESTR.norm>
0.00245224

>  <SCORE.SYSTEM>
0

>  <SCORE.SYSTEM.CONST>
0

>  <SCORE.SYSTEM.DIHEDRAL>
0

>  <SCORE.SYSTEM.SOLV>
0

>  <SCORE.SYSTEM.norm>
0

>  <SCORE.heavy>
24

>  <SCORE.norm>
-1.01934

>  <RMSD>
5.534

$$$$
lig.pdb
 OpenBabel11021811453D
libRbt.so/2013.1/901 2013/11/27
 24 24  0  0  0  0  0  0  0  0999 V2000
   10.7472   -1.5510    0.0496 C   0  0  0  0  0  0  0  0  0  0  0  0
    9.5752   -2.3734   -0.0562 C   0  0  0  0  0  0  0  0  0  0  0  0
    8.3702   -1.9885    0.4821 C   0  0  0  0  0  0  0  0  0  0  0  0
    8.2164   -0.7419    1.1689 C   0  0  0  0  0  0  0  0  0  0  0  0
    9.3955    0.0629    1.3031 C   0  0  0  0  0  0  0  0  0  0  0  0
   10.6009   -0.3241    0.7731 C   0  0  0  0  0  0  0  0  0  0  0  0
   11.9408   -1.9091   -0.5089 C   0  0  0  0  0  0  0  0  0  0  0  0
   12.0352   -2.7828   -1.5340 N   0  0  0  0  0  0  0  0  0  0  0  0
    6.3690   -0.9831    2.6646 N   0  0  0  0  0  0  0  0  0  0  0  0
    7.0178   -0.3335    1.6750 C   0  0  0  0  0  0  0  0  0  0  0  0
   13.1248   -1.4088   -0.0767 N   0  0  0  0  0  0  0  0  0  0  0  0
    6.3719    0.7670    1.2213 N   0  0  0  0  0  0  0  0  0  0  0  0
   14.2920   -1.0940   -0.8982 C   0  0  0  0  0  0  0  0  0  0  0  0
    5.3604    1.5313    1.9446 C   0  0  0  0  0  0  0  0  0  0  0  0
   13.8026   -0.3602   -2.1572 C   0  0  0  0  0  0  0  0  0  0  0  0
    5.0495    2.7981    1.1259 C   0  0  0  0  0  0  0  0  0  0  0  0
   14.9790    0.2626   -2.9216 C   0  0  0  0  0  0  0  0  0  0  0  0
    6.3136    3.4486    0.5355 C   0  0  0  0  0  0  0  0  0  0  0  0
   15.5519    1.3989   -2.1139 N   0  0  0  0  0  0  0  0  0  0  0  0
    5.9930    4.7438   -0.1669 N   0  0  0  0  0  0  0  0  0  0  0  0
   14.7983    2.6677   -2.4066 C   0  0  0  0  0  0  0  0  0  0  0  0
    4.8888    4.4975   -1.1597 C   0  0  0  0  0  0  0  0  0  0  0  0
   17.0148    1.5961   -2.4254 C   0  0  0  0  0  0  0  0  0  0  0  0
    7.1838    5.3072   -0.8911 C   0  0  0  0  0  0  0  0  0  0  0  0
  1  6  2  0  0  0  0
  2  3  2  0  0  0  0
  2  1  1  0  0  0  0
  3  4  1  0  0  0  0
  4 10  1  0  0  0  0
  4  5  2  0  0  0  0
  6  5  1  0  0  0  0
  7  1  1  0  0  0  0
  7 11  1  0  0  0  0
  8  7  2  0  0  0  0
  9 10  2  0  0  0  0
 10 12  1  0  0  0  0
 12 14  1  0  0  0  0
 13 11  1  0  0  0  0
 13 15  1  0  0  0  0
 14 16  1  0  0  0  0
 16 18  1  0  0  0  0
 17 15  1  0  0  0  0
 17 19  1  0  0  0  0
 18 20  1  0  0  0  0
 19 23  1  0  0  0  0
 20 22  1  0  0  0  0
 20 24  1  0  0  0  0
 21 19  1  0  0  0  0
M  END
>  <CHROM.1>
64.03786721,22.29701770,172.37011790,44.11045576,168.02181012,-41.62488909
-175.47090062,-68.84150944,-86.28409216,-52.41489692,9.98022399,0.62791272
-0.21606995,0.14647090,-0.35352720,2.81320076

>  <Name>
lig.pdb

>  <RI>
2.48096e+07

>  <Rbt.Current_Directory>
/home/itssahil/PROJECTS/Mol_Feturizer/New_Systems/rnas/2l94

>  <Rbt.Executable>
rbdock ($Id: //depot/dev/client3/rdock/2013.1/src/exe/rbdock.cxx#4 $)

>  <Rbt.Library>
libRbt.so (2013.1, Build901 2013/11/27)

>  <Rbt.Parameter_File>
/export/apps/rDock/src/rDock_2013.1_src/data/scripts/dock_solv.prm

>  <Rbt.Receptor>
prm/pocket_docking_6.prm

>  <SCORE>
-16.289

>  <SCORE.INTER>
-24.8087

>  <SCORE.INTER.CONST>
1

>  <SCORE.INTER.POLAR>
-2.72857

>  <SCORE.INTER.ROT>
10

>  <SCORE.INTER.SOLV>
11.3866

>  <SCORE.INTER.VDW>
-21.5061

>  <SCORE.INTER.norm>
-1.0337

>  <SCORE.INTRA>
8.51974

>  <SCORE.INTRA.DIHEDRAL>
13.1756

>  <SCORE.INTRA.DIHEDRAL.0>
7.52971

>  <SCORE.INTRA.POLAR>
0

>  <SCORE.INTRA.POLAR.0>
0

>  <SCORE.INTRA.REPUL>
0

>  <SCORE.INTRA.REPUL.0>
0

>  <SCORE.INTRA.SOLV>
0.256456

>  <SCORE.INTRA.SOLV.lig_0>
-22.1084

>  <SCORE.INTRA.VDW>
1.80374

>  <SCORE.INTRA.VDW.0>
2.4256

>  <SCORE.INTRA.norm>
0.354989

>  <SCORE.RESTR>
0

>  <SCORE.RESTR.CAVITY>
0

>  <SCORE.RESTR.norm>
0

>  <SCORE.SYSTEM>
0

>  <SCORE.SYSTEM.CONST>
0

>  <SCORE.SYSTEM.DIHEDRAL>
0

>  <SCORE.SYSTEM.SOLV>
0

>  <SCORE.SYSTEM.norm>
0

>  <SCORE.heavy>
24

>  <SCORE.norm>
-0.678708

>  <RMSD>
5.558

$$$$
lig.pdb
 OpenBabel11021811453D
libRbt.so/2013.1/901 2013/11/27
 24 24  0  0  0  0  0  0  0  0999 V2000
    7.3730   -3.9625    0.4823 C   0  0  0  0  0  0  0  0  0  0  0  0
    7.9554   -4.7655   -0.5555 C   0  0  0  0  0  0  0  0  0  0  0  0
    9.1038   -4.3832   -1.2076 C   0  0  0  0  0  0  0  0  0  0  0  0
    9.7867   -3.1685   -0.8799 C   0  0  0  0  0  0  0  0  0  0  0  0
    9.1854   -2.3513    0.1332 C   0  0  0  0  0  0  0  0  0  0  0  0
    8.0345   -2.7279    0.7792 C   0  0  0  0  0  0  0  0  0  0  0  0
    6.2507   -4.3482    1.1581 C   0  0  0  0  0  0  0  0  0  0  0  0
    5.8524   -5.6358    1.2386 N   0  0  0  0  0  0  0  0  0  0  0  0
   11.3725   -3.3296   -2.6597 N   0  0  0  0  0  0  0  0  0  0  0  0
   10.9460   -2.7975   -1.4948 C   0  0  0  0  0  0  0  0  0  0  0  0
    5.4516   -3.4638    1.8047 N   0  0  0  0  0  0  0  0  0  0  0  0
   11.7742   -1.8567   -0.9820 N   0  0  0  0  0  0  0  0  0  0  0  0
    4.7339   -3.6893    3.0579 C   0  0  0  0  0  0  0  0  0  0  0  0
   12.7626   -1.0818   -1.7257 C   0  0  0  0  0  0  0  0  0  0  0  0
    3.4828   -2.7961    3.0560 C   0  0  0  0  0  0  0  0  0  0  0  0
   14.1223   -1.2499   -1.0222 C   0  0  0  0  0  0  0  0  0  0  0  0
    3.3820   -1.9901    4.3584 C   0  0  0  0  0  0  0  0  0  0  0  0
   15.2929   -0.6915   -1.8515 C   0  0  0  0  0  0  0  0  0  0  0  0
    2.1097   -1.1820    4.3466 N   0  0  0  0  0  0  0  0  0  0  0  0
   15.1097    0.7750   -2.1502 N   0  0  0  0  0  0  0  0  0  0  0  0
    2.2677    0.0369    5.2142 C   0  0  0  0  0  0  0  0  0  0  0  0
   14.5095    0.9199   -3.5228 C   0  0  0  0  0  0  0  0  0  0  0  0
    0.9450   -2.0054    4.8383 C   0  0  0  0  0  0  0  0  0  0  0  0
   16.4083    1.5309   -2.1030 C   0  0  0  0  0  0  0  0  0  0  0  0
  1  6  2  0  0  0  0
  2  3  2  0  0  0  0
  2  1  1  0  0  0  0
  3  4  1  0  0  0  0
  4 10  1  0  0  0  0
  4  5  2  0  0  0  0
  6  5  1  0  0  0  0
  7  1  1  0  0  0  0
  7 11  1  0  0  0  0
  8  7  2  0  0  0  0
  9 10  2  0  0  0  0
 10 12  1  0  0  0  0
 12 14  1  0  0  0  0
 13 11  1  0  0  0  0
 13 15  1  0  0  0  0
 14 16  1  0  0  0  0
 16 18  1  0  0  0  0
 17 15  1  0  0  0  0
 17 19  1  0  0  0  0
 18 20  1  0  0  0  0
 19 23  1  0  0  0  0
 20 22  1  0  0  0  0
 20 24  1  0  0  0  0
 21 19  1  0  0  0  0
M  END
>  <CHROM.1>
17.17316033,22.08629742,-126.39099746,-152.00925685,-129.77577435,169.56235994
58.73000202,-177.17621499,-153.66307945,-96.81525745,8.67268488,-2.19885753
0.44885609,3.09741146,0.50574062,0.41838848

>  <Name>
lig.pdb

>  <RI>
2.48096e+07

>  <Rbt.Current_Directory>
/home/itssahil/PROJECTS/Mol_Feturizer/New_Systems/rnas/2l94

>  <Rbt.Executable>
rbdock ($Id: //depot/dev/client3/rdock/2013.1/src/exe/rbdock.cxx#4 $)

>  <Rbt.Library>
libRbt.so (2013.1, Build901 2013/11/27)

>  <Rbt.Parameter_File>
/export/apps/rDock/src/rDock_2013.1_src/data/scripts/dock_solv.prm

>  <Rbt.Receptor>
prm/pocket_docking_6.prm

>  <SCORE>
-24.5445

>  <SCORE.INTER>
-27.1355

>  <SCORE.INTER.CONST>
1

>  <SCORE.INTER.POLAR>
-2.70739

>  <SCORE.INTER.ROT>
10

>  <SCORE.INTER.SOLV>
15.2367

>  <SCORE.INTER.VDW>
-24.4112

>  <SCORE.INTER.norm>
-1.13065

>  <SCORE.INTRA>
2.59099

>  <SCORE.INTRA.DIHEDRAL>
9.71302

>  <SCORE.INTRA.DIHEDRAL.0>
7.52971

>  <SCORE.INTRA.POLAR>
0

>  <SCORE.INTRA.POLAR.0>
0

>  <SCORE.INTRA.REPUL>
0

>  <SCORE.INTRA.REPUL.0>
0

>  <SCORE.INTRA.SOLV>
-0.186083

>  <SCORE.INTRA.SOLV.lig_0>
-22.1084

>  <SCORE.INTRA.VDW>
-2.17248

>  <SCORE.INTRA.VDW.0>
2.4256

>  <SCORE.INTRA.norm>
0.107958

>  <SCORE.RESTR>
0

>  <SCORE.RESTR.CAVITY>
0

>  <SCORE.RESTR.norm>
0

>  <SCORE.SYSTEM>
0

>  <SCORE.SYSTEM.CONST>
0

>  <SCORE.SYSTEM.DIHEDRAL>
0

>  <SCORE.SYSTEM.SOLV>
0

>  <SCORE.SYSTEM.norm>
0

>  <SCORE.heavy>
24

>  <SCORE.norm>
-1.02269

>  <RMSD>
5.575

$$$$
lig.pdb
 OpenBabel11021811453D
libRbt.so/2013.1/901 2013/11/27
 24 24  0  0  0  0  0  0  0  0999 V2000
    2.5824   -0.7324    4.0185 C   0  0  0  0  0  0  0  0  0  0  0  0
    1.8747   -1.5070    3.0386 C   0  0  0  0  0  0  0  0  0  0  0  0
    2.4945   -2.4975    2.3140 C   0  0  0  0  0  0  0  0  0  0  0  0
    3.8769   -2.8169    2.5046 C   0  0  0  0  0  0  0  0  0  0  0  0
    4.5906   -2.0200    3.4593 C   0  0  0  0  0  0  0  0  0  0  0  0
    3.9749   -1.0255    4.1774 C   0  0  0  0  0  0  0  0  0  0  0  0
    1.9690    0.2318    4.7660 C   0  0  0  0  0  0  0  0  0  0  0  0
    2.5544    0.8091    5.8370 N   0  0  0  0  0  0  0  0  0  0  0  0
    3.8305   -4.7046    1.0409 N   0  0  0  0  0  0  0  0  0  0  0  0
    4.4925   -3.8213    1.8177 C   0  0  0  0  0  0  0  0  0  0  0  0
    0.7226    0.6863    4.4849 N   0  0  0  0  0  0  0  0  0  0  0  0
    5.8316   -4.0187    1.8597 N   0  0  0  0  0  0  0  0  0  0  0  0
    0.2348    2.0546    4.6463 C   0  0  0  0  0  0  0  0  0  0  0  0
    6.6281   -4.7346    0.8679 C   0  0  0  0  0  0  0  0  0  0  0  0
   -0.1411    2.5918    3.2560 C   0  0  0  0  0  0  0  0  0  0  0  0
    7.2632   -3.6920   -0.0708 C   0  0  0  0  0  0  0  0  0  0  0  0
    1.0997    2.7136    2.3607 C   0  0  0  0  0  0  0  0  0  0  0  0
    6.2237   -2.9727   -0.9495 C   0  0  0  0  0  0  0  0  0  0  0  0
    0.6730    3.1041    0.9688 N   0  0  0  0  0  0  0  0  0  0  0  0
    5.6600   -3.8911   -2.0041 N   0  0  0  0  0  0  0  0  0  0  0  0
    0.0810    1.9157    0.2611 C   0  0  0  0  0  0  0  0  0  0  0  0
    6.5808   -3.8866   -3.1947 C   0  0  0  0  0  0  0  0  0  0  0  0
    1.8425    3.6338    0.1764 C   0  0  0  0  0  0  0  0  0  0  0  0
    4.2864   -3.4712   -2.4478 C   0  0  0  0  0  0  0  0  0  0  0  0
  1  6  2  0  0  0  0
  2  3  2  0  0  0  0
  2  1  1  0  0  0  0
  3  4  1  0  0  0  0
  4 10  1  0  0  0  0
  4  5  2  0  0  0  0
  6  5  1  0  0  0  0
  7  1  1  0  0  0  0
  7 11  1  0  0  0  0
  8  7  2  0  0  0  0
  9 10  2  0  0  0  0
 10 12  1  0  0  0  0
 12 14  1  0  0  0  0
 13 11  1  0  0  0  0
 13 15  1  0  0  0  0
 14 16  1  0  0  0  0
 16 18  1  0  0  0  0
 17 15  1  0  0  0  0
 17 19  1  0  0  0  0
 18 20  1  0  0  0  0
 19 23  1  0  0  0  0
 20 22  1  0  0  0  0
 20 24  1  0  0  0  0
 21 19  1  0  0  0  0
M  END
>  <CHROM.1>
-8.91582635,168.56731939,98.15191563,116.87618582,-65.35750187,-68.04518939
-70.82972167,174.15214537,-75.70405164,-84.87240805,3.29718729,-1.14822617
1.72682674,-2.86012158,0.93230054,-1.34667534

>  <Name>
lig.pdb

>  <RI>
1.39428e+07

>  <Rbt.Current_Directory>
/home/itssahil/PROJECTS/Mol_Feturizer/New_Systems/rnas/2l94

>  <Rbt.Executable>
rbdock ($Id: //depot/dev/client3/rdock/2013.1/src/exe/rbdock.cxx#4 $)

>  <Rbt.Library>
libRbt.so (2013.1, Build901 2013/11/27)

>  <Rbt.Parameter_File>
/export/apps/rDock/src/rDock_2013.1_src/data/scripts/dock_solv.prm

>  <Rbt.Receptor>
prm/pocket_docking_8.prm

>  <SCORE>
-24.395

>  <SCORE.INTER>
-22.1031

>  <SCORE.INTER.CONST>
1

>  <SCORE.INTER.POLAR>
-3.58005

>  <SCORE.INTER.ROT>
10

>  <SCORE.INTER.SOLV>
9.32432

>  <SCORE.INTER.VDW>
-16.1767

>  <SCORE.INTER.norm>
-0.920964

>  <SCORE.INTRA>
-2.29188

>  <SCORE.INTRA.DIHEDRAL>
1.03076

>  <SCORE.INTRA.DIHEDRAL.0>
7.52971

>  <SCORE.INTRA.POLAR>
0

>  <SCORE.INTRA.POLAR.0>
0

>  <SCORE.INTRA.REPUL>
0

>  <SCORE.INTRA.REPUL.0>
0

>  <SCORE.INTRA.SOLV>
1.29843

>  <SCORE.INTRA.SOLV.lig_0>
-22.1084

>  <SCORE.INTRA.VDW>
-3.45647

>  <SCORE.INTRA.VDW.0>
2.4256

>  <SCORE.INTRA.norm>
-0.0954948

>  <SCORE.RESTR>
0

>  <SCORE.RESTR.CAVITY>
0

>  <SCORE.RESTR.norm>
0

>  <SCORE.SYSTEM>
0

>  <SCORE.SYSTEM.CONST>
0

>  <SCORE.SYSTEM.DIHEDRAL>
0

>  <SCORE.SYSTEM.SOLV>
0

>  <SCORE.SYSTEM.norm>
0

>  <SCORE.heavy>
24

>  <SCORE.norm>
-1.01646

>  <RMSD>
5.589

$$$$
lig.pdb
 OpenBabel11021811453D
libRbt.so/2013.1/901 2013/11/27
 24 24  0  0  0  0  0  0  0  0999 V2000
    9.7567   -2.2845   -0.4843 C   0  0  0  0  0  0  0  0  0  0  0  0
    8.9109   -1.6523    0.4883 C   0  0  0  0  0  0  0  0  0  0  0  0
    7.7783   -2.2653    0.9696 C   0  0  0  0  0  0  0  0  0  0  0  0
    7.3865   -3.5716    0.5344 C   0  0  0  0  0  0  0  0  0  0  0  0
    8.2136   -4.1875   -0.4617 C   0  0  0  0  0  0  0  0  0  0  0  0
    9.3401   -3.5731   -0.9489 C   0  0  0  0  0  0  0  0  0  0  0  0
   10.9007   -1.6982   -0.9452 C   0  0  0  0  0  0  0  0  0  0  0  0
   10.9164   -0.4740   -1.5145 N   0  0  0  0  0  0  0  0  0  0  0  0
    5.8761   -4.0858    2.3128 N   0  0  0  0  0  0  0  0  0  0  0  0
    6.2855   -4.2039    1.0319 C   0  0  0  0  0  0  0  0  0  0  0  0
   12.1119   -2.3024   -0.8615 N   0  0  0  0  0  0  0  0  0  0  0  0
    5.5050   -5.0117    0.2755 N   0  0  0  0  0  0  0  0  0  0  0  0
   13.3975   -1.6517   -0.6164 C   0  0  0  0  0  0  0  0  0  0  0  0
    4.1163   -5.3690    0.5482 C   0  0  0  0  0  0  0  0  0  0  0  0
   13.3876   -1.1072    0.8211 C   0  0  0  0  0  0  0  0  0  0  0  0
    3.2155   -4.3324   -0.1487 C   0  0  0  0  0  0  0  0  0  0  0  0
   14.7997   -0.6988    1.2630 C   0  0  0  0  0  0  0  0  0  0  0  0
    3.2022   -2.9744    0.5762 C   0  0  0  0  0  0  0  0  0  0  0  0
   14.7699   -0.2956    2.7150 N   0  0  0  0  0  0  0  0  0  0  0  0
    1.9242   -2.2188    0.3128 N   0  0  0  0  0  0  0  0  0  0  0  0
   13.9861    0.9782    2.8779 C   0  0  0  0  0  0  0  0  0  0  0  0
    2.1794   -0.7487    0.5106 C   0  0  0  0  0  0  0  0  0  0  0  0
   16.1678   -0.1010    3.2480 C   0  0  0  0  0  0  0  0  0  0  0  0
    0.8114   -2.6485    1.2278 C   0  0  0  0  0  0  0  0  0  0  0  0
  1  6  2  0  0  0  0
  2  3  2  0  0  0  0
  2  1  1  0  0  0  0
  3  4  1  0  0  0  0
  4 10  1  0  0  0  0
  4  5  2  0  0  0  0
  6  5  1  0  0  0  0
  7  1  1  0  0  0  0
  7 11  1  0  0  0  0
  8  7  2  0  0  0  0
  9 10  2  0  0  0  0
 10 12  1  0  0  0  0
 12 14  1  0  0  0  0
 13 11  1  0  0  0  0
 13 15  1  0  0  0  0
 14 16  1  0  0  0  0
 16 18  1  0  0  0  0
 17 15  1  0  0  0  0
 17 19  1  0  0  0  0
 18 20  1  0  0  0  0
 19 23  1  0  0  0  0
 20 22  1  0  0  0  0
 20 24  1  0  0  0  0
 21 19  1  0  0  0  0
M  END
>  <CHROM.1>
-34.96510541,-56.23178145,90.52817507,67.61156595,167.00599473,-74.25497928
-153.87290844,-174.65939071,-67.78066141,-155.87951217,8.53164662,-2.31592344
0.60437463,-0.22602469,-0.10870302,-2.43796265

>  <Name>
lig.pdb

>  <RI>
1.39428e+07

>  <Rbt.Current_Directory>
/home/itssahil/PROJECTS/Mol_Feturizer/New_Systems/rnas/2l94

>  <Rbt.Executable>
rbdock ($Id: //depot/dev/client3/rdock/2013.1/src/exe/rbdock.cxx#4 $)

>  <Rbt.Library>
libRbt.so (2013.1, Build901 2013/11/27)

>  <Rbt.Parameter_File>
/export/apps/rDock/src/rDock_2013.1_src/data/scripts/dock_solv.prm

>  <Rbt.Receptor>
prm/pocket_docking_8.prm

>  <SCORE>
-26.2195

>  <SCORE.INTER>
-30.6162

>  <SCORE.INTER.CONST>
1

>  <SCORE.INTER.POLAR>
-4.679

>  <SCORE.INTER.ROT>
10

>  <SCORE.INTER.SOLV>
12.2691

>  <SCORE.INTER.VDW>
-19.1705

>  <SCORE.INTER.norm>
-1.27568

>  <SCORE.INTRA>
4.39667

>  <SCORE.INTRA.DIHEDRAL>
15.3677

>  <SCORE.INTRA.DIHEDRAL.0>
7.52971

>  <SCORE.INTRA.POLAR>
0

>  <SCORE.INTRA.POLAR.0>
0

>  <SCORE.INTRA.REPUL>
0

>  <SCORE.INTRA.REPUL.0>
0

>  <SCORE.INTRA.SOLV>
0.294124

>  <SCORE.INTRA.SOLV.lig_0>
-22.1084

>  <SCORE.INTRA.VDW>
-3.43424

>  <SCORE.INTRA.VDW.0>
2.4256

>  <SCORE.INTRA.norm>
0.183195

>  <SCORE.RESTR>
0

>  <SCORE.RESTR.CAVITY>
0

>  <SCORE.RESTR.norm>
0

>  <SCORE.SYSTEM>
0

>  <SCORE.SYSTEM.CONST>
0

>  <SCORE.SYSTEM.DIHEDRAL>
0

>  <SCORE.SYSTEM.SOLV>
0

>  <SCORE.SYSTEM.norm>
0

>  <SCORE.heavy>
24

>  <SCORE.norm>
-1.09248

>  <RMSD>
5.591

$$$$
lig.pdb
 OpenBabel11021811453D
libRbt.so/2013.1/901 2013/11/27
 24 24  0  0  0  0  0  0  0  0999 V2000
    9.8299   -3.1654   -1.0378 C   0  0  0  0  0  0  0  0  0  0  0  0
    9.0764   -4.2976   -1.4977 C   0  0  0  0  0  0  0  0  0  0  0  0
    7.9125   -4.6910   -0.8806 C   0  0  0  0  0  0  0  0  0  0  0  0
    7.3836   -3.9869    0.2480 C   0  0  0  0  0  0  0  0  0  0  0  0
    8.1547   -2.8770    0.7268 C   0  0  0  0  0  0  0  0  0  0  0  0
    9.3210   -2.4882    0.1166 C   0  0  0  0  0  0  0  0  0  0  0  0
   10.9697   -2.7470   -1.6627 C   0  0  0  0  0  0  0  0  0  0  0  0
   11.3578   -3.2175   -2.8673 N   0  0  0  0  0  0  0  0  0  0  0  0
    5.9329   -4.1005    2.1429 N   0  0  0  0  0  0  0  0  0  0  0  0
    6.2115   -4.3462    0.8451 C   0  0  0  0  0  0  0  0  0  0  0  0
   11.7984   -1.8209   -1.1197 N   0  0  0  0  0  0  0  0  0  0  0  0
    5.2210   -4.9869    0.1799 N   0  0  0  0  0  0  0  0  0  0  0  0
   12.5543   -0.7970   -1.8383 C   0  0  0  0  0  0  0  0  0  0  0  0
    3.8118   -5.0220    0.5587 C   0  0  0  0  0  0  0  0  0  0  0  0
   12.0433    0.5789   -1.3814 C   0  0  0  0  0  0  0  0  0  0  0  0
    3.0526   -4.0385   -0.3513 C   0  0  0  0  0  0  0  0  0  0  0  0
   10.5456    0.7346   -1.6790 C   0  0  0  0  0  0  0  0  0  0  0  0
    3.5430   -2.5874   -0.1970 C   0  0  0  0  0  0  0  0  0  0  0  0
   10.0954    2.1110   -1.2610 N   0  0  0  0  0  0  0  0  0  0  0  0
    2.5345   -1.6026   -0.7324 N   0  0  0  0  0  0  0  0  0  0  0  0
    9.9191    2.1618    0.2322 C   0  0  0  0  0  0  0  0  0  0  0  0
    3.2681   -0.4720   -1.4026 C   0  0  0  0  0  0  0  0  0  0  0  0
    8.7980    2.4808   -1.9364 C   0  0  0  0  0  0  0  0  0  0  0  0
    1.6579   -1.0409    0.3520 C   0  0  0  0  0  0  0  0  0  0  0  0
  1  6  2  0  0  0  0
  2  3  2  0  0  0  0
  2  1  1  0  0  0  0
  3  4  1  0  0  0  0
  4 10  1  0  0  0  0
  4  5  2  0  0  0  0
  6  5  1  0  0  0  0
  7  1  1  0  0  0  0
  7 11  1  0  0  0  0
  8  7  2  0  0  0  0
  9 10  2  0  0  0  0
 10 12  1  0  0  0  0
 12 14  1  0  0  0  0
 13 11  1  0  0  0  0
 13 15  1  0  0  0  0
 14 16  1  0  0  0  0
 16 18  1  0  0  0  0
 17 15  1  0  0  0  0
 17 19  1  0  0  0  0
 18 20  1  0  0  0  0
 19 23  1  0  0  0  0
 20 22  1  0  0  0  0
 20 24  1  0  0  0  0
 21 19  1  0  0  0  0
M  END
>  <CHROM.1>
153.16430886,10.94126020,102.58825131,116.68786689,-59.65148881,-61.22147685
-161.75124664,-178.05159814,-77.80988656,-142.68462959,7.66362799,-2.01878176
-0.61114105,-0.38560234,-0.15369709,3.00483154

>  <Name>
lig.pdb

>  <RI>
9.7521e+06

>  <Rbt.Current_Directory>
/home/itssahil/PROJECTS/Mol_Feturizer/New_Systems/rnas/2l94

>  <Rbt.Executable>
rbdock ($Id: //depot/dev/client3/rdock/2013.1/src/exe/rbdock.cxx#4 $)

>  <Rbt.Library>
libRbt.so (2013.1, Build901 2013/11/27)

>  <Rbt.Parameter_File>
/export/apps/rDock/src/rDock_2013.1_src/data/scripts/dock_solv.prm

>  <Rbt.Receptor>
prm/pocket_docking_7.prm

>  <SCORE>
-22.7514

>  <SCORE.INTER>
-21.9927

>  <SCORE.INTER.CONST>
1

>  <SCORE.INTER.POLAR>
-3.44081

>  <SCORE.INTER.ROT>
10

>  <SCORE.INTER.SOLV>
13.2815

>  <SCORE.INTER.VDW>
-17.8863

>  <SCORE.INTER.norm>
-0.916362

>  <SCORE.INTRA>
-0.758744

>  <SCORE.INTRA.DIHEDRAL>
4.73468

>  <SCORE.INTRA.DIHEDRAL.0>
7.52971

>  <SCORE.INTRA.POLAR>
0

>  <SCORE.INTRA.POLAR.0>
0

>  <SCORE.INTRA.REPUL>
0

>  <SCORE.INTRA.REPUL.0>
0

>  <SCORE.INTRA.SOLV>
0.593791

>  <SCORE.INTRA.SOLV.lig_0>
-22.1084

>  <SCORE.INTRA.VDW>
-3.42298

>  <SCORE.INTRA.VDW.0>
2.4256

>  <SCORE.INTRA.norm>
-0.0316143

>  <SCORE.RESTR>
0

>  <SCORE.RESTR.CAVITY>
0

>  <SCORE.RESTR.norm>
0

>  <SCORE.SYSTEM>
0

>  <SCORE.SYSTEM.CONST>
0

>  <SCORE.SYSTEM.DIHEDRAL>
0

>  <SCORE.SYSTEM.SOLV>
0

>  <SCORE.SYSTEM.norm>
0

>  <SCORE.heavy>
24

>  <SCORE.norm>
-0.947976

>  <RMSD>
5.673

$$$$
lig.pdb
 OpenBabel11021811453D
libRbt.so/2013.1/901 2013/11/27
 24 24  0  0  0  0  0  0  0  0999 V2000
   10.3943   -2.3572   -0.4483 C   0  0  0  0  0  0  0  0  0  0  0  0
    9.5914   -1.4785    0.3544 C   0  0  0  0  0  0  0  0  0  0  0  0
    8.3059   -1.8032    0.7179 C   0  0  0  0  0  0  0  0  0  0  0  0
    7.7017   -3.0398    0.3240 C   0  0  0  0  0  0  0  0  0  0  0  0
    8.4926   -3.9011   -0.5056 C   0  0  0  0  0  0  0  0  0  0  0  0
    9.7732   -3.5744   -0.8759 C   0  0  0  0  0  0  0  0  0  0  0  0
   11.6828   -2.0589   -0.7882 C   0  0  0  0  0  0  0  0  0  0  0  0
   12.5285   -2.9688   -1.3173 N   0  0  0  0  0  0  0  0  0  0  0  0
    5.4200   -3.5596   -0.1575 N   0  0  0  0  0  0  0  0  0  0  0  0
    6.4407   -3.3881    0.7090 C   0  0  0  0  0  0  0  0  0  0  0  0
   12.2102   -0.8205   -0.6228 N   0  0  0  0  0  0  0  0  0  0  0  0
    6.1043   -3.5912    2.0050 N   0  0  0  0  0  0  0  0  0  0  0  0
   13.1758   -0.1585   -1.4977 C   0  0  0  0  0  0  0  0  0  0  0  0
    4.9672   -4.3685    2.4879 C   0  0  0  0  0  0  0  0  0  0  0  0
   14.5870   -0.5188   -1.0060 C   0  0  0  0  0  0  0  0  0  0  0  0
    3.8095   -3.3913    2.7648 C   0  0  0  0  0  0  0  0  0  0  0  0
   15.6577    0.2148   -1.8255 C   0  0  0  0  0  0  0  0  0  0  0  0
    4.2209   -2.2293    3.6869 C   0  0  0  0  0  0  0  0  0  0  0  0
   15.7304    1.6518   -1.3766 N   0  0  0  0  0  0  0  0  0  0  0  0
    3.0605   -1.3087    3.9684 N   0  0  0  0  0  0  0  0  0  0  0  0
   16.4785    2.4700   -2.3937 C   0  0  0  0  0  0  0  0  0  0  0  0
    3.5836    0.0910    4.1493 C   0  0  0  0  0  0  0  0  0  0  0  0
   16.4141    1.7626   -0.0363 C   0  0  0  0  0  0  0  0  0  0  0  0
    2.3034   -1.7102    5.2035 C   0  0  0  0  0  0  0  0  0  0  0  0
  1  6  2  0  0  0  0
  2  3  2  0  0  0  0
  2  1  1  0  0  0  0
  3  4  1  0  0  0  0
  4 10  1  0  0  0  0
  4  5  2  0  0  0  0
  6  5  1  0  0  0  0
  7  1  1  0  0  0  0
  7 11  1  0  0  0  0
  8  7  2  0  0  0  0
  9 10  2  0  0  0  0
 10 12  1  0  0  0  0
 12 14  1  0  0  0  0
 13 11  1  0  0  0  0
 13 15  1  0  0  0  0
 14 16  1  0  0  0  0
 16 18  1  0  0  0  0
 17 15  1  0  0  0  0
 17 19  1  0  0  0  0
 18 20  1  0  0  0  0
 19 23  1  0  0  0  0
 20 22  1  0  0  0  0
 20 24  1  0  0  0  0
 21 19  1  0  0  0  0
M  END
>  <CHROM.1>
116.21974811,167.04949542,-96.15200781,-89.79993115,-176.39934289,-52.83012819
-178.56886794,76.75028021,-164.49758440,-148.20880796,9.28157138,-1.61302753
0.58842334,-0.01618058,-0.45432654,-2.59210918

>  <Name>
lig.pdb

>  <RI>
9.7521e+06

>  <Rbt.Current_Directory>
/home/itssahil/PROJECTS/Mol_Feturizer/New_Systems/rnas/2l94

>  <Rbt.Executable>
rbdock ($Id: //depot/dev/client3/rdock/2013.1/src/exe/rbdock.cxx#4 $)

>  <Rbt.Library>
libRbt.so (2013.1, Build901 2013/11/27)

>  <Rbt.Parameter_File>
/export/apps/rDock/src/rDock_2013.1_src/data/scripts/dock_solv.prm

>  <Rbt.Receptor>
prm/pocket_docking_7.prm

>  <SCORE>
-16.1575

>  <SCORE.INTER>
-19.4199

>  <SCORE.INTER.CONST>
1

>  <SCORE.INTER.POLAR>
-2.67714

>  <SCORE.INTER.ROT>
10

>  <SCORE.INTER.SOLV>
10.2928

>  <SCORE.INTER.VDW>
-17.7204

>  <SCORE.INTER.norm>
-0.809161

>  <SCORE.INTRA>
3.2624

>  <SCORE.INTRA.DIHEDRAL>
11.7931

>  <SCORE.INTRA.DIHEDRAL.0>
7.52971

>  <SCORE.INTRA.POLAR>
0

>  <SCORE.INTRA.POLAR.0>
0

>  <SCORE.INTRA.REPUL>
0

>  <SCORE.INTRA.REPUL.0>
0

>  <SCORE.INTRA.SOLV>
0.348222

>  <SCORE.INTRA.SOLV.lig_0>
-22.1084

>  <SCORE.INTRA.VDW>
-2.80824

>  <SCORE.INTRA.VDW.0>
2.4256

>  <SCORE.INTRA.norm>
0.135933

>  <SCORE.RESTR>
0

>  <SCORE.RESTR.CAVITY>
0

>  <SCORE.RESTR.norm>
0

>  <SCORE.SYSTEM>
0

>  <SCORE.SYSTEM.CONST>
0

>  <SCORE.SYSTEM.DIHEDRAL>
0

>  <SCORE.SYSTEM.SOLV>
0

>  <SCORE.SYSTEM.norm>
0

>  <SCORE.heavy>
24

>  <SCORE.norm>
-0.673228

>  <RMSD>
5.724

$$$$
lig.pdb
 OpenBabel11021811453D
libRbt.so/2013.1/901 2013/11/27
 24 24  0  0  0  0  0  0  0  0999 V2000
   10.7615   -2.4362   -1.9073 C   0  0  0  0  0  0  0  0  0  0  0  0
    9.8392   -3.5341   -1.9784 C   0  0  0  0  0  0  0  0  0  0  0  0
    8.8947   -3.7499   -1.0030 C   0  0  0  0  0  0  0  0  0  0  0  0
    8.7733   -2.8854    0.1317 C   0  0  0  0  0  0  0  0  0  0  0  0
    9.7168   -1.8093    0.2184 C   0  0  0  0  0  0  0  0  0  0  0  0
   10.6654   -1.5977   -0.7507 C   0  0  0  0  0  0  0  0  0  0  0  0
   11.6823   -2.1943   -2.8863 C   0  0  0  0  0  0  0  0  0  0  0  0
   11.5157   -2.6010   -4.1630 N   0  0  0  0  0  0  0  0  0  0  0  0
    7.7211   -2.3084    2.1976 N   0  0  0  0  0  0  0  0  0  0  0  0
    7.8169   -3.0687    1.0863 C   0  0  0  0  0  0  0  0  0  0  0  0
   12.8355   -1.5213   -2.6494 N   0  0  0  0  0  0  0  0  0  0  0  0
    6.8760   -4.0387    0.9987 N   0  0  0  0  0  0  0  0  0  0  0  0
   13.5133   -0.6018   -3.5612 C   0  0  0  0  0  0  0  0  0  0  0  0
    5.5886   -4.0544    1.6864 C   0  0  0  0  0  0  0  0  0  0  0  0
   13.2490    0.8317   -3.0732 C   0  0  0  0  0  0  0  0  0  0  0  0
    4.7795   -2.8363    1.2035 C   0  0  0  0  0  0  0  0  0  0  0  0
   13.9020    1.0751   -1.7056 C   0  0  0  0  0  0  0  0  0  0  0  0
    3.3896   -2.7487    1.8596 C   0  0  0  0  0  0  0  0  0  0  0  0
   13.4242    2.3936   -1.1533 N   0  0  0  0  0  0  0  0  0  0  0  0
    2.6615   -1.4941    1.4482 N   0  0  0  0  0  0  0  0  0  0  0  0
   14.3693    2.8760   -0.0867 C   0  0  0  0  0  0  0  0  0  0  0  0
    1.4989   -1.2796    2.3798 C   0  0  0  0  0  0  0  0  0  0  0  0
   12.0356    2.2643   -0.5780 C   0  0  0  0  0  0  0  0  0  0  0  0
    2.1484   -1.5719    0.0372 C   0  0  0  0  0  0  0  0  0  0  0  0
  1  6  2  0  0  0  0
  2  3  2  0  0  0  0
  2  1  1  0  0  0  0
  3  4  1  0  0  0  0
  4 10  1  0  0  0  0
  4  5  2  0  0  0  0
  6  5  1  0  0  0  0
  7  1  1  0  0  0  0
  7 11  1  0  0  0  0
  8  7  2  0  0  0  0
  9 10  2  0  0  0  0
 10 12  1  0  0  0  0
 12 14  1  0  0  0  0
 13 11  1  0  0  0  0
 13 15  1  0  0  0  0
 14 16  1  0  0  0  0
 16 18  1  0  0  0  0
 17 15  1  0  0  0  0
 17 19  1  0  0  0  0
 18 20  1  0  0  0  0
 19 23  1  0  0  0  0
 20 22  1  0  0  0  0
 20 24  1  0  0  0  0
 21 19  1  0  0  0  0
M  END
>  <CHROM.1>
176.68354447,24.93437519,61.84843837,104.22977201,65.43312555,179.74946948
175.74270204,-170.15976312,-160.63750543,-165.09172613,9.03371089,-1.47563590
-0.49051892,-0.10987881,-0.44045975,-2.72170400

>  <Name>
lig.pdb

>  <RI>
2.48096e+07

>  <Rbt.Current_Directory>
/home/itssahil/PROJECTS/Mol_Feturizer/New_Systems/rnas/2l94

>  <Rbt.Executable>
rbdock ($Id: //depot/dev/client3/rdock/2013.1/src/exe/rbdock.cxx#4 $)

>  <Rbt.Library>
libRbt.so (2013.1, Build901 2013/11/27)

>  <Rbt.Parameter_File>
/export/apps/rDock/src/rDock_2013.1_src/data/scripts/dock_solv.prm

>  <Rbt.Receptor>
prm/pocket_docking_6.prm

>  <SCORE>
-18.5853

>  <SCORE.INTER>
-16.5888

>  <SCORE.INTER.CONST>
1

>  <SCORE.INTER.POLAR>
-2.67118

>  <SCORE.INTER.ROT>
10

>  <SCORE.INTER.SOLV>
14.4322

>  <SCORE.INTER.VDW>
-17.2327

>  <SCORE.INTER.norm>
-0.6912

>  <SCORE.INTRA>
-1.99652

>  <SCORE.INTRA.DIHEDRAL>
1.39976

>  <SCORE.INTRA.DIHEDRAL.0>
7.52971

>  <SCORE.INTRA.POLAR>
0

>  <SCORE.INTRA.POLAR.0>
0

>  <SCORE.INTRA.REPUL>
0

>  <SCORE.INTRA.REPUL.0>
0

>  <SCORE.INTRA.SOLV>
0.28731

>  <SCORE.INTRA.SOLV.lig_0>
-22.1084

>  <SCORE.INTRA.VDW>
-2.84005

>  <SCORE.INTRA.VDW.0>
2.4256

>  <SCORE.INTRA.norm>
-0.0831882

>  <SCORE.RESTR>
0

>  <SCORE.RESTR.CAVITY>
0

>  <SCORE.RESTR.norm>
0

>  <SCORE.SYSTEM>
0

>  <SCORE.SYSTEM.CONST>
0

>  <SCORE.SYSTEM.DIHEDRAL>
0

>  <SCORE.SYSTEM.SOLV>
0

>  <SCORE.SYSTEM.norm>
0

>  <SCORE.heavy>
24

>  <SCORE.norm>
-0.774388

>  <RMSD>
5.730

$$$$
lig.pdb
 OpenBabel11021811453D
libRbt.so/2013.1/901 2013/11/27
 24 24  0  0  0  0  0  0  0  0999 V2000
    9.8999   -3.1928   -1.0210 C   0  0  0  0  0  0  0  0  0  0  0  0
    9.1479   -4.3133   -1.5111 C   0  0  0  0  0  0  0  0  0  0  0  0
    7.9579   -4.6928   -0.9367 C   0  0  0  0  0  0  0  0  0  0  0  0
    7.3991   -3.9851    0.1751 C   0  0  0  0  0  0  0  0  0  0  0  0
    8.1677   -2.8872    0.6847 C   0  0  0  0  0  0  0  0  0  0  0  0
    9.3599   -2.5124    0.1172 C   0  0  0  0  0  0  0  0  0  0  0  0
   11.0665   -2.7880   -1.6040 C   0  0  0  0  0  0  0  0  0  0  0  0
   11.4618   -3.2157   -2.8221 N   0  0  0  0  0  0  0  0  0  0  0  0
    5.8632   -4.0436    2.0043 N   0  0  0  0  0  0  0  0  0  0  0  0
    6.2019   -4.3303    0.7295 C   0  0  0  0  0  0  0  0  0  0  0  0
   11.9167   -1.9194   -1.0023 N   0  0  0  0  0  0  0  0  0  0  0  0
    5.2452   -4.9972    0.0410 N   0  0  0  0  0  0  0  0  0  0  0  0
   12.7234   -0.8917   -1.6573 C   0  0  0  0  0  0  0  0  0  0  0  0
    3.8203   -5.0267    0.3558 C   0  0  0  0  0  0  0  0  0  0  0  0
   12.6271    0.3934   -0.8193 C   0  0  0  0  0  0  0  0  0  0  0  0
    3.0936   -4.1200   -0.6548 C   0  0  0  0  0  0  0  0  0  0  0  0
   13.4165    0.2554    0.4899 C   0  0  0  0  0  0  0  0  0  0  0  0
    3.5775   -2.6597   -0.5975 C   0  0  0  0  0  0  0  0  0  0  0  0
   13.1120    1.4320    1.3813 N   0  0  0  0  0  0  0  0  0  0  0  0
    2.8991   -1.8104   -1.6425 N   0  0  0  0  0  0  0  0  0  0  0  0
   13.7540    2.6749    0.8276 C   0  0  0  0  0  0  0  0  0  0  0  0
    3.5568   -2.0600   -2.9731 C   0  0  0  0  0  0  0  0  0  0  0  0
   13.6102    1.1872    2.7841 C   0  0  0  0  0  0  0  0  0  0  0  0
    2.9826   -0.3436   -1.3243 C   0  0  0  0  0  0  0  0  0  0  0  0
  1  6  2  0  0  0  0
  2  3  2  0  0  0  0
  2  1  1  0  0  0  0
  3  4  1  0  0  0  0
  4 10  1  0  0  0  0
  4  5  2  0  0  0  0
  6  5  1  0  0  0  0
  7  1  1  0  0  0  0
  7 11  1  0  0  0  0
  8  7  2  0  0  0  0
  9 10  2  0  0  0  0
 10 12  1  0  0  0  0
 12 14  1  0  0  0  0
 13 11  1  0  0  0  0
 13 15  1  0  0  0  0
 14 16  1  0  0  0  0
 16 18  1  0  0  0  0
 17 15  1  0  0  0  0
 17 19  1  0  0  0  0
 18 20  1  0  0  0  0
 19 23  1  0  0  0  0
 20 22  1  0  0  0  0
 20 24  1  0  0  0  0
 21 19  1  0  0  0  0
M  END
>  <CHROM.1>
155.55109530,13.91234840,104.76117592,136.52354301,72.16349360,-60.18578427
177.17696093,-170.58086957,-71.51173471,-78.77660350,8.44159202,-2.17820186
-0.36878110,-0.39537731,0.00086915,-2.89796858

>  <Name>
lig.pdb

>  <RI>
2.48096e+07

>  <Rbt.Current_Directory>
/home/itssahil/PROJECTS/Mol_Feturizer/New_Systems/rnas/2l94

>  <Rbt.Executable>
rbdock ($Id: //depot/dev/client3/rdock/2013.1/src/exe/rbdock.cxx#4 $)

>  <Rbt.Library>
libRbt.so (2013.1, Build901 2013/11/27)

>  <Rbt.Parameter_File>
/export/apps/rDock/src/rDock_2013.1_src/data/scripts/dock_solv.prm

>  <Rbt.Receptor>
prm/pocket_docking_6.prm

>  <SCORE>
-25.343

>  <SCORE.INTER>
-24.4977

>  <SCORE.INTER.CONST>
1

>  <SCORE.INTER.POLAR>
-3.55392

>  <SCORE.INTER.ROT>
10

>  <SCORE.INTER.SOLV>
14.546

>  <SCORE.INTER.VDW>
-19.6007

>  <SCORE.INTER.norm>
-1.02074

>  <SCORE.INTRA>
-0.845317

>  <SCORE.INTRA.DIHEDRAL>
2.29294

>  <SCORE.INTRA.DIHEDRAL.0>
7.52971

>  <SCORE.INTRA.POLAR>
0

>  <SCORE.INTRA.POLAR.0>
0

>  <SCORE.INTRA.REPUL>
0

>  <SCORE.INTRA.REPUL.0>
0

>  <SCORE.INTRA.SOLV>
0.390997

>  <SCORE.INTRA.SOLV.lig_0>
-22.1084

>  <SCORE.INTRA.VDW>
-2.18728

>  <SCORE.INTRA.VDW.0>
2.4256

>  <SCORE.INTRA.norm>
-0.0352216

>  <SCORE.RESTR>
0

>  <SCORE.RESTR.CAVITY>
0

>  <SCORE.RESTR.norm>
0

>  <SCORE.SYSTEM>
0

>  <SCORE.SYSTEM.CONST>
0

>  <SCORE.SYSTEM.DIHEDRAL>
0

>  <SCORE.SYSTEM.SOLV>
0

>  <SCORE.SYSTEM.norm>
0

>  <SCORE.heavy>
24

>  <SCORE.norm>
-1.05596

>  <RMSD>
5.758

$$$$
lig.pdb
 OpenBabel11021811453D
libRbt.so/2013.1/901 2013/11/27
 24 24  0  0  0  0  0  0  0  0999 V2000
    7.3785   -3.9486    0.4459 C   0  0  0  0  0  0  0  0  0  0  0  0
    7.9448   -4.7404   -0.6093 C   0  0  0  0  0  0  0  0  0  0  0  0
    9.1003   -4.3668   -1.2538 C   0  0  0  0  0  0  0  0  0  0  0  0
    9.8070   -3.1730   -0.9006 C   0  0  0  0  0  0  0  0  0  0  0  0
    9.2223   -2.3662    0.1303 C   0  0  0  0  0  0  0  0  0  0  0  0
    8.0643   -2.7339    0.7688 C   0  0  0  0  0  0  0  0  0  0  0  0
    6.2491   -4.3266    1.1140 C   0  0  0  0  0  0  0  0  0  0  0  0
    5.8207   -5.6063    1.1598 N   0  0  0  0  0  0  0  0  0  0  0  0
   11.3947   -3.3357   -2.6786 N   0  0  0  0  0  0  0  0  0  0  0  0
   10.9732   -2.8117   -1.5081 C   0  0  0  0  0  0  0  0  0  0  0  0
    5.4725   -3.4421    1.7875 N   0  0  0  0  0  0  0  0  0  0  0  0
   11.8141   -1.8899   -0.9817 N   0  0  0  0  0  0  0  0  0  0  0  0
    4.7527   -3.6857    3.0360 C   0  0  0  0  0  0  0  0  0  0  0  0
   12.8158   -1.1206   -1.7135 C   0  0  0  0  0  0  0  0  0  0  0  0
    3.8275   -2.4853    3.2928 C   0  0  0  0  0  0  0  0  0  0  0  0
   12.1535    0.1851   -2.1911 C   0  0  0  0  0  0  0  0  0  0  0  0
    3.6116   -2.2706    4.7972 C   0  0  0  0  0  0  0  0  0  0  0  0
   13.1016    1.0586   -3.0325 C   0  0  0  0  0  0  0  0  0  0  0  0
    2.5836   -1.1877    5.0031 N   0  0  0  0  0  0  0  0  0  0  0  0
   12.4565    2.3671   -3.4136 N   0  0  0  0  0  0  0  0  0  0  0  0
    3.1646    0.1491    4.6306 C   0  0  0  0  0  0  0  0  0  0  0  0
   11.5414    2.1343   -4.5857 C   0  0  0  0  0  0  0  0  0  0  0  0
    2.1172   -1.1546    6.4375 C   0  0  0  0  0  0  0  0  0  0  0  0
   13.4701    3.4131   -3.7858 C   0  0  0  0  0  0  0  0  0  0  0  0
  1  6  2  0  0  0  0
  2  3  2  0  0  0  0
  2  1  1  0  0  0  0
  3  4  1  0  0  0  0
  4 10  1  0  0  0  0
  4  5  2  0  0  0  0
  6  5  1  0  0  0  0
  7  1  1  0  0  0  0
  7 11  1  0  0  0  0
  8  7  2  0  0  0  0
  9 10  2  0  0  0  0
 10 12  1  0  0  0  0
 12 14  1  0  0  0  0
 13 11  1  0  0  0  0
 13 15  1  0  0  0  0
 14 16  1  0  0  0  0
 16 18  1  0  0  0  0
 17 15  1  0  0  0  0
 17 19  1  0  0  0  0
 18 20  1  0  0  0  0
 19 23  1  0  0  0  0
 20 22  1  0  0  0  0
 20 24  1  0  0  0  0
 21 19  1  0  0  0  0
M  END
>  <CHROM.1>
16.56308192,21.63614119,90.62429236,-170.59795232,-150.45498838,-177.54100428
-176.45402896,-173.76999261,-71.23717190,-79.86047208,8.26206792,-1.81380666
0.26177043,-2.95895647,0.69685261,0.10169432

>  <Name>
lig.pdb

>  <RI>
1.39428e+07

>  <Rbt.Current_Directory>
/home/itssahil/PROJECTS/Mol_Feturizer/New_Systems/rnas/2l94

>  <Rbt.Executable>
rbdock ($Id: //depot/dev/client3/rdock/2013.1/src/exe/rbdock.cxx#4 $)

>  <Rbt.Library>
libRbt.so (2013.1, Build901 2013/11/27)

>  <Rbt.Parameter_File>
/export/apps/rDock/src/rDock_2013.1_src/data/scripts/dock_solv.prm

>  <Rbt.Receptor>
prm/pocket_docking_8.prm

>  <SCORE>
-23.9772

>  <SCORE.INTER>
-24.2838

>  <SCORE.INTER.CONST>
1

>  <SCORE.INTER.POLAR>
-2.75993

>  <SCORE.INTER.ROT>
10

>  <SCORE.INTER.SOLV>
15.9347

>  <SCORE.INTER.VDW>
-22.5676

>  <SCORE.INTER.norm>
-1.01182

>  <SCORE.INTRA>
0.306604

>  <SCORE.INTRA.DIHEDRAL>
4.30526

>  <SCORE.INTRA.DIHEDRAL.0>
7.52971

>  <SCORE.INTRA.POLAR>
0

>  <SCORE.INTRA.POLAR.0>
0

>  <SCORE.INTRA.REPUL>
0

>  <SCORE.INTRA.REPUL.0>
0

>  <SCORE.INTRA.SOLV>
-0.26933

>  <SCORE.INTRA.SOLV.lig_0>
-22.1084

>  <SCORE.INTRA.VDW>
-1.71136

>  <SCORE.INTRA.VDW.0>
2.4256

>  <SCORE.INTRA.norm>
0.0127752

>  <SCORE.RESTR>
0

>  <SCORE.RESTR.CAVITY>
0

>  <SCORE.RESTR.norm>
0

>  <SCORE.SYSTEM>
0

>  <SCORE.SYSTEM.CONST>
0

>  <SCORE.SYSTEM.DIHEDRAL>
0

>  <SCORE.SYSTEM.SOLV>
0

>  <SCORE.SYSTEM.norm>
0

>  <SCORE.heavy>
24

>  <SCORE.norm>
-0.999049

>  <RMSD>
5.784

$$$$
lig.pdb
 OpenBabel11021811453D
libRbt.so/2013.1/901 2013/11/27
 24 24  0  0  0  0  0  0  0  0999 V2000
    7.4432   -3.9282    0.1204 C   0  0  0  0  0  0  0  0  0  0  0  0
    7.9192   -4.5276   -1.0941 C   0  0  0  0  0  0  0  0  0  0  0  0
    9.0895   -4.1219   -1.6908 C   0  0  0  0  0  0  0  0  0  0  0  0
    9.9020   -3.0864   -1.1277 C   0  0  0  0  0  0  0  0  0  0  0  0
    9.4083   -2.4658    0.0668 C   0  0  0  0  0  0  0  0  0  0  0  0
    8.2360   -2.8644    0.6589 C   0  0  0  0  0  0  0  0  0  0  0  0
    6.2990   -4.3452    0.7383 C   0  0  0  0  0  0  0  0  0  0  0  0
    6.1060   -4.2358    2.0702 N   0  0  0  0  0  0  0  0  0  0  0  0
   11.5161   -3.1499   -2.8881 N   0  0  0  0  0  0  0  0  0  0  0  0
   11.0826   -2.7011   -1.6911 C   0  0  0  0  0  0  0  0  0  0  0  0
    5.2653   -4.8989    0.0572 N   0  0  0  0  0  0  0  0  0  0  0  0
   11.9267   -1.8293   -1.0901 N   0  0  0  0  0  0  0  0  0  0  0  0
    3.8418   -4.7358    0.3460 C   0  0  0  0  0  0  0  0  0  0  0  0
   12.9502   -1.0262   -1.7520 C   0  0  0  0  0  0  0  0  0  0  0  0
    3.4951   -3.2455    0.1990 C   0  0  0  0  0  0  0  0  0  0  0  0
   14.2856   -1.2683   -1.0242 C   0  0  0  0  0  0  0  0  0  0  0  0
    3.6309   -2.7918   -1.2610 C   0  0  0  0  0  0  0  0  0  0  0  0
   15.1270    0.0134   -0.8853 C   0  0  0  0  0  0  0  0  0  0  0  0
    3.7517   -1.2900   -1.3065 N   0  0  0  0  0  0  0  0  0  0  0  0
   15.7704    0.3975   -2.1938 N   0  0  0  0  0  0  0  0  0  0  0  0
    2.4201   -0.6586   -1.0037 C   0  0  0  0  0  0  0  0  0  0  0  0
   16.8737    1.3844   -1.9213 C   0  0  0  0  0  0  0  0  0  0  0  0
    4.2337   -0.8300   -2.6601 C   0  0  0  0  0  0  0  0  0  0  0  0
   14.7884    1.0148   -3.1501 C   0  0  0  0  0  0  0  0  0  0  0  0
  1  6  2  0  0  0  0
  2  3  2  0  0  0  0
  2  1  1  0  0  0  0
  3  4  1  0  0  0  0
  4 10  1  0  0  0  0
  4  5  2  0  0  0  0
  6  5  1  0  0  0  0
  7  1  1  0  0  0  0
  7 11  1  0  0  0  0
  8  7  2  0  0  0  0
  9 10  2  0  0  0  0
 10 12  1  0  0  0  0
 12 14  1  0  0  0  0
 13 11  1  0  0  0  0
 13 15  1  0  0  0  0
 14 16  1  0  0  0  0
 16 18  1  0  0  0  0
 17 15  1  0  0  0  0
 17 19  1  0  0  0  0
 18 20  1  0  0  0  0
 19 23  1  0  0  0  0
 20 22  1  0  0  0  0
 20 24  1  0  0  0  0
 21 19  1  0  0  0  0
M  END
>  <CHROM.1>
7.33955950,151.83955309,-127.51261759,61.79144700,66.67801526,-140.95516872
-75.02537057,-160.84316536,-73.07095716,-163.55355232,8.99616540,-2.24158257
-0.96177904,-2.83538916,-0.00449135,-0.51174710

>  <Name>
lig.pdb

>  <RI>
9.7521e+06

>  <Rbt.Current_Directory>
/home/itssahil/PROJECTS/Mol_Feturizer/New_Systems/rnas/2l94

>  <Rbt.Executable>
rbdock ($Id: //depot/dev/client3/rdock/2013.1/src/exe/rbdock.cxx#4 $)

>  <Rbt.Library>
libRbt.so (2013.1, Build901 2013/11/27)

>  <Rbt.Parameter_File>
/export/apps/rDock/src/rDock_2013.1_src/data/scripts/dock_solv.prm

>  <Rbt.Receptor>
prm/pocket_docking_7.prm

>  <SCORE>
-26.6691

>  <SCORE.INTER>
-28.9646

>  <SCORE.INTER.CONST>
1

>  <SCORE.INTER.POLAR>
-3.89991

>  <SCORE.INTER.ROT>
10

>  <SCORE.INTER.SOLV>
14.521

>  <SCORE.INTER.VDW>
-21.417

>  <SCORE.INTER.norm>
-1.20686

>  <SCORE.INTRA>
2.29546

>  <SCORE.INTRA.DIHEDRAL>
7.66586

>  <SCORE.INTRA.DIHEDRAL.0>
7.52971

>  <SCORE.INTRA.POLAR>
0

>  <SCORE.INTRA.POLAR.0>
0

>  <SCORE.INTRA.REPUL>
0

>  <SCORE.INTRA.REPUL.0>
0

>  <SCORE.INTRA.SOLV>
0.312937

>  <SCORE.INTRA.SOLV.lig_0>
-22.1084

>  <SCORE.INTRA.VDW>
-1.69394

>  <SCORE.INTRA.VDW.0>
2.4256

>  <SCORE.INTRA.norm>
0.0956443

>  <SCORE.RESTR>
0

>  <SCORE.RESTR.CAVITY>
0

>  <SCORE.RESTR.norm>
0

>  <SCORE.SYSTEM>
0

>  <SCORE.SYSTEM.CONST>
0

>  <SCORE.SYSTEM.DIHEDRAL>
0

>  <SCORE.SYSTEM.SOLV>
0

>  <SCORE.SYSTEM.norm>
0

>  <SCORE.heavy>
24

>  <SCORE.norm>
-1.11121

>  <RMSD>
5.822

$$$$
lig.pdb
 OpenBabel11021811453D
libRbt.so/2013.1/901 2013/11/27
 24 24  0  0  0  0  0  0  0  0999 V2000
    2.2376    2.6338   -2.0902 C   0  0  0  0  0  0  0  0  0  0  0  0
    1.7201    3.2098   -0.8813 C   0  0  0  0  0  0  0  0  0  0  0  0
    0.8989    2.5017   -0.0362 C   0  0  0  0  0  0  0  0  0  0  0  0
    0.5233    1.1479   -0.3110 C   0  0  0  0  0  0  0  0  0  0  0  0
    1.0134    0.5852   -1.5353 C   0  0  0  0  0  0  0  0  0  0  0  0
    1.8267    1.2940   -2.3838 C   0  0  0  0  0  0  0  0  0  0  0  0
    3.0795    3.3173   -2.9201 C   0  0  0  0  0  0  0  0  0  0  0  0
    3.2156    4.6600   -2.8789 N   0  0  0  0  0  0  0  0  0  0  0  0
   -0.6117   -0.8597    0.3132 N   0  0  0  0  0  0  0  0  0  0  0  0
   -0.2609    0.4242    0.5381 C   0  0  0  0  0  0  0  0  0  0  0  0
    3.8478    2.6957   -3.8488 N   0  0  0  0  0  0  0  0  0  0  0  0
   -0.7589    0.9390    1.6875 N   0  0  0  0  0  0  0  0  0  0  0  0
    5.1971    3.0760   -4.2624 C   0  0  0  0  0  0  0  0  0  0  0  0
   -1.2105    0.1771    2.8477 C   0  0  0  0  0  0  0  0  0  0  0  0
    6.1883    2.1067   -3.5984 C   0  0  0  0  0  0  0  0  0  0  0  0
    0.0326   -0.4132    3.5390 C   0  0  0  0  0  0  0  0  0  0  0  0
    6.0520    0.6950   -4.1853 C   0  0  0  0  0  0  0  0  0  0  0  0
    0.7683    0.6151    4.4171 C   0  0  0  0  0  0  0  0  0  0  0  0
    6.9775   -0.2410   -3.4509 N   0  0  0  0  0  0  0  0  0  0  0  0
    0.0343    0.8645    5.7104 N   0  0  0  0  0  0  0  0  0  0  0  0
    8.3803   -0.0900   -3.9730 C   0  0  0  0  0  0  0  0  0  0  0  0
    0.5206    2.1597    6.3031 C   0  0  0  0  0  0  0  0  0  0  0  0
    6.5303   -1.6732   -3.6087 C   0  0  0  0  0  0  0  0  0  0  0  0
    0.2491   -0.2397    6.7076 C   0  0  0  0  0  0  0  0  0  0  0  0
  1  6  2  0  0  0  0
  2  3  2  0  0  0  0
  2  1  1  0  0  0  0
  3  4  1  0  0  0  0
  4 10  1  0  0  0  0
  4  5  2  0  0  0  0
  6  5  1  0  0  0  0
  7  1  1  0  0  0  0
  7 11  1  0  0  0  0
  8  7  2  0  0  0  0
  9 10  2  0  0  0  0
 10 12  1  0  0  0  0
 12 14  1  0  0  0  0
 13 11  1  0  0  0  0
 13 15  1  0  0  0  0
 14 16  1  0  0  0  0
 16 18  1  0  0  0  0
 17 15  1  0  0  0  0
 17 19  1  0  0  0  0
 18 20  1  0  0  0  0
 19 23  1  0  0  0  0
 20 22  1  0  0  0  0
 20 24  1  0  0  0  0
 21 19  1  0  0  0  0
M  END
>  <CHROM.1>
-178.90692122,-17.86616962,71.58033318,103.18633532,68.63758980,79.39489874
75.63351741,-176.51510718,-79.93542293,-161.60468898,2.39034641,1.20257923
-0.28394451,0.79901848,0.57047704,-0.99549560

>  <Name>
lig.pdb

>  <RI>
9.7521e+06

>  <Rbt.Current_Directory>
/home/itssahil/PROJECTS/Mol_Feturizer/New_Systems/rnas/2l94

>  <Rbt.Executable>
rbdock ($Id: //depot/dev/client3/rdock/2013.1/src/exe/rbdock.cxx#4 $)

>  <Rbt.Library>
libRbt.so (2013.1, Build901 2013/11/27)

>  <Rbt.Parameter_File>
/export/apps/rDock/src/rDock_2013.1_src/data/scripts/dock_solv.prm

>  <Rbt.Receptor>
prm/pocket_docking_7.prm

>  <SCORE>
-16.8366

>  <SCORE.INTER>
-15.5426

>  <SCORE.INTER.CONST>
1

>  <SCORE.INTER.POLAR>
-2.86306

>  <SCORE.INTER.ROT>
10

>  <SCORE.INTER.SOLV>
11.4834

>  <SCORE.INTER.VDW>
-14.9126

>  <SCORE.INTER.norm>
-0.647607

>  <SCORE.INTRA>
-1.29401

>  <SCORE.INTRA.DIHEDRAL>
2.7139

>  <SCORE.INTRA.DIHEDRAL.0>
7.52971

>  <SCORE.INTRA.POLAR>
0

>  <SCORE.INTRA.POLAR.0>
0

>  <SCORE.INTRA.REPUL>
0

>  <SCORE.INTRA.REPUL.0>
0

>  <SCORE.INTRA.SOLV>
0.410629

>  <SCORE.INTRA.SOLV.lig_0>
-22.1084

>  <SCORE.INTRA.VDW>
-2.85627

>  <SCORE.INTRA.VDW.0>
2.4256

>  <SCORE.INTRA.norm>
-0.0539169

>  <SCORE.RESTR>
0

>  <SCORE.RESTR.CAVITY>
0

>  <SCORE.RESTR.norm>
0

>  <SCORE.SYSTEM>
0

>  <SCORE.SYSTEM.CONST>
0

>  <SCORE.SYSTEM.DIHEDRAL>
0

>  <SCORE.SYSTEM.SOLV>
0

>  <SCORE.SYSTEM.norm>
0

>  <SCORE.heavy>
24

>  <SCORE.norm>
-0.701524

>  <RMSD>
5.833

$$$$
lig.pdb
 OpenBabel11021811453D
libRbt.so/2013.1/901 2013/11/27
 24 24  0  0  0  0  0  0  0  0999 V2000
    9.9351   -3.2158   -0.9916 C   0  0  0  0  0  0  0  0  0  0  0  0
    9.1841   -4.3346   -1.4870 C   0  0  0  0  0  0  0  0  0  0  0  0
    7.9863   -4.7078   -0.9248 C   0  0  0  0  0  0  0  0  0  0  0  0
    7.4181   -3.9949    0.1790 C   0  0  0  0  0  0  0  0  0  0  0  0
    8.1855   -2.8987    0.6941 C   0  0  0  0  0  0  0  0  0  0  0  0
    9.3853   -2.5302    0.1388 C   0  0  0  0  0  0  0  0  0  0  0  0
   11.1097   -2.8172   -1.5627 C   0  0  0  0  0  0  0  0  0  0  0  0
   11.4804   -3.1882   -2.8069 N   0  0  0  0  0  0  0  0  0  0  0  0
    5.8673   -4.0546    1.9954 N   0  0  0  0  0  0  0  0  0  0  0  0
    6.2136   -4.3338    0.7210 C   0  0  0  0  0  0  0  0  0  0  0  0
   11.9933   -2.0124   -0.9219 N   0  0  0  0  0  0  0  0  0  0  0  0
    5.2564   -4.9864    0.0195 N   0  0  0  0  0  0  0  0  0  0  0  0
   12.8284   -0.9763   -1.5264 C   0  0  0  0  0  0  0  0  0  0  0  0
    3.8288   -5.0056    0.3229 C   0  0  0  0  0  0  0  0  0  0  0  0
   12.7454    0.2773   -0.6406 C   0  0  0  0  0  0  0  0  0  0  0  0
    3.1213   -4.0652   -0.6705 C   0  0  0  0  0  0  0  0  0  0  0  0
   13.6496    1.3930   -1.1823 C   0  0  0  0  0  0  0  0  0  0  0  0
    3.5690   -2.5997   -0.5225 C   0  0  0  0  0  0  0  0  0  0  0  0
   13.4639    2.6340   -0.3472 N   0  0  0  0  0  0  0  0  0  0  0  0
    2.9028   -1.7118   -1.5430 N   0  0  0  0  0  0  0  0  0  0  0  0
   14.1108    3.8107   -1.0257 C   0  0  0  0  0  0  0  0  0  0  0  0
    3.5090   -1.9842   -2.8935 C   0  0  0  0  0  0  0  0  0  0  0  0
   14.0598    2.4519    1.0267 C   0  0  0  0  0  0  0  0  0  0  0  0
    3.0665   -0.2528   -1.2197 C   0  0  0  0  0  0  0  0  0  0  0  0
  1  6  2  0  0  0  0
  2  3  2  0  0  0  0
  2  1  1  0  0  0  0
  3  4  1  0  0  0  0
  4 10  1  0  0  0  0
  4  5  2  0  0  0  0
  6  5  1  0  0  0  0
  7  1  1  0  0  0  0
  7 11  1  0  0  0  0
  8  7  2  0  0  0  0
  9 10  2  0  0  0  0
 10 12  1  0  0  0  0
 12 14  1  0  0  0  0
 13 11  1  0  0  0  0
 13 15  1  0  0  0  0
 14 16  1  0  0  0  0
 16 18  1  0  0  0  0
 17 15  1  0  0  0  0
 17 19  1  0  0  0  0
 18 20  1  0  0  0  0
 19 23  1  0  0  0  0
 20 22  1  0  0  0  0
 20 24  1  0  0  0  0
 21 19  1  0  0  0  0
M  END
>  <CHROM.1>
154.83909538,17.85653966,103.80136411,134.70783456,177.53190553,-63.22784628
177.69951804,175.90268299,-168.14419065,-72.83326499,8.52826184,-1.96827776
-0.64216775,-0.46037464,0.01491072,3.06492058

>  <Name>
lig.pdb

>  <RI>
1.71133e+07

>  <Rbt.Current_Directory>
/home/itssahil/PROJECTS/Mol_Feturizer/New_Systems/rnas/2l94

>  <Rbt.Executable>
rbdock ($Id: //depot/dev/client3/rdock/2013.1/src/exe/rbdock.cxx#4 $)

>  <Rbt.Library>
libRbt.so (2013.1, Build901 2013/11/27)

>  <Rbt.Parameter_File>
/export/apps/rDock/src/rDock_2013.1_src/data/scripts/dock_solv.prm

>  <Rbt.Receptor>
prm/pocket_docking_5.prm

>  <SCORE>
-22.8469

>  <SCORE.INTER>
-21.878

>  <SCORE.INTER.CONST>
1

>  <SCORE.INTER.POLAR>
-3.60529

>  <SCORE.INTER.ROT>
10

>  <SCORE.INTER.SOLV>
14.1222

>  <SCORE.INTER.VDW>
-17.5418

>  <SCORE.INTER.norm>
-0.911585

>  <SCORE.INTRA>
-1.338

>  <SCORE.INTRA.DIHEDRAL>
1.62013

>  <SCORE.INTRA.DIHEDRAL.0>
7.52971

>  <SCORE.INTRA.POLAR>
0

>  <SCORE.INTRA.POLAR.0>
0

>  <SCORE.INTRA.REPUL>
0

>  <SCORE.INTRA.REPUL.0>
0

>  <SCORE.INTRA.SOLV>
0.153957

>  <SCORE.INTRA.SOLV.lig_0>
-22.1084

>  <SCORE.INTRA.VDW>
-2.22505

>  <SCORE.INTRA.VDW.0>
2.4256

>  <SCORE.INTRA.norm>
-0.0557502

>  <SCORE.RESTR>
0.369162

>  <SCORE.RESTR.CAVITY>
0.369162

>  <SCORE.RESTR.norm>
0.0153818

>  <SCORE.SYSTEM>
0

>  <SCORE.SYSTEM.CONST>
0

>  <SCORE.SYSTEM.DIHEDRAL>
0

>  <SCORE.SYSTEM.SOLV>
0

>  <SCORE.SYSTEM.norm>
0

>  <SCORE.heavy>
24

>  <SCORE.norm>
-0.951954

>  <RMSD>
5.855

$$$$
lig.pdb
 OpenBabel11021811453D
libRbt.so/2013.1/901 2013/11/27
 24 24  0  0  0  0  0  0  0  0999 V2000
    9.9641   -3.2561   -1.2030 C   0  0  0  0  0  0  0  0  0  0  0  0
    9.1301   -4.3281   -1.6681 C   0  0  0  0  0  0  0  0  0  0  0  0
    7.9626   -4.6671   -1.0261 C   0  0  0  0  0  0  0  0  0  0  0  0
    7.5102   -3.9629    0.1352 C   0  0  0  0  0  0  0  0  0  0  0  0
    8.3610   -2.9147    0.6181 C   0  0  0  0  0  0  0  0  0  0  0  0
    9.5309   -2.5807   -0.0172 C   0  0  0  0  0  0  0  0  0  0  0  0
   11.1090   -2.8905   -1.8514 C   0  0  0  0  0  0  0  0  0  0  0  0
   11.3921   -3.2825   -3.1121 N   0  0  0  0  0  0  0  0  0  0  0  0
    6.0802   -3.9660    2.0493 N   0  0  0  0  0  0  0  0  0  0  0  0
    6.3359   -4.2668    0.7584 C   0  0  0  0  0  0  0  0  0  0  0  0
   12.0491   -2.0999   -1.2768 N   0  0  0  0  0  0  0  0  0  0  0  0
    5.3199   -4.9031    0.1285 N   0  0  0  0  0  0  0  0  0  0  0  0
   12.8674   -1.0895   -1.9444 C   0  0  0  0  0  0  0  0  0  0  0  0
    3.9151   -4.8845    0.5242 C   0  0  0  0  0  0  0  0  0  0  0  0
   12.0441    0.2055   -2.0334 C   0  0  0  0  0  0  0  0  0  0  0  0
    3.1298   -4.1158   -0.5548 C   0  0  0  0  0  0  0  0  0  0  0  0
   12.8139    1.2942   -2.7938 C   0  0  0  0  0  0  0  0  0  0  0  0
    3.6015   -2.6584   -0.7073 C   0  0  0  0  0  0  0  0  0  0  0  0
   14.1012    1.5924   -2.0686 N   0  0  0  0  0  0  0  0  0  0  0  0
    2.8732   -1.9550   -1.8246 N   0  0  0  0  0  0  0  0  0  0  0  0
   14.3179    3.0795   -1.9980 C   0  0  0  0  0  0  0  0  0  0  0  0
    3.5386   -2.2987   -3.1303 C   0  0  0  0  0  0  0  0  0  0  0  0
   15.2725    0.9429   -2.7630 C   0  0  0  0  0  0  0  0  0  0  0  0
    2.8766   -0.4615   -1.6533 C   0  0  0  0  0  0  0  0  0  0  0  0
  1  6  2  0  0  0  0
  2  3  2  0  0  0  0
  2  1  1  0  0  0  0
  3  4  1  0  0  0  0
  4 10  1  0  0  0  0
  4  5  2  0  0  0  0
  6  5  1  0  0  0  0
  7  1  1  0  0  0  0
  7 11  1  0  0  0  0
  8  7  2  0  0  0  0
  9 10  2  0  0  0  0
 10 12  1  0  0  0  0
 12 14  1  0  0  0  0
 13 11  1  0  0  0  0
 13 15  1  0  0  0  0
 14 16  1  0  0  0  0
 16 18  1  0  0  0  0
 17 15  1  0  0  0  0
 17 19  1  0  0  0  0
 18 20  1  0  0  0  0
 19 23  1  0  0  0  0
 20 22  1  0  0  0  0
 20 24  1  0  0  0  0
 21 19  1  0  0  0  0
M  END
>  <CHROM.1>
157.34029484,15.31115126,112.38816887,83.27926894,-176.92601931,-60.80806363
176.60484715,-60.29979503,-135.92026216,-82.61455316,8.58678196,-2.16415889
-1.16968035,-0.42601751,0.01330664,2.70360183

>  <Name>
lig.pdb

>  <RI>
1.71133e+07

>  <Rbt.Current_Directory>
/home/itssahil/PROJECTS/Mol_Feturizer/New_Systems/rnas/2l94

>  <Rbt.Executable>
rbdock ($Id: //depot/dev/client3/rdock/2013.1/src/exe/rbdock.cxx#4 $)

>  <Rbt.Library>
libRbt.so (2013.1, Build901 2013/11/27)

>  <Rbt.Parameter_File>
/export/apps/rDock/src/rDock_2013.1_src/data/scripts/dock_solv.prm

>  <Rbt.Receptor>
prm/pocket_docking_5.prm

>  <SCORE>
-23.2692

>  <SCORE.INTER>
-22.8544

>  <SCORE.INTER.CONST>
1

>  <SCORE.INTER.POLAR>
-3.29097

>  <SCORE.INTER.ROT>
10

>  <SCORE.INTER.SOLV>
16.1789

>  <SCORE.INTER.VDW>
-19.9259

>  <SCORE.INTER.norm>
-0.952265

>  <SCORE.INTRA>
-0.416514

>  <SCORE.INTRA.DIHEDRAL>
4.28764

>  <SCORE.INTRA.DIHEDRAL.0>
7.52971

>  <SCORE.INTRA.POLAR>
0

>  <SCORE.INTRA.POLAR.0>
0

>  <SCORE.INTRA.REPUL>
0

>  <SCORE.INTRA.REPUL.0>
0

>  <SCORE.INTRA.SOLV>
0.319656

>  <SCORE.INTRA.SOLV.lig_0>
-22.1084

>  <SCORE.INTRA.VDW>
-2.72016

>  <SCORE.INTRA.VDW.0>
2.4256

>  <SCORE.INTRA.norm>
-0.0173547

>  <SCORE.RESTR>
0.00167312

>  <SCORE.RESTR.CAVITY>
0.00167312

>  <SCORE.RESTR.norm>
6.97133e-05

>  <SCORE.SYSTEM>
0

>  <SCORE.SYSTEM.CONST>
0

>  <SCORE.SYSTEM.DIHEDRAL>
0

>  <SCORE.SYSTEM.SOLV>
0

>  <SCORE.SYSTEM.norm>
0

>  <SCORE.heavy>
24

>  <SCORE.norm>
-0.96955

>  <RMSD>
5.905

$$$$
lig.pdb
 OpenBabel11021811453D
libRbt.so/2013.1/901 2013/11/27
 24 24  0  0  0  0  0  0  0  0999 V2000
    4.1613   -1.2125    1.7367 C   0  0  0  0  0  0  0  0  0  0  0  0
    5.3945   -0.5146    1.5063 C   0  0  0  0  0  0  0  0  0  0  0  0
    5.4177    0.7821    1.0499 C   0  0  0  0  0  0  0  0  0  0  0  0
    4.2128    1.5099    0.7891 C   0  0  0  0  0  0  0  0  0  0  0  0
    2.9827    0.8006    0.9874 C   0  0  0  0  0  0  0  0  0  0  0  0
    2.9585   -0.4966    1.4353 C   0  0  0  0  0  0  0  0  0  0  0  0
    4.1266   -2.4892    2.2201 C   0  0  0  0  0  0  0  0  0  0  0  0
    2.9783   -3.1843    2.3667 N   0  0  0  0  0  0  0  0  0  0  0  0
    3.1244    3.5913    0.3516 N   0  0  0  0  0  0  0  0  0  0  0  0
    4.2235    2.8079    0.3710 C   0  0  0  0  0  0  0  0  0  0  0  0
    5.2476   -3.1585    2.5867 N   0  0  0  0  0  0  0  0  0  0  0  0
    5.3479    3.4239   -0.0650 N   0  0  0  0  0  0  0  0  0  0  0  0
    5.5030   -4.5885    2.4259 C   0  0  0  0  0  0  0  0  0  0  0  0
    5.5789    4.8645   -0.1088 C   0  0  0  0  0  0  0  0  0  0  0  0
    5.8575   -4.8449    0.9523 C   0  0  0  0  0  0  0  0  0  0  0  0
    6.4391    5.1683   -1.3496 C   0  0  0  0  0  0  0  0  0  0  0  0
    7.0845   -4.0238    0.5321 C   0  0  0  0  0  0  0  0  0  0  0  0
    5.7773    4.7030   -2.6594 C   0  0  0  0  0  0  0  0  0  0  0  0
    7.4307   -4.3431   -0.8997 N   0  0  0  0  0  0  0  0  0  0  0  0
    6.8034    4.4150   -3.7260 N   0  0  0  0  0  0  0  0  0  0  0  0
    8.8942   -4.0923   -1.1420 C   0  0  0  0  0  0  0  0  0  0  0  0
    7.1761    5.7067   -4.4029 C   0  0  0  0  0  0  0  0  0  0  0  0
    6.6100   -3.5076   -1.8507 C   0  0  0  0  0  0  0  0  0  0  0  0
    6.2922    3.4516   -4.7606 C   0  0  0  0  0  0  0  0  0  0  0  0
  1  6  2  0  0  0  0
  2  3  2  0  0  0  0
  2  1  1  0  0  0  0
  3  4  1  0  0  0  0
  4 10  1  0  0  0  0
  4  5  2  0  0  0  0
  6  5  1  0  0  0  0
  7  1  1  0  0  0  0
  7 11  1  0  0  0  0
  8  7  2  0  0  0  0
  9 10  2  0  0  0  0
 10 12  1  0  0  0  0
 12 14  1  0  0  0  0
 13 11  1  0  0  0  0
 13 15  1  0  0  0  0
 14 16  1  0  0  0  0
 16 18  1  0  0  0  0
 17 15  1  0  0  0  0
 17 19  1  0  0  0  0
 18 20  1  0  0  0  0
 19 23  1  0  0  0  0
 20 22  1  0  0  0  0
 20 24  1  0  0  0  0
 21 19  1  0  0  0  0
M  END
>  <CHROM.1>
-167.46505988,-175.98369150,-145.29477790,77.05485700,58.50075334,58.46004209
-153.91609156,177.82513319,-154.10108586,-83.36800165,5.44961662,0.19733003
-0.13958725,1.60708221,-0.82137542,2.77536928

>  <Name>
lig.pdb

>  <RI>
1.39428e+07

>  <Rbt.Current_Directory>
/home/itssahil/PROJECTS/Mol_Feturizer/New_Systems/rnas/2l94

>  <Rbt.Executable>
rbdock ($Id: //depot/dev/client3/rdock/2013.1/src/exe/rbdock.cxx#4 $)

>  <Rbt.Library>
libRbt.so (2013.1, Build901 2013/11/27)

>  <Rbt.Parameter_File>
/export/apps/rDock/src/rDock_2013.1_src/data/scripts/dock_solv.prm

>  <Rbt.Receptor>
prm/pocket_docking_8.prm

>  <SCORE>
-15.8828

>  <SCORE.INTER>
-14.8823

>  <SCORE.INTER.CONST>
1

>  <SCORE.INTER.POLAR>
-2.45428

>  <SCORE.INTER.ROT>
10

>  <SCORE.INTER.SOLV>
10.9394

>  <SCORE.INTER.VDW>
-15.6537

>  <SCORE.INTER.norm>
-0.620095

>  <SCORE.INTRA>
-1.00052

>  <SCORE.INTRA.DIHEDRAL>
2.80551

>  <SCORE.INTRA.DIHEDRAL.0>
7.52971

>  <SCORE.INTRA.POLAR>
0

>  <SCORE.INTRA.POLAR.0>
0

>  <SCORE.INTRA.REPUL>
0

>  <SCORE.INTRA.REPUL.0>
0

>  <SCORE.INTRA.SOLV>
0.540328

>  <SCORE.INTRA.SOLV.lig_0>
-22.1084

>  <SCORE.INTRA.VDW>
-2.67344

>  <SCORE.INTRA.VDW.0>
2.4256

>  <SCORE.INTRA.norm>
-0.0416884

>  <SCORE.RESTR>
0

>  <SCORE.RESTR.CAVITY>
0

>  <SCORE.RESTR.norm>
0

>  <SCORE.SYSTEM>
0

>  <SCORE.SYSTEM.CONST>
0

>  <SCORE.SYSTEM.DIHEDRAL>
0

>  <SCORE.SYSTEM.SOLV>
0

>  <SCORE.SYSTEM.norm>
0

>  <SCORE.heavy>
24

>  <SCORE.norm>
-0.661784

>  <RMSD>
5.907

$$$$
lig.pdb
 OpenBabel11021811453D
libRbt.so/2013.1/901 2013/11/27
 24 24  0  0  0  0  0  0  0  0999 V2000
    7.3592   -3.8270    0.4302 C   0  0  0  0  0  0  0  0  0  0  0  0
    8.0936   -4.5945   -0.5355 C   0  0  0  0  0  0  0  0  0  0  0  0
    9.2108   -4.0928   -1.1603 C   0  0  0  0  0  0  0  0  0  0  0  0
    9.7081   -2.7812   -0.8742 C   0  0  0  0  0  0  0  0  0  0  0  0
    8.9543   -2.0033    0.0652 C   0  0  0  0  0  0  0  0  0  0  0  0
    7.8342   -2.5002    0.6835 C   0  0  0  0  0  0  0  0  0  0  0  0
    6.2673   -4.3274    1.0798 C   0  0  0  0  0  0  0  0  0  0  0  0
    6.0266   -5.6512    1.1920 N   0  0  0  0  0  0  0  0  0  0  0  0
   11.8715   -3.0610   -1.8486 N   0  0  0  0  0  0  0  0  0  0  0  0
   10.8357   -2.2872   -1.4608 C   0  0  0  0  0  0  0  0  0  0  0  0
    5.3415   -3.5289    1.6668 N   0  0  0  0  0  0  0  0  0  0  0  0
   11.0123   -0.9666   -1.7036 N   0  0  0  0  0  0  0  0  0  0  0  0
    4.6088   -3.8027    2.9015 C   0  0  0  0  0  0  0  0  0  0  0  0
   11.9246   -0.3857   -2.6839 C   0  0  0  0  0  0  0  0  0  0  0  0
    4.6699   -2.5423    3.7793 C   0  0  0  0  0  0  0  0  0  0  0  0
   11.3150    0.9430   -3.1682 C   0  0  0  0  0  0  0  0  0  0  0  0
    3.6208   -1.5132    3.3359 C   0  0  0  0  0  0  0  0  0  0  0  0
   12.2818    1.7531   -4.0507 C   0  0  0  0  0  0  0  0  0  0  0  0
    3.8130   -0.2383    4.1166 N   0  0  0  0  0  0  0  0  0  0  0  0
   11.6080    2.9662   -4.6407 N   0  0  0  0  0  0  0  0  0  0  0  0
    2.5926    0.0416    4.9508 C   0  0  0  0  0  0  0  0  0  0  0  0
   10.8301    2.5454   -5.8587 C   0  0  0  0  0  0  0  0  0  0  0  0
    4.0711    0.9251    3.1915 C   0  0  0  0  0  0  0  0  0  0  0  0
   12.5954    4.0289   -5.0352 C   0  0  0  0  0  0  0  0  0  0  0  0
  1  6  2  0  0  0  0
  2  3  2  0  0  0  0
  2  1  1  0  0  0  0
  3  4  1  0  0  0  0
  4 10  1  0  0  0  0
  4  5  2  0  0  0  0
  6  5  1  0  0  0  0
  7  1  1  0  0  0  0
  7 11  1  0  0  0  0
  8  7  2  0  0  0  0
  9 10  2  0  0  0  0
 10 12  1  0  0  0  0
 12 14  1  0  0  0  0
 13 11  1  0  0  0  0
 13 15  1  0  0  0  0
 14 16  1  0  0  0  0
 16 18  1  0  0  0  0
 17 15  1  0  0  0  0
 17 19  1  0  0  0  0
 18 20  1  0  0  0  0
 19 23  1  0  0  0  0
 20 22  1  0  0  0  0
 20 24  1  0  0  0  0
 21 19  1  0  0  0  0
M  END
>  <CHROM.1>
-30.34051850,20.62286307,149.91491882,132.80087798,81.09787949,171.53669171
173.36423958,-173.78872716,-117.25256999,-81.75353838,8.17099546,-1.36968797
-0.23694350,-2.68912122,0.71682943,-0.16650628

>  <Name>
lig.pdb

>  <RI>
1.39428e+07

>  <Rbt.Current_Directory>
/home/itssahil/PROJECTS/Mol_Feturizer/New_Systems/rnas/2l94

>  <Rbt.Executable>
rbdock ($Id: //depot/dev/client3/rdock/2013.1/src/exe/rbdock.cxx#4 $)

>  <Rbt.Library>
libRbt.so (2013.1, Build901 2013/11/27)

>  <Rbt.Parameter_File>
/export/apps/rDock/src/rDock_2013.1_src/data/scripts/dock_solv.prm

>  <Rbt.Receptor>
prm/pocket_docking_8.prm

>  <SCORE>
-26.6389

>  <SCORE.INTER>
-28.4745

>  <SCORE.INTER.CONST>
1

>  <SCORE.INTER.POLAR>
-4.07768

>  <SCORE.INTER.ROT>
10

>  <SCORE.INTER.SOLV>
14.3034

>  <SCORE.INTER.VDW>
-20.4252

>  <SCORE.INTER.norm>
-1.18644

>  <SCORE.INTRA>
1.8356

>  <SCORE.INTRA.DIHEDRAL>
8.85135

>  <SCORE.INTRA.DIHEDRAL.0>
7.52971

>  <SCORE.INTRA.POLAR>
0

>  <SCORE.INTRA.POLAR.0>
0

>  <SCORE.INTRA.REPUL>
0

>  <SCORE.INTRA.REPUL.0>
0

>  <SCORE.INTRA.SOLV>
-0.242933

>  <SCORE.INTRA.SOLV.lig_0>
-22.1084

>  <SCORE.INTRA.VDW>
-2.46861

>  <SCORE.INTRA.VDW.0>
2.4256

>  <SCORE.INTRA.norm>
0.0764833

>  <SCORE.RESTR>
0

>  <SCORE.RESTR.CAVITY>
0

>  <SCORE.RESTR.norm>
0

>  <SCORE.SYSTEM>
0

>  <SCORE.SYSTEM.CONST>
0

>  <SCORE.SYSTEM.DIHEDRAL>
0

>  <SCORE.SYSTEM.SOLV>
0

>  <SCORE.SYSTEM.norm>
0

>  <SCORE.heavy>
24

>  <SCORE.norm>
-1.10995

>  <RMSD>
5.912

$$$$
lig.pdb
 OpenBabel11021811453D
libRbt.so/2013.1/901 2013/11/27
 24 24  0  0  0  0  0  0  0  0999 V2000
    7.3554   -3.8416    0.0748 C   0  0  0  0  0  0  0  0  0  0  0  0
    7.8308   -4.4407   -1.1401 C   0  0  0  0  0  0  0  0  0  0  0  0
    9.0408   -4.0935   -1.6928 C   0  0  0  0  0  0  0  0  0  0  0  0
    9.8968   -3.1226   -1.0812 C   0  0  0  0  0  0  0  0  0  0  0  0
    9.4057   -2.5008    0.1137 C   0  0  0  0  0  0  0  0  0  0  0  0
    8.1943   -2.8408    0.6620 C   0  0  0  0  0  0  0  0  0  0  0  0
    6.1701   -4.2023    0.6492 C   0  0  0  0  0  0  0  0  0  0  0  0
    5.9017   -4.0040    1.9575 N   0  0  0  0  0  0  0  0  0  0  0  0
   11.5210   -3.1707   -2.8328 N   0  0  0  0  0  0  0  0  0  0  0  0
   11.1148   -2.7971   -1.6009 C   0  0  0  0  0  0  0  0  0  0  0  0
    5.1686   -4.7852   -0.0552 N   0  0  0  0  0  0  0  0  0  0  0  0
   12.0273   -2.0666   -0.9171 N   0  0  0  0  0  0  0  0  0  0  0  0
    3.7337   -4.5848    0.1376 C   0  0  0  0  0  0  0  0  0  0  0  0
   13.1284   -1.3032   -1.4963 C   0  0  0  0  0  0  0  0  0  0  0  0
    3.4676   -3.0715    0.1839 C   0  0  0  0  0  0  0  0  0  0  0  0
   12.5308   -0.0701   -2.1992 C   0  0  0  0  0  0  0  0  0  0  0  0
    4.0438   -2.3747   -1.0565 C   0  0  0  0  0  0  0  0  0  0  0  0
   11.9039    0.9307   -1.2116 C   0  0  0  0  0  0  0  0  0  0  0  0
    3.1077   -2.5762   -2.2206 N   0  0  0  0  0  0  0  0  0  0  0  0
   11.2627    2.0904   -1.9311 N   0  0  0  0  0  0  0  0  0  0  0  0
    3.4324   -3.8666   -2.9228 C   0  0  0  0  0  0  0  0  0  0  0  0
   12.3439    3.0168   -2.4194 C   0  0  0  0  0  0  0  0  0  0  0  0
    3.2084   -1.4300   -3.1964 C   0  0  0  0  0  0  0  0  0  0  0  0
   10.3241    2.8602   -1.0443 C   0  0  0  0  0  0  0  0  0  0  0  0
  1  6  2  0  0  0  0
  2  3  2  0  0  0  0
  2  1  1  0  0  0  0
  3  4  1  0  0  0  0
  4 10  1  0  0  0  0
  4  5  2  0  0  0  0
  6  5  1  0  0  0  0
  7  1  1  0  0  0  0
  7 11  1  0  0  0  0
  8  7  2  0  0  0  0
  9 10  2  0  0  0  0
 10 12  1  0  0  0  0
 12 14  1  0  0  0  0
 13 11  1  0  0  0  0
 13 15  1  0  0  0  0
 14 16  1  0  0  0  0
 16 18  1  0  0  0  0
 17 15  1  0  0  0  0
 17 19  1  0  0  0  0
 18 20  1  0  0  0  0
 19 23  1  0  0  0  0
 20 22  1  0  0  0  0
 20 24  1  0  0  0  0
 21 19  1  0  0  0  0
M  END
>  <CHROM.1>
11.88174842,157.78654330,71.70375812,49.47263682,53.89922534,67.19829499
-176.96629094,79.18179878,-87.17053083,-75.59921985,8.14438829,-2.11824675
-1.08349164,-2.66499740,-0.05972095,-0.34794903

>  <Name>
lig.pdb

>  <RI>
1.39428e+07

>  <Rbt.Current_Directory>
/home/itssahil/PROJECTS/Mol_Feturizer/New_Systems/rnas/2l94

>  <Rbt.Executable>
rbdock ($Id: //depot/dev/client3/rdock/2013.1/src/exe/rbdock.cxx#4 $)

>  <Rbt.Library>
libRbt.so (2013.1, Build901 2013/11/27)

>  <Rbt.Parameter_File>
/export/apps/rDock/src/rDock_2013.1_src/data/scripts/dock_solv.prm

>  <Rbt.Receptor>
prm/pocket_docking_8.prm

>  <SCORE>
-23.5839

>  <SCORE.INTER>
-23.9026

>  <SCORE.INTER.CONST>
1

>  <SCORE.INTER.POLAR>
-3.84632

>  <SCORE.INTER.ROT>
10

>  <SCORE.INTER.SOLV>
14.1832

>  <SCORE.INTER.VDW>
-18.1084

>  <SCORE.INTER.norm>
-0.995942

>  <SCORE.INTRA>
0.318655

>  <SCORE.INTRA.DIHEDRAL>
3.53288

>  <SCORE.INTRA.DIHEDRAL.0>
7.52971

>  <SCORE.INTRA.POLAR>
0

>  <SCORE.INTRA.POLAR.0>
0

>  <SCORE.INTRA.REPUL>
0

>  <SCORE.INTRA.REPUL.0>
0

>  <SCORE.INTRA.SOLV>
1.17798

>  <SCORE.INTRA.SOLV.lig_0>
-22.1084

>  <SCORE.INTRA.VDW>
-2.03678

>  <SCORE.INTRA.VDW.0>
2.4256

>  <SCORE.INTRA.norm>
0.0132773

>  <SCORE.RESTR>
0

>  <SCORE.RESTR.CAVITY>
0

>  <SCORE.RESTR.norm>
0

>  <SCORE.SYSTEM>
0

>  <SCORE.SYSTEM.CONST>
0

>  <SCORE.SYSTEM.DIHEDRAL>
0

>  <SCORE.SYSTEM.SOLV>
0

>  <SCORE.SYSTEM.norm>
0

>  <SCORE.heavy>
24

>  <SCORE.norm>
-0.982664

>  <RMSD>
5.999

$$$$
lig.pdb
 OpenBabel11021811453D
libRbt.so/2013.1/901 2013/11/27
 24 24  0  0  0  0  0  0  0  0999 V2000
   11.1846   -0.8543   -0.4401 C   0  0  0  0  0  0  0  0  0  0  0  0
   10.1795   -1.7858   -0.0123 C   0  0  0  0  0  0  0  0  0  0  0  0
    8.9677   -1.3658    0.4830 C   0  0  0  0  0  0  0  0  0  0  0  0
    8.6387    0.0234    0.5896 C   0  0  0  0  0  0  0  0  0  0  0  0
    9.6561    0.9528    0.1936 C   0  0  0  0  0  0  0  0  0  0  0  0
   10.8693    0.5347   -0.2934 C   0  0  0  0  0  0  0  0  0  0  0  0
   12.3787   -1.2609   -0.9631 C   0  0  0  0  0  0  0  0  0  0  0  0
   12.6640   -2.5568   -1.2127 N   0  0  0  0  0  0  0  0  0  0  0  0
    6.8297   -0.0475    2.1488 N   0  0  0  0  0  0  0  0  0  0  0  0
    7.4264    0.4506    1.0451 C   0  0  0  0  0  0  0  0  0  0  0  0
   13.3698   -0.3896   -1.2758 N   0  0  0  0  0  0  0  0  0  0  0  0
    6.7131    1.4181    0.4213 N   0  0  0  0  0  0  0  0  0  0  0  0
   14.2998   -0.4912   -2.3987 C   0  0  0  0  0  0  0  0  0  0  0  0
    5.6707    2.2434    1.0237 C   0  0  0  0  0  0  0  0  0  0  0  0
   14.1764    0.7926   -3.2352 C   0  0  0  0  0  0  0  0  0  0  0  0
    6.0099    3.7180    0.7366 C   0  0  0  0  0  0  0  0  0  0  0  0
   14.4204    2.0369   -2.3702 C   0  0  0  0  0  0  0  0  0  0  0  0
    5.8647    4.0817   -0.7522 C   0  0  0  0  0  0  0  0  0  0  0  0
   14.2087    3.2734   -3.2057 N   0  0  0  0  0  0  0  0  0  0  0  0
    6.2519    5.5157   -1.0119 N   0  0  0  0  0  0  0  0  0  0  0  0
   14.7892    4.4716   -2.5051 C   0  0  0  0  0  0  0  0  0  0  0  0
    5.6705    5.9443   -2.3324 C   0  0  0  0  0  0  0  0  0  0  0  0
   12.7404    3.5017   -3.4660 C   0  0  0  0  0  0  0  0  0  0  0  0
    7.7429    5.7034   -1.0511 C   0  0  0  0  0  0  0  0  0  0  0  0
  1  6  2  0  0  0  0
  2  3  2  0  0  0  0
  2  1  1  0  0  0  0
  3  4  1  0  0  0  0
  4 10  1  0  0  0  0
  4  5  2  0  0  0  0
  6  5  1  0  0  0  0
  7  1  1  0  0  0  0
  7 11  1  0  0  0  0
  8  7  2  0  0  0  0
  9 10  2  0  0  0  0
 10 12  1  0  0  0  0
 12 14  1  0  0  0  0
 13 11  1  0  0  0  0
 13 15  1  0  0  0  0
 14 16  1  0  0  0  0
 16 18  1  0  0  0  0
 17 15  1  0  0  0  0
 17 19  1  0  0  0  0
 18 20  1  0  0  0  0
 19 23  1  0  0  0  0
 20 22  1  0  0  0  0
 20 24  1  0  0  0  0
 21 19  1  0  0  0  0
M  END
>  <CHROM.1>
46.17122575,5.23798472,127.95755564,123.30860711,55.84943212,68.86098770
-177.88616460,-176.60318257,-164.91923369,-161.25504526,10.03523803,1.58398700
-0.86826971,0.21194656,-0.38398691,2.75451256

>  <Name>
lig.pdb

>  <RI>
9.7521e+06

>  <Rbt.Current_Directory>
/home/itssahil/PROJECTS/Mol_Feturizer/New_Systems/rnas/2l94

>  <Rbt.Executable>
rbdock ($Id: //depot/dev/client3/rdock/2013.1/src/exe/rbdock.cxx#4 $)

>  <Rbt.Library>
libRbt.so (2013.1, Build901 2013/11/27)

>  <Rbt.Parameter_File>
/export/apps/rDock/src/rDock_2013.1_src/data/scripts/dock_solv.prm

>  <Rbt.Receptor>
prm/pocket_docking_7.prm

>  <SCORE>
-26.4396

>  <SCORE.INTER>
-27.016

>  <SCORE.INTER.CONST>
1

>  <SCORE.INTER.POLAR>
-4.30925

>  <SCORE.INTER.ROT>
10

>  <SCORE.INTER.SOLV>
11.0468

>  <SCORE.INTER.VDW>
-17.5955

>  <SCORE.INTER.norm>
-1.12567

>  <SCORE.INTRA>
0.576417

>  <SCORE.INTRA.DIHEDRAL>
5.68848

>  <SCORE.INTRA.DIHEDRAL.0>
7.52971

>  <SCORE.INTRA.POLAR>
0

>  <SCORE.INTRA.POLAR.0>
0

>  <SCORE.INTRA.REPUL>
0

>  <SCORE.INTRA.REPUL.0>
0

>  <SCORE.INTRA.SOLV>
0.169305

>  <SCORE.INTRA.SOLV.lig_0>
-22.1084

>  <SCORE.INTRA.VDW>
-2.35248

>  <SCORE.INTRA.VDW.0>
2.4256

>  <SCORE.INTRA.norm>
0.0240174

>  <SCORE.RESTR>
0

>  <SCORE.RESTR.CAVITY>
0

>  <SCORE.RESTR.norm>
0

>  <SCORE.SYSTEM>
0

>  <SCORE.SYSTEM.CONST>
0

>  <SCORE.SYSTEM.DIHEDRAL>
0

>  <SCORE.SYSTEM.SOLV>
0

>  <SCORE.SYSTEM.norm>
0

>  <SCORE.heavy>
24

>  <SCORE.norm>
-1.10165

>  <RMSD>
6.039

$$$$
lig.pdb
 OpenBabel11021811453D
libRbt.so/2013.1/901 2013/11/27
 24 24  0  0  0  0  0  0  0  0999 V2000
    6.9868   -3.9415    0.5727 C   0  0  0  0  0  0  0  0  0  0  0  0
    7.7934   -4.5048   -0.4728 C   0  0  0  0  0  0  0  0  0  0  0  0
    8.9563   -3.9038   -0.8930 C   0  0  0  0  0  0  0  0  0  0  0  0
    9.4312   -2.6886   -0.3036 C   0  0  0  0  0  0  0  0  0  0  0  0
    8.6073   -2.1095    0.7170 C   0  0  0  0  0  0  0  0  0  0  0  0
    7.4420   -2.7043    1.1316 C   0  0  0  0  0  0  0  0  0  0  0  0
    5.8471   -4.5468    1.0193 C   0  0  0  0  0  0  0  0  0  0  0  0
    5.4960   -4.5728    2.3228 N   0  0  0  0  0  0  0  0  0  0  0  0
   11.6540   -2.7950   -1.1731 N   0  0  0  0  0  0  0  0  0  0  0  0
   10.6015   -2.1033   -0.6873 C   0  0  0  0  0  0  0  0  0  0  0  0
    4.9772   -5.1659    0.1832 N   0  0  0  0  0  0  0  0  0  0  0  0
   10.8076   -0.7670   -0.6105 N   0  0  0  0  0  0  0  0  0  0  0  0
    3.5217   -5.2049    0.3099 C   0  0  0  0  0  0  0  0  0  0  0  0
   11.7912   -0.0022   -1.3708 C   0  0  0  0  0  0  0  0  0  0  0  0
    2.9246   -4.3229   -0.7985 C   0  0  0  0  0  0  0  0  0  0  0  0
   11.1202    0.4669   -2.6752 C   0  0  0  0  0  0  0  0  0  0  0  0
    3.5394   -2.9167   -0.7718 C   0  0  0  0  0  0  0  0  0  0  0  0
   10.2742   -0.6355   -3.3376 C   0  0  0  0  0  0  0  0  0  0  0  0
    2.9088   -2.0770   -1.8530 N   0  0  0  0  0  0  0  0  0  0  0  0
    9.8499   -0.2454   -4.7309 N   0  0  0  0  0  0  0  0  0  0  0  0
    3.4550   -2.4759   -3.1969 C   0  0  0  0  0  0  0  0  0  0  0  0
    8.9397    0.9503   -4.6447 C   0  0  0  0  0  0  0  0  0  0  0  0
    3.1699   -0.6102   -1.6159 C   0  0  0  0  0  0  0  0  0  0  0  0
    9.1276   -1.3587   -5.4373 C   0  0  0  0  0  0  0  0  0  0  0  0
  1  6  2  0  0  0  0
  2  3  2  0  0  0  0
  2  1  1  0  0  0  0
  3  4  1  0  0  0  0
  4 10  1  0  0  0  0
  4  5  2  0  0  0  0
  6  5  1  0  0  0  0
  7  1  1  0  0  0  0
  7 11  1  0  0  0  0
  8  7  2  0  0  0  0
  9 10  2  0  0  0  0
 10 12  1  0  0  0  0
 12 14  1  0  0  0  0
 13 11  1  0  0  0  0
 13 15  1  0  0  0  0
 14 16  1  0  0  0  0
 16 18  1  0  0  0  0
 17 15  1  0  0  0  0
 17 19  1  0  0  0  0
 18 20  1  0  0  0  0
 19 23  1  0  0  0  0
 20 22  1  0  0  0  0
 20 24  1  0  0  0  0
 21 19  1  0  0  0  0
M  END
>  <CHROM.1>
-28.95353861,141.02005205,90.37439082,108.90891640,-53.17616551,-43.21366839
-169.01449106,-178.85437830,-75.26760148,-64.45176784,7.43515199,-2.38782112
-1.24393105,-2.61738804,-0.16207867,-0.93844103

>  <Name>
lig.pdb

>  <RI>
9.7521e+06

>  <Rbt.Current_Directory>
/home/itssahil/PROJECTS/Mol_Feturizer/New_Systems/rnas/2l94

>  <Rbt.Executable>
rbdock ($Id: //depot/dev/client3/rdock/2013.1/src/exe/rbdock.cxx#4 $)

>  <Rbt.Library>
libRbt.so (2013.1, Build901 2013/11/27)

>  <Rbt.Parameter_File>
/export/apps/rDock/src/rDock_2013.1_src/data/scripts/dock_solv.prm

>  <Rbt.Receptor>
prm/pocket_docking_7.prm

>  <SCORE>
-26.6522

>  <SCORE.INTER>
-28.9786

>  <SCORE.INTER.CONST>
1

>  <SCORE.INTER.POLAR>
-4.98272

>  <SCORE.INTER.ROT>
10

>  <SCORE.INTER.SOLV>
15.9731

>  <SCORE.INTER.VDW>
-18.301

>  <SCORE.INTER.norm>
-1.20744

>  <SCORE.INTRA>
2.32637

>  <SCORE.INTRA.DIHEDRAL>
7.65025

>  <SCORE.INTRA.DIHEDRAL.0>
7.52971

>  <SCORE.INTRA.POLAR>
0

>  <SCORE.INTRA.POLAR.0>
0

>  <SCORE.INTRA.REPUL>
0

>  <SCORE.INTRA.REPUL.0>
0

>  <SCORE.INTRA.SOLV>
0.812952

>  <SCORE.INTRA.SOLV.lig_0>
-22.1084

>  <SCORE.INTRA.VDW>
-1.90523

>  <SCORE.INTRA.VDW.0>
2.4256

>  <SCORE.INTRA.norm>
0.096932

>  <SCORE.RESTR>
0

>  <SCORE.RESTR.CAVITY>
0

>  <SCORE.RESTR.norm>
0

>  <SCORE.SYSTEM>
0

>  <SCORE.SYSTEM.CONST>
0

>  <SCORE.SYSTEM.DIHEDRAL>
0

>  <SCORE.SYSTEM.SOLV>
0

>  <SCORE.SYSTEM.norm>
0

>  <SCORE.heavy>
24

>  <SCORE.norm>
-1.11051

>  <RMSD>
6.149

$$$$
lig.pdb
 OpenBabel11021811453D
libRbt.so/2013.1/901 2013/11/27
 24 24  0  0  0  0  0  0  0  0999 V2000
    6.9005   -3.5252    0.8048 C   0  0  0  0  0  0  0  0  0  0  0  0
    7.5952   -3.7081   -0.4381 C   0  0  0  0  0  0  0  0  0  0  0  0
    8.6231   -2.8793   -0.8212 C   0  0  0  0  0  0  0  0  0  0  0  0
    9.0629   -1.7949    0.0034 C   0  0  0  0  0  0  0  0  0  0  0  0
    8.3461   -1.5929    1.2286 C   0  0  0  0  0  0  0  0  0  0  0  0
    7.3145   -2.4148    1.6083 C   0  0  0  0  0  0  0  0  0  0  0  0
    5.8998   -4.3617    1.2095 C   0  0  0  0  0  0  0  0  0  0  0  0
    5.4411   -4.3920    2.4790 N   0  0  0  0  0  0  0  0  0  0  0  0
   10.6177   -0.0395    0.4612 N   0  0  0  0  0  0  0  0  0  0  0  0
   10.1048   -0.9891   -0.3496 C   0  0  0  0  0  0  0  0  0  0  0  0
    5.2867   -5.2250    0.3622 N   0  0  0  0  0  0  0  0  0  0  0  0
   10.7162   -1.0743   -1.5550 N   0  0  0  0  0  0  0  0  0  0  0  0
    3.8769   -5.6104    0.3770 C   0  0  0  0  0  0  0  0  0  0  0  0
   12.0623   -0.6079   -1.8728 C   0  0  0  0  0  0  0  0  0  0  0  0
    3.0903   -4.5650   -0.4301 C   0  0  0  0  0  0  0  0  0  0  0  0
   13.0648   -1.5398   -1.1670 C   0  0  0  0  0  0  0  0  0  0  0  0
    3.3416   -4.7309   -1.9352 C   0  0  0  0  0  0  0  0  0  0  0  0
   13.5753   -0.9625    0.1657 C   0  0  0  0  0  0  0  0  0  0  0  0
    4.6082   -4.0057   -2.3114 N   0  0  0  0  0  0  0  0  0  0  0  0
   14.9944   -1.3883    0.4458 N   0  0  0  0  0  0  0  0  0  0  0  0
    4.3493   -2.5255   -2.3859 C   0  0  0  0  0  0  0  0  0  0  0  0
   15.3028   -1.1267    1.8956 C   0  0  0  0  0  0  0  0  0  0  0  0
    5.1342   -4.4946   -3.6382 C   0  0  0  0  0  0  0  0  0  0  0  0
   15.9881   -0.6486   -0.4058 C   0  0  0  0  0  0  0  0  0  0  0  0
  1  6  2  0  0  0  0
  2  3  2  0  0  0  0
  2  1  1  0  0  0  0
  3  4  1  0  0  0  0
  4 10  1  0  0  0  0
  4  5  2  0  0  0  0
  6  5  1  0  0  0  0
  7  1  1  0  0  0  0
  7 11  1  0  0  0  0
  8  7  2  0  0  0  0
  9 10  2  0  0  0  0
 10 12  1  0  0  0  0
 12 14  1  0  0  0  0
 13 11  1  0  0  0  0
 13 15  1  0  0  0  0
 14 16  1  0  0  0  0
 16 18  1  0  0  0  0
 17 15  1  0  0  0  0
 17 19  1  0  0  0  0
 18 20  1  0  0  0  0
 19 23  1  0  0  0  0
 20 22  1  0  0  0  0
 20 24  1  0  0  0  0
 21 19  1  0  0  0  0
M  END
>  <CHROM.1>
-173.75018349,164.96661465,70.44125448,85.63123972,73.66243722,-97.76908140
-147.90925694,-84.14749237,-77.06324886,-164.52975036,8.59472111,-2.67130552
-0.27910059,3.13312820,-0.36363851,-1.38850909

>  <Name>
lig.pdb

>  <RI>
9.7521e+06

>  <Rbt.Current_Directory>
/home/itssahil/PROJECTS/Mol_Feturizer/New_Systems/rnas/2l94

>  <Rbt.Executable>
rbdock ($Id: //depot/dev/client3/rdock/2013.1/src/exe/rbdock.cxx#4 $)

>  <Rbt.Library>
libRbt.so (2013.1, Build901 2013/11/27)

>  <Rbt.Parameter_File>
/export/apps/rDock/src/rDock_2013.1_src/data/scripts/dock_solv.prm

>  <Rbt.Receptor>
prm/pocket_docking_7.prm

>  <SCORE>
-23.181

>  <SCORE.INTER>
-25.0431

>  <SCORE.INTER.CONST>
1

>  <SCORE.INTER.POLAR>
-3.68041

>  <SCORE.INTER.ROT>
10

>  <SCORE.INTER.SOLV>
11.4789

>  <SCORE.INTER.VDW>
-18.5203

>  <SCORE.INTER.norm>
-1.04346

>  <SCORE.INTRA>
1.86205

>  <SCORE.INTRA.DIHEDRAL>
9.10649

>  <SCORE.INTRA.DIHEDRAL.0>
7.52971

>  <SCORE.INTRA.POLAR>
0

>  <SCORE.INTRA.POLAR.0>
0

>  <SCORE.INTRA.REPUL>
0

>  <SCORE.INTRA.REPUL.0>
0

>  <SCORE.INTRA.SOLV>
1.65763

>  <SCORE.INTRA.SOLV.lig_0>
-22.1084

>  <SCORE.INTRA.VDW>
-3.52001

>  <SCORE.INTRA.VDW.0>
2.4256

>  <SCORE.INTRA.norm>
0.0775855

>  <SCORE.RESTR>
0

>  <SCORE.RESTR.CAVITY>
0

>  <SCORE.RESTR.norm>
0

>  <SCORE.SYSTEM>
0

>  <SCORE.SYSTEM.CONST>
0

>  <SCORE.SYSTEM.DIHEDRAL>
0

>  <SCORE.SYSTEM.SOLV>
0

>  <SCORE.SYSTEM.norm>
0

>  <SCORE.heavy>
24

>  <SCORE.norm>
-0.965877

>  <RMSD>
6.281

$$$$
lig.pdb
 OpenBabel11021811453D
libRbt.so/2013.1/901 2013/11/27
 24 24  0  0  0  0  0  0  0  0999 V2000
    9.7678    4.3611   -1.2263 C   0  0  0  0  0  0  0  0  0  0  0  0
    9.7959    3.0779   -1.8696 C   0  0  0  0  0  0  0  0  0  0  0  0
   10.9063    2.6321   -2.5466 C   0  0  0  0  0  0  0  0  0  0  0  0
   12.0984    3.4194   -2.6383 C   0  0  0  0  0  0  0  0  0  0  0  0
   12.0572    4.7144   -2.0243 C   0  0  0  0  0  0  0  0  0  0  0  0
   10.9464    5.1638   -1.3551 C   0  0  0  0  0  0  0  0  0  0  0  0
    8.6818    4.8001   -0.5244 C   0  0  0  0  0  0  0  0  0  0  0  0
    8.5478    6.0777   -0.1088 N   0  0  0  0  0  0  0  0  0  0  0  0
   14.4031    3.6169   -3.2365 N   0  0  0  0  0  0  0  0  0  0  0  0
   13.2178    2.9722   -3.2760 C   0  0  0  0  0  0  0  0  0  0  0  0
    7.6507    3.9833   -0.1945 N   0  0  0  0  0  0  0  0  0  0  0  0
   13.2329    1.8344   -4.0102 N   0  0  0  0  0  0  0  0  0  0  0  0
    6.2359    4.3445   -0.1318 C   0  0  0  0  0  0  0  0  0  0  0  0
   14.4124    1.0449   -4.3510 C   0  0  0  0  0  0  0  0  0  0  0  0
    5.7113    4.4615   -1.5720 C   0  0  0  0  0  0  0  0  0  0  0  0
   14.5570   -0.0686   -3.2970 C   0  0  0  0  0  0  0  0  0  0  0  0
    4.1868    4.2883   -1.6166 C   0  0  0  0  0  0  0  0  0  0  0  0
   13.1993   -0.6228   -2.8285 C   0  0  0  0  0  0  0  0  0  0  0  0
    3.7646    3.9553   -3.0247 N   0  0  0  0  0  0  0  0  0  0  0  0
   13.3650   -1.6214   -1.7110 N   0  0  0  0  0  0  0  0  0  0  0  0
    2.2718    4.0873   -3.1576 C   0  0  0  0  0  0  0  0  0  0  0  0
   12.0428   -2.2966   -1.4630 C   0  0  0  0  0  0  0  0  0  0  0  0
    4.1834    2.5539   -3.3945 C   0  0  0  0  0  0  0  0  0  0  0  0
   13.8298   -0.9751   -0.4358 C   0  0  0  0  0  0  0  0  0  0  0  0
  1  6  2  0  0  0  0
  2  3  2  0  0  0  0
  2  1  1  0  0  0  0
  3  4  1  0  0  0  0
  4 10  1  0  0  0  0
  4  5  2  0  0  0  0
  6  5  1  0  0  0  0
  7  1  1  0  0  0  0
  7 11  1  0  0  0  0
  8  7  2  0  0  0  0
  9 10  2  0  0  0  0
 10 12  1  0  0  0  0
 12 14  1  0  0  0  0
 13 11  1  0  0  0  0
 13 15  1  0  0  0  0
 14 16  1  0  0  0  0
 16 18  1  0  0  0  0
 17 15  1  0  0  0  0
 17 19  1  0  0  0  0
 18 20  1  0  0  0  0
 19 23  1  0  0  0  0
 20 22  1  0  0  0  0
 20 24  1  0  0  0  0
 21 19  1  0  0  0  0
M  END
>  <CHROM.1>
-171.48133255,-168.47489464,94.20492823,74.88298556,157.71209189,36.30743853
-174.91097340,-161.49606875,-167.27202408,-170.31220865,9.92000109,2.69491170
-2.08811207,-2.73102196,-0.01846973,-2.99024686

>  <Name>
lig.pdb

>  <RI>
1.39428e+07

>  <Rbt.Current_Directory>
/home/itssahil/PROJECTS/Mol_Feturizer/New_Systems/rnas/2l94

>  <Rbt.Executable>
rbdock ($Id: //depot/dev/client3/rdock/2013.1/src/exe/rbdock.cxx#4 $)

>  <Rbt.Library>
libRbt.so (2013.1, Build901 2013/11/27)

>  <Rbt.Parameter_File>
/export/apps/rDock/src/rDock_2013.1_src/data/scripts/dock_solv.prm

>  <Rbt.Receptor>
prm/pocket_docking_8.prm

>  <SCORE>
-24.4095

>  <SCORE.INTER>
-24.5595

>  <SCORE.INTER.CONST>
1

>  <SCORE.INTER.POLAR>
-3.68765

>  <SCORE.INTER.ROT>
10

>  <SCORE.INTER.SOLV>
12.7077

>  <SCORE.INTER.VDW>
-18.5834

>  <SCORE.INTER.norm>
-1.02331

>  <SCORE.INTRA>
0.149998

>  <SCORE.INTRA.DIHEDRAL>
3.47619

>  <SCORE.INTRA.DIHEDRAL.0>
7.52971

>  <SCORE.INTRA.POLAR>
0

>  <SCORE.INTRA.POLAR.0>
0

>  <SCORE.INTRA.REPUL>
0

>  <SCORE.INTRA.REPUL.0>
0

>  <SCORE.INTRA.SOLV>
0.325667

>  <SCORE.INTRA.SOLV.lig_0>
-22.1084

>  <SCORE.INTRA.VDW>
-1.75093

>  <SCORE.INTRA.VDW.0>
2.4256

>  <SCORE.INTRA.norm>
0.00624991

>  <SCORE.RESTR>
0

>  <SCORE.RESTR.CAVITY>
0

>  <SCORE.RESTR.norm>
0

>  <SCORE.SYSTEM>
0

>  <SCORE.SYSTEM.CONST>
0

>  <SCORE.SYSTEM.DIHEDRAL>
0

>  <SCORE.SYSTEM.SOLV>
0

>  <SCORE.SYSTEM.norm>
0

>  <SCORE.heavy>
24

>  <SCORE.norm>
-1.01706

>  <RMSD>
6.430

$$$$
lig.pdb
 OpenBabel11021811453D
libRbt.so/2013.1/901 2013/11/27
 24 24  0  0  0  0  0  0  0  0999 V2000
    9.2825   -3.1131   -1.5655 C   0  0  0  0  0  0  0  0  0  0  0  0
   10.0978   -2.9434   -0.3960 C   0  0  0  0  0  0  0  0  0  0  0  0
   11.1956   -2.1158   -0.3933 C   0  0  0  0  0  0  0  0  0  0  0  0
   11.5795   -1.3707   -1.5539 C   0  0  0  0  0  0  0  0  0  0  0  0
   10.7843   -1.5671   -2.7307 C   0  0  0  0  0  0  0  0  0  0  0  0
    9.6929   -2.3993   -2.7369 C   0  0  0  0  0  0  0  0  0  0  0  0
    8.1719   -3.9076   -1.5697 C   0  0  0  0  0  0  0  0  0  0  0  0
    7.7706   -4.6087   -0.4877 N   0  0  0  0  0  0  0  0  0  0  0  0
   12.5897    0.7385   -1.0652 N   0  0  0  0  0  0  0  0  0  0  0  0
   12.6448   -0.5194   -1.5518 C   0  0  0  0  0  0  0  0  0  0  0  0
    7.3835   -4.0492   -2.6640 N   0  0  0  0  0  0  0  0  0  0  0  0
   13.8574   -0.8679   -2.0439 N   0  0  0  0  0  0  0  0  0  0  0  0
    5.9305   -4.2070   -2.6791 C   0  0  0  0  0  0  0  0  0  0  0  0
   15.1343   -0.2459   -1.7079 C   0  0  0  0  0  0  0  0  0  0  0  0
    5.3045   -2.8870   -2.2010 C   0  0  0  0  0  0  0  0  0  0  0  0
   15.7611   -1.0471   -0.5516 C   0  0  0  0  0  0  0  0  0  0  0  0
    3.7902   -3.0383   -2.0013 C   0  0  0  0  0  0  0  0  0  0  0  0
   14.9688   -0.9134    0.7615 C   0  0  0  0  0  0  0  0  0  0  0  0
    3.1320   -1.6898   -2.1433 N   0  0  0  0  0  0  0  0  0  0  0  0
   15.8778   -0.6259    1.9296 N   0  0  0  0  0  0  0  0  0  0  0  0
    3.2655   -1.2002   -3.5596 C   0  0  0  0  0  0  0  0  0  0  0  0
   15.0358   -0.4051    3.1575 C   0  0  0  0  0  0  0  0  0  0  0  0
    3.7509   -0.6873   -1.2010 C   0  0  0  0  0  0  0  0  0  0  0  0
   16.7325    0.5890    1.6988 C   0  0  0  0  0  0  0  0  0  0  0  0
  1  6  2  0  0  0  0
  2  3  2  0  0  0  0
  2  1  1  0  0  0  0
  3  4  1  0  0  0  0
  4 10  1  0  0  0  0
  4  5  2  0  0  0  0
  6  5  1  0  0  0  0
  7  1  1  0  0  0  0
  7 11  1  0  0  0  0
  8  7  2  0  0  0  0
  9 10  2  0  0  0  0
 10 12  1  0  0  0  0
 12 14  1  0  0  0  0
 13 11  1  0  0  0  0
 13 15  1  0  0  0  0
 14 16  1  0  0  0  0
 16 18  1  0  0  0  0
 17 15  1  0  0  0  0
 17 19  1  0  0  0  0
 18 20  1  0  0  0  0
 19 23  1  0  0  0  0
 20 22  1  0  0  0  0
 20 24  1  0  0  0  0
 21 19  1  0  0  0  0
M  END
>  <CHROM.1>
-80.90533237,-1.18132638,93.30168883,67.77125404,-172.01336501,-67.54135439
-133.08966786,-154.97185381,66.42558514,175.79946485,10.13876788,-1.76827322
-1.10319671,-2.92901721,-0.24812724,0.04437348

>  <Name>
lig.pdb

>  <RI>
0

>  <Rbt.Current_Directory>
/home/itssahil/PROJECTS/Mol_Feturizer/New_Systems/rnas/2l94

>  <Rbt.Executable>
rbdock ($Id: //depot/dev/client3/rdock/2013.1/src/exe/rbdock.cxx#4 $)

>  <Rbt.Library>
libRbt.so (2013.1, Build901 2013/11/27)

>  <Rbt.Parameter_File>
/export/apps/rDock/src/rDock_2013.1_src/data/scripts/dock_solv.prm

>  <Rbt.Receptor>
prm/pocket_docking_4.prm

>  <SCORE>
-14.6285

>  <SCORE.INTER>
-24.583

>  <SCORE.INTER.CONST>
1

>  <SCORE.INTER.POLAR>
-4.20217

>  <SCORE.INTER.ROT>
10

>  <SCORE.INTER.SOLV>
12.3999

>  <SCORE.INTER.VDW>
-16.7814

>  <SCORE.INTER.norm>
-1.02429

>  <SCORE.INTRA>
9.62531

>  <SCORE.INTRA.DIHEDRAL>
17.3103

>  <SCORE.INTRA.DIHEDRAL.0>
7.52971

>  <SCORE.INTRA.POLAR>
0

>  <SCORE.INTRA.POLAR.0>
0

>  <SCORE.INTRA.REPUL>
0

>  <SCORE.INTRA.REPUL.0>
0

>  <SCORE.INTRA.SOLV>
0.298134

>  <SCORE.INTRA.SOLV.lig_0>
-22.1084

>  <SCORE.INTRA.VDW>
0.8211

>  <SCORE.INTRA.VDW.0>
2.4256

>  <SCORE.INTRA.norm>
0.401055

>  <SCORE.RESTR>
0.329271

>  <SCORE.RESTR.CAVITY>
0.329271

>  <SCORE.RESTR.norm>
0.0137196

>  <SCORE.SYSTEM>
0

>  <SCORE.SYSTEM.CONST>
0

>  <SCORE.SYSTEM.DIHEDRAL>
0

>  <SCORE.SYSTEM.SOLV>
0

>  <SCORE.SYSTEM.norm>
0

>  <SCORE.heavy>
24

>  <SCORE.norm>
-0.609519

>  <RMSD>
6.502

$$$$
lig.pdb
 OpenBabel11021811453D
libRbt.so/2013.1/901 2013/11/27
 24 24  0  0  0  0  0  0  0  0999 V2000
   10.5860   -2.3387   -1.9402 C   0  0  0  0  0  0  0  0  0  0  0  0
   10.4724   -1.4728   -0.8008 C   0  0  0  0  0  0  0  0  0  0  0  0
    9.5334   -1.6873    0.1802 C   0  0  0  0  0  0  0  0  0  0  0  0
    8.6245   -2.7918    0.1237 C   0  0  0  0  0  0  0  0  0  0  0  0
    8.7167   -3.6362   -1.0315 C   0  0  0  0  0  0  0  0  0  0  0  0
    9.6484   -3.4183   -2.0155 C   0  0  0  0  0  0  0  0  0  0  0  0
   11.5356   -2.1533   -2.9039 C   0  0  0  0  0  0  0  0  0  0  0  0
   11.4084   -2.6370   -4.1580 N   0  0  0  0  0  0  0  0  0  0  0  0
    7.5814   -2.2604    2.2064 N   0  0  0  0  0  0  0  0  0  0  0  0
    7.7136   -3.0351    1.1089 C   0  0  0  0  0  0  0  0  0  0  0  0
   12.6800   -1.4632   -2.6734 N   0  0  0  0  0  0  0  0  0  0  0  0
    6.8590   -4.0848    1.0684 N   0  0  0  0  0  0  0  0  0  0  0  0
   13.3836   -0.5981   -3.6184 C   0  0  0  0  0  0  0  0  0  0  0  0
    5.5967   -4.1961    1.7928 C   0  0  0  0  0  0  0  0  0  0  0  0
   14.8610   -0.5383   -3.1981 C   0  0  0  0  0  0  0  0  0  0  0  0
    4.5168   -4.6522    0.7940 C   0  0  0  0  0  0  0  0  0  0  0  0
   15.0227    0.2040   -1.8644 C   0  0  0  0  0  0  0  0  0  0  0  0
    4.5332   -3.8370   -0.5117 C   0  0  0  0  0  0  0  0  0  0  0  0
   16.4889    0.3262   -1.5370 N   0  0  0  0  0  0  0  0  0  0  0  0
    3.3489   -4.1665   -1.3849 N   0  0  0  0  0  0  0  0  0  0  0  0
   16.7390   -0.1281   -0.1248 C   0  0  0  0  0  0  0  0  0  0  0  0
    3.5167   -5.5614   -1.9249 C   0  0  0  0  0  0  0  0  0  0  0  0
   16.9599    1.7500   -1.7014 C   0  0  0  0  0  0  0  0  0  0  0  0
    3.2090   -3.2107   -2.5367 C   0  0  0  0  0  0  0  0  0  0  0  0
  1  6  2  0  0  0  0
  2  3  2  0  0  0  0
  2  1  1  0  0  0  0
  3  4  1  0  0  0  0
  4 10  1  0  0  0  0
  4  5  2  0  0  0  0
  6  5  1  0  0  0  0
  7  1  1  0  0  0  0
  7 11  1  0  0  0  0
  8  7  2  0  0  0  0
  9 10  2  0  0  0  0
 10 12  1  0  0  0  0
 12 14  1  0  0  0  0
 13 11  1  0  0  0  0
 13 15  1  0  0  0  0
 14 16  1  0  0  0  0
 16 18  1  0  0  0  0
 17 15  1  0  0  0  0
 17 19  1  0  0  0  0
 18 20  1  0  0  0  0
 19 23  1  0  0  0  0
 20 22  1  0  0  0  0
 20 24  1  0  0  0  0
 21 19  1  0  0  0  0
M  END
>  <CHROM.1>
0.54541219,-157.50664936,131.60678000,-155.28533373,-67.82067845,-47.86100874
-171.80335045,-176.03050123,-130.35113626,-69.82009372,9.73848864,-2.30621882
-1.12150441,0.11941720,-0.37701811,-1.64704635

>  <Name>
lig.pdb

>  <RI>
2.48096e+07

>  <Rbt.Current_Directory>
/home/itssahil/PROJECTS/Mol_Feturizer/New_Systems/rnas/2l94

>  <Rbt.Executable>
rbdock ($Id: //depot/dev/client3/rdock/2013.1/src/exe/rbdock.cxx#4 $)

>  <Rbt.Library>
libRbt.so (2013.1, Build901 2013/11/27)

>  <Rbt.Parameter_File>
/export/apps/rDock/src/rDock_2013.1_src/data/scripts/dock_solv.prm

>  <Rbt.Receptor>
prm/pocket_docking_6.prm

>  <SCORE>
-27.3735

>  <SCORE.INTER>
-28.189

>  <SCORE.INTER.CONST>
1

>  <SCORE.INTER.POLAR>
-3.8173

>  <SCORE.INTER.ROT>
10

>  <SCORE.INTER.SOLV>
17.8895

>  <SCORE.INTER.VDW>
-22.2982

>  <SCORE.INTER.norm>
-1.17454

>  <SCORE.INTRA>
0.815461

>  <SCORE.INTRA.DIHEDRAL>
3.80276

>  <SCORE.INTRA.DIHEDRAL.0>
7.52971

>  <SCORE.INTRA.POLAR>
0

>  <SCORE.INTRA.POLAR.0>
0

>  <SCORE.INTRA.REPUL>
0

>  <SCORE.INTRA.REPUL.0>
0

>  <SCORE.INTRA.SOLV>
0.243828

>  <SCORE.INTRA.SOLV.lig_0>
-22.1084

>  <SCORE.INTRA.VDW>
-1.20783

>  <SCORE.INTRA.VDW.0>
2.4256

>  <SCORE.INTRA.norm>
0.0339775

>  <SCORE.RESTR>
0

>  <SCORE.RESTR.CAVITY>
0

>  <SCORE.RESTR.norm>
0

>  <SCORE.SYSTEM>
0

>  <SCORE.SYSTEM.CONST>
0

>  <SCORE.SYSTEM.DIHEDRAL>
0

>  <SCORE.SYSTEM.SOLV>
0

>  <SCORE.SYSTEM.norm>
0

>  <SCORE.heavy>
24

>  <SCORE.norm>
-1.14056

>  <RMSD>
6.547

$$$$
lig.pdb
 OpenBabel11021811453D
libRbt.so/2013.1/901 2013/11/27
 24 24  0  0  0  0  0  0  0  0999 V2000
    9.4307   -2.9633   -2.0301 C   0  0  0  0  0  0  0  0  0  0  0  0
   10.7451   -3.4001   -2.4078 C   0  0  0  0  0  0  0  0  0  0  0  0
   11.7343   -2.5077   -2.7473 C   0  0  0  0  0  0  0  0  0  0  0  0
   11.5100   -1.0939   -2.7329 C   0  0  0  0  0  0  0  0  0  0  0  0
   10.1875   -0.6606   -2.3882 C   0  0  0  0  0  0  0  0  0  0  0  0
    9.1968   -1.5509   -2.0570 C   0  0  0  0  0  0  0  0  0  0  0  0
    8.4506   -3.8394   -1.6604 C   0  0  0  0  0  0  0  0  0  0  0  0
    8.4497   -5.1362   -2.0362 N   0  0  0  0  0  0  0  0  0  0  0  0
   12.2673    1.1185   -3.2232 N   0  0  0  0  0  0  0  0  0  0  0  0
   12.4940   -0.1985   -3.0325 C   0  0  0  0  0  0  0  0  0  0  0  0
    7.4028   -3.4718   -0.8818 N   0  0  0  0  0  0  0  0  0  0  0  0
   13.7922   -0.5600   -3.1665 N   0  0  0  0  0  0  0  0  0  0  0  0
    6.7411   -4.2879    0.1342 C   0  0  0  0  0  0  0  0  0  0  0  0
   14.9488    0.3219   -3.0430 C   0  0  0  0  0  0  0  0  0  0  0  0
    6.7750   -3.5133    1.4616 C   0  0  0  0  0  0  0  0  0  0  0  0
   15.1857    0.5844   -1.5441 C   0  0  0  0  0  0  0  0  0  0  0  0
    5.9218   -2.2402    1.3761 C   0  0  0  0  0  0  0  0  0  0  0  0
   15.5001   -0.7016   -0.7585 C   0  0  0  0  0  0  0  0  0  0  0  0
    5.6247   -1.7456    2.7686 N   0  0  0  0  0  0  0  0  0  0  0  0
   15.8681   -0.4000    0.6723 N   0  0  0  0  0  0  0  0  0  0  0  0
    4.3855   -2.4150    3.2975 C   0  0  0  0  0  0  0  0  0  0  0  0
   17.3307   -0.0499    0.7343 C   0  0  0  0  0  0  0  0  0  0  0  0
    5.4346   -0.2490    2.7785 C   0  0  0  0  0  0  0  0  0  0  0  0
   15.6063   -1.5662    1.5842 C   0  0  0  0  0  0  0  0  0  0  0  0
  1  6  2  0  0  0  0
  2  3  2  0  0  0  0
  2  1  1  0  0  0  0
  3  4  1  0  0  0  0
  4 10  1  0  0  0  0
  4  5  2  0  0  0  0
  6  5  1  0  0  0  0
  7  1  1  0  0  0  0
  7 11  1  0  0  0  0
  8  7  2  0  0  0  0
  9 10  2  0  0  0  0
 10 12  1  0  0  0  0
 12 14  1  0  0  0  0
 13 11  1  0  0  0  0
 13 15  1  0  0  0  0
 14 16  1  0  0  0  0
 16 18  1  0  0  0  0
 17 15  1  0  0  0  0
 17 19  1  0  0  0  0
 18 20  1  0  0  0  0
 19 23  1  0  0  0  0
 20 22  1  0  0  0  0
 20 24  1  0  0  0  0
 21 19  1  0  0  0  0
M  END
>  <CHROM.1>
169.70627864,-23.27639929,76.79238703,124.38664336,66.04596068,61.55902551
174.06438496,162.48919108,-87.19120619,-83.91955398,10.62779487,-1.66952005
-0.70974383,2.95364230,0.32704270,1.31475914

>  <Name>
lig.pdb

>  <RI>
2.48096e+07

>  <Rbt.Current_Directory>
/home/itssahil/PROJECTS/Mol_Feturizer/New_Systems/rnas/2l94

>  <Rbt.Executable>
rbdock ($Id: //depot/dev/client3/rdock/2013.1/src/exe/rbdock.cxx#4 $)

>  <Rbt.Library>
libRbt.so (2013.1, Build901 2013/11/27)

>  <Rbt.Parameter_File>
/export/apps/rDock/src/rDock_2013.1_src/data/scripts/dock_solv.prm

>  <Rbt.Receptor>
prm/pocket_docking_6.prm

>  <SCORE>
-28.4516

>  <SCORE.INTER>
-28.0541

>  <SCORE.INTER.CONST>
1

>  <SCORE.INTER.POLAR>
-3.80984

>  <SCORE.INTER.ROT>
10

>  <SCORE.INTER.SOLV>
13.6917

>  <SCORE.INTER.VDW>
-20.8339

>  <SCORE.INTER.norm>
-1.16892

>  <SCORE.INTRA>
-0.397465

>  <SCORE.INTRA.DIHEDRAL>
3.95769

>  <SCORE.INTRA.DIHEDRAL.0>
7.52971

>  <SCORE.INTRA.POLAR>
0

>  <SCORE.INTRA.POLAR.0>
0

>  <SCORE.INTRA.REPUL>
0

>  <SCORE.INTRA.REPUL.0>
0

>  <SCORE.INTRA.SOLV>
0.314616

>  <SCORE.INTRA.SOLV.lig_0>
-22.1084

>  <SCORE.INTRA.VDW>
-2.53362

>  <SCORE.INTRA.VDW.0>
2.4256

>  <SCORE.INTRA.norm>
-0.016561

>  <SCORE.RESTR>
0

>  <SCORE.RESTR.CAVITY>
0

>  <SCORE.RESTR.norm>
0

>  <SCORE.SYSTEM>
0

>  <SCORE.SYSTEM.CONST>
0

>  <SCORE.SYSTEM.DIHEDRAL>
0

>  <SCORE.SYSTEM.SOLV>
0

>  <SCORE.SYSTEM.norm>
0

>  <SCORE.heavy>
24

>  <SCORE.norm>
-1.18548

>  <RMSD>
6.587

$$$$
lig.pdb
 OpenBabel11021811453D
libRbt.so/2013.1/901 2013/11/27
 24 24  0  0  0  0  0  0  0  0999 V2000
    0.4926    1.2781   -0.2843 C   0  0  0  0  0  0  0  0  0  0  0  0
    0.4399    1.2967   -1.7188 C   0  0  0  0  0  0  0  0  0  0  0  0
    1.2177    2.1544   -2.4603 C   0  0  0  0  0  0  0  0  0  0  0  0
    2.1296    3.0685   -1.8421 C   0  0  0  0  0  0  0  0  0  0  0  0
    2.1564    3.0723   -0.4086 C   0  0  0  0  0  0  0  0  0  0  0  0
    1.3746    2.2222    0.3328 C   0  0  0  0  0  0  0  0  0  0  0  0
   -0.2519    0.4085    0.4603 C   0  0  0  0  0  0  0  0  0  0  0  0
   -0.6576   -0.7917   -0.0065 N   0  0  0  0  0  0  0  0  0  0  0  0
    2.6654    4.2636   -3.8404 N   0  0  0  0  0  0  0  0  0  0  0  0
    2.9320    3.8980   -2.5686 C   0  0  0  0  0  0  0  0  0  0  0  0
   -0.6374    0.6848    1.7308 N   0  0  0  0  0  0  0  0  0  0  0  0
    4.0745    4.4274   -2.0703 N   0  0  0  0  0  0  0  0  0  0  0  0
   -0.7590   -0.2671    2.8332 C   0  0  0  0  0  0  0  0  0  0  0  0
    4.7523    5.6252   -2.5565 C   0  0  0  0  0  0  0  0  0  0  0  0
    0.6415   -0.4863    3.4280 C   0  0  0  0  0  0  0  0  0  0  0  0
    6.2616    5.3244   -2.6136 C   0  0  0  0  0  0  0  0  0  0  0  0
    1.5412   -1.2499    2.4465 C   0  0  0  0  0  0  0  0  0  0  0  0
    6.8713    5.0789   -1.2216 C   0  0  0  0  0  0  0  0  0  0  0  0
    2.8163   -1.6468    3.1455 N   0  0  0  0  0  0  0  0  0  0  0  0
    8.3776    5.1361   -1.2592 N   0  0  0  0  0  0  0  0  0  0  0  0
    3.6810   -0.4349    3.3628 C   0  0  0  0  0  0  0  0  0  0  0  0
    8.9266    4.1207   -0.2933 C   0  0  0  0  0  0  0  0  0  0  0  0
    3.5751   -2.6716    2.3393 C   0  0  0  0  0  0  0  0  0  0  0  0
    8.9038    6.4951   -0.8901 C   0  0  0  0  0  0  0  0  0  0  0  0
  1  6  2  0  0  0  0
  2  3  2  0  0  0  0
  2  1  1  0  0  0  0
  3  4  1  0  0  0  0
  4 10  1  0  0  0  0
  4  5  2  0  0  0  0
  6  5  1  0  0  0  0
  7  1  1  0  0  0  0
  7 11  1  0  0  0  0
  8  7  2  0  0  0  0
  9 10  2  0  0  0  0
 10 12  1  0  0  0  0
 12 14  1  0  0  0  0
 13 11  1  0  0  0  0
 13 15  1  0  0  0  0
 14 16  1  0  0  0  0
 16 18  1  0  0  0  0
 17 15  1  0  0  0  0
 17 19  1  0  0  0  0
 18 20  1  0  0  0  0
 19 23  1  0  0  0  0
 20 22  1  0  0  0  0
 20 24  1  0  0  0  0
 21 19  1  0  0  0  0
M  END
>  <CHROM.1>
22.36617761,27.04386687,-136.30949869,81.69513081,-69.05219209,-65.31541169
-165.52151083,-170.56371580,-72.36043825,-144.17752218,3.06333319,2.11395247
-0.13260576,2.33056893,0.29750921,2.30415892

>  <Name>
lig.pdb

>  <RI>
1.39428e+07

>  <Rbt.Current_Directory>
/home/itssahil/PROJECTS/Mol_Feturizer/New_Systems/rnas/2l94

>  <Rbt.Executable>
rbdock ($Id: //depot/dev/client3/rdock/2013.1/src/exe/rbdock.cxx#4 $)

>  <Rbt.Library>
libRbt.so (2013.1, Build901 2013/11/27)

>  <Rbt.Parameter_File>
/export/apps/rDock/src/rDock_2013.1_src/data/scripts/dock_solv.prm

>  <Rbt.Receptor>
prm/pocket_docking_8.prm

>  <SCORE>
-20.971

>  <SCORE.INTER>
-21.2147

>  <SCORE.INTER.CONST>
1

>  <SCORE.INTER.POLAR>
-2.46301

>  <SCORE.INTER.ROT>
10

>  <SCORE.INTER.SOLV>
14.6494

>  <SCORE.INTER.VDW>
-21.0829

>  <SCORE.INTER.norm>
-0.883946

>  <SCORE.INTRA>
0.243695

>  <SCORE.INTRA.DIHEDRAL>
6.02289

>  <SCORE.INTRA.DIHEDRAL.0>
7.52971

>  <SCORE.INTRA.POLAR>
0

>  <SCORE.INTRA.POLAR.0>
0

>  <SCORE.INTRA.REPUL>
0

>  <SCORE.INTRA.REPUL.0>
0

>  <SCORE.INTRA.SOLV>
0.520924

>  <SCORE.INTRA.SOLV.lig_0>
-22.1084

>  <SCORE.INTRA.VDW>
-3.02821

>  <SCORE.INTRA.VDW.0>
2.4256

>  <SCORE.INTRA.norm>
0.010154

>  <SCORE.RESTR>
0

>  <SCORE.RESTR.CAVITY>
0

>  <SCORE.RESTR.norm>
0

>  <SCORE.SYSTEM>
0

>  <SCORE.SYSTEM.CONST>
0

>  <SCORE.SYSTEM.DIHEDRAL>
0

>  <SCORE.SYSTEM.SOLV>
0

>  <SCORE.SYSTEM.norm>
0

>  <SCORE.heavy>
24

>  <SCORE.norm>
-0.873792

>  <RMSD>
6.594

$$$$
lig.pdb
 OpenBabel11021811453D
libRbt.so/2013.1/901 2013/11/27
 24 24  0  0  0  0  0  0  0  0999 V2000
    9.9134   -3.1487   -1.0124 C   0  0  0  0  0  0  0  0  0  0  0  0
    9.1575   -4.2866   -1.4537 C   0  0  0  0  0  0  0  0  0  0  0  0
    7.9867   -4.6606   -0.8375 C   0  0  0  0  0  0  0  0  0  0  0  0
    7.4528   -3.9293    0.2714 C   0  0  0  0  0  0  0  0  0  0  0  0
    8.2261   -2.8134    0.7322 C   0  0  0  0  0  0  0  0  0  0  0  0
    9.3992   -2.4440    0.1229 C   0  0  0  0  0  0  0  0  0  0  0  0
   11.0604   -2.7499   -1.6371 C   0  0  0  0  0  0  0  0  0  0  0  0
   11.4523   -3.2442   -2.8309 N   0  0  0  0  0  0  0  0  0  0  0  0
    5.9237   -3.8648    2.1060 N   0  0  0  0  0  0  0  0  0  0  0  0
    6.2741   -4.2695    0.8669 C   0  0  0  0  0  0  0  0  0  0  0  0
   11.8927   -1.8208   -1.1050 N   0  0  0  0  0  0  0  0  0  0  0  0
    5.3493   -5.0504    0.2594 N   0  0  0  0  0  0  0  0  0  0  0  0
   12.6611   -0.8154   -1.8364 C   0  0  0  0  0  0  0  0  0  0  0  0
    3.9278   -5.1133    0.5845 C   0  0  0  0  0  0  0  0  0  0  0  0
   14.1516   -1.0516   -1.5442 C   0  0  0  0  0  0  0  0  0  0  0  0
    3.1554   -5.3813   -0.7206 C   0  0  0  0  0  0  0  0  0  0  0  0
   14.4766   -0.7537   -0.0739 C   0  0  0  0  0  0  0  0  0  0  0  0
    3.4329   -4.3223   -1.8029 C   0  0  0  0  0  0  0  0  0  0  0  0
   15.8439   -1.2970    0.2537 N   0  0  0  0  0  0  0  0  0  0  0  0
    4.4427   -4.8117   -2.8100 N   0  0  0  0  0  0  0  0  0  0  0  0
   16.0137   -1.3940    1.7454 C   0  0  0  0  0  0  0  0  0  0  0  0
    4.8551   -3.6581   -3.6844 C   0  0  0  0  0  0  0  0  0  0  0  0
   16.9248   -0.4161   -0.3222 C   0  0  0  0  0  0  0  0  0  0  0  0
    3.8935   -5.9098   -3.6776 C   0  0  0  0  0  0  0  0  0  0  0  0
  1  6  2  0  0  0  0
  2  3  2  0  0  0  0
  2  1  1  0  0  0  0
  3  4  1  0  0  0  0
  4 10  1  0  0  0  0
  4  5  2  0  0  0  0
  6  5  1  0  0  0  0
  7  1  1  0  0  0  0
  7 11  1  0  0  0  0
  8  7  2  0  0  0  0
  9 10  2  0  0  0  0
 10 12  1  0  0  0  0
 12 14  1  0  0  0  0
 13 11  1  0  0  0  0
 13 15  1  0  0  0  0
 14 16  1  0  0  0  0
 16 18  1  0  0  0  0
 17 15  1  0  0  0  0
 17 19  1  0  0  0  0
 18 20  1  0  0  0  0
 19 23  1  0  0  0  0
 20 22  1  0  0  0  0
 20 24  1  0  0  0  0
 21 19  1  0  0  0  0
M  END
>  <CHROM.1>
160.93504109,11.23927813,146.63483030,-119.87521619,-67.14396105,-56.83456884
99.72864929,166.80192165,-162.98960638,-169.82813329,9.11119874,-3.21131706
-0.78477381,-0.08456208,-0.33741182,-1.58255556

>  <Name>
lig.pdb

>  <RI>
9.7521e+06

>  <Rbt.Current_Directory>
/home/itssahil/PROJECTS/Mol_Feturizer/New_Systems/rnas/2l94

>  <Rbt.Executable>
rbdock ($Id: //depot/dev/client3/rdock/2013.1/src/exe/rbdock.cxx#4 $)

>  <Rbt.Library>
libRbt.so (2013.1, Build901 2013/11/27)

>  <Rbt.Parameter_File>
/export/apps/rDock/src/rDock_2013.1_src/data/scripts/dock_solv.prm

>  <Rbt.Receptor>
prm/pocket_docking_7.prm

>  <SCORE>
-33.4136

>  <SCORE.INTER>
-33.9151

>  <SCORE.INTER.CONST>
1

>  <SCORE.INTER.POLAR>
-4.38763

>  <SCORE.INTER.ROT>
10

>  <SCORE.INTER.SOLV>
15.4507

>  <SCORE.INTER.VDW>
-23.4015

>  <SCORE.INTER.norm>
-1.41313

>  <SCORE.INTRA>
0.501502

>  <SCORE.INTRA.DIHEDRAL>
4.87454

>  <SCORE.INTRA.DIHEDRAL.0>
7.52971

>  <SCORE.INTRA.POLAR>
0

>  <SCORE.INTRA.POLAR.0>
0

>  <SCORE.INTRA.REPUL>
0

>  <SCORE.INTRA.REPUL.0>
0

>  <SCORE.INTRA.SOLV>
0.983456

>  <SCORE.INTRA.SOLV.lig_0>
-22.1084

>  <SCORE.INTRA.VDW>
-2.4275

>  <SCORE.INTRA.VDW.0>
2.4256

>  <SCORE.INTRA.norm>
0.0208959

>  <SCORE.RESTR>
0

>  <SCORE.RESTR.CAVITY>
0

>  <SCORE.RESTR.norm>
0

>  <SCORE.SYSTEM>
0

>  <SCORE.SYSTEM.CONST>
0

>  <SCORE.SYSTEM.DIHEDRAL>
0

>  <SCORE.SYSTEM.SOLV>
0

>  <SCORE.SYSTEM.norm>
0

>  <SCORE.heavy>
24

>  <SCORE.norm>
-1.39223

>  <RMSD>
6.627

$$$$
lig.pdb
 OpenBabel11021811453D
libRbt.so/2013.1/901 2013/11/27
 24 24  0  0  0  0  0  0  0  0999 V2000
   12.0564   -1.4151   -2.3041 C   0  0  0  0  0  0  0  0  0  0  0  0
   10.9806   -1.3344   -3.2513 C   0  0  0  0  0  0  0  0  0  0  0  0
    9.8450   -2.0986   -3.1232 C   0  0  0  0  0  0  0  0  0  0  0  0
    9.6694   -3.0091   -2.0326 C   0  0  0  0  0  0  0  0  0  0  0  0
   10.7586   -3.1133   -1.1061 C   0  0  0  0  0  0  0  0  0  0  0  0
   11.8963   -2.3568   -1.2374 C   0  0  0  0  0  0  0  0  0  0  0  0
   13.1745   -0.6377   -2.4042 C   0  0  0  0  0  0  0  0  0  0  0  0
   13.1507    0.6159   -2.9053 N   0  0  0  0  0  0  0  0  0  0  0  0
    8.3065   -4.5467   -0.8133 N   0  0  0  0  0  0  0  0  0  0  0  0
    8.5321   -3.7451   -1.8757 C   0  0  0  0  0  0  0  0  0  0  0  0
   14.3967   -1.0668   -2.0026 N   0  0  0  0  0  0  0  0  0  0  0  0
    7.5260   -3.7340   -2.7820 N   0  0  0  0  0  0  0  0  0  0  0  0
   15.4460   -0.2592   -1.3837 C   0  0  0  0  0  0  0  0  0  0  0  0
    6.1359   -4.1012   -2.5301 C   0  0  0  0  0  0  0  0  0  0  0  0
   15.8701   -0.9512   -0.0782 C   0  0  0  0  0  0  0  0  0  0  0  0
    5.2828   -2.8233   -2.6338 C   0  0  0  0  0  0  0  0  0  0  0  0
   14.6479   -1.2851    0.7881 C   0  0  0  0  0  0  0  0  0  0  0  0
    5.6368   -1.7838   -1.5549 C   0  0  0  0  0  0  0  0  0  0  0  0
   14.0616   -0.0088    1.3350 N   0  0  0  0  0  0  0  0  0  0  0  0
    5.0493   -2.1534   -0.2164 N   0  0  0  0  0  0  0  0  0  0  0  0
   14.7755    0.3832    2.6000 C   0  0  0  0  0  0  0  0  0  0  0  0
    4.6455   -0.8936    0.5015 C   0  0  0  0  0  0  0  0  0  0  0  0
   12.5880   -0.1705    1.6151 C   0  0  0  0  0  0  0  0  0  0  0  0
    6.0227   -2.9131    0.6411 C   0  0  0  0  0  0  0  0  0  0  0  0
  1  6  2  0  0  0  0
  2  3  2  0  0  0  0
  2  1  1  0  0  0  0
  3  4  1  0  0  0  0
  4 10  1  0  0  0  0
  4  5  2  0  0  0  0
  6  5  1  0  0  0  0
  7  1  1  0  0  0  0
  7 11  1  0  0  0  0
  8  7  2  0  0  0  0
  9 10  2  0  0  0  0
 10 12  1  0  0  0  0
 12 14  1  0  0  0  0
 13 11  1  0  0  0  0
 13 15  1  0  0  0  0
 14 16  1  0  0  0  0
 16 18  1  0  0  0  0
 17 15  1  0  0  0  0
 17 19  1  0  0  0  0
 18 20  1  0  0  0  0
 19 23  1  0  0  0  0
 20 22  1  0  0  0  0
 20 24  1  0  0  0  0
 21 19  1  0  0  0  0
M  END
>  <CHROM.1>
-175.70279342,32.65541347,111.54556470,126.91350303,-50.63709841,-63.89008922
-77.28405887,-70.20483277,-85.30763791,-144.77998836,10.40912456,-1.78465432
-1.05863324,-0.19974588,-0.22773086,-1.88790406

>  <Name>
lig.pdb

>  <RI>
1.39428e+07

>  <Rbt.Current_Directory>
/home/itssahil/PROJECTS/Mol_Feturizer/New_Systems/rnas/2l94

>  <Rbt.Executable>
rbdock ($Id: //depot/dev/client3/rdock/2013.1/src/exe/rbdock.cxx#4 $)

>  <Rbt.Library>
libRbt.so (2013.1, Build901 2013/11/27)

>  <Rbt.Parameter_File>
/export/apps/rDock/src/rDock_2013.1_src/data/scripts/dock_solv.prm

>  <Rbt.Receptor>
prm/pocket_docking_8.prm

>  <SCORE>
-20.7628

>  <SCORE.INTER>
-20.7166

>  <SCORE.INTER.CONST>
1

>  <SCORE.INTER.POLAR>
-3.23997

>  <SCORE.INTER.ROT>
10

>  <SCORE.INTER.SOLV>
11.4322

>  <SCORE.INTER.VDW>
-17.0886

>  <SCORE.INTER.norm>
-0.863192

>  <SCORE.INTRA>
-0.0461974

>  <SCORE.INTRA.DIHEDRAL>
6.55617

>  <SCORE.INTRA.DIHEDRAL.0>
7.52971

>  <SCORE.INTRA.POLAR>
0

>  <SCORE.INTRA.POLAR.0>
0

>  <SCORE.INTRA.REPUL>
0

>  <SCORE.INTRA.REPUL.0>
0

>  <SCORE.INTRA.SOLV>
1.73479

>  <SCORE.INTRA.SOLV.lig_0>
-22.1084

>  <SCORE.INTRA.VDW>
-4.19168

>  <SCORE.INTRA.VDW.0>
2.4256

>  <SCORE.INTRA.norm>
-0.00192489

>  <SCORE.RESTR>
0

>  <SCORE.RESTR.CAVITY>
0

>  <SCORE.RESTR.norm>
0

>  <SCORE.SYSTEM>
0

>  <SCORE.SYSTEM.CONST>
0

>  <SCORE.SYSTEM.DIHEDRAL>
0

>  <SCORE.SYSTEM.SOLV>
0

>  <SCORE.SYSTEM.norm>
0

>  <SCORE.heavy>
24

>  <SCORE.norm>
-0.865117

>  <RMSD>
6.655

$$$$
lig.pdb
 OpenBabel11021811453D
libRbt.so/2013.1/901 2013/11/27
 24 24  0  0  0  0  0  0  0  0999 V2000
    7.4159   -3.8854    0.2068 C   0  0  0  0  0  0  0  0  0  0  0  0
    7.9211   -4.5534   -0.9593 C   0  0  0  0  0  0  0  0  0  0  0  0
    9.1089   -4.1859   -1.5458 C   0  0  0  0  0  0  0  0  0  0  0  0
    9.9114   -3.1236   -1.0196 C   0  0  0  0  0  0  0  0  0  0  0  0
    9.3892   -2.4355    0.1247 C   0  0  0  0  0  0  0  0  0  0  0  0
    8.1995   -2.7962    0.7063 C   0  0  0  0  0  0  0  0  0  0  0  0
    6.2535   -4.2631    0.8159 C   0  0  0  0  0  0  0  0  0  0  0  0
    5.9842   -3.9894    2.1104 N   0  0  0  0  0  0  0  0  0  0  0  0
   11.4997   -3.1623   -2.8040 N   0  0  0  0  0  0  0  0  0  0  0  0
   11.1086   -2.7747   -1.5716 C   0  0  0  0  0  0  0  0  0  0  0  0
    5.2771   -4.9404    0.1624 N   0  0  0  0  0  0  0  0  0  0  0  0
   12.0137   -2.0045   -0.9223 N   0  0  0  0  0  0  0  0  0  0  0  0
    3.8354   -4.7970    0.3554 C   0  0  0  0  0  0  0  0  0  0  0  0
   13.0801   -1.2225   -1.5403 C   0  0  0  0  0  0  0  0  0  0  0  0
    3.1285   -5.4526   -0.8419 C   0  0  0  0  0  0  0  0  0  0  0  0
   12.7169    0.2674   -1.3992 C   0  0  0  0  0  0  0  0  0  0  0  0
    3.1957   -4.5491   -2.0810 C   0  0  0  0  0  0  0  0  0  0  0  0
   12.7586    0.7531    0.0610 C   0  0  0  0  0  0  0  0  0  0  0  0
    4.3279   -5.0023   -2.9668 N   0  0  0  0  0  0  0  0  0  0  0  0
   12.3459    2.1988    0.1754 N   0  0  0  0  0  0  0  0  0  0  0  0
    4.7691   -3.8709   -3.8549 C   0  0  0  0  0  0  0  0  0  0  0  0
   12.8721    2.7531    1.4721 C   0  0  0  0  0  0  0  0  0  0  0  0
    3.9098   -6.1778   -3.8150 C   0  0  0  0  0  0  0  0  0  0  0  0
   10.8524    2.3675    0.1429 C   0  0  0  0  0  0  0  0  0  0  0  0
  1  6  2  0  0  0  0
  2  3  2  0  0  0  0
  2  1  1  0  0  0  0
  3  4  1  0  0  0  0
  4 10  1  0  0  0  0
  4  5  2  0  0  0  0
  6  5  1  0  0  0  0
  7  1  1  0  0  0  0
  7 11  1  0  0  0  0
  8  7  2  0  0  0  0
  9 10  2  0  0  0  0
 10 12  1  0  0  0  0
 12 14  1  0  0  0  0
 13 11  1  0  0  0  0
 13 15  1  0  0  0  0
 14 16  1  0  0  0  0
 16 18  1  0  0  0  0
 17 15  1  0  0  0  0
 17 19  1  0  0  0  0
 18 20  1  0  0  0  0
 19 23  1  0  0  0  0
 20 22  1  0  0  0  0
 20 24  1  0  0  0  0
 21 19  1  0  0  0  0
M  END
>  <CHROM.1>
15.75244906,156.95174589,109.40707678,164.47820814,-76.82404414,67.83430613
-177.72363556,97.98318176,-157.43365740,-159.43807950,8.40806237,-2.66404943
-0.80923959,2.70774441,-0.46422205,-2.16478782

>  <Name>
lig.pdb

>  <RI>
9.7521e+06

>  <Rbt.Current_Directory>
/home/itssahil/PROJECTS/Mol_Feturizer/New_Systems/rnas/2l94

>  <Rbt.Executable>
rbdock ($Id: //depot/dev/client3/rdock/2013.1/src/exe/rbdock.cxx#4 $)

>  <Rbt.Library>
libRbt.so (2013.1, Build901 2013/11/27)

>  <Rbt.Parameter_File>
/export/apps/rDock/src/rDock_2013.1_src/data/scripts/dock_solv.prm

>  <Rbt.Receptor>
prm/pocket_docking_7.prm

>  <SCORE>
-25.8576

>  <SCORE.INTER>
-26.7871

>  <SCORE.INTER.CONST>
1

>  <SCORE.INTER.POLAR>
-3.7675

>  <SCORE.INTER.ROT>
10

>  <SCORE.INTER.SOLV>
14.1512

>  <SCORE.INTER.VDW>
-20.2835

>  <SCORE.INTER.norm>
-1.11613

>  <SCORE.INTRA>
0.929554

>  <SCORE.INTRA.DIHEDRAL>
7.2386

>  <SCORE.INTRA.DIHEDRAL.0>
7.52971

>  <SCORE.INTRA.POLAR>
0

>  <SCORE.INTRA.POLAR.0>
0

>  <SCORE.INTRA.REPUL>
0

>  <SCORE.INTRA.REPUL.0>
0

>  <SCORE.INTRA.SOLV>
0.79406

>  <SCORE.INTRA.SOLV.lig_0>
-22.1084

>  <SCORE.INTRA.VDW>
-3.08678

>  <SCORE.INTRA.VDW.0>
2.4256

>  <SCORE.INTRA.norm>
0.0387314

>  <SCORE.RESTR>
0

>  <SCORE.RESTR.CAVITY>
0

>  <SCORE.RESTR.norm>
0

>  <SCORE.SYSTEM>
0

>  <SCORE.SYSTEM.CONST>
0

>  <SCORE.SYSTEM.DIHEDRAL>
0

>  <SCORE.SYSTEM.SOLV>
0

>  <SCORE.SYSTEM.norm>
0

>  <SCORE.heavy>
24

>  <SCORE.norm>
-1.0774

>  <RMSD>
6.682

$$$$
lig.pdb
 OpenBabel11021811453D
libRbt.so/2013.1/901 2013/11/27
 24 24  0  0  0  0  0  0  0  0999 V2000
   10.7526   -2.3445   -1.9088 C   0  0  0  0  0  0  0  0  0  0  0  0
    9.8744   -3.4784   -1.9731 C   0  0  0  0  0  0  0  0  0  0  0  0
    8.9403   -3.7265   -0.9953 C   0  0  0  0  0  0  0  0  0  0  0  0
    8.7860   -2.8617    0.1351 C   0  0  0  0  0  0  0  0  0  0  0  0
    9.6862   -1.7486    0.2151 C   0  0  0  0  0  0  0  0  0  0  0  0
   10.6245   -1.5045   -0.7563 C   0  0  0  0  0  0  0  0  0  0  0  0
   11.6619   -2.0713   -2.8902 C   0  0  0  0  0  0  0  0  0  0  0  0
   11.5342   -2.5308   -4.1534 N   0  0  0  0  0  0  0  0  0  0  0  0
    7.6869   -2.2910    2.1783 N   0  0  0  0  0  0  0  0  0  0  0  0
    7.8387   -3.0778    1.0920 C   0  0  0  0  0  0  0  0  0  0  0  0
   12.7635   -1.3117   -2.6696 N   0  0  0  0  0  0  0  0  0  0  0  0
    6.9646   -4.1104    1.0321 N   0  0  0  0  0  0  0  0  0  0  0  0
   13.3826   -0.3777   -3.6081 C   0  0  0  0  0  0  0  0  0  0  0  0
    5.6774   -4.1898    1.7157 C   0  0  0  0  0  0  0  0  0  0  0  0
   14.8883   -0.3263   -3.3032 C   0  0  0  0  0  0  0  0  0  0  0  0
    4.6547   -4.7862    0.7308 C   0  0  0  0  0  0  0  0  0  0  0  0
   15.1405    0.1212   -1.8568 C   0  0  0  0  0  0  0  0  0  0  0  0
    4.4835   -3.9311   -0.5378 C   0  0  0  0  0  0  0  0  0  0  0  0
   16.6244    0.2552   -1.6286 N   0  0  0  0  0  0  0  0  0  0  0  0
    4.0340   -4.7650   -1.7109 N   0  0  0  0  0  0  0  0  0  0  0  0
   16.9537   -0.0604   -0.1949 C   0  0  0  0  0  0  0  0  0  0  0  0
    4.3784   -4.0388   -2.9835 C   0  0  0  0  0  0  0  0  0  0  0  0
   17.0960    1.6491   -1.9609 C   0  0  0  0  0  0  0  0  0  0  0  0
    2.5545   -5.0305   -1.6855 C   0  0  0  0  0  0  0  0  0  0  0  0
  1  6  2  0  0  0  0
  2  3  2  0  0  0  0
  2  1  1  0  0  0  0
  3  4  1  0  0  0  0
  4 10  1  0  0  0  0
  4  5  2  0  0  0  0
  6  5  1  0  0  0  0
  7  1  1  0  0  0  0
  7 11  1  0  0  0  0
  8  7  2  0  0  0  0
  9 10  2  0  0  0  0
 10 12  1  0  0  0  0
 12 14  1  0  0  0  0
 13 11  1  0  0  0  0
 13 15  1  0  0  0  0
 14 16  1  0  0  0  0
 16 18  1  0  0  0  0
 17 15  1  0  0  0  0
 17 19  1  0  0  0  0
 18 20  1  0  0  0  0
 19 23  1  0  0  0  0
 20 22  1  0  0  0  0
 20 24  1  0  0  0  0
 21 19  1  0  0  0  0
M  END
>  <CHROM.1>
178.86116921,22.51270752,137.99692027,-150.24340387,-58.84037027,-60.18176813
153.51217134,-175.92362661,-148.94846246,-158.80085942,9.88641784,-2.34998183
-1.17135853,0.12110335,-0.39464070,-1.64038463

>  <Name>
lig.pdb

>  <RI>
2.48096e+07

>  <Rbt.Current_Directory>
/home/itssahil/PROJECTS/Mol_Feturizer/New_Systems/rnas/2l94

>  <Rbt.Executable>
rbdock ($Id: //depot/dev/client3/rdock/2013.1/src/exe/rbdock.cxx#4 $)

>  <Rbt.Library>
libRbt.so (2013.1, Build901 2013/11/27)

>  <Rbt.Parameter_File>
/export/apps/rDock/src/rDock_2013.1_src/data/scripts/dock_solv.prm

>  <Rbt.Receptor>
prm/pocket_docking_6.prm

>  <SCORE>
-32.5078

>  <SCORE.INTER>
-33.0355

>  <SCORE.INTER.CONST>
1

>  <SCORE.INTER.POLAR>
-4.54792

>  <SCORE.INTER.ROT>
10

>  <SCORE.INTER.SOLV>
18.1203

>  <SCORE.INTER.VDW>
-23.1707

>  <SCORE.INTER.norm>
-1.37648

>  <SCORE.INTRA>
0.527617

>  <SCORE.INTRA.DIHEDRAL>
4.24567

>  <SCORE.INTRA.DIHEDRAL.0>
7.52971

>  <SCORE.INTRA.POLAR>
0

>  <SCORE.INTRA.POLAR.0>
0

>  <SCORE.INTRA.REPUL>
0

>  <SCORE.INTRA.REPUL.0>
0

>  <SCORE.INTRA.SOLV>
0.261663

>  <SCORE.INTRA.SOLV.lig_0>
-22.1084

>  <SCORE.INTRA.VDW>
-1.72605

>  <SCORE.INTRA.VDW.0>
2.4256

>  <SCORE.INTRA.norm>
0.0219841

>  <SCORE.RESTR>
0

>  <SCORE.RESTR.CAVITY>
0

>  <SCORE.RESTR.norm>
0

>  <SCORE.SYSTEM>
0

>  <SCORE.SYSTEM.CONST>
0

>  <SCORE.SYSTEM.DIHEDRAL>
0

>  <SCORE.SYSTEM.SOLV>
0

>  <SCORE.SYSTEM.norm>
0

>  <SCORE.heavy>
24

>  <SCORE.norm>
-1.35449

>  <RMSD>
6.710

$$$$
lig.pdb
 OpenBabel11021811453D
libRbt.so/2013.1/901 2013/11/27
 24 24  0  0  0  0  0  0  0  0999 V2000
   10.5842    0.1740   -2.6225 C   0  0  0  0  0  0  0  0  0  0  0  0
   10.6662   -1.1117   -3.2558 C   0  0  0  0  0  0  0  0  0  0  0  0
    9.8680   -2.1616   -2.8677 C   0  0  0  0  0  0  0  0  0  0  0  0
    8.9046   -2.0267   -1.8174 C   0  0  0  0  0  0  0  0  0  0  0  0
    8.8474   -0.7521   -1.1633 C   0  0  0  0  0  0  0  0  0  0  0  0
    9.6495    0.2944   -1.5446 C   0  0  0  0  0  0  0  0  0  0  0  0
   11.3496    1.2323   -3.0214 C   0  0  0  0  0  0  0  0  0  0  0  0
   11.2880    2.4436   -2.4282 N   0  0  0  0  0  0  0  0  0  0  0  0
    8.0883   -4.2603   -2.0473 N   0  0  0  0  0  0  0  0  0  0  0  0
    8.0827   -3.0504   -1.4487 C   0  0  0  0  0  0  0  0  0  0  0  0
   12.2353    1.1441   -4.0446 N   0  0  0  0  0  0  0  0  0  0  0  0
    7.1829   -2.9367   -0.4430 N   0  0  0  0  0  0  0  0  0  0  0  0
   13.5301    1.8153   -4.1391 C   0  0  0  0  0  0  0  0  0  0  0  0
    6.5921   -4.0370    0.3125 C   0  0  0  0  0  0  0  0  0  0  0  0
   14.6209    0.7972   -3.7696 C   0  0  0  0  0  0  0  0  0  0  0  0
    5.1537   -4.2426   -0.1978 C   0  0  0  0  0  0  0  0  0  0  0  0
   14.4953    0.3668   -2.3016 C   0  0  0  0  0  0  0  0  0  0  0  0
    4.3065   -5.1123    0.7487 C   0  0  0  0  0  0  0  0  0  0  0  0
   15.8208   -0.1693   -1.8247 N   0  0  0  0  0  0  0  0  0  0  0  0
    2.8760   -5.2070    0.2814 N   0  0  0  0  0  0  0  0  0  0  0  0
   15.6198   -1.0207   -0.6007 C   0  0  0  0  0  0  0  0  0  0  0  0
    1.9911   -5.4560    1.4732 C   0  0  0  0  0  0  0  0  0  0  0  0
   16.7734    0.9566   -1.5068 C   0  0  0  0  0  0  0  0  0  0  0  0
    2.6761   -6.3148   -0.7150 C   0  0  0  0  0  0  0  0  0  0  0  0
  1  6  2  0  0  0  0
  2  3  2  0  0  0  0
  2  1  1  0  0  0  0
  3  4  1  0  0  0  0
  4 10  1  0  0  0  0
  4  5  2  0  0  0  0
  6  5  1  0  0  0  0
  7  1  1  0  0  0  0
  7 11  1  0  0  0  0
  8  7  2  0  0  0  0
  9 10  2  0  0  0  0
 10 12  1  0  0  0  0
 12 14  1  0  0  0  0
 13 11  1  0  0  0  0
 13 15  1  0  0  0  0
 14 16  1  0  0  0  0
 16 18  1  0  0  0  0
 17 15  1  0  0  0  0
 17 19  1  0  0  0  0
 18 20  1  0  0  0  0
 19 23  1  0  0  0  0
 20 22  1  0  0  0  0
 20 24  1  0  0  0  0
 21 19  1  0  0  0  0
M  END
>  <CHROM.1>
-1.09857881,-179.55028518,-103.70466270,100.61606172,-65.12146745,-165.06902238
175.51181551,-158.04632981,-160.24369185,-153.12654898,9.62325374,-1.64254569
-1.59681588,0.54681753,-0.10659977,-0.61207416

>  <Name>
lig.pdb

>  <RI>
9.7521e+06

>  <Rbt.Current_Directory>
/home/itssahil/PROJECTS/Mol_Feturizer/New_Systems/rnas/2l94

>  <Rbt.Executable>
rbdock ($Id: //depot/dev/client3/rdock/2013.1/src/exe/rbdock.cxx#4 $)

>  <Rbt.Library>
libRbt.so (2013.1, Build901 2013/11/27)

>  <Rbt.Parameter_File>
/export/apps/rDock/src/rDock_2013.1_src/data/scripts/dock_solv.prm

>  <Rbt.Receptor>
prm/pocket_docking_7.prm

>  <SCORE>
-20.2306

>  <SCORE.INTER>
-18.5103

>  <SCORE.INTER.CONST>
1

>  <SCORE.INTER.POLAR>
-3.35305

>  <SCORE.INTER.ROT>
10

>  <SCORE.INTER.SOLV>
12.0748

>  <SCORE.INTER.VDW>
-15.455

>  <SCORE.INTER.norm>
-0.771264

>  <SCORE.INTRA>
-1.72031

>  <SCORE.INTRA.DIHEDRAL>
2.14792

>  <SCORE.INTRA.DIHEDRAL.0>
7.52971

>  <SCORE.INTRA.POLAR>
0

>  <SCORE.INTRA.POLAR.0>
0

>  <SCORE.INTRA.REPUL>
0

>  <SCORE.INTRA.REPUL.0>
0

>  <SCORE.INTRA.SOLV>
0.279815

>  <SCORE.INTRA.SOLV.lig_0>
-22.1084

>  <SCORE.INTRA.VDW>
-2.93417

>  <SCORE.INTRA.VDW.0>
2.4256

>  <SCORE.INTRA.norm>
-0.0716795

>  <SCORE.RESTR>
0

>  <SCORE.RESTR.CAVITY>
0

>  <SCORE.RESTR.norm>
0

>  <SCORE.SYSTEM>
0

>  <SCORE.SYSTEM.CONST>
0

>  <SCORE.SYSTEM.DIHEDRAL>
0

>  <SCORE.SYSTEM.SOLV>
0

>  <SCORE.SYSTEM.norm>
0

>  <SCORE.heavy>
24

>  <SCORE.norm>
-0.842943

>  <RMSD>
6.721

$$$$
lig.pdb
 OpenBabel11021811453D
libRbt.so/2013.1/901 2013/11/27
 24 24  0  0  0  0  0  0  0  0999 V2000
   12.0633   -1.2908   -2.6551 C   0  0  0  0  0  0  0  0  0  0  0  0
   12.0849   -2.1267   -1.4882 C   0  0  0  0  0  0  0  0  0  0  0  0
   11.0078   -2.9051   -1.1357 C   0  0  0  0  0  0  0  0  0  0  0  0
    9.8098   -2.9316   -1.9190 C   0  0  0  0  0  0  0  0  0  0  0  0
    9.7772   -2.0708   -3.0652 C   0  0  0  0  0  0  0  0  0  0  0  0
   10.8489   -1.2873   -3.4135 C   0  0  0  0  0  0  0  0  0  0  0  0
   13.1389   -0.5384   -3.0317 C   0  0  0  0  0  0  0  0  0  0  0  0
   13.0278    0.5532   -3.8186 N   0  0  0  0  0  0  0  0  0  0  0  0
    8.5864   -4.9773   -2.0810 N   0  0  0  0  0  0  0  0  0  0  0  0
    8.7494   -3.7270   -1.5991 C   0  0  0  0  0  0  0  0  0  0  0  0
   14.4036   -0.8302   -2.6387 N   0  0  0  0  0  0  0  0  0  0  0  0
    7.7617   -3.3242   -0.7648 N   0  0  0  0  0  0  0  0  0  0  0  0
   15.4624    0.1263   -2.3219 C   0  0  0  0  0  0  0  0  0  0  0  0
    6.8550   -4.1931   -0.0208 C   0  0  0  0  0  0  0  0  0  0  0  0
   15.6531    0.1357   -0.7966 C   0  0  0  0  0  0  0  0  0  0  0  0
    6.5511   -3.5154    1.3284 C   0  0  0  0  0  0  0  0  0  0  0  0
   14.4021    0.6764   -0.0904 C   0  0  0  0  0  0  0  0  0  0  0  0
    5.2963   -4.0887    2.0115 C   0  0  0  0  0  0  0  0  0  0  0  0
   14.5212    0.4294    1.3917 N   0  0  0  0  0  0  0  0  0  0  0  0
    4.8356   -3.2118    3.1484 N   0  0  0  0  0  0  0  0  0  0  0  0
   14.2015   -1.0081    1.6998 C   0  0  0  0  0  0  0  0  0  0  0  0
    3.8954   -4.0004    4.0199 C   0  0  0  0  0  0  0  0  0  0  0  0
   13.5904    1.3313    2.1638 C   0  0  0  0  0  0  0  0  0  0  0  0
    4.1306   -1.9760    2.6629 C   0  0  0  0  0  0  0  0  0  0  0  0
  1  6  2  0  0  0  0
  2  3  2  0  0  0  0
  2  1  1  0  0  0  0
  3  4  1  0  0  0  0
  4 10  1  0  0  0  0
  4  5  2  0  0  0  0
  6  5  1  0  0  0  0
  7  1  1  0  0  0  0
  7 11  1  0  0  0  0
  8  7  2  0  0  0  0
  9 10  2  0  0  0  0
 10 12  1  0  0  0  0
 12 14  1  0  0  0  0
 13 11  1  0  0  0  0
 13 15  1  0  0  0  0
 14 16  1  0  0  0  0
 16 18  1  0  0  0  0
 17 15  1  0  0  0  0
 17 19  1  0  0  0  0
 18 20  1  0  0  0  0
 19 23  1  0  0  0  0
 20 22  1  0  0  0  0
 20 24  1  0  0  0  0
 21 19  1  0  0  0  0
M  END
>  <CHROM.1>
-91.62792899,-157.47783885,145.50596329,106.56166633,-65.33607808,162.13905424
-166.67207182,169.38516870,-78.17620372,-163.18650291,10.41702434,-1.85174664
-0.43479419,0.20201005,-0.45581069,-1.86674698

>  <Name>
lig.pdb

>  <RI>
9.7521e+06

>  <Rbt.Current_Directory>
/home/itssahil/PROJECTS/Mol_Feturizer/New_Systems/rnas/2l94

>  <Rbt.Executable>
rbdock ($Id: //depot/dev/client3/rdock/2013.1/src/exe/rbdock.cxx#4 $)

>  <Rbt.Library>
libRbt.so (2013.1, Build901 2013/11/27)

>  <Rbt.Parameter_File>
/export/apps/rDock/src/rDock_2013.1_src/data/scripts/dock_solv.prm

>  <Rbt.Receptor>
prm/pocket_docking_7.prm

>  <SCORE>
-24.6585

>  <SCORE.INTER>
-28.8583

>  <SCORE.INTER.CONST>
1

>  <SCORE.INTER.POLAR>
-3.81161

>  <SCORE.INTER.ROT>
10

>  <SCORE.INTER.SOLV>
15.066

>  <SCORE.INTER.VDW>
-21.8222

>  <SCORE.INTER.norm>
-1.20243

>  <SCORE.INTRA>
4.17914

>  <SCORE.INTRA.DIHEDRAL>
15.6628

>  <SCORE.INTRA.DIHEDRAL.0>
7.52971

>  <SCORE.INTRA.POLAR>
0

>  <SCORE.INTRA.POLAR.0>
0

>  <SCORE.INTRA.REPUL>
0

>  <SCORE.INTRA.REPUL.0>
0

>  <SCORE.INTRA.SOLV>
0.0174539

>  <SCORE.INTRA.SOLV.lig_0>
-22.1084

>  <SCORE.INTRA.VDW>
-3.66101

>  <SCORE.INTRA.VDW.0>
2.4256

>  <SCORE.INTRA.norm>
0.174131

>  <SCORE.RESTR>
0.020664

>  <SCORE.RESTR.CAVITY>
0.020664

>  <SCORE.RESTR.norm>
0.000860999

>  <SCORE.SYSTEM>
0

>  <SCORE.SYSTEM.CONST>
0

>  <SCORE.SYSTEM.DIHEDRAL>
0

>  <SCORE.SYSTEM.SOLV>
0

>  <SCORE.SYSTEM.norm>
0

>  <SCORE.heavy>
24

>  <SCORE.norm>
-1.02744

>  <RMSD>
6.791

$$$$
lig.pdb
 OpenBabel11021811453D
libRbt.so/2013.1/901 2013/11/27
 24 24  0  0  0  0  0  0  0  0999 V2000
   10.0270   -3.2635   -1.5389 C   0  0  0  0  0  0  0  0  0  0  0  0
   10.5783   -3.1004   -2.8544 C   0  0  0  0  0  0  0  0  0  0  0  0
   11.7634   -2.4361   -3.0650 C   0  0  0  0  0  0  0  0  0  0  0  0
   12.5171   -1.8796   -1.9826 C   0  0  0  0  0  0  0  0  0  0  0  0
   11.9485   -2.0139   -0.6732 C   0  0  0  0  0  0  0  0  0  0  0  0
   10.7614   -2.6698   -0.4627 C   0  0  0  0  0  0  0  0  0  0  0  0
    8.8673   -3.9489   -1.3154 C   0  0  0  0  0  0  0  0  0  0  0  0
    8.5860   -5.1251   -1.9159 N   0  0  0  0  0  0  0  0  0  0  0  0
   14.0192   -0.5696   -3.3000 N   0  0  0  0  0  0  0  0  0  0  0  0
   13.7115   -1.2506   -2.1759 C   0  0  0  0  0  0  0  0  0  0  0  0
    7.9094   -3.4998   -0.4670 N   0  0  0  0  0  0  0  0  0  0  0  0
   14.6980   -1.2586   -1.2482 N   0  0  0  0  0  0  0  0  0  0  0  0
    7.0574   -4.3135    0.3981 C   0  0  0  0  0  0  0  0  0  0  0  0
   15.7910   -0.2967   -1.1451 C   0  0  0  0  0  0  0  0  0  0  0  0
    5.9163   -3.4225    0.9147 C   0  0  0  0  0  0  0  0  0  0  0  0
   16.0062    0.0168    0.3472 C   0  0  0  0  0  0  0  0  0  0  0  0
    6.4626   -2.2750    1.7755 C   0  0  0  0  0  0  0  0  0  0  0  0
   14.7285    0.5284    1.0368 C   0  0  0  0  0  0  0  0  0  0  0  0
    5.3253   -1.3741    2.1840 N   0  0  0  0  0  0  0  0  0  0  0  0
   14.3654    1.9156    0.5704 N   0  0  0  0  0  0  0  0  0  0  0  0
    5.8349    0.0222    2.4167 C   0  0  0  0  0  0  0  0  0  0  0  0
   13.6473    2.6300    1.6838 C   0  0  0  0  0  0  0  0  0  0  0  0
    4.6583   -1.8846    3.4372 C   0  0  0  0  0  0  0  0  0  0  0  0
   13.4813    1.8930   -0.6452 C   0  0  0  0  0  0  0  0  0  0  0  0
  1  6  2  0  0  0  0
  2  3  2  0  0  0  0
  2  1  1  0  0  0  0
  3  4  1  0  0  0  0
  4 10  1  0  0  0  0
  4  5  2  0  0  0  0
  6  5  1  0  0  0  0
  7  1  1  0  0  0  0
  7 11  1  0  0  0  0
  8  7  2  0  0  0  0
  9 10  2  0  0  0  0
 10 12  1  0  0  0  0
 12 14  1  0  0  0  0
 13 11  1  0  0  0  0
 13 15  1  0  0  0  0
 14 16  1  0  0  0  0
 16 18  1  0  0  0  0
 17 15  1  0  0  0  0
 17 19  1  0  0  0  0
 18 20  1  0  0  0  0
 19 23  1  0  0  0  0
 20 22  1  0  0  0  0
 20 24  1  0  0  0  0
 21 19  1  0  0  0  0
M  END
>  <CHROM.1>
30.74529267,43.35690627,139.38054539,-166.65211223,-63.07266726,-56.12349100
-70.41440404,176.20577737,-152.69829291,-150.54133171,10.74721953,-1.51055848
-0.28335584,-3.05305935,0.38860113,0.75128521

>  <Name>
lig.pdb

>  <RI>
9.7521e+06

>  <Rbt.Current_Directory>
/home/itssahil/PROJECTS/Mol_Feturizer/New_Systems/rnas/2l94

>  <Rbt.Executable>
rbdock ($Id: //depot/dev/client3/rdock/2013.1/src/exe/rbdock.cxx#4 $)

>  <Rbt.Library>
libRbt.so (2013.1, Build901 2013/11/27)

>  <Rbt.Parameter_File>
/export/apps/rDock/src/rDock_2013.1_src/data/scripts/dock_solv.prm

>  <Rbt.Receptor>
prm/pocket_docking_7.prm

>  <SCORE>
-21.1475

>  <SCORE.INTER>
-23.836

>  <SCORE.INTER.CONST>
1

>  <SCORE.INTER.POLAR>
-3.08906

>  <SCORE.INTER.ROT>
10

>  <SCORE.INTER.SOLV>
14.7031

>  <SCORE.INTER.VDW>
-20.7615

>  <SCORE.INTER.norm>
-0.993166

>  <SCORE.INTRA>
2.68848

>  <SCORE.INTRA.DIHEDRAL>
10.3677

>  <SCORE.INTRA.DIHEDRAL.0>
7.52971

>  <SCORE.INTRA.POLAR>
0

>  <SCORE.INTRA.POLAR.0>
0

>  <SCORE.INTRA.REPUL>
0

>  <SCORE.INTRA.REPUL.0>
0

>  <SCORE.INTRA.SOLV>
0.804204

>  <SCORE.INTRA.SOLV.lig_0>
-22.1084

>  <SCORE.INTRA.VDW>
-2.89747

>  <SCORE.INTRA.VDW.0>
2.4256

>  <SCORE.INTRA.norm>
0.11202

>  <SCORE.RESTR>
0

>  <SCORE.RESTR.CAVITY>
0

>  <SCORE.RESTR.norm>
0

>  <SCORE.SYSTEM>
0

>  <SCORE.SYSTEM.CONST>
0

>  <SCORE.SYSTEM.DIHEDRAL>
0

>  <SCORE.SYSTEM.SOLV>
0

>  <SCORE.SYSTEM.norm>
0

>  <SCORE.heavy>
24

>  <SCORE.norm>
-0.881146

>  <RMSD>
6.880

$$$$
lig.pdb
 OpenBabel11021811453D
libRbt.so/2013.1/901 2013/11/27
 24 24  0  0  0  0  0  0  0  0999 V2000
   12.5500   -1.7739   -2.0411 C   0  0  0  0  0  0  0  0  0  0  0  0
   11.6465   -2.0283   -3.1274 C   0  0  0  0  0  0  0  0  0  0  0  0
   10.4049   -2.5815   -2.9214 C   0  0  0  0  0  0  0  0  0  0  0  0
    9.9417   -2.9247   -1.6110 C   0  0  0  0  0  0  0  0  0  0  0  0
   10.8580   -2.7013   -0.5311 C   0  0  0  0  0  0  0  0  0  0  0  0
   12.1009   -2.1566   -0.7365 C   0  0  0  0  0  0  0  0  0  0  0  0
   13.7724   -1.1956   -2.2309 C   0  0  0  0  0  0  0  0  0  0  0  0
   14.1258   -0.5966   -3.3883 N   0  0  0  0  0  0  0  0  0  0  0  0
    8.2734   -3.8649   -0.1824 N   0  0  0  0  0  0  0  0  0  0  0  0
    8.6985   -3.4401   -1.3911 C   0  0  0  0  0  0  0  0  0  0  0  0
   14.7251   -1.1760   -1.2660 N   0  0  0  0  0  0  0  0  0  0  0  0
    7.7790   -3.5712   -2.3767 N   0  0  0  0  0  0  0  0  0  0  0  0
   15.6802   -0.1013   -1.0033 C   0  0  0  0  0  0  0  0  0  0  0  0
    6.3343   -3.6783   -2.1980 C   0  0  0  0  0  0  0  0  0  0  0  0
   16.5687   -0.5330    0.1745 C   0  0  0  0  0  0  0  0  0  0  0  0
    5.7156   -2.3033   -2.5115 C   0  0  0  0  0  0  0  0  0  0  0  0
   15.8502   -0.3140    1.5131 C   0  0  0  0  0  0  0  0  0  0  0  0
    4.2013   -2.2573   -2.2383 C   0  0  0  0  0  0  0  0  0  0  0  0
   16.7789   -0.6800    2.6424 N   0  0  0  0  0  0  0  0  0  0  0  0
    3.6079   -0.9284   -2.6326 N   0  0  0  0  0  0  0  0  0  0  0  0
   16.0413   -0.6232    3.9524 C   0  0  0  0  0  0  0  0  0  0  0  0
    2.4652   -0.6124   -1.7053 C   0  0  0  0  0  0  0  0  0  0  0  0
   17.9637    0.2528    2.6881 C   0  0  0  0  0  0  0  0  0  0  0  0
    3.1017   -0.9299   -4.0481 C   0  0  0  0  0  0  0  0  0  0  0  0
  1  6  2  0  0  0  0
  2  3  2  0  0  0  0
  2  1  1  0  0  0  0
  3  4  1  0  0  0  0
  4 10  1  0  0  0  0
  4  5  2  0  0  0  0
  6  5  1  0  0  0  0
  7  1  1  0  0  0  0
  7 11  1  0  0  0  0
  8  7  2  0  0  0  0
  9 10  2  0  0  0  0
 10 12  1  0  0  0  0
 12 14  1  0  0  0  0
 13 11  1  0  0  0  0
 13 15  1  0  0  0  0
 14 16  1  0  0  0  0
 16 18  1  0  0  0  0
 17 15  1  0  0  0  0
 17 19  1  0  0  0  0
 18 20  1  0  0  0  0
 19 23  1  0  0  0  0
 20 22  1  0  0  0  0
 20 24  1  0  0  0  0
 21 19  1  0  0  0  0
M  END
>  <CHROM.1>
174.86065084,12.71245350,101.50345430,-179.44221728,-79.96803280,-174.98624939
-176.52648118,-177.04101330,-173.51236504,-147.66873799,10.78052680,-1.66656957
-1.09725938,-0.30320171,-0.10326619,-1.64340144

>  <Name>
lig.pdb

>  <RI>
2.48096e+07

>  <Rbt.Current_Directory>
/home/itssahil/PROJECTS/Mol_Feturizer/New_Systems/rnas/2l94

>  <Rbt.Executable>
rbdock ($Id: //depot/dev/client3/rdock/2013.1/src/exe/rbdock.cxx#4 $)

>  <Rbt.Library>
libRbt.so (2013.1, Build901 2013/11/27)

>  <Rbt.Parameter_File>
/export/apps/rDock/src/rDock_2013.1_src/data/scripts/dock_solv.prm

>  <Rbt.Receptor>
prm/pocket_docking_6.prm

>  <SCORE>
-21.5394

>  <SCORE.INTER>
-20.8583

>  <SCORE.INTER.CONST>
1

>  <SCORE.INTER.POLAR>
-2.91843

>  <SCORE.INTER.ROT>
10

>  <SCORE.INTER.SOLV>
13.5324

>  <SCORE.INTER.VDW>
-18.9549

>  <SCORE.INTER.norm>
-0.869098

>  <SCORE.INTRA>
-0.681029

>  <SCORE.INTRA.DIHEDRAL>
1.58336

>  <SCORE.INTRA.DIHEDRAL.0>
7.52971

>  <SCORE.INTRA.POLAR>
0

>  <SCORE.INTRA.POLAR.0>
0

>  <SCORE.INTRA.REPUL>
0

>  <SCORE.INTRA.REPUL.0>
0

>  <SCORE.INTRA.SOLV>
-0.123378

>  <SCORE.INTRA.SOLV.lig_0>
-22.1084

>  <SCORE.INTRA.VDW>
-1.41102

>  <SCORE.INTRA.VDW.0>
2.4256

>  <SCORE.INTRA.norm>
-0.0283762

>  <SCORE.RESTR>
0

>  <SCORE.RESTR.CAVITY>
0

>  <SCORE.RESTR.norm>
0

>  <SCORE.SYSTEM>
0

>  <SCORE.SYSTEM.CONST>
0

>  <SCORE.SYSTEM.DIHEDRAL>
0

>  <SCORE.SYSTEM.SOLV>
0

>  <SCORE.SYSTEM.norm>
0

>  <SCORE.heavy>
24

>  <SCORE.norm>
-0.897474

>  <RMSD>
6.892

$$$$
lig.pdb
 OpenBabel11021811453D
libRbt.so/2013.1/901 2013/11/27
 24 24  0  0  0  0  0  0  0  0999 V2000
    9.8386   -3.2257   -1.5833 C   0  0  0  0  0  0  0  0  0  0  0  0
   10.6481   -3.4171   -2.7533 C   0  0  0  0  0  0  0  0  0  0  0  0
   11.8075   -2.7063   -2.9552 C   0  0  0  0  0  0  0  0  0  0  0  0
   12.2755   -1.7437   -2.0045 C   0  0  0  0  0  0  0  0  0  0  0  0
   11.4487   -1.5294   -0.8530 C   0  0  0  0  0  0  0  0  0  0  0  0
   10.2869   -2.2326   -0.6543 C   0  0  0  0  0  0  0  0  0  0  0  0
    8.7025   -3.9490   -1.3577 C   0  0  0  0  0  0  0  0  0  0  0  0
    8.4492   -5.1234   -1.9739 N   0  0  0  0  0  0  0  0  0  0  0  0
   13.9275   -0.7109   -3.3874 N   0  0  0  0  0  0  0  0  0  0  0  0
   13.4424   -1.0595   -2.1769 C   0  0  0  0  0  0  0  0  0  0  0  0
    7.7417   -3.5422   -0.4914 N   0  0  0  0  0  0  0  0  0  0  0  0
   14.2196   -0.6707   -1.1383 N   0  0  0  0  0  0  0  0  0  0  0  0
    6.9247   -4.3946    0.3700 C   0  0  0  0  0  0  0  0  0  0  0  0
   15.2067    0.4045   -1.1565 C   0  0  0  0  0  0  0  0  0  0  0  0
    6.7292   -3.6674    1.7101 C   0  0  0  0  0  0  0  0  0  0  0  0
   14.6691    1.5550   -0.2852 C   0  0  0  0  0  0  0  0  0  0  0  0
    5.8748   -2.4050    1.5299 C   0  0  0  0  0  0  0  0  0  0  0  0
   14.6148    1.1923    1.2099 C   0  0  0  0  0  0  0  0  0  0  0  0
    5.6091   -1.7870    2.8787 N   0  0  0  0  0  0  0  0  0  0  0  0
   14.4447    2.4183    2.0710 N   0  0  0  0  0  0  0  0  0  0  0  0
    4.3418   -2.3511    3.4611 C   0  0  0  0  0  0  0  0  0  0  0  0
   14.6401    2.0306    3.5122 C   0  0  0  0  0  0  0  0  0  0  0  0
    5.4915   -0.2869    2.7693 C   0  0  0  0  0  0  0  0  0  0  0  0
   13.0850    3.0395    1.9126 C   0  0  0  0  0  0  0  0  0  0  0  0
  1  6  2  0  0  0  0
  2  3  2  0  0  0  0
  2  1  1  0  0  0  0
  3  4  1  0  0  0  0
  4 10  1  0  0  0  0
  4  5  2  0  0  0  0
  6  5  1  0  0  0  0
  7  1  1  0  0  0  0
  7 11  1  0  0  0  0
  8  7  2  0  0  0  0
  9 10  2  0  0  0  0
 10 12  1  0  0  0  0
 12 14  1  0  0  0  0
 13 11  1  0  0  0  0
 13 15  1  0  0  0  0
 14 16  1  0  0  0  0
 16 18  1  0  0  0  0
 17 15  1  0  0  0  0
 17 19  1  0  0  0  0
 18 20  1  0  0  0  0
 19 23  1  0  0  0  0
 20 22  1  0  0  0  0
 20 24  1  0  0  0  0
 21 19  1  0  0  0  0
M  END
>  <CHROM.1>
32.16513940,19.43702241,110.31696270,142.41671517,66.92164008,68.06632808
164.83131512,175.23909044,-90.15171352,-170.20355461,10.57990513,-1.37139292
0.02075067,-2.97052597,0.44178400,0.87811814

>  <Name>
lig.pdb

>  <RI>
1.39428e+07

>  <Rbt.Current_Directory>
/home/itssahil/PROJECTS/Mol_Feturizer/New_Systems/rnas/2l94

>  <Rbt.Executable>
rbdock ($Id: //depot/dev/client3/rdock/2013.1/src/exe/rbdock.cxx#4 $)

>  <Rbt.Library>
libRbt.so (2013.1, Build901 2013/11/27)

>  <Rbt.Parameter_File>
/export/apps/rDock/src/rDock_2013.1_src/data/scripts/dock_solv.prm

>  <Rbt.Receptor>
prm/pocket_docking_8.prm

>  <SCORE>
-26.4162

>  <SCORE.INTER>
-26.8815

>  <SCORE.INTER.CONST>
1

>  <SCORE.INTER.POLAR>
-3.58998

>  <SCORE.INTER.ROT>
10

>  <SCORE.INTER.SOLV>
14.3165

>  <SCORE.INTER.VDW>
-20.9932

>  <SCORE.INTER.norm>
-1.12006

>  <SCORE.INTRA>
0.465293

>  <SCORE.INTRA.DIHEDRAL>
5.74916

>  <SCORE.INTRA.DIHEDRAL.0>
7.52971

>  <SCORE.INTRA.POLAR>
0

>  <SCORE.INTRA.POLAR.0>
0

>  <SCORE.INTRA.REPUL>
0

>  <SCORE.INTRA.REPUL.0>
0

>  <SCORE.INTRA.SOLV>
0.0820191

>  <SCORE.INTRA.SOLV.lig_0>
-22.1084

>  <SCORE.INTRA.VDW>
-2.4503

>  <SCORE.INTRA.VDW.0>
2.4256

>  <SCORE.INTRA.norm>
0.0193872

>  <SCORE.RESTR>
0

>  <SCORE.RESTR.CAVITY>
0

>  <SCORE.RESTR.norm>
0

>  <SCORE.SYSTEM>
0

>  <SCORE.SYSTEM.CONST>
0

>  <SCORE.SYSTEM.DIHEDRAL>
0

>  <SCORE.SYSTEM.SOLV>
0

>  <SCORE.SYSTEM.norm>
0

>  <SCORE.heavy>
24

>  <SCORE.norm>
-1.10067

>  <RMSD>
6.899

$$$$
lig.pdb
 OpenBabel11021811453D
libRbt.so/2013.1/901 2013/11/27
 24 24  0  0  0  0  0  0  0  0999 V2000
   12.1128   -1.8933   -2.0041 C   0  0  0  0  0  0  0  0  0  0  0  0
   11.6740   -2.4672   -0.7635 C   0  0  0  0  0  0  0  0  0  0  0  0
   10.4519   -3.0858   -0.6448 C   0  0  0  0  0  0  0  0  0  0  0  0
    9.5549   -3.1999   -1.7546 C   0  0  0  0  0  0  0  0  0  0  0  0
    9.9802   -2.5968   -2.9839 C   0  0  0  0  0  0  0  0  0  0  0  0
   11.1965   -1.9719   -3.1015 C   0  0  0  0  0  0  0  0  0  0  0  0
   13.3375   -1.3050   -2.1413 C   0  0  0  0  0  0  0  0  0  0  0  0
   13.7231   -0.6745   -3.2713 N   0  0  0  0  0  0  0  0  0  0  0  0
    7.9639   -4.5215   -0.5587 N   0  0  0  0  0  0  0  0  0  0  0  0
    8.3564   -3.8431   -1.6577 C   0  0  0  0  0  0  0  0  0  0  0  0
   14.2601   -1.3064   -1.1473 N   0  0  0  0  0  0  0  0  0  0  0  0
    7.4525   -3.8561   -2.6661 N   0  0  0  0  0  0  0  0  0  0  0  0
   15.2012   -0.2348   -0.8276 C   0  0  0  0  0  0  0  0  0  0  0  0
    6.0206   -4.1076   -2.5360 C   0  0  0  0  0  0  0  0  0  0  0  0
   16.6071   -0.8494   -0.7348 C   0  0  0  0  0  0  0  0  0  0  0  0
    5.4039   -2.9354   -1.7502 C   0  0  0  0  0  0  0  0  0  0  0  0
   17.6528    0.2213   -0.3939 C   0  0  0  0  0  0  0  0  0  0  0  0
    3.9537   -3.2110   -1.3134 C   0  0  0  0  0  0  0  0  0  0  0  0
   19.0034   -0.4312   -0.2457 N   0  0  0  0  0  0  0  0  0  0  0  0
    3.4017   -2.0805   -0.4823 N   0  0  0  0  0  0  0  0  0  0  0  0
   19.1930   -0.9025    1.1705 C   0  0  0  0  0  0  0  0  0  0  0  0
    2.1971   -2.5756    0.2723 C   0  0  0  0  0  0  0  0  0  0  0  0
   20.1078    0.5293   -0.6113 C   0  0  0  0  0  0  0  0  0  0  0  0
    3.0000   -0.9009   -1.3232 C   0  0  0  0  0  0  0  0  0  0  0  0
  1  6  2  0  0  0  0
  2  3  2  0  0  0  0
  2  1  1  0  0  0  0
  3  4  1  0  0  0  0
  4 10  1  0  0  0  0
  4  5  2  0  0  0  0
  6  5  1  0  0  0  0
  7  1  1  0  0  0  0
  7 11  1  0  0  0  0
  8  7  2  0  0  0  0
  9 10  2  0  0  0  0
 10 12  1  0  0  0  0
 12 14  1  0  0  0  0
 13 11  1  0  0  0  0
 13 15  1  0  0  0  0
 14 16  1  0  0  0  0
 16 18  1  0  0  0  0
 17 15  1  0  0  0  0
 17 19  1  0  0  0  0
 18 20  1  0  0  0  0
 19 23  1  0  0  0  0
 20 22  1  0  0  0  0
 20 24  1  0  0  0  0
 21 19  1  0  0  0  0
M  END
>  <CHROM.1>
-5.96148730,-174.92914656,66.92014719,-129.22853988,-179.74735064,-168.97562815
176.86192571,177.24500451,-87.65681181,-161.84148251,10.91784226,-1.98582149
-1.28247826,-0.13653221,-0.13595023,-2.10471529

>  <Name>
lig.pdb

>  <RI>
1.39428e+07

>  <Rbt.Current_Directory>
/home/itssahil/PROJECTS/Mol_Feturizer/New_Systems/rnas/2l94

>  <Rbt.Executable>
rbdock ($Id: //depot/dev/client3/rdock/2013.1/src/exe/rbdock.cxx#4 $)

>  <Rbt.Library>
libRbt.so (2013.1, Build901 2013/11/27)

>  <Rbt.Parameter_File>
/export/apps/rDock/src/rDock_2013.1_src/data/scripts/dock_solv.prm

>  <Rbt.Receptor>
prm/pocket_docking_8.prm

>  <SCORE>
-28.548

>  <SCORE.INTER>
-26.3446

>  <SCORE.INTER.CONST>
1

>  <SCORE.INTER.POLAR>
-4.34567

>  <SCORE.INTER.ROT>
10

>  <SCORE.INTER.SOLV>
14.298

>  <SCORE.INTER.VDW>
-18.1102

>  <SCORE.INTER.norm>
-1.09769

>  <SCORE.INTRA>
-2.20343

>  <SCORE.INTRA.DIHEDRAL>
0.406125

>  <SCORE.INTRA.DIHEDRAL.0>
7.52971

>  <SCORE.INTRA.POLAR>
0

>  <SCORE.INTRA.POLAR.0>
0

>  <SCORE.INTRA.REPUL>
0

>  <SCORE.INTRA.REPUL.0>
0

>  <SCORE.INTRA.SOLV>
-0.0146577

>  <SCORE.INTRA.SOLV.lig_0>
-22.1084

>  <SCORE.INTRA.VDW>
-2.39916

>  <SCORE.INTRA.VDW.0>
2.4256

>  <SCORE.INTRA.norm>
-0.0918094

>  <SCORE.RESTR>
0

>  <SCORE.RESTR.CAVITY>
0

>  <SCORE.RESTR.norm>
0

>  <SCORE.SYSTEM>
0

>  <SCORE.SYSTEM.CONST>
0

>  <SCORE.SYSTEM.DIHEDRAL>
0

>  <SCORE.SYSTEM.SOLV>
0

>  <SCORE.SYSTEM.norm>
0

>  <SCORE.heavy>
24

>  <SCORE.norm>
-1.1895

>  <RMSD>
6.907

$$$$
lig.pdb
 OpenBabel11021811453D
libRbt.so/2013.1/901 2013/11/27
 24 24  0  0  0  0  0  0  0  0999 V2000
    9.9577   -3.2150   -1.9478 C   0  0  0  0  0  0  0  0  0  0  0  0
   10.8387   -3.0419   -0.8275 C   0  0  0  0  0  0  0  0  0  0  0  0
   12.0445   -2.3927   -0.9488 C   0  0  0  0  0  0  0  0  0  0  0  0
   12.4824   -1.8452   -2.1969 C   0  0  0  0  0  0  0  0  0  0  0  0
   11.6171   -2.0482   -3.3220 C   0  0  0  0  0  0  0  0  0  0  0  0
   10.4168   -2.7033   -3.2038 C   0  0  0  0  0  0  0  0  0  0  0  0
    8.7440   -3.8300   -1.8314 C   0  0  0  0  0  0  0  0  0  0  0  0
    8.4634   -4.7132   -0.8494 N   0  0  0  0  0  0  0  0  0  0  0  0
   13.9583   -0.3847   -3.3789 N   0  0  0  0  0  0  0  0  0  0  0  0
   13.6594   -1.1677   -2.3208 C   0  0  0  0  0  0  0  0  0  0  0  0
    7.7246   -3.5956   -2.6945 N   0  0  0  0  0  0  0  0  0  0  0  0
   14.6360   -1.2262   -1.3844 N   0  0  0  0  0  0  0  0  0  0  0  0
    6.2998   -3.5506   -2.3716 C   0  0  0  0  0  0  0  0  0  0  0  0
   15.6986   -0.2454   -1.1860 C   0  0  0  0  0  0  0  0  0  0  0  0
    6.0147   -2.2150   -1.6660 C   0  0  0  0  0  0  0  0  0  0  0  0
   15.9981   -0.1710    0.3228 C   0  0  0  0  0  0  0  0  0  0  0  0
    6.7544   -2.1347   -0.3235 C   0  0  0  0  0  0  0  0  0  0  0  0
   15.1285    0.8704    1.0502 C   0  0  0  0  0  0  0  0  0  0  0  0
    6.5573   -0.7642    0.2722 N   0  0  0  0  0  0  0  0  0  0  0  0
   14.2941    0.2351    2.1336 N   0  0  0  0  0  0  0  0  0  0  0  0
    7.6178   -0.4964    1.3053 C   0  0  0  0  0  0  0  0  0  0  0  0
   13.2658    1.2299    2.6011 C   0  0  0  0  0  0  0  0  0  0  0  0
    5.1930   -0.6438    0.9048 C   0  0  0  0  0  0  0  0  0  0  0  0
   15.1243   -0.1979    3.3097 C   0  0  0  0  0  0  0  0  0  0  0  0
  1  6  2  0  0  0  0
  2  3  2  0  0  0  0
  2  1  1  0  0  0  0
  3  4  1  0  0  0  0
  4 10  1  0  0  0  0
  4  5  2  0  0  0  0
  6  5  1  0  0  0  0
  7  1  1  0  0  0  0
  7 11  1  0  0  0  0
  8  7  2  0  0  0  0
  9 10  2  0  0  0  0
 10 12  1  0  0  0  0
 12 14  1  0  0  0  0
 13 11  1  0  0  0  0
 13 15  1  0  0  0  0
 14 16  1  0  0  0  0
 16 18  1  0  0  0  0
 17 15  1  0  0  0  0
 17 19  1  0  0  0  0
 18 20  1  0  0  0  0
 19 23  1  0  0  0  0
 20 22  1  0  0  0  0
 20 24  1  0  0  0  0
 21 19  1  0  0  0  0
M  END
>  <CHROM.1>
-164.17877861,-24.02222975,145.64321581,75.79604592,-64.27992533,-89.28506515
120.41165640,174.59050322,-160.60326310,-168.04048836,10.92061934,-1.55216128
-0.70904341,-2.84901930,0.17518957,1.05173514

>  <Name>
lig.pdb

>  <RI>
1.71133e+07

>  <Rbt.Current_Directory>
/home/itssahil/PROJECTS/Mol_Feturizer/New_Systems/rnas/2l94

>  <Rbt.Executable>
rbdock ($Id: //depot/dev/client3/rdock/2013.1/src/exe/rbdock.cxx#4 $)

>  <Rbt.Library>
libRbt.so (2013.1, Build901 2013/11/27)

>  <Rbt.Parameter_File>
/export/apps/rDock/src/rDock_2013.1_src/data/scripts/dock_solv.prm

>  <Rbt.Receptor>
prm/pocket_docking_5.prm

>  <SCORE>
-17.6551

>  <SCORE.INTER>
-19.9022

>  <SCORE.INTER.CONST>
1

>  <SCORE.INTER.POLAR>
-3.13871

>  <SCORE.INTER.ROT>
10

>  <SCORE.INTER.SOLV>
13.304

>  <SCORE.INTER.VDW>
-17.5071

>  <SCORE.INTER.norm>
-0.829258

>  <SCORE.INTRA>
2.24712

>  <SCORE.INTRA.DIHEDRAL>
9.80827

>  <SCORE.INTRA.DIHEDRAL.0>
7.52971

>  <SCORE.INTRA.POLAR>
0

>  <SCORE.INTRA.POLAR.0>
0

>  <SCORE.INTRA.REPUL>
0

>  <SCORE.INTRA.REPUL.0>
0

>  <SCORE.INTRA.SOLV>
0.763827

>  <SCORE.INTRA.SOLV.lig_0>
-22.1084

>  <SCORE.INTRA.VDW>
-3.03893

>  <SCORE.INTRA.VDW.0>
2.4256

>  <SCORE.INTRA.norm>
0.09363

>  <SCORE.RESTR>
0

>  <SCORE.RESTR.CAVITY>
0

>  <SCORE.RESTR.norm>
0

>  <SCORE.SYSTEM>
0

>  <SCORE.SYSTEM.CONST>
0

>  <SCORE.SYSTEM.DIHEDRAL>
0

>  <SCORE.SYSTEM.SOLV>
0

>  <SCORE.SYSTEM.norm>
0

>  <SCORE.heavy>
24

>  <SCORE.norm>
-0.735628

>  <RMSD>
6.922

$$$$
lig.pdb
 OpenBabel11021811453D
libRbt.so/2013.1/901 2013/11/27
 24 24  0  0  0  0  0  0  0  0999 V2000
   12.4705   -1.8246   -2.0654 C   0  0  0  0  0  0  0  0  0  0  0  0
   11.6324   -2.0109   -3.2160 C   0  0  0  0  0  0  0  0  0  0  0  0
   10.4240   -2.6613   -3.1332 C   0  0  0  0  0  0  0  0  0  0  0  0
    9.9313   -3.1793   -1.8930 C   0  0  0  0  0  0  0  0  0  0  0  0
   10.7845   -3.0222   -0.7514 C   0  0  0  0  0  0  0  0  0  0  0  0
   11.9948   -2.3802   -0.8345 C   0  0  0  0  0  0  0  0  0  0  0  0
   13.6573   -1.1524   -2.1304 C   0  0  0  0  0  0  0  0  0  0  0  0
   14.0220   -0.4148   -3.2009 N   0  0  0  0  0  0  0  0  0  0  0  0
    8.3946   -4.6400   -0.7915 N   0  0  0  0  0  0  0  0  0  0  0  0
    8.7181   -3.7939   -1.7923 C   0  0  0  0  0  0  0  0  0  0  0  0
   14.5603   -1.1721   -1.1188 N   0  0  0  0  0  0  0  0  0  0  0  0
    7.7285   -3.6058   -2.6974 N   0  0  0  0  0  0  0  0  0  0  0  0
   15.4252   -0.0714   -0.6984 C   0  0  0  0  0  0  0  0  0  0  0  0
    6.3039   -3.8336   -2.4756 C   0  0  0  0  0  0  0  0  0  0  0  0
   16.0063   -0.4240    0.6804 C   0  0  0  0  0  0  0  0  0  0  0  0
    5.8209   -2.8188   -1.4226 C   0  0  0  0  0  0  0  0  0  0  0  0
   14.9056   -0.4486    1.7499 C   0  0  0  0  0  0  0  0  0  0  0  0
    5.4993   -1.4411   -2.0294 C   0  0  0  0  0  0  0  0  0  0  0  0
   14.3289    0.9355    1.9028 N   0  0  0  0  0  0  0  0  0  0  0  0
    4.1732   -1.4482   -2.7469 N   0  0  0  0  0  0  0  0  0  0  0  0
   14.4317    1.3788    3.3368 C   0  0  0  0  0  0  0  0  0  0  0  0
    4.4087   -1.7624   -4.1999 C   0  0  0  0  0  0  0  0  0  0  0  0
   12.8853    0.9680    1.4655 C   0  0  0  0  0  0  0  0  0  0  0  0
    3.4634   -0.1271   -2.6420 C   0  0  0  0  0  0  0  0  0  0  0  0
  1  6  2  0  0  0  0
  2  3  2  0  0  0  0
  2  1  1  0  0  0  0
  3  4  1  0  0  0  0
  4 10  1  0  0  0  0
  4  5  2  0  0  0  0
  6  5  1  0  0  0  0
  7  1  1  0  0  0  0
  7 11  1  0  0  0  0
  8  7  2  0  0  0  0
  9 10  2  0  0  0  0
 10 12  1  0  0  0  0
 12 14  1  0  0  0  0
 13 11  1  0  0  0  0
 13 15  1  0  0  0  0
 14 16  1  0  0  0  0
 16 18  1  0  0  0  0
 17 15  1  0  0  0  0
 17 19  1  0  0  0  0
 18 20  1  0  0  0  0
 19 23  1  0  0  0  0
 20 22  1  0  0  0  0
 20 24  1  0  0  0  0
 21 19  1  0  0  0  0
M  END
>  <CHROM.1>
158.71950860,12.09654417,65.59318521,165.86584147,-67.03639632,82.52688434
76.92386264,-64.29124018,-124.12246420,-92.76939130,10.45903308,-1.57994764
-1.25416092,-0.39331408,0.03929404,-2.28688740

>  <Name>
lig.pdb

>  <RI>
1.71133e+07

>  <Rbt.Current_Directory>
/home/itssahil/PROJECTS/Mol_Feturizer/New_Systems/rnas/2l94

>  <Rbt.Executable>
rbdock ($Id: //depot/dev/client3/rdock/2013.1/src/exe/rbdock.cxx#4 $)

>  <Rbt.Library>
libRbt.so (2013.1, Build901 2013/11/27)

>  <Rbt.Parameter_File>
/export/apps/rDock/src/rDock_2013.1_src/data/scripts/dock_solv.prm

>  <Rbt.Receptor>
prm/pocket_docking_5.prm

>  <SCORE>
-20.6407

>  <SCORE.INTER>
-22.6402

>  <SCORE.INTER.CONST>
1

>  <SCORE.INTER.POLAR>
-3.43458

>  <SCORE.INTER.ROT>
10

>  <SCORE.INTER.SOLV>
12.8728

>  <SCORE.INTER.VDW>
-18.2025

>  <SCORE.INTER.norm>
-0.943344

>  <SCORE.INTRA>
1.99954

>  <SCORE.INTRA.DIHEDRAL>
8.11792

>  <SCORE.INTRA.DIHEDRAL.0>
7.52971

>  <SCORE.INTRA.POLAR>
0

>  <SCORE.INTRA.POLAR.0>
0

>  <SCORE.INTRA.REPUL>
0

>  <SCORE.INTRA.REPUL.0>
0

>  <SCORE.INTRA.SOLV>
0.873827

>  <SCORE.INTRA.SOLV.lig_0>
-22.1084

>  <SCORE.INTRA.VDW>
-2.49634

>  <SCORE.INTRA.VDW.0>
2.4256

>  <SCORE.INTRA.norm>
0.083314

>  <SCORE.RESTR>
0

>  <SCORE.RESTR.CAVITY>
0

>  <SCORE.RESTR.norm>
0

>  <SCORE.SYSTEM>
0

>  <SCORE.SYSTEM.CONST>
0

>  <SCORE.SYSTEM.DIHEDRAL>
0

>  <SCORE.SYSTEM.SOLV>
0

>  <SCORE.SYSTEM.norm>
0

>  <SCORE.heavy>
24

>  <SCORE.norm>
-0.86003

>  <RMSD>
6.924

$$$$
lig.pdb
 OpenBabel11021811453D
libRbt.so/2013.1/901 2013/11/27
 24 24  0  0  0  0  0  0  0  0999 V2000
    5.3529    4.2686   -0.9270 C   0  0  0  0  0  0  0  0  0  0  0  0
    5.8791    4.0842    0.3959 C   0  0  0  0  0  0  0  0  0  0  0  0
    5.3484    3.1589    1.2632 C   0  0  0  0  0  0  0  0  0  0  0  0
    4.2483    2.3220    0.8904 C   0  0  0  0  0  0  0  0  0  0  0  0
    3.7023    2.5306   -0.4188 C   0  0  0  0  0  0  0  0  0  0  0  0
    4.2262    3.4597   -1.2826 C   0  0  0  0  0  0  0  0  0  0  0  0
    5.8927    5.1621   -1.8073 C   0  0  0  0  0  0  0  0  0  0  0  0
    6.6098    6.2357   -1.4117 N   0  0  0  0  0  0  0  0  0  0  0  0
    2.5207    0.8154    1.5640 N   0  0  0  0  0  0  0  0  0  0  0  0
    3.7375    1.3760    1.7293 C   0  0  0  0  0  0  0  0  0  0  0  0
    5.7519    5.0353   -3.1501 N   0  0  0  0  0  0  0  0  0  0  0  0
    4.4142    0.9174    2.8090 N   0  0  0  0  0  0  0  0  0  0  0  0
    6.7419    5.3802   -4.1686 C   0  0  0  0  0  0  0  0  0  0  0  0
    4.1865   -0.3520    3.4926 C   0  0  0  0  0  0  0  0  0  0  0  0
    7.2384    4.0743   -4.8097 C   0  0  0  0  0  0  0  0  0  0  0  0
    5.4477   -1.2179    3.3149 C   0  0  0  0  0  0  0  0  0  0  0  0
    7.9953    3.2145   -3.7880 C   0  0  0  0  0  0  0  0  0  0  0  0
    5.6178   -1.7304    1.8733 C   0  0  0  0  0  0  0  0  0  0  0  0
    8.4797    1.9548   -4.4591 N   0  0  0  0  0  0  0  0  0  0  0  0
    6.8815   -2.5383    1.7186 N   0  0  0  0  0  0  0  0  0  0  0  0
    8.8216    0.9198   -3.4221 C   0  0  0  0  0  0  0  0  0  0  0  0
    7.9621   -1.6485    1.1653 C   0  0  0  0  0  0  0  0  0  0  0  0
    9.6907    2.2328   -5.3148 C   0  0  0  0  0  0  0  0  0  0  0  0
    6.6964   -3.7119    0.7975 C   0  0  0  0  0  0  0  0  0  0  0  0
  1  6  2  0  0  0  0
  2  3  2  0  0  0  0
  2  1  1  0  0  0  0
  3  4  1  0  0  0  0
  4 10  1  0  0  0  0
  4  5  2  0  0  0  0
  6  5  1  0  0  0  0
  7  1  1  0  0  0  0
  7 11  1  0  0  0  0
  8  7  2  0  0  0  0
  9 10  2  0  0  0  0
 10 12  1  0  0  0  0
 12 14  1  0  0  0  0
 13 11  1  0  0  0  0
 13 15  1  0  0  0  0
 14 16  1  0  0  0  0
 16 18  1  0  0  0  0
 17 15  1  0  0  0  0
 17 19  1  0  0  0  0
 18 20  1  0  0  0  0
 19 23  1  0  0  0  0
 20 22  1  0  0  0  0
 20 24  1  0  0  0  0
 21 19  1  0  0  0  0
M  END
>  <CHROM.1>
162.55738379,-23.74275593,115.13499631,111.07798663,-65.20373700,-71.07625760
178.22237775,-179.27016263,-161.93935495,-97.06376740,6.03185924,1.84730228
-0.60726859,1.18572947,0.80794074,-0.57528978

>  <Name>
lig.pdb

>  <RI>
1.39428e+07

>  <Rbt.Current_Directory>
/home/itssahil/PROJECTS/Mol_Feturizer/New_Systems/rnas/2l94

>  <Rbt.Executable>
rbdock ($Id: //depot/dev/client3/rdock/2013.1/src/exe/rbdock.cxx#4 $)

>  <Rbt.Library>
libRbt.so (2013.1, Build901 2013/11/27)

>  <Rbt.Parameter_File>
/export/apps/rDock/src/rDock_2013.1_src/data/scripts/dock_solv.prm

>  <Rbt.Receptor>
prm/pocket_docking_8.prm

>  <SCORE>
-24.0828

>  <SCORE.INTER>
-23.0955

>  <SCORE.INTER.CONST>
1

>  <SCORE.INTER.POLAR>
-3.90783

>  <SCORE.INTER.ROT>
10

>  <SCORE.INTER.SOLV>
10.0622

>  <SCORE.INTER.VDW>
-15.9917

>  <SCORE.INTER.norm>
-0.962314

>  <SCORE.INTRA>
-0.987256

>  <SCORE.INTRA.DIHEDRAL>
4.25807

>  <SCORE.INTRA.DIHEDRAL.0>
7.52971

>  <SCORE.INTRA.POLAR>
0

>  <SCORE.INTRA.POLAR.0>
0

>  <SCORE.INTRA.REPUL>
0

>  <SCORE.INTRA.REPUL.0>
0

>  <SCORE.INTRA.SOLV>
0.443021

>  <SCORE.INTRA.SOLV.lig_0>
-22.1084

>  <SCORE.INTRA.VDW>
-3.3378

>  <SCORE.INTRA.VDW.0>
2.4256

>  <SCORE.INTRA.norm>
-0.0411357

>  <SCORE.RESTR>
0

>  <SCORE.RESTR.CAVITY>
0

>  <SCORE.RESTR.norm>
0

>  <SCORE.SYSTEM>
0

>  <SCORE.SYSTEM.CONST>
0

>  <SCORE.SYSTEM.DIHEDRAL>
0

>  <SCORE.SYSTEM.SOLV>
0

>  <SCORE.SYSTEM.norm>
0

>  <SCORE.heavy>
24

>  <SCORE.norm>
-1.00345

>  <RMSD>
6.929

$$$$
lig.pdb
 OpenBabel11021811453D
libRbt.so/2013.1/901 2013/11/27
 24 24  0  0  0  0  0  0  0  0999 V2000
    8.8521   -1.8480    0.6718 C   0  0  0  0  0  0  0  0  0  0  0  0
    9.6586   -0.6617    0.7276 C   0  0  0  0  0  0  0  0  0  0  0  0
   10.8552   -0.5681    0.0571 C   0  0  0  0  0  0  0  0  0  0  0  0
   11.3570   -1.6452   -0.7412 C   0  0  0  0  0  0  0  0  0  0  0  0
   10.5670   -2.8415   -0.7688 C   0  0  0  0  0  0  0  0  0  0  0  0
    9.3762   -2.9389   -0.0933 C   0  0  0  0  0  0  0  0  0  0  0  0
    7.6472   -1.9399    1.3078 C   0  0  0  0  0  0  0  0  0  0  0  0
    6.9299   -0.8564    1.6747 N   0  0  0  0  0  0  0  0  0  0  0  0
   12.5991   -1.6702   -2.7820 N   0  0  0  0  0  0  0  0  0  0  0  0
   12.5244   -1.5502   -1.4396 C   0  0  0  0  0  0  0  0  0  0  0  0
    7.0768   -3.1310    1.6161 N   0  0  0  0  0  0  0  0  0  0  0  0
   13.7172   -1.3270   -0.8384 N   0  0  0  0  0  0  0  0  0  0  0  0
    5.6495   -3.4457    1.6012 C   0  0  0  0  0  0  0  0  0  0  0  0
   14.9125   -0.7801   -1.4731 C   0  0  0  0  0  0  0  0  0  0  0  0
    5.3523   -4.2429    0.3210 C   0  0  0  0  0  0  0  0  0  0  0  0
   15.9933   -0.6200   -0.3878 C   0  0  0  0  0  0  0  0  0  0  0  0
    3.8964   -4.7287    0.3025 C   0  0  0  0  0  0  0  0  0  0  0  0
   17.3533   -0.1858   -0.9636 C   0  0  0  0  0  0  0  0  0  0  0  0
    3.5995   -5.3611   -1.0331 N   0  0  0  0  0  0  0  0  0  0  0  0
   18.3839   -0.0108    0.1230 N   0  0  0  0  0  0  0  0  0  0  0  0
    3.0582   -4.3266   -1.9819 C   0  0  0  0  0  0  0  0  0  0  0  0
   19.5913    0.6745   -0.4584 C   0  0  0  0  0  0  0  0  0  0  0  0
    2.6027   -6.4841   -0.8867 C   0  0  0  0  0  0  0  0  0  0  0  0
   18.8082   -1.3235    0.7203 C   0  0  0  0  0  0  0  0  0  0  0  0
  1  6  2  0  0  0  0
  2  3  2  0  0  0  0
  2  1  1  0  0  0  0
  3  4  1  0  0  0  0
  4 10  1  0  0  0  0
  4  5  2  0  0  0  0
  6  5  1  0  0  0  0
  7  1  1  0  0  0  0
  7 11  1  0  0  0  0
  8  7  2  0  0  0  0
  9 10  2  0  0  0  0
 10 12  1  0  0  0  0
 12 14  1  0  0  0  0
 13 11  1  0  0  0  0
 13 15  1  0  0  0  0
 14 16  1  0  0  0  0
 16 18  1  0  0  0  0
 17 15  1  0  0  0  0
 17 19  1  0  0  0  0
 18 20  1  0  0  0  0
 19 23  1  0  0  0  0
 20 22  1  0  0  0  0
 20 24  1  0  0  0  0
 21 19  1  0  0  0  0
M  END
>  <CHROM.1>
-119.46311123,21.04624883,176.41542430,102.33485722,174.44079247,174.05961088
178.88318882,173.36631808,-91.19916628,-168.63096273,10.44784632,-2.17501035
-0.20775745,3.01287369,-0.27275667,-2.12039629

>  <Name>
lig.pdb

>  <RI>
1.39428e+07

>  <Rbt.Current_Directory>
/home/itssahil/PROJECTS/Mol_Feturizer/New_Systems/rnas/2l94

>  <Rbt.Executable>
rbdock ($Id: //depot/dev/client3/rdock/2013.1/src/exe/rbdock.cxx#4 $)

>  <Rbt.Library>
libRbt.so (2013.1, Build901 2013/11/27)

>  <Rbt.Parameter_File>
/export/apps/rDock/src/rDock_2013.1_src/data/scripts/dock_solv.prm

>  <Rbt.Receptor>
prm/pocket_docking_8.prm

>  <SCORE>
-16.5293

>  <SCORE.INTER>
-19.2728

>  <SCORE.INTER.CONST>
1

>  <SCORE.INTER.POLAR>
-2.16808

>  <SCORE.INTER.ROT>
10

>  <SCORE.INTER.SOLV>
12.7713

>  <SCORE.INTER.VDW>
-20.1453

>  <SCORE.INTER.norm>
-0.803032

>  <SCORE.INTRA>
2.74349

>  <SCORE.INTRA.DIHEDRAL>
11.3605

>  <SCORE.INTRA.DIHEDRAL.0>
7.52971

>  <SCORE.INTRA.POLAR>
0

>  <SCORE.INTRA.POLAR.0>
0

>  <SCORE.INTRA.REPUL>
0

>  <SCORE.INTRA.REPUL.0>
0

>  <SCORE.INTRA.SOLV>
-0.443326

>  <SCORE.INTRA.SOLV.lig_0>
-22.1084

>  <SCORE.INTRA.VDW>
-2.71509

>  <SCORE.INTRA.VDW.0>
2.4256

>  <SCORE.INTRA.norm>
0.114312

>  <SCORE.RESTR>
0

>  <SCORE.RESTR.CAVITY>
0

>  <SCORE.RESTR.norm>
0

>  <SCORE.SYSTEM>
0

>  <SCORE.SYSTEM.CONST>
0

>  <SCORE.SYSTEM.DIHEDRAL>
0

>  <SCORE.SYSTEM.SOLV>
0

>  <SCORE.SYSTEM.norm>
0

>  <SCORE.heavy>
24

>  <SCORE.norm>
-0.68872

>  <RMSD>
6.951

$$$$
lig.pdb
 OpenBabel11021811453D
libRbt.so/2013.1/901 2013/11/27
 24 24  0  0  0  0  0  0  0  0999 V2000
    3.1383   -4.9587   -1.3880 C   0  0  0  0  0  0  0  0  0  0  0  0
    1.7589   -4.7365   -1.0581 C   0  0  0  0  0  0  0  0  0  0  0  0
    1.3178   -4.7334    0.2441 C   0  0  0  0  0  0  0  0  0  0  0  0
    2.2122   -4.9418    1.3423 C   0  0  0  0  0  0  0  0  0  0  0  0
    3.5833   -5.1971    1.0096 C   0  0  0  0  0  0  0  0  0  0  0  0
    4.0233   -5.2084   -0.2904 C   0  0  0  0  0  0  0  0  0  0  0  0
    3.5924   -4.9321   -2.6756 C   0  0  0  0  0  0  0  0  0  0  0  0
    2.8263   -4.5313   -3.7126 N   0  0  0  0  0  0  0  0  0  0  0  0
    2.6280   -5.0086    3.6941 N   0  0  0  0  0  0  0  0  0  0  0  0
    1.7922   -4.9047    2.6392 C   0  0  0  0  0  0  0  0  0  0  0  0
    4.8530   -5.3040   -3.0097 N   0  0  0  0  0  0  0  0  0  0  0  0
    0.4894   -4.7609    2.9796 N   0  0  0  0  0  0  0  0  0  0  0  0
    5.6898   -4.7147   -4.0531 C   0  0  0  0  0  0  0  0  0  0  0  0
   -0.0179   -4.2755    4.2592 C   0  0  0  0  0  0  0  0  0  0  0  0
    6.1520   -3.3317   -3.5666 C   0  0  0  0  0  0  0  0  0  0  0  0
   -0.4725   -5.4957    5.0815 C   0  0  0  0  0  0  0  0  0  0  0  0
    7.5190   -3.4220   -2.8743 C   0  0  0  0  0  0  0  0  0  0  0  0
   -1.0016   -5.1093    6.4746 C   0  0  0  0  0  0  0  0  0  0  0  0
    7.3861   -4.2389   -1.6146 N   0  0  0  0  0  0  0  0  0  0  0  0
   -2.2560   -4.2781    6.3792 N   0  0  0  0  0  0  0  0  0  0  0  0
    6.6712   -3.4409   -0.5584 C   0  0  0  0  0  0  0  0  0  0  0  0
   -2.5099   -3.6271    7.7123 C   0  0  0  0  0  0  0  0  0  0  0  0
    8.7408   -4.6592   -1.1007 C   0  0  0  0  0  0  0  0  0  0  0  0
   -3.4558   -5.1016    6.0017 C   0  0  0  0  0  0  0  0  0  0  0  0
  1  6  2  0  0  0  0
  2  3  2  0  0  0  0
  2  1  1  0  0  0  0
  3  4  1  0  0  0  0
  4 10  1  0  0  0  0
  4  5  2  0  0  0  0
  6  5  1  0  0  0  0
  7  1  1  0  0  0  0
  7 11  1  0  0  0  0
  8  7  2  0  0  0  0
  9 10  2  0  0  0  0
 10 12  1  0  0  0  0
 12 14  1  0  0  0  0
 13 11  1  0  0  0  0
 13 15  1  0  0  0  0
 14 16  1  0  0  0  0
 16 18  1  0  0  0  0
 17 15  1  0  0  0  0
 17 19  1  0  0  0  0
 18 20  1  0  0  0  0
 19 23  1  0  0  0  0
 20 22  1  0  0  0  0
 20 24  1  0  0  0  0
 21 19  1  0  0  0  0
M  END
>  <CHROM.1>
-175.41157517,8.65374707,-101.47561092,72.46427355,93.46674080,178.70397329
64.71989408,-65.34178801,-73.60675978,-164.78662458,2.68825198,-4.60938371
0.96094988,0.83423324,-0.09830096,-1.62175767

>  <Name>
lig.pdb

>  <RI>
2.41306e+07

>  <Rbt.Current_Directory>
/home/itssahil/PROJECTS/Mol_Feturizer/New_Systems/rnas/2l94

>  <Rbt.Executable>
rbdock ($Id: //depot/dev/client3/rdock/2013.1/src/exe/rbdock.cxx#4 $)

>  <Rbt.Library>
libRbt.so (2013.1, Build901 2013/11/27)

>  <Rbt.Parameter_File>
/export/apps/rDock/src/rDock_2013.1_src/data/scripts/dock_solv.prm

>  <Rbt.Receptor>
prm/blind_docking_40.prm

>  <SCORE>
-11.3

>  <SCORE.INTER>
-10.7174

>  <SCORE.INTER.CONST>
1

>  <SCORE.INTER.POLAR>
-2.53361

>  <SCORE.INTER.ROT>
10

>  <SCORE.INTER.SOLV>
18.3568

>  <SCORE.INTER.VDW>
-15.0851

>  <SCORE.INTER.norm>
-0.446558

>  <SCORE.INTRA>
-0.804561

>  <SCORE.INTRA.DIHEDRAL>
2.10077

>  <SCORE.INTRA.DIHEDRAL.0>
7.52971

>  <SCORE.INTRA.POLAR>
0

>  <SCORE.INTRA.POLAR.0>
0

>  <SCORE.INTRA.REPUL>
0

>  <SCORE.INTRA.REPUL.0>
0

>  <SCORE.INTRA.SOLV>
1.15921

>  <SCORE.INTRA.SOLV.lig_0>
-22.1084

>  <SCORE.INTRA.VDW>
-2.43455

>  <SCORE.INTRA.VDW.0>
2.4256

>  <SCORE.INTRA.norm>
-0.0335234

>  <SCORE.RESTR>
0.221962

>  <SCORE.RESTR.CAVITY>
0.221962

>  <SCORE.RESTR.norm>
0.00924841

>  <SCORE.SYSTEM>
0

>  <SCORE.SYSTEM.CONST>
0

>  <SCORE.SYSTEM.DIHEDRAL>
0

>  <SCORE.SYSTEM.SOLV>
0

>  <SCORE.SYSTEM.norm>
0

>  <SCORE.heavy>
24

>  <SCORE.norm>
-0.470833

>  <RMSD>
6.969

$$$$
lig.pdb
 OpenBabel11021811453D
libRbt.so/2013.1/901 2013/11/27
 24 24  0  0  0  0  0  0  0  0999 V2000
    3.2463   -5.2050   -2.1768 C   0  0  0  0  0  0  0  0  0  0  0  0
    1.8359   -5.3875   -2.3727 C   0  0  0  0  0  0  0  0  0  0  0  0
    1.0127   -5.8092   -1.3556 C   0  0  0  0  0  0  0  0  0  0  0  0
    1.5160   -6.0797   -0.0429 C   0  0  0  0  0  0  0  0  0  0  0  0
    2.9298   -5.9294    0.1423 C   0  0  0  0  0  0  0  0  0  0  0  0
    3.7538   -5.5162   -0.8746 C   0  0  0  0  0  0  0  0  0  0  0  0
    4.0675   -4.7560   -3.1712 C   0  0  0  0  0  0  0  0  0  0  0  0
    3.6159   -4.0463   -4.2274 N   0  0  0  0  0  0  0  0  0  0  0  0
   -0.5339   -6.9717    0.8001 N   0  0  0  0  0  0  0  0  0  0  0  0
    0.7032   -6.4633    0.9827 C   0  0  0  0  0  0  0  0  0  0  0  0
    5.4038   -4.9869   -3.1703 N   0  0  0  0  0  0  0  0  0  0  0  0
    1.0725   -6.3636    2.2817 N   0  0  0  0  0  0  0  0  0  0  0  0
    6.4468   -4.0821   -3.6494 C   0  0  0  0  0  0  0  0  0  0  0  0
    0.5104   -7.1188    3.3972 C   0  0  0  0  0  0  0  0  0  0  0  0
    7.0763   -3.3937   -2.4275 C   0  0  0  0  0  0  0  0  0  0  0  0
    0.7101   -6.2886    4.6789 C   0  0  0  0  0  0  0  0  0  0  0  0
    7.9013   -4.3897   -1.6009 C   0  0  0  0  0  0  0  0  0  0  0  0
   -0.1460   -5.0092    4.6971 C   0  0  0  0  0  0  0  0  0  0  0  0
    8.1909   -3.7935   -0.2472 N   0  0  0  0  0  0  0  0  0  0  0  0
   -0.1702   -4.3789    6.0666 N   0  0  0  0  0  0  0  0  0  0  0  0
    6.9025   -3.5276    0.4828 C   0  0  0  0  0  0  0  0  0  0  0  0
   -1.2022   -5.0820    6.9068 C   0  0  0  0  0  0  0  0  0  0  0  0
    8.9710   -2.5091   -0.3808 C   0  0  0  0  0  0  0  0  0  0  0  0
   -0.5012   -2.9135    6.0118 C   0  0  0  0  0  0  0  0  0  0  0  0
  1  6  2  0  0  0  0
  2  3  2  0  0  0  0
  2  1  1  0  0  0  0
  3  4  1  0  0  0  0
  4 10  1  0  0  0  0
  4  5  2  0  0  0  0
  6  5  1  0  0  0  0
  7  1  1  0  0  0  0
  7 11  1  0  0  0  0
  8  7  2  0  0  0  0
  9 10  2  0  0  0  0
 10 12  1  0  0  0  0
 12 14  1  0  0  0  0
 13 11  1  0  0  0  0
 13 15  1  0  0  0  0
 14 16  1  0  0  0  0
 16 18  1  0  0  0  0
 17 15  1  0  0  0  0
 17 19  1  0  0  0  0
 18 20  1  0  0  0  0
 19 23  1  0  0  0  0
 20 22  1  0  0  0  0
 20 24  1  0  0  0  0
 21 19  1  0  0  0  0
M  END
>  <CHROM.1>
18.81575229,22.51232915,-154.25928878,100.82436284,69.90622443,68.25638430
167.41372850,-165.03290509,61.27822082,-82.24738409,3.07709722,-4.96651240
0.52297034,0.73716883,-0.38510473,-1.78101099

>  <Name>
lig.pdb

>  <RI>
2.41306e+07

>  <Rbt.Current_Directory>
/home/itssahil/PROJECTS/Mol_Feturizer/New_Systems/rnas/2l94

>  <Rbt.Executable>
rbdock ($Id: //depot/dev/client3/rdock/2013.1/src/exe/rbdock.cxx#4 $)

>  <Rbt.Library>
libRbt.so (2013.1, Build901 2013/11/27)

>  <Rbt.Parameter_File>
/export/apps/rDock/src/rDock_2013.1_src/data/scripts/dock_solv.prm

>  <Rbt.Receptor>
prm/blind_docking_40.prm

>  <SCORE>
-16.8406

>  <SCORE.INTER>
-20.314

>  <SCORE.INTER.CONST>
1

>  <SCORE.INTER.POLAR>
-3.30325

>  <SCORE.INTER.ROT>
10

>  <SCORE.INTER.SOLV>
16.9875

>  <SCORE.INTER.VDW>
-18.461

>  <SCORE.INTER.norm>
-0.846416

>  <SCORE.INTRA>
2.44465

>  <SCORE.INTRA.DIHEDRAL>
3.68791

>  <SCORE.INTRA.DIHEDRAL.0>
7.52971

>  <SCORE.INTRA.POLAR>
0

>  <SCORE.INTRA.POLAR.0>
0

>  <SCORE.INTRA.REPUL>
0

>  <SCORE.INTRA.REPUL.0>
0

>  <SCORE.INTRA.SOLV>
0.303051

>  <SCORE.INTRA.SOLV.lig_0>
-22.1084

>  <SCORE.INTRA.VDW>
0.449167

>  <SCORE.INTRA.VDW.0>
2.4256

>  <SCORE.INTRA.norm>
0.10186

>  <SCORE.RESTR>
1.0287

>  <SCORE.RESTR.CAVITY>
1.0287

>  <SCORE.RESTR.norm>
0.0428626

>  <SCORE.SYSTEM>
0

>  <SCORE.SYSTEM.CONST>
0

>  <SCORE.SYSTEM.DIHEDRAL>
0

>  <SCORE.SYSTEM.SOLV>
0

>  <SCORE.SYSTEM.norm>
0

>  <SCORE.heavy>
24

>  <SCORE.norm>
-0.701693

>  <RMSD>
6.994

$$$$
lig.pdb
 OpenBabel11021811453D
libRbt.so/2013.1/901 2013/11/27
 24 24  0  0  0  0  0  0  0  0999 V2000
   10.0643   -3.3049   -1.5435 C   0  0  0  0  0  0  0  0  0  0  0  0
   10.8038   -2.7172   -0.4624 C   0  0  0  0  0  0  0  0  0  0  0  0
   11.9947   -2.0630   -0.6720 C   0  0  0  0  0  0  0  0  0  0  0  0
   12.5569   -1.9238   -1.9812 C   0  0  0  0  0  0  0  0  0  0  0  0
   11.8343   -2.5404   -3.0552 C   0  0  0  0  0  0  0  0  0  0  0  0
   10.6494   -3.2007   -2.8461 C   0  0  0  0  0  0  0  0  0  0  0  0
    8.8650   -3.9290   -1.3506 C   0  0  0  0  0  0  0  0  0  0  0  0
    8.5518   -5.1064   -1.9326 N   0  0  0  0  0  0  0  0  0  0  0  0
   13.9575   -0.5309   -3.3252 N   0  0  0  0  0  0  0  0  0  0  0  0
   13.7186   -1.2457   -2.2054 C   0  0  0  0  0  0  0  0  0  0  0  0
    7.8967   -3.4128   -0.5538 N   0  0  0  0  0  0  0  0  0  0  0  0
   14.7393   -1.2346   -1.3155 N   0  0  0  0  0  0  0  0  0  0  0  0
    6.9730   -4.1621    0.2956 C   0  0  0  0  0  0  0  0  0  0  0  0
   15.7986   -0.2338   -1.2325 C   0  0  0  0  0  0  0  0  0  0  0  0
    6.7680   -3.3644    1.5935 C   0  0  0  0  0  0  0  0  0  0  0  0
   15.3641    0.8312   -0.2085 C   0  0  0  0  0  0  0  0  0  0  0  0
    5.2954   -3.3890    2.0260 C   0  0  0  0  0  0  0  0  0  0  0  0
   15.2141    0.2614    1.2136 C   0  0  0  0  0  0  0  0  0  0  0  0
    5.0839   -2.3847    3.1299 N   0  0  0  0  0  0  0  0  0  0  0  0
   16.5241   -0.2701    1.7380 N   0  0  0  0  0  0  0  0  0  0  0  0
    3.7664   -2.6396    3.8102 C   0  0  0  0  0  0  0  0  0  0  0  0
   16.2729   -0.9834    3.0394 C   0  0  0  0  0  0  0  0  0  0  0  0
    5.1095   -0.9768    2.5883 C   0  0  0  0  0  0  0  0  0  0  0  0
   17.5300    0.8233    1.9669 C   0  0  0  0  0  0  0  0  0  0  0  0
  1  6  2  0  0  0  0
  2  3  2  0  0  0  0
  2  1  1  0  0  0  0
  3  4  1  0  0  0  0
  4 10  1  0  0  0  0
  4  5  2  0  0  0  0
  6  5  1  0  0  0  0
  7  1  1  0  0  0  0
  7 11  1  0  0  0  0
  8  7  2  0  0  0  0
  9 10  2  0  0  0  0
 10 12  1  0  0  0  0
 12 14  1  0  0  0  0
 13 11  1  0  0  0  0
 13 15  1  0  0  0  0
 14 16  1  0  0  0  0
 16 18  1  0  0  0  0
 17 15  1  0  0  0  0
 17 19  1  0  0  0  0
 18 20  1  0  0  0  0
 19 23  1  0  0  0  0
 20 22  1  0  0  0  0
 20 24  1  0  0  0  0
 21 19  1  0  0  0  0
M  END
>  <CHROM.1>
-146.08724193,-136.08958682,93.63608694,142.41476482,138.74811440,63.58806118
62.27384736,-168.82086690,-165.12532304,-172.06903884,11.04737804,-1.96310391
0.01997582,3.09774714,0.31308573,1.20038578

>  <Name>
lig.pdb

>  <RI>
2.48096e+07

>  <Rbt.Current_Directory>
/home/itssahil/PROJECTS/Mol_Feturizer/New_Systems/rnas/2l94

>  <Rbt.Executable>
rbdock ($Id: //depot/dev/client3/rdock/2013.1/src/exe/rbdock.cxx#4 $)

>  <Rbt.Library>
libRbt.so (2013.1, Build901 2013/11/27)

>  <Rbt.Parameter_File>
/export/apps/rDock/src/rDock_2013.1_src/data/scripts/dock_solv.prm

>  <Rbt.Receptor>
prm/pocket_docking_6.prm

>  <SCORE>
-28.0743

>  <SCORE.INTER>
-31.7188

>  <SCORE.INTER.CONST>
1

>  <SCORE.INTER.POLAR>
-4.27995

>  <SCORE.INTER.ROT>
10

>  <SCORE.INTER.SOLV>
15.3455

>  <SCORE.INTER.VDW>
-22.2612

>  <SCORE.INTER.norm>
-1.32162

>  <SCORE.INTRA>
3.64453

>  <SCORE.INTRA.DIHEDRAL>
12.8278

>  <SCORE.INTRA.DIHEDRAL.0>
7.52971

>  <SCORE.INTRA.POLAR>
0

>  <SCORE.INTRA.POLAR.0>
0

>  <SCORE.INTRA.REPUL>
0

>  <SCORE.INTRA.REPUL.0>
0

>  <SCORE.INTRA.SOLV>
0.225942

>  <SCORE.INTRA.SOLV.lig_0>
-22.1084

>  <SCORE.INTRA.VDW>
-2.88236

>  <SCORE.INTRA.VDW.0>
2.4256

>  <SCORE.INTRA.norm>
0.151855

>  <SCORE.RESTR>
0

>  <SCORE.RESTR.CAVITY>
0

>  <SCORE.RESTR.norm>
0

>  <SCORE.SYSTEM>
0

>  <SCORE.SYSTEM.CONST>
0

>  <SCORE.SYSTEM.DIHEDRAL>
0

>  <SCORE.SYSTEM.SOLV>
0

>  <SCORE.SYSTEM.norm>
0

>  <SCORE.heavy>
24

>  <SCORE.norm>
-1.16976

>  <RMSD>
6.994

$$$$
lig.pdb
 OpenBabel11021811453D
libRbt.so/2013.1/901 2013/11/27
 24 24  0  0  0  0  0  0  0  0999 V2000
    0.5121    1.4911   -0.2304 C   0  0  0  0  0  0  0  0  0  0  0  0
   -0.2213    2.7006    0.0151 C   0  0  0  0  0  0  0  0  0  0  0  0
   -0.6325    3.0535    1.2786 C   0  0  0  0  0  0  0  0  0  0  0  0
   -0.3430    2.2388    2.4195 C   0  0  0  0  0  0  0  0  0  0  0  0
    0.3601    1.0147    2.1681 C   0  0  0  0  0  0  0  0  0  0  0  0
    0.7640    0.6574    0.9060 C   0  0  0  0  0  0  0  0  0  0  0  0
    0.9528    1.1471   -1.4763 C   0  0  0  0  0  0  0  0  0  0  0  0
    1.0997    2.0454   -2.4735 N   0  0  0  0  0  0  0  0  0  0  0  0
   -0.4316    1.8597    4.7768 N   0  0  0  0  0  0  0  0  0  0  0  0
   -0.7142    2.5969    3.6819 C   0  0  0  0  0  0  0  0  0  0  0  0
    1.2810   -0.1270   -1.8052 N   0  0  0  0  0  0  0  0  0  0  0  0
   -1.4051    3.7318    3.9441 N   0  0  0  0  0  0  0  0  0  0  0  0
    2.3523   -0.5481   -2.7059 C   0  0  0  0  0  0  0  0  0  0  0  0
   -1.4666    4.4256    5.2268 C   0  0  0  0  0  0  0  0  0  0  0  0
    3.3647   -1.3672   -1.8892 C   0  0  0  0  0  0  0  0  0  0  0  0
   -2.9292    4.4004    5.7086 C   0  0  0  0  0  0  0  0  0  0  0  0
    3.9689   -0.5232   -0.7585 C   0  0  0  0  0  0  0  0  0  0  0  0
   -3.7257    5.6366    5.2532 C   0  0  0  0  0  0  0  0  0  0  0  0
    4.8236    0.5668   -1.3529 N   0  0  0  0  0  0  0  0  0  0  0  0
   -3.2469    6.8886    5.9437 N   0  0  0  0  0  0  0  0  0  0  0  0
    6.1657    0.0108   -1.7439 C   0  0  0  0  0  0  0  0  0  0  0  0
   -3.3096    6.6766    7.4325 C   0  0  0  0  0  0  0  0  0  0  0  0
    5.0107    1.6983   -0.3728 C   0  0  0  0  0  0  0  0  0  0  0  0
   -4.0792    8.0883    5.5860 C   0  0  0  0  0  0  0  0  0  0  0  0
  1  6  2  0  0  0  0
  2  3  2  0  0  0  0
  2  1  1  0  0  0  0
  3  4  1  0  0  0  0
  4 10  1  0  0  0  0
  4  5  2  0  0  0  0
  6  5  1  0  0  0  0
  7  1  1  0  0  0  0
  7 11  1  0  0  0  0
  8  7  2  0  0  0  0
  9 10  2  0  0  0  0
 10 12  1  0  0  0  0
 12 14  1  0  0  0  0
 13 11  1  0  0  0  0
 13 15  1  0  0  0  0
 14 16  1  0  0  0  0
 16 18  1  0  0  0  0
 17 15  1  0  0  0  0
 17 19  1  0  0  0  0
 18 20  1  0  0  0  0
 19 23  1  0  0  0  0
 20 22  1  0  0  0  0
 20 24  1  0  0  0  0
 21 19  1  0  0  0  0
M  END
>  <CHROM.1>
-178.70704493,20.27897149,-117.10819886,117.03020816,-60.71983405,-91.63830035
-68.57594180,-67.34753256,-79.86118662,-55.19101082,0.35541140,2.47169383
1.67031872,0.86774719,0.49272848,-1.84477662

>  <Name>
lig.pdb

>  <RI>
1.39428e+07

>  <Rbt.Current_Directory>
/home/itssahil/PROJECTS/Mol_Feturizer/New_Systems/rnas/2l94

>  <Rbt.Executable>
rbdock ($Id: //depot/dev/client3/rdock/2013.1/src/exe/rbdock.cxx#4 $)

>  <Rbt.Library>
libRbt.so (2013.1, Build901 2013/11/27)

>  <Rbt.Parameter_File>
/export/apps/rDock/src/rDock_2013.1_src/data/scripts/dock_solv.prm

>  <Rbt.Receptor>
prm/pocket_docking_8.prm

>  <SCORE>
-14.1916

>  <SCORE.INTER>
-15.2303

>  <SCORE.INTER.CONST>
1

>  <SCORE.INTER.POLAR>
-2.1241

>  <SCORE.INTER.ROT>
10

>  <SCORE.INTER.SOLV>
9.98638

>  <SCORE.INTER.VDW>
-16.6687

>  <SCORE.INTER.norm>
-0.634598

>  <SCORE.INTRA>
1.03872

>  <SCORE.INTRA.DIHEDRAL>
3.29621

>  <SCORE.INTRA.DIHEDRAL.0>
7.52971

>  <SCORE.INTRA.POLAR>
0

>  <SCORE.INTRA.POLAR.0>
0

>  <SCORE.INTRA.REPUL>
0

>  <SCORE.INTRA.REPUL.0>
0

>  <SCORE.INTRA.SOLV>
0.921571

>  <SCORE.INTRA.SOLV.lig_0>
-22.1084

>  <SCORE.INTRA.VDW>
-1.07017

>  <SCORE.INTRA.VDW.0>
2.4256

>  <SCORE.INTRA.norm>
0.0432801

>  <SCORE.RESTR>
0

>  <SCORE.RESTR.CAVITY>
0

>  <SCORE.RESTR.norm>
0

>  <SCORE.SYSTEM>
0

>  <SCORE.SYSTEM.CONST>
0

>  <SCORE.SYSTEM.DIHEDRAL>
0

>  <SCORE.SYSTEM.SOLV>
0

>  <SCORE.SYSTEM.norm>
0

>  <SCORE.heavy>
24

>  <SCORE.norm>
-0.591318

>  <RMSD>
6.997

$$$$
lig.pdb
 OpenBabel11021811453D
libRbt.so/2013.1/901 2013/11/27
 24 24  0  0  0  0  0  0  0  0999 V2000
    4.1633    2.7624    1.0734 C   0  0  0  0  0  0  0  0  0  0  0  0
    5.5135    3.2260    1.2247 C   0  0  0  0  0  0  0  0  0  0  0  0
    6.1184    4.0147    0.2748 C   0  0  0  0  0  0  0  0  0  0  0  0
    5.4310    4.4246   -0.9121 C   0  0  0  0  0  0  0  0  0  0  0  0
    4.0943    3.9331   -1.0778 C   0  0  0  0  0  0  0  0  0  0  0  0
    3.4922    3.1390   -0.1341 C   0  0  0  0  0  0  0  0  0  0  0  0
    3.5425    2.0053    2.0254 C   0  0  0  0  0  0  0  0  0  0  0  0
    2.2020    1.9891    2.1868 N   0  0  0  0  0  0  0  0  0  0  0  0
    6.6969    6.3544   -1.5297 N   0  0  0  0  0  0  0  0  0  0  0  0
    6.0086    5.2364   -1.8433 C   0  0  0  0  0  0  0  0  0  0  0  0
    4.2283    1.2070    2.8806 N   0  0  0  0  0  0  0  0  0  0  0  0
    5.9374    4.9868   -3.1724 N   0  0  0  0  0  0  0  0  0  0  0  0
    3.8008   -0.0925    3.3953 C   0  0  0  0  0  0  0  0  0  0  0  0
    6.8462    5.4970   -4.1943 C   0  0  0  0  0  0  0  0  0  0  0  0
    3.4720   -0.9941    2.1946 C   0  0  0  0  0  0  0  0  0  0  0  0
    6.9735    4.4245   -5.2922 C   0  0  0  0  0  0  0  0  0  0  0  0
    3.1034   -2.4107    2.6566 C   0  0  0  0  0  0  0  0  0  0  0  0
    7.4043    3.0547   -4.7372 C   0  0  0  0  0  0  0  0  0  0  0  0
    4.3081   -3.0564    3.2918 N   0  0  0  0  0  0  0  0  0  0  0  0
    7.4075    1.9979   -5.8127 N   0  0  0  0  0  0  0  0  0  0  0  0
    4.8900   -4.0847    2.3605 C   0  0  0  0  0  0  0  0  0  0  0  0
    5.9878    1.5808   -6.0880 C   0  0  0  0  0  0  0  0  0  0  0  0
    3.9403   -3.7100    4.6009 C   0  0  0  0  0  0  0  0  0  0  0  0
    8.2041    0.7863   -5.4161 C   0  0  0  0  0  0  0  0  0  0  0  0
  1  6  2  0  0  0  0
  2  3  2  0  0  0  0
  2  1  1  0  0  0  0
  3  4  1  0  0  0  0
  4 10  1  0  0  0  0
  4  5  2  0  0  0  0
  6  5  1  0  0  0  0
  7  1  1  0  0  0  0
  7 11  1  0  0  0  0
  8  7  2  0  0  0  0
  9 10  2  0  0  0  0
 10 12  1  0  0  0  0
 12 14  1  0  0  0  0
 13 11  1  0  0  0  0
 13 15  1  0  0  0  0
 14 16  1  0  0  0  0
 16 18  1  0  0  0  0
 17 15  1  0  0  0  0
 17 19  1  0  0  0  0
 18 20  1  0  0  0  0
 19 23  1  0  0  0  0
 20 22  1  0  0  0  0
 20 24  1  0  0  0  0
 21 19  1  0  0  0  0
M  END
>  <CHROM.1>
-45.64138456,153.46167434,146.72999448,54.75328368,176.22994939,-54.67258774
175.16788647,-65.39203947,-105.62105156,-76.75444908,5.17481761,1.85280560
-0.52396171,2.41167770,-1.14607983,3.01470914

>  <Name>
lig.pdb

>  <RI>
9.7521e+06

>  <Rbt.Current_Directory>
/home/itssahil/PROJECTS/Mol_Feturizer/New_Systems/rnas/2l94

>  <Rbt.Executable>
rbdock ($Id: //depot/dev/client3/rdock/2013.1/src/exe/rbdock.cxx#4 $)

>  <Rbt.Library>
libRbt.so (2013.1, Build901 2013/11/27)

>  <Rbt.Parameter_File>
/export/apps/rDock/src/rDock_2013.1_src/data/scripts/dock_solv.prm

>  <Rbt.Receptor>
prm/pocket_docking_7.prm

>  <SCORE>
-13.6104

>  <SCORE.INTER>
-16.9178

>  <SCORE.INTER.CONST>
1

>  <SCORE.INTER.POLAR>
-2.78041

>  <SCORE.INTER.ROT>
10

>  <SCORE.INTER.SOLV>
11.4405

>  <SCORE.INTER.VDW>
-16.0906

>  <SCORE.INTER.norm>
-0.704909

>  <SCORE.INTRA>
3.12138

>  <SCORE.INTRA.DIHEDRAL>
10.5473

>  <SCORE.INTRA.DIHEDRAL.0>
7.52971

>  <SCORE.INTRA.POLAR>
0

>  <SCORE.INTRA.POLAR.0>
0

>  <SCORE.INTRA.REPUL>
0

>  <SCORE.INTRA.REPUL.0>
0

>  <SCORE.INTRA.SOLV>
0.238979

>  <SCORE.INTRA.SOLV.lig_0>
-22.1084

>  <SCORE.INTRA.VDW>
-2.27176

>  <SCORE.INTRA.VDW.0>
2.4256

>  <SCORE.INTRA.norm>
0.130058

>  <SCORE.RESTR>
0.186061

>  <SCORE.RESTR.CAVITY>
0.186061

>  <SCORE.RESTR.norm>
0.00775255

>  <SCORE.SYSTEM>
0

>  <SCORE.SYSTEM.CONST>
0

>  <SCORE.SYSTEM.DIHEDRAL>
0

>  <SCORE.SYSTEM.SOLV>
0

>  <SCORE.SYSTEM.norm>
0

>  <SCORE.heavy>
24

>  <SCORE.norm>
-0.567098

>  <RMSD>
7.003

$$$$
lig.pdb
 OpenBabel11021811453D
libRbt.so/2013.1/901 2013/11/27
 24 24  0  0  0  0  0  0  0  0999 V2000
   12.5640   -1.9523   -1.9350 C   0  0  0  0  0  0  0  0  0  0  0  0
   11.8450   -2.6090   -2.9899 C   0  0  0  0  0  0  0  0  0  0  0  0
   10.6707   -3.2839   -2.7540 C   0  0  0  0  0  0  0  0  0  0  0  0
   10.0961   -3.3601   -1.4450 C   0  0  0  0  0  0  0  0  0  0  0  0
   10.8326   -2.7326   -0.3869 C   0  0  0  0  0  0  0  0  0  0  0  0
   12.0092   -2.0654   -0.6199 C   0  0  0  0  0  0  0  0  0  0  0  0
   13.7141   -1.2525   -2.1637 C   0  0  0  0  0  0  0  0  0  0  0  0
   13.9582   -0.6066   -3.3240 N   0  0  0  0  0  0  0  0  0  0  0  0
    8.4911   -5.0681   -1.9085 N   0  0  0  0  0  0  0  0  0  0  0  0
    8.9135   -3.9957   -1.2059 C   0  0  0  0  0  0  0  0  0  0  0  0
   14.6991   -1.1500   -1.2373 N   0  0  0  0  0  0  0  0  0  0  0  0
    8.0560   -3.5989   -0.2357 N   0  0  0  0  0  0  0  0  0  0  0  0
   15.5528    0.0114   -0.9949 C   0  0  0  0  0  0  0  0  0  0  0  0
    7.0260   -4.4208    0.3920 C   0  0  0  0  0  0  0  0  0  0  0  0
   15.1608    0.6136    0.3640 C   0  0  0  0  0  0  0  0  0  0  0  0
    6.0655   -3.4818    1.1453 C   0  0  0  0  0  0  0  0  0  0  0  0
   13.7884    1.2967    0.2863 C   0  0  0  0  0  0  0  0  0  0  0  0
    5.0045   -4.2455    1.9583 C   0  0  0  0  0  0  0  0  0  0  0  0
   13.6280    2.2270    1.4613 N   0  0  0  0  0  0  0  0  0  0  0  0
    3.9465   -3.3166    2.4981 N   0  0  0  0  0  0  0  0  0  0  0  0
   13.4340    1.4312    2.7232 C   0  0  0  0  0  0  0  0  0  0  0  0
    4.5212   -2.5468    3.6568 C   0  0  0  0  0  0  0  0  0  0  0  0
   12.4521    3.1504    1.2597 C   0  0  0  0  0  0  0  0  0  0  0  0
    2.7236   -4.0572    2.9626 C   0  0  0  0  0  0  0  0  0  0  0  0
  1  6  2  0  0  0  0
  2  3  2  0  0  0  0
  2  1  1  0  0  0  0
  3  4  1  0  0  0  0
  4 10  1  0  0  0  0
  4  5  2  0  0  0  0
  6  5  1  0  0  0  0
  7  1  1  0  0  0  0
  7 11  1  0  0  0  0
  8  7  2  0  0  0  0
  9 10  2  0  0  0  0
 10 12  1  0  0  0  0
 12 14  1  0  0  0  0
 13 11  1  0  0  0  0
 13 15  1  0  0  0  0
 14 16  1  0  0  0  0
 16 18  1  0  0  0  0
 17 15  1  0  0  0  0
 17 19  1  0  0  0  0
 18 20  1  0  0  0  0
 19 23  1  0  0  0  0
 20 22  1  0  0  0  0
 20 24  1  0  0  0  0
 21 19  1  0  0  0  0
M  END
>  <CHROM.1>
31.61026437,30.83630821,-165.15745427,110.22796174,-71.11768641,-174.74978619
-170.62258715,-162.35097646,-71.92723938,-74.94102038,10.33073705,-1.83463844
-0.03873367,-0.11445495,-0.46912636,-2.31985220

>  <Name>
lig.pdb

>  <RI>
1.39428e+07

>  <Rbt.Current_Directory>
/home/itssahil/PROJECTS/Mol_Feturizer/New_Systems/rnas/2l94

>  <Rbt.Executable>
rbdock ($Id: //depot/dev/client3/rdock/2013.1/src/exe/rbdock.cxx#4 $)

>  <Rbt.Library>
libRbt.so (2013.1, Build901 2013/11/27)

>  <Rbt.Parameter_File>
/export/apps/rDock/src/rDock_2013.1_src/data/scripts/dock_solv.prm

>  <Rbt.Receptor>
prm/pocket_docking_8.prm

>  <SCORE>
-25.1465

>  <SCORE.INTER>
-26.4148

>  <SCORE.INTER.CONST>
1

>  <SCORE.INTER.POLAR>
-3.42074

>  <SCORE.INTER.ROT>
10

>  <SCORE.INTER.SOLV>
15.6193

>  <SCORE.INTER.VDW>
-21.6805

>  <SCORE.INTER.norm>
-1.10062

>  <SCORE.INTRA>
1.2683

>  <SCORE.INTRA.DIHEDRAL>
7.14303

>  <SCORE.INTRA.DIHEDRAL.0>
7.52971

>  <SCORE.INTRA.POLAR>
0

>  <SCORE.INTRA.POLAR.0>
0

>  <SCORE.INTRA.REPUL>
0

>  <SCORE.INTRA.REPUL.0>
0

>  <SCORE.INTRA.SOLV>
-0.0273362

>  <SCORE.INTRA.SOLV.lig_0>
-22.1084

>  <SCORE.INTRA.VDW>
-2.28954

>  <SCORE.INTRA.VDW.0>
2.4256

>  <SCORE.INTRA.norm>
0.052846

>  <SCORE.RESTR>
0

>  <SCORE.RESTR.CAVITY>
0

>  <SCORE.RESTR.norm>
0

>  <SCORE.SYSTEM>
0

>  <SCORE.SYSTEM.CONST>
0

>  <SCORE.SYSTEM.DIHEDRAL>
0

>  <SCORE.SYSTEM.SOLV>
0

>  <SCORE.SYSTEM.norm>
0

>  <SCORE.heavy>
24

>  <SCORE.norm>
-1.04777

>  <RMSD>
7.017

$$$$
lig.pdb
 OpenBabel11021811453D
libRbt.so/2013.1/901 2013/11/27
 24 24  0  0  0  0  0  0  0  0999 V2000
    3.4551   -5.1951   -2.0843 C   0  0  0  0  0  0  0  0  0  0  0  0
    3.4476   -6.6158   -1.8778 C   0  0  0  0  0  0  0  0  0  0  0  0
    2.8047   -7.1877   -0.8056 C   0  0  0  0  0  0  0  0  0  0  0  0
    2.0993   -6.3980    0.1578 C   0  0  0  0  0  0  0  0  0  0  0  0
    2.1361   -4.9772   -0.0311 C   0  0  0  0  0  0  0  0  0  0  0  0
    2.7845   -4.4046   -1.0967 C   0  0  0  0  0  0  0  0  0  0  0  0
    4.0634   -4.6193   -3.1629 C   0  0  0  0  0  0  0  0  0  0  0  0
    3.4074   -3.8210   -4.0321 N   0  0  0  0  0  0  0  0  0  0  0  0
    1.5088   -8.2656    1.5259 N   0  0  0  0  0  0  0  0  0  0  0  0
    1.4277   -6.9570    1.2047 C   0  0  0  0  0  0  0  0  0  0  0  0
    5.3779   -4.8037   -3.4404 N   0  0  0  0  0  0  0  0  0  0  0  0
    0.6146   -6.2393    2.0157 N   0  0  0  0  0  0  0  0  0  0  0  0
    6.2968   -3.8198   -4.0094 C   0  0  0  0  0  0  0  0  0  0  0  0
    0.2146   -6.6003    3.3723 C   0  0  0  0  0  0  0  0  0  0  0  0
    6.6060   -2.7757   -2.9245 C   0  0  0  0  0  0  0  0  0  0  0  0
    0.8742   -5.6016    4.3415 C   0  0  0  0  0  0  0  0  0  0  0  0
    7.1043   -3.4508   -1.6392 C   0  0  0  0  0  0  0  0  0  0  0  0
   -0.0100   -4.3727    4.6205 C   0  0  0  0  0  0  0  0  0  0  0  0
    8.4863   -4.0056   -1.8717 N   0  0  0  0  0  0  0  0  0  0  0  0
   -1.2686   -4.7525    5.3588 N   0  0  0  0  0  0  0  0  0  0  0  0
    8.6733   -5.2680   -1.0751 C   0  0  0  0  0  0  0  0  0  0  0  0
   -2.2810   -3.6514    5.1914 C   0  0  0  0  0  0  0  0  0  0  0  0
    9.5419   -3.0006   -1.4822 C   0  0  0  0  0  0  0  0  0  0  0  0
   -1.0228   -4.9708    6.8257 C   0  0  0  0  0  0  0  0  0  0  0  0
  1  6  2  0  0  0  0
  2  3  2  0  0  0  0
  2  1  1  0  0  0  0
  3  4  1  0  0  0  0
  4 10  1  0  0  0  0
  4  5  2  0  0  0  0
  6  5  1  0  0  0  0
  7  1  1  0  0  0  0
  7 11  1  0  0  0  0
  8  7  2  0  0  0  0
  9 10  2  0  0  0  0
 10 12  1  0  0  0  0
 12 14  1  0  0  0  0
 13 11  1  0  0  0  0
 13 15  1  0  0  0  0
 14 16  1  0  0  0  0
 16 18  1  0  0  0  0
 17 15  1  0  0  0  0
 17 19  1  0  0  0  0
 18 20  1  0  0  0  0
 19 23  1  0  0  0  0
 20 22  1  0  0  0  0
 20 24  1  0  0  0  0
 21 19  1  0  0  0  0
M  END
>  <CHROM.1>
8.90666382,122.91122622,111.54564952,72.72580192,53.49024133,90.64258805
65.61819103,70.61124359,-146.53004520,-160.85546083,3.19290397,-5.05165826
0.26007665,0.67602517,-0.41958624,-1.86273066

>  <Name>
lig.pdb

>  <RI>
2.41306e+07

>  <Rbt.Current_Directory>
/home/itssahil/PROJECTS/Mol_Feturizer/New_Systems/rnas/2l94

>  <Rbt.Executable>
rbdock ($Id: //depot/dev/client3/rdock/2013.1/src/exe/rbdock.cxx#4 $)

>  <Rbt.Library>
libRbt.so (2013.1, Build901 2013/11/27)

>  <Rbt.Parameter_File>
/export/apps/rDock/src/rDock_2013.1_src/data/scripts/dock_solv.prm

>  <Rbt.Receptor>
prm/blind_docking_40.prm

>  <SCORE>
-7.92481

>  <SCORE.INTER>
-12.7729

>  <SCORE.INTER.CONST>
1

>  <SCORE.INTER.POLAR>
-2.30573

>  <SCORE.INTER.ROT>
10

>  <SCORE.INTER.SOLV>
17.762

>  <SCORE.INTER.VDW>
-17.0169

>  <SCORE.INTER.norm>
-0.532206

>  <SCORE.INTRA>
3.31616

>  <SCORE.INTRA.DIHEDRAL>
13.0023

>  <SCORE.INTRA.DIHEDRAL.0>
7.52971

>  <SCORE.INTRA.POLAR>
0

>  <SCORE.INTRA.POLAR.0>
0

>  <SCORE.INTRA.REPUL>
0

>  <SCORE.INTRA.REPUL.0>
0

>  <SCORE.INTRA.SOLV>
0.759646

>  <SCORE.INTRA.SOLV.lig_0>
-22.1084

>  <SCORE.INTRA.VDW>
-3.56481

>  <SCORE.INTRA.VDW.0>
2.4256

>  <SCORE.INTRA.norm>
0.138173

>  <SCORE.RESTR>
1.53196

>  <SCORE.RESTR.CAVITY>
1.53196

>  <SCORE.RESTR.norm>
0.0638318

>  <SCORE.SYSTEM>
0

>  <SCORE.SYSTEM.CONST>
0

>  <SCORE.SYSTEM.DIHEDRAL>
0

>  <SCORE.SYSTEM.SOLV>
0

>  <SCORE.SYSTEM.norm>
0

>  <SCORE.heavy>
24

>  <SCORE.norm>
-0.330201

>  <RMSD>
7.040

$$$$
lig.pdb
 OpenBabel11021811453D
libRbt.so/2013.1/901 2013/11/27
 24 24  0  0  0  0  0  0  0  0999 V2000
    9.4225   -3.0287   -1.8117 C   0  0  0  0  0  0  0  0  0  0  0  0
   10.6673   -3.4514   -2.3887 C   0  0  0  0  0  0  0  0  0  0  0  0
   11.7077   -2.5748   -2.5866 C   0  0  0  0  0  0  0  0  0  0  0  0
   11.6096   -1.1948   -2.2187 C   0  0  0  0  0  0  0  0  0  0  0  0
   10.3543   -0.7669   -1.6737 C   0  0  0  0  0  0  0  0  0  0  0  0
    9.3122   -1.6395   -1.4832 C   0  0  0  0  0  0  0  0  0  0  0  0
    8.3945   -3.8976   -1.5814 C   0  0  0  0  0  0  0  0  0  0  0  0
    8.3895   -5.1643   -2.0488 N   0  0  0  0  0  0  0  0  0  0  0  0
   12.5176    1.0146   -2.2675 N   0  0  0  0  0  0  0  0  0  0  0  0
   12.6475   -0.3246   -2.3768 C   0  0  0  0  0  0  0  0  0  0  0  0
    7.2992   -3.5530   -0.8598 N   0  0  0  0  0  0  0  0  0  0  0  0
   13.9063   -0.7354   -2.6609 N   0  0  0  0  0  0  0  0  0  0  0  0
    6.5398   -4.4173    0.0416 C   0  0  0  0  0  0  0  0  0  0  0  0
   15.1331    0.0177   -2.4195 C   0  0  0  0  0  0  0  0  0  0  0  0
    6.2178   -3.6130    1.3115 C   0  0  0  0  0  0  0  0  0  0  0  0
   15.9013   -0.6811   -1.2823 C   0  0  0  0  0  0  0  0  0  0  0  0
    5.1410   -4.3170    2.1487 C   0  0  0  0  0  0  0  0  0  0  0  0
   16.9856    0.2164   -0.6591 C   0  0  0  0  0  0  0  0  0  0  0  0
    4.6861   -3.3954    3.2512 N   0  0  0  0  0  0  0  0  0  0  0  0
   18.0818    0.5271   -1.6467 N   0  0  0  0  0  0  0  0  0  0  0  0
    3.8545   -4.1575    4.2468 C   0  0  0  0  0  0  0  0  0  0  0  0
   19.3908    0.6127   -0.9086 C   0  0  0  0  0  0  0  0  0  0  0  0
    3.8821   -2.2466    2.6945 C   0  0  0  0  0  0  0  0  0  0  0  0
   17.8439    1.8231   -2.3703 C   0  0  0  0  0  0  0  0  0  0  0  0
  1  6  2  0  0  0  0
  2  3  2  0  0  0  0
  2  1  1  0  0  0  0
  3  4  1  0  0  0  0
  4 10  1  0  0  0  0
  4  5  2  0  0  0  0
  6  5  1  0  0  0  0
  7  1  1  0  0  0  0
  7 11  1  0  0  0  0
  8  7  2  0  0  0  0
  9 10  2  0  0  0  0
 10 12  1  0  0  0  0
 12 14  1  0  0  0  0
 13 11  1  0  0  0  0
 13 15  1  0  0  0  0
 14 16  1  0  0  0  0
 16 18  1  0  0  0  0
 17 15  1  0  0  0  0
 17 19  1  0  0  0  0
 18 20  1  0  0  0  0
 19 23  1  0  0  0  0
 20 22  1  0  0  0  0
 20 24  1  0  0  0  0
 21 19  1  0  0  0  0
M  END
>  <CHROM.1>
167.75676252,-9.88243427,110.18793077,136.92534120,165.95078885,-163.37948671
-65.48312310,-170.45051842,-168.14985425,-145.52399786,10.84401471,-1.85600823
-0.76586329,3.00970510,0.43136876,1.18051484

>  <Name>
lig.pdb

>  <RI>
1.39428e+07

>  <Rbt.Current_Directory>
/home/itssahil/PROJECTS/Mol_Feturizer/New_Systems/rnas/2l94

>  <Rbt.Executable>
rbdock ($Id: //depot/dev/client3/rdock/2013.1/src/exe/rbdock.cxx#4 $)

>  <Rbt.Library>
libRbt.so (2013.1, Build901 2013/11/27)

>  <Rbt.Parameter_File>
/export/apps/rDock/src/rDock_2013.1_src/data/scripts/dock_solv.prm

>  <Rbt.Receptor>
prm/pocket_docking_8.prm

>  <SCORE>
-36.2063

>  <SCORE.INTER>
-35.6982

>  <SCORE.INTER.CONST>
1

>  <SCORE.INTER.POLAR>
-4.86291

>  <SCORE.INTER.ROT>
10

>  <SCORE.INTER.SOLV>
15.2332

>  <SCORE.INTER.VDW>
-22.9335

>  <SCORE.INTER.norm>
-1.48743

>  <SCORE.INTRA>
-0.508076

>  <SCORE.INTRA.DIHEDRAL>
2.78329

>  <SCORE.INTRA.DIHEDRAL.0>
7.52971

>  <SCORE.INTRA.POLAR>
0

>  <SCORE.INTRA.POLAR.0>
0

>  <SCORE.INTRA.REPUL>
0

>  <SCORE.INTRA.REPUL.0>
0

>  <SCORE.INTRA.SOLV>
-0.258309

>  <SCORE.INTRA.SOLV.lig_0>
-22.1084

>  <SCORE.INTRA.VDW>
-1.77057

>  <SCORE.INTRA.VDW.0>
2.4256

>  <SCORE.INTRA.norm>
-0.0211698

>  <SCORE.RESTR>
0

>  <SCORE.RESTR.CAVITY>
0

>  <SCORE.RESTR.norm>
0

>  <SCORE.SYSTEM>
0

>  <SCORE.SYSTEM.CONST>
0

>  <SCORE.SYSTEM.DIHEDRAL>
0

>  <SCORE.SYSTEM.SOLV>
0

>  <SCORE.SYSTEM.norm>
0

>  <SCORE.heavy>
24

>  <SCORE.norm>
-1.5086

>  <RMSD>
7.053

$$$$
lig.pdb
 OpenBabel11021811453D
libRbt.so/2013.1/901 2013/11/27
 24 24  0  0  0  0  0  0  0  0999 V2000
   12.8640   -0.5399   -1.5307 C   0  0  0  0  0  0  0  0  0  0  0  0
   11.8243    0.4360   -1.3650 C   0  0  0  0  0  0  0  0  0  0  0  0
   10.4944    0.0977   -1.4484 C   0  0  0  0  0  0  0  0  0  0  0  0
   10.0741   -1.2484   -1.6952 C   0  0  0  0  0  0  0  0  0  0  0  0
   11.1137   -2.2156   -1.8940 C   0  0  0  0  0  0  0  0  0  0  0  0
   12.4418   -1.8774   -1.8190 C   0  0  0  0  0  0  0  0  0  0  0  0
   14.1870   -0.2207   -1.4182 C   0  0  0  0  0  0  0  0  0  0  0  0
   14.6352    1.0529   -1.4318 N   0  0  0  0  0  0  0  0  0  0  0  0
    8.2936   -2.6392   -2.4721 N   0  0  0  0  0  0  0  0  0  0  0  0
    8.7580   -1.6019   -1.7438 C   0  0  0  0  0  0  0  0  0  0  0  0
   15.1529   -1.1625   -1.2798 N   0  0  0  0  0  0  0  0  0  0  0  0
    7.7983   -0.9342   -1.0603 N   0  0  0  0  0  0  0  0  0  0  0  0
   16.3729   -1.0516   -0.4826 C   0  0  0  0  0  0  0  0  0  0  0  0
    6.4881   -1.4560   -0.6840 C   0  0  0  0  0  0  0  0  0  0  0  0
   16.0225   -1.3999    0.9730 C   0  0  0  0  0  0  0  0  0  0  0  0
    6.6535   -2.2510    0.6246 C   0  0  0  0  0  0  0  0  0  0  0  0
   16.1325   -0.1629    1.8751 C   0  0  0  0  0  0  0  0  0  0  0  0
    5.3083   -2.7161    1.2110 C   0  0  0  0  0  0  0  0  0  0  0  0
   16.0342   -0.5884    3.3177 N   0  0  0  0  0  0  0  0  0  0  0  0
    5.5065   -3.6283    2.3951 N   0  0  0  0  0  0  0  0  0  0  0  0
   15.7499    0.6063    4.1869 C   0  0  0  0  0  0  0  0  0  0  0  0
    5.8826   -4.9976    1.8959 C   0  0  0  0  0  0  0  0  0  0  0  0
   17.3113   -1.2514    3.7711 C   0  0  0  0  0  0  0  0  0  0  0  0
    4.2680   -3.7400    3.2398 C   0  0  0  0  0  0  0  0  0  0  0  0
  1  6  2  0  0  0  0
  2  3  2  0  0  0  0
  2  1  1  0  0  0  0
  3  4  1  0  0  0  0
  4 10  1  0  0  0  0
  4  5  2  0  0  0  0
  6  5  1  0  0  0  0
  7  1  1  0  0  0  0
  7 11  1  0  0  0  0
  8  7  2  0  0  0  0
  9 10  2  0  0  0  0
 10 12  1  0  0  0  0
 12 14  1  0  0  0  0
 13 11  1  0  0  0  0
 13 15  1  0  0  0  0
 14 16  1  0  0  0  0
 16 18  1  0  0  0  0
 17 15  1  0  0  0  0
 17 19  1  0  0  0  0
 18 20  1  0  0  0  0
 19 23  1  0  0  0  0
 20 22  1  0  0  0  0
 20 24  1  0  0  0  0
 21 19  1  0  0  0  0
M  END
>  <CHROM.1>
151.90785043,-14.63834921,83.79790613,82.99689210,-111.88057616,173.36612849
173.16672802,-169.61682113,-164.07945343,-77.65145080,11.21153669,-1.41981567
0.21543099,0.02082483,-0.25150747,-1.35107827

>  <Name>
lig.pdb

>  <RI>
9.7521e+06

>  <Rbt.Current_Directory>
/home/itssahil/PROJECTS/Mol_Feturizer/New_Systems/rnas/2l94

>  <Rbt.Executable>
rbdock ($Id: //depot/dev/client3/rdock/2013.1/src/exe/rbdock.cxx#4 $)

>  <Rbt.Library>
libRbt.so (2013.1, Build901 2013/11/27)

>  <Rbt.Parameter_File>
/export/apps/rDock/src/rDock_2013.1_src/data/scripts/dock_solv.prm

>  <Rbt.Receptor>
prm/pocket_docking_7.prm

>  <SCORE>
-22.2306

>  <SCORE.INTER>
-23.6027

>  <SCORE.INTER.CONST>
1

>  <SCORE.INTER.POLAR>
-4.03571

>  <SCORE.INTER.ROT>
10

>  <SCORE.INTER.SOLV>
7.91578

>  <SCORE.INTER.VDW>
-15.188

>  <SCORE.INTER.norm>
-0.983445

>  <SCORE.INTRA>
1.37212

>  <SCORE.INTRA.DIHEDRAL>
8.26294

>  <SCORE.INTRA.DIHEDRAL.0>
7.52971

>  <SCORE.INTRA.POLAR>
0

>  <SCORE.INTRA.POLAR.0>
0

>  <SCORE.INTRA.REPUL>
0

>  <SCORE.INTRA.REPUL.0>
0

>  <SCORE.INTRA.SOLV>
0.135486

>  <SCORE.INTRA.SOLV.lig_0>
-22.1084

>  <SCORE.INTRA.VDW>
-2.8271

>  <SCORE.INTRA.VDW.0>
2.4256

>  <SCORE.INTRA.norm>
0.0571715

>  <SCORE.RESTR>
0

>  <SCORE.RESTR.CAVITY>
0

>  <SCORE.RESTR.norm>
0

>  <SCORE.SYSTEM>
0

>  <SCORE.SYSTEM.CONST>
0

>  <SCORE.SYSTEM.DIHEDRAL>
0

>  <SCORE.SYSTEM.SOLV>
0

>  <SCORE.SYSTEM.norm>
0

>  <SCORE.heavy>
24

>  <SCORE.norm>
-0.926273

>  <RMSD>
7.062

$$$$
lig.pdb
 OpenBabel11021811453D
libRbt.so/2013.1/901 2013/11/27
 24 24  0  0  0  0  0  0  0  0999 V2000
    1.6244   -5.6815    1.3176 C   0  0  0  0  0  0  0  0  0  0  0  0
    2.6530   -6.4774    0.7097 C   0  0  0  0  0  0  0  0  0  0  0  0
    3.2165   -6.1332   -0.4961 C   0  0  0  0  0  0  0  0  0  0  0  0
    2.8150   -4.9568   -1.2062 C   0  0  0  0  0  0  0  0  0  0  0  0
    1.7643   -4.1812   -0.6144 C   0  0  0  0  0  0  0  0  0  0  0  0
    1.1953   -4.5283    0.5854 C   0  0  0  0  0  0  0  0  0  0  0  0
    1.0806   -5.9969    2.5299 C   0  0  0  0  0  0  0  0  0  0  0  0
    1.3177   -7.1703    3.1543 N   0  0  0  0  0  0  0  0  0  0  0  0
    2.9694   -3.5376   -3.1220 N   0  0  0  0  0  0  0  0  0  0  0  0
    3.3924   -4.5863   -2.3847 C   0  0  0  0  0  0  0  0  0  0  0  0
    0.2618   -5.1500    3.2018 N   0  0  0  0  0  0  0  0  0  0  0  0
    4.4469   -5.2469   -2.9192 N   0  0  0  0  0  0  0  0  0  0  0  0
    0.1894   -4.9709    4.6506 C   0  0  0  0  0  0  0  0  0  0  0  0
    5.3964   -4.7114   -3.8898 C   0  0  0  0  0  0  0  0  0  0  0  0
   -0.3288   -3.5505    4.9281 C   0  0  0  0  0  0  0  0  0  0  0  0
    6.3073   -3.7089   -3.1571 C   0  0  0  0  0  0  0  0  0  0  0  0
   -1.2788   -3.5387    6.1337 C   0  0  0  0  0  0  0  0  0  0  0  0
    6.6537   -4.1576   -1.7258 C   0  0  0  0  0  0  0  0  0  0  0  0
   -0.4971   -3.8404    7.3866 N   0  0  0  0  0  0  0  0  0  0  0  0
    7.8104   -3.3704   -1.1637 N   0  0  0  0  0  0  0  0  0  0  0  0
   -1.0495   -5.0713    8.0523 C   0  0  0  0  0  0  0  0  0  0  0  0
    9.0969   -3.9950   -1.6332 C   0  0  0  0  0  0  0  0  0  0  0  0
   -0.5511   -2.6783    8.3472 C   0  0  0  0  0  0  0  0  0  0  0  0
    7.8015   -3.3425    0.3393 C   0  0  0  0  0  0  0  0  0  0  0  0
  1  6  2  0  0  0  0
  2  3  2  0  0  0  0
  2  1  1  0  0  0  0
  3  4  1  0  0  0  0
  4 10  1  0  0  0  0
  4  5  2  0  0  0  0
  6  5  1  0  0  0  0
  7  1  1  0  0  0  0
  7 11  1  0  0  0  0
  8  7  2  0  0  0  0
  9 10  2  0  0  0  0
 10 12  1  0  0  0  0
 12 14  1  0  0  0  0
 13 11  1  0  0  0  0
 13 15  1  0  0  0  0
 14 16  1  0  0  0  0
 16 18  1  0  0  0  0
 17 15  1  0  0  0  0
 17 19  1  0  0  0  0
 18 20  1  0  0  0  0
 19 23  1  0  0  0  0
 20 22  1  0  0  0  0
 20 24  1  0  0  0  0
 21 19  1  0  0  0  0
M  END
>  <CHROM.1>
175.08520461,-10.03691484,72.89795662,153.99441710,141.97516486,37.41866787
165.10802575,68.16642211,-120.91104846,-83.79171499,2.79067263,-4.57767957
1.26935718,2.26398290,0.31315686,1.33400712

>  <Name>
lig.pdb

>  <RI>
2.41306e+07

>  <Rbt.Current_Directory>
/home/itssahil/PROJECTS/Mol_Feturizer/New_Systems/rnas/2l94

>  <Rbt.Executable>
rbdock ($Id: //depot/dev/client3/rdock/2013.1/src/exe/rbdock.cxx#4 $)

>  <Rbt.Library>
libRbt.so (2013.1, Build901 2013/11/27)

>  <Rbt.Parameter_File>
/export/apps/rDock/src/rDock_2013.1_src/data/scripts/dock_solv.prm

>  <Rbt.Receptor>
prm/blind_docking_40.prm

>  <SCORE>
-1.58568

>  <SCORE.INTER>
-5.3204

>  <SCORE.INTER.CONST>
1

>  <SCORE.INTER.POLAR>
-1.55818

>  <SCORE.INTER.ROT>
10

>  <SCORE.INTER.SOLV>
20.3562

>  <SCORE.INTER.VDW>
-15.405

>  <SCORE.INTER.norm>
-0.221683

>  <SCORE.INTRA>
3.309

>  <SCORE.INTRA.DIHEDRAL>
9.25206

>  <SCORE.INTRA.DIHEDRAL.0>
7.52971

>  <SCORE.INTRA.POLAR>
0

>  <SCORE.INTRA.POLAR.0>
0

>  <SCORE.INTRA.REPUL>
0

>  <SCORE.INTRA.REPUL.0>
0

>  <SCORE.INTRA.SOLV>
0.348676

>  <SCORE.INTRA.SOLV.lig_0>
-22.1084

>  <SCORE.INTRA.VDW>
-1.49137

>  <SCORE.INTRA.VDW.0>
2.4256

>  <SCORE.INTRA.norm>
0.137875

>  <SCORE.RESTR>
0.425726

>  <SCORE.RESTR.CAVITY>
0.425726

>  <SCORE.RESTR.norm>
0.0177386

>  <SCORE.SYSTEM>
0

>  <SCORE.SYSTEM.CONST>
0

>  <SCORE.SYSTEM.DIHEDRAL>
0

>  <SCORE.SYSTEM.SOLV>
0

>  <SCORE.SYSTEM.norm>
0

>  <SCORE.heavy>
24

>  <SCORE.norm>
-0.06607

>  <RMSD>
7.078

$$$$
lig.pdb
 OpenBabel11021811453D
libRbt.so/2013.1/901 2013/11/27
 24 24  0  0  0  0  0  0  0  0999 V2000
   12.3234   -1.7708   -2.1298 C   0  0  0  0  0  0  0  0  0  0  0  0
   11.9092   -2.3919   -0.9035 C   0  0  0  0  0  0  0  0  0  0  0  0
   10.7036   -3.0435   -0.7938 C   0  0  0  0  0  0  0  0  0  0  0  0
    9.8003   -3.1466   -1.8996 C   0  0  0  0  0  0  0  0  0  0  0  0
   10.2002   -2.4970   -3.1136 C   0  0  0  0  0  0  0  0  0  0  0  0
   11.4000   -1.8392   -3.2218 C   0  0  0  0  0  0  0  0  0  0  0  0
   13.5323   -1.1488   -2.2588 C   0  0  0  0  0  0  0  0  0  0  0  0
   13.8966   -0.4839   -3.3760 N   0  0  0  0  0  0  0  0  0  0  0  0
    8.2580   -4.5529   -0.7368 N   0  0  0  0  0  0  0  0  0  0  0  0
    8.6185   -3.8216   -1.8126 C   0  0  0  0  0  0  0  0  0  0  0  0
   14.4592   -1.1489   -1.2689 N   0  0  0  0  0  0  0  0  0  0  0  0
    7.7007   -3.8155   -2.8083 N   0  0  0  0  0  0  0  0  0  0  0  0
   15.3744   -0.0611   -0.9292 C   0  0  0  0  0  0  0  0  0  0  0  0
    6.2771   -4.1061   -2.6691 C   0  0  0  0  0  0  0  0  0  0  0  0
   16.8098   -0.6051   -1.0116 C   0  0  0  0  0  0  0  0  0  0  0  0
    5.4937   -2.8547   -3.1072 C   0  0  0  0  0  0  0  0  0  0  0  0
   17.8278    0.4682   -0.6019 C   0  0  0  0  0  0  0  0  0  0  0  0
    5.7366   -1.6481   -2.1826 C   0  0  0  0  0  0  0  0  0  0  0  0
   17.7007    0.7368    0.8757 N   0  0  0  0  0  0  0  0  0  0  0  0
    4.8763   -0.4719   -2.5700 N   0  0  0  0  0  0  0  0  0  0  0  0
   16.8434    1.9517    1.1047 C   0  0  0  0  0  0  0  0  0  0  0  0
    5.4126    0.7641   -1.8991 C   0  0  0  0  0  0  0  0  0  0  0  0
   19.0566    0.9490    1.5024 C   0  0  0  0  0  0  0  0  0  0  0  0
    3.4403   -0.6616   -2.1677 C   0  0  0  0  0  0  0  0  0  0  0  0
  1  6  2  0  0  0  0
  2  3  2  0  0  0  0
  2  1  1  0  0  0  0
  3  4  1  0  0  0  0
  4 10  1  0  0  0  0
  4  5  2  0  0  0  0
  6  5  1  0  0  0  0
  7  1  1  0  0  0  0
  7 11  1  0  0  0  0
  8  7  2  0  0  0  0
  9 10  2  0  0  0  0
 10 12  1  0  0  0  0
 12 14  1  0  0  0  0
 13 11  1  0  0  0  0
 13 15  1  0  0  0  0
 14 16  1  0  0  0  0
 16 18  1  0  0  0  0
 17 15  1  0  0  0  0
 17 19  1  0  0  0  0
 18 20  1  0  0  0  0
 19 23  1  0  0  0  0
 20 22  1  0  0  0  0
 20 24  1  0  0  0  0
 21 19  1  0  0  0  0
M  END
>  <CHROM.1>
-6.66286732,-175.42059196,119.33349292,-122.92946495,-177.33237500,-64.99082453
-175.51846237,69.24099072,-97.42448784,-164.68136261,11.15515168,-1.41735098
-1.55906038,-0.25922404,0.14453927,-2.90515338

>  <Name>
lig.pdb

>  <RI>
2.48096e+07

>  <Rbt.Current_Directory>
/home/itssahil/PROJECTS/Mol_Feturizer/New_Systems/rnas/2l94

>  <Rbt.Executable>
rbdock ($Id: //depot/dev/client3/rdock/2013.1/src/exe/rbdock.cxx#4 $)

>  <Rbt.Library>
libRbt.so (2013.1, Build901 2013/11/27)

>  <Rbt.Parameter_File>
/export/apps/rDock/src/rDock_2013.1_src/data/scripts/dock_solv.prm

>  <Rbt.Receptor>
prm/pocket_docking_6.prm

>  <SCORE>
-20.3166

>  <SCORE.INTER>
-18.8512

>  <SCORE.INTER.CONST>
1

>  <SCORE.INTER.POLAR>
-3.52352

>  <SCORE.INTER.ROT>
10

>  <SCORE.INTER.SOLV>
13.377

>  <SCORE.INTER.VDW>
-15.5481

>  <SCORE.INTER.norm>
-0.785466

>  <SCORE.INTRA>
-1.46696

>  <SCORE.INTRA.DIHEDRAL>
1.1006

>  <SCORE.INTRA.DIHEDRAL.0>
7.52971

>  <SCORE.INTRA.POLAR>
0

>  <SCORE.INTRA.POLAR.0>
0

>  <SCORE.INTRA.REPUL>
0

>  <SCORE.INTRA.REPUL.0>
0

>  <SCORE.INTRA.SOLV>
0.20103

>  <SCORE.INTRA.SOLV.lig_0>
-22.1084

>  <SCORE.INTRA.VDW>
-2.11778

>  <SCORE.INTRA.VDW.0>
2.4256

>  <SCORE.INTRA.norm>
-0.0611235

>  <SCORE.RESTR>
0.00150685

>  <SCORE.RESTR.CAVITY>
0.00150685

>  <SCORE.RESTR.norm>
6.27855e-05

>  <SCORE.SYSTEM>
0

>  <SCORE.SYSTEM.CONST>
0

>  <SCORE.SYSTEM.DIHEDRAL>
0

>  <SCORE.SYSTEM.SOLV>
0

>  <SCORE.SYSTEM.norm>
0

>  <SCORE.heavy>
24

>  <SCORE.norm>
-0.846527

>  <RMSD>
7.078

$$$$
lig.pdb
 OpenBabel11021811453D
libRbt.so/2013.1/901 2013/11/27
 24 24  0  0  0  0  0  0  0  0999 V2000
   12.6400   -1.8736   -1.9932 C   0  0  0  0  0  0  0  0  0  0  0  0
   11.8781   -2.4029   -3.0888 C   0  0  0  0  0  0  0  0  0  0  0  0
   10.6861   -3.0587   -2.8910 C   0  0  0  0  0  0  0  0  0  0  0  0
   10.1351   -3.2406   -1.5823 C   0  0  0  0  0  0  0  0  0  0  0  0
   10.9135   -2.7412   -0.4867 C   0  0  0  0  0  0  0  0  0  0  0  0
   12.1076   -2.0934   -0.6823 C   0  0  0  0  0  0  0  0  0  0  0  0
   13.8089   -1.1928   -2.1809 C   0  0  0  0  0  0  0  0  0  0  0  0
   14.0951   -0.5333   -3.3238 N   0  0  0  0  0  0  0  0  0  0  0  0
    8.5712   -4.9978   -2.0004 N   0  0  0  0  0  0  0  0  0  0  0  0
    8.9362   -3.8573   -1.3774 C   0  0  0  0  0  0  0  0  0  0  0  0
   14.7716   -1.1248   -1.2282 N   0  0  0  0  0  0  0  0  0  0  0  0
    8.0028   -3.3712   -0.5250 N   0  0  0  0  0  0  0  0  0  0  0  0
   15.6409    0.0155   -0.9449 C   0  0  0  0  0  0  0  0  0  0  0  0
    6.9240   -4.1331    0.0964 C   0  0  0  0  0  0  0  0  0  0  0  0
   16.0188   -0.0338    0.5443 C   0  0  0  0  0  0  0  0  0  0  0  0
    6.7580   -3.6261    1.5411 C   0  0  0  0  0  0  0  0  0  0  0  0
   14.7760    0.1231    1.4314 C   0  0  0  0  0  0  0  0  0  0  0  0
    5.4748   -4.1505    2.2106 C   0  0  0  0  0  0  0  0  0  0  0  0
   15.1763    0.7486    2.7430 N   0  0  0  0  0  0  0  0  0  0  0  0
    4.2442   -3.4910    1.6413 N   0  0  0  0  0  0  0  0  0  0  0  0
   15.6500   -0.3153    3.6955 C   0  0  0  0  0  0  0  0  0  0  0  0
    4.1698   -2.0774    2.1530 C   0  0  0  0  0  0  0  0  0  0  0  0
   14.0198    1.4983    3.3566 C   0  0  0  0  0  0  0  0  0  0  0  0
    2.9834   -4.2153    2.0230 C   0  0  0  0  0  0  0  0  0  0  0  0
  1  6  2  0  0  0  0
  2  3  2  0  0  0  0
  2  1  1  0  0  0  0
  3  4  1  0  0  0  0
  4 10  1  0  0  0  0
  4  5  2  0  0  0  0
  6  5  1  0  0  0  0
  7  1  1  0  0  0  0
  7 11  1  0  0  0  0
  8  7  2  0  0  0  0
  9 10  2  0  0  0  0
 10 12  1  0  0  0  0
 12 14  1  0  0  0  0
 13 11  1  0  0  0  0
 13 15  1  0  0  0  0
 14 16  1  0  0  0  0
 16 18  1  0  0  0  0
 17 15  1  0  0  0  0
 17 19  1  0  0  0  0
 18 20  1  0  0  0  0
 19 23  1  0  0  0  0
 20 22  1  0  0  0  0
 20 24  1  0  0  0  0
 21 19  1  0  0  0  0
M  END
>  <CHROM.1>
44.46704758,25.52499330,141.53931593,151.29575177,-63.21549745,168.56179500
-72.09611993,-151.80780223,-85.21325645,-73.55061086,10.73203755,-2.06630048
0.03246084,-0.06232243,-0.36068730,-1.93863944

>  <Name>
lig.pdb

>  <RI>
9.7521e+06

>  <Rbt.Current_Directory>
/home/itssahil/PROJECTS/Mol_Feturizer/New_Systems/rnas/2l94

>  <Rbt.Executable>
rbdock ($Id: //depot/dev/client3/rdock/2013.1/src/exe/rbdock.cxx#4 $)

>  <Rbt.Library>
libRbt.so (2013.1, Build901 2013/11/27)

>  <Rbt.Parameter_File>
/export/apps/rDock/src/rDock_2013.1_src/data/scripts/dock_solv.prm

>  <Rbt.Receptor>
prm/pocket_docking_7.prm

>  <SCORE>
-23.73

>  <SCORE.INTER>
-26.8991

>  <SCORE.INTER.CONST>
1

>  <SCORE.INTER.POLAR>
-3.36071

>  <SCORE.INTER.ROT>
10

>  <SCORE.INTER.SOLV>
15.0176

>  <SCORE.INTER.VDW>
-22.0029

>  <SCORE.INTER.norm>
-1.1208

>  <SCORE.INTRA>
3.16911

>  <SCORE.INTRA.DIHEDRAL>
11.3712

>  <SCORE.INTRA.DIHEDRAL.0>
7.52971

>  <SCORE.INTRA.POLAR>
0

>  <SCORE.INTRA.POLAR.0>
0

>  <SCORE.INTRA.REPUL>
0

>  <SCORE.INTRA.REPUL.0>
0

>  <SCORE.INTRA.SOLV>
-0.144318

>  <SCORE.INTRA.SOLV.lig_0>
-22.1084

>  <SCORE.INTRA.VDW>
-2.44434

>  <SCORE.INTRA.VDW.0>
2.4256

>  <SCORE.INTRA.norm>
0.132046

>  <SCORE.RESTR>
0

>  <SCORE.RESTR.CAVITY>
0

>  <SCORE.RESTR.norm>
0

>  <SCORE.SYSTEM>
0

>  <SCORE.SYSTEM.CONST>
0

>  <SCORE.SYSTEM.DIHEDRAL>
0

>  <SCORE.SYSTEM.SOLV>
0

>  <SCORE.SYSTEM.norm>
0

>  <SCORE.heavy>
24

>  <SCORE.norm>
-0.98875

>  <RMSD>
7.089

$$$$
lig.pdb
 OpenBabel11021811453D
libRbt.so/2013.1/901 2013/11/27
 24 24  0  0  0  0  0  0  0  0999 V2000
   12.0980   -1.4178   -2.2595 C   0  0  0  0  0  0  0  0  0  0  0  0
   11.0849   -1.4057   -3.2766 C   0  0  0  0  0  0  0  0  0  0  0  0
    9.9434   -2.1645   -3.1699 C   0  0  0  0  0  0  0  0  0  0  0  0
    9.6986   -3.0004   -2.0338 C   0  0  0  0  0  0  0  0  0  0  0  0
   10.7265   -3.0373   -1.0349 C   0  0  0  0  0  0  0  0  0  0  0  0
   11.8702   -2.2864   -1.1442 C   0  0  0  0  0  0  0  0  0  0  0  0
   13.2202   -0.6440   -2.3404 C   0  0  0  0  0  0  0  0  0  0  0  0
   13.2020    0.6238   -2.8045 N   0  0  0  0  0  0  0  0  0  0  0  0
    8.3069   -4.5394   -0.8494 N   0  0  0  0  0  0  0  0  0  0  0  0
    8.5537   -3.7291   -1.9004 C   0  0  0  0  0  0  0  0  0  0  0  0
   14.4411   -1.0915   -1.9554 N   0  0  0  0  0  0  0  0  0  0  0  0
    7.5607   -3.7013   -2.8208 N   0  0  0  0  0  0  0  0  0  0  0  0
   15.4968   -0.3082   -1.3164 C   0  0  0  0  0  0  0  0  0  0  0  0
    6.1644   -4.0602   -2.5923 C   0  0  0  0  0  0  0  0  0  0  0  0
   15.8992   -1.0243   -0.0171 C   0  0  0  0  0  0  0  0  0  0  0  0
    5.5995   -3.1062   -1.5235 C   0  0  0  0  0  0  0  0  0  0  0  0
   16.6479   -0.0718    0.9253 C   0  0  0  0  0  0  0  0  0  0  0  0
    4.2646   -3.5975   -0.9348 C   0  0  0  0  0  0  0  0  0  0  0  0
   15.6698    0.9054    1.5256 N   0  0  0  0  0  0  0  0  0  0  0  0
    4.4397   -4.8791   -0.1600 N   0  0  0  0  0  0  0  0  0  0  0  0
   16.4091    2.0798    2.1069 C   0  0  0  0  0  0  0  0  0  0  0  0
    3.0901   -5.5154    0.0378 C   0  0  0  0  0  0  0  0  0  0  0  0
   14.8421    0.2461    2.6008 C   0  0  0  0  0  0  0  0  0  0  0  0
    5.0723   -4.6485    1.1840 C   0  0  0  0  0  0  0  0  0  0  0  0
  1  6  2  0  0  0  0
  2  3  2  0  0  0  0
  2  1  1  0  0  0  0
  3  4  1  0  0  0  0
  4 10  1  0  0  0  0
  4  5  2  0  0  0  0
  6  5  1  0  0  0  0
  7  1  1  0  0  0  0
  7 11  1  0  0  0  0
  8  7  2  0  0  0  0
  9 10  2  0  0  0  0
 10 12  1  0  0  0  0
 12 14  1  0  0  0  0
 13 11  1  0  0  0  0
 13 15  1  0  0  0  0
 14 16  1  0  0  0  0
 16 18  1  0  0  0  0
 17 15  1  0  0  0  0
 17 19  1  0  0  0  0
 18 20  1  0  0  0  0
 19 23  1  0  0  0  0
 20 22  1  0  0  0  0
 20 24  1  0  0  0  0
 21 19  1  0  0  0  0
M  END
>  <CHROM.1>
179.00093862,39.40913235,61.10866719,125.67552434,-161.60426204,-165.31672584
65.63214728,73.29479122,-163.02801086,-163.51908636,10.57787563,-2.09466753
-0.93284150,-0.11594890,-0.42442072,-1.61419528

>  <Name>
lig.pdb

>  <RI>
1.39428e+07

>  <Rbt.Current_Directory>
/home/itssahil/PROJECTS/Mol_Feturizer/New_Systems/rnas/2l94

>  <Rbt.Executable>
rbdock ($Id: //depot/dev/client3/rdock/2013.1/src/exe/rbdock.cxx#4 $)

>  <Rbt.Library>
libRbt.so (2013.1, Build901 2013/11/27)

>  <Rbt.Parameter_File>
/export/apps/rDock/src/rDock_2013.1_src/data/scripts/dock_solv.prm

>  <Rbt.Receptor>
prm/pocket_docking_8.prm

>  <SCORE>
-25.1362

>  <SCORE.INTER>
-25.5244

>  <SCORE.INTER.CONST>
1

>  <SCORE.INTER.POLAR>
-4.08244

>  <SCORE.INTER.ROT>
10

>  <SCORE.INTER.SOLV>
13.2851

>  <SCORE.INTER.VDW>
-18.1032

>  <SCORE.INTER.norm>
-1.06352

>  <SCORE.INTRA>
0.388215

>  <SCORE.INTRA.DIHEDRAL>
6.32233

>  <SCORE.INTRA.DIHEDRAL.0>
7.52971

>  <SCORE.INTRA.POLAR>
0

>  <SCORE.INTRA.POLAR.0>
0

>  <SCORE.INTRA.REPUL>
0

>  <SCORE.INTRA.REPUL.0>
0

>  <SCORE.INTRA.SOLV>
0.442289

>  <SCORE.INTRA.SOLV.lig_0>
-22.1084

>  <SCORE.INTRA.VDW>
-2.99409

>  <SCORE.INTRA.VDW.0>
2.4256

>  <SCORE.INTRA.norm>
0.0161756

>  <SCORE.RESTR>
0

>  <SCORE.RESTR.CAVITY>
0

>  <SCORE.RESTR.norm>
0

>  <SCORE.SYSTEM>
0

>  <SCORE.SYSTEM.CONST>
0

>  <SCORE.SYSTEM.DIHEDRAL>
0

>  <SCORE.SYSTEM.SOLV>
0

>  <SCORE.SYSTEM.norm>
0

>  <SCORE.heavy>
24

>  <SCORE.norm>
-1.04734

>  <RMSD>
7.106

$$$$
lig.pdb
 OpenBabel11021811453D
libRbt.so/2013.1/901 2013/11/27
 24 24  0  0  0  0  0  0  0  0999 V2000
    3.0530   -5.4690   -2.2323 C   0  0  0  0  0  0  0  0  0  0  0  0
    2.2099   -4.6211   -1.4378 C   0  0  0  0  0  0  0  0  0  0  0  0
    1.6372   -5.0615   -0.2681 C   0  0  0  0  0  0  0  0  0  0  0  0
    1.8586   -6.3867    0.2261 C   0  0  0  0  0  0  0  0  0  0  0  0
    2.6733   -7.2430   -0.5855 C   0  0  0  0  0  0  0  0  0  0  0  0
    3.2390   -6.8070   -1.7575 C   0  0  0  0  0  0  0  0  0  0  0  0
    3.6523   -5.0316   -3.3787 C   0  0  0  0  0  0  0  0  0  0  0  0
    2.9758   -4.4009   -4.3623 N   0  0  0  0  0  0  0  0  0  0  0  0
    1.5206   -8.0651    1.8925 N   0  0  0  0  0  0  0  0  0  0  0  0
    1.3253   -6.8223    1.4032 C   0  0  0  0  0  0  0  0  0  0  0  0
    4.9778   -5.1952   -3.6140 N   0  0  0  0  0  0  0  0  0  0  0  0
    0.5468   -6.0374    2.1854 N   0  0  0  0  0  0  0  0  0  0  0  0
    5.8618   -4.2653   -4.3142 C   0  0  0  0  0  0  0  0  0  0  0  0
    0.2996   -6.2189    3.6124 C   0  0  0  0  0  0  0  0  0  0  0  0
    6.6023   -3.4282   -3.2588 C   0  0  0  0  0  0  0  0  0  0  0  0
   -0.0913   -4.8511    4.2025 C   0  0  0  0  0  0  0  0  0  0  0  0
    7.4757   -4.3196   -2.3651 C   0  0  0  0  0  0  0  0  0  0  0  0
   -0.4135   -4.9233    5.7061 C   0  0  0  0  0  0  0  0  0  0  0  0
    7.9688   -3.5154   -1.1896 N   0  0  0  0  0  0  0  0  0  0  0  0
   -1.0415   -3.6444    6.1996 N   0  0  0  0  0  0  0  0  0  0  0  0
    9.3351   -3.9924   -0.7784 C   0  0  0  0  0  0  0  0  0  0  0  0
   -0.9556   -3.6092    7.7019 C   0  0  0  0  0  0  0  0  0  0  0  0
    7.0200   -3.6314   -0.0225 C   0  0  0  0  0  0  0  0  0  0  0  0
   -2.4830   -3.5246    5.7902 C   0  0  0  0  0  0  0  0  0  0  0  0
  1  6  2  0  0  0  0
  2  3  2  0  0  0  0
  2  1  1  0  0  0  0
  3  4  1  0  0  0  0
  4 10  1  0  0  0  0
  4  5  2  0  0  0  0
  6  5  1  0  0  0  0
  7  1  1  0  0  0  0
  7 11  1  0  0  0  0
  8  7  2  0  0  0  0
  9 10  2  0  0  0  0
 10 12  1  0  0  0  0
 12 14  1  0  0  0  0
 13 11  1  0  0  0  0
 13 15  1  0  0  0  0
 14 16  1  0  0  0  0
 16 18  1  0  0  0  0
 17 15  1  0  0  0  0
 17 19  1  0  0  0  0
 18 20  1  0  0  0  0
 19 23  1  0  0  0  0
 20 22  1  0  0  0  0
 20 24  1  0  0  0  0
 21 19  1  0  0  0  0
M  END
>  <CHROM.1>
-179.87507568,-50.17414359,155.78449163,97.64525084,62.16577607,178.53229374
-169.13373684,-169.08789879,-147.38523244,-163.31819789,2.90040174,-5.00135398
0.45641968,0.78371183,-0.39422663,-1.89932679

>  <Name>
lig.pdb

>  <RI>
2.41306e+07

>  <Rbt.Current_Directory>
/home/itssahil/PROJECTS/Mol_Feturizer/New_Systems/rnas/2l94

>  <Rbt.Executable>
rbdock ($Id: //depot/dev/client3/rdock/2013.1/src/exe/rbdock.cxx#4 $)

>  <Rbt.Library>
libRbt.so (2013.1, Build901 2013/11/27)

>  <Rbt.Parameter_File>
/export/apps/rDock/src/rDock_2013.1_src/data/scripts/dock_solv.prm

>  <Rbt.Receptor>
prm/blind_docking_40.prm

>  <SCORE>
-6.55614

>  <SCORE.INTER>
-8.51386

>  <SCORE.INTER.CONST>
1

>  <SCORE.INTER.POLAR>
-1.64231

>  <SCORE.INTER.ROT>
10

>  <SCORE.INTER.SOLV>
17.9973

>  <SCORE.INTER.VDW>
-16.4673

>  <SCORE.INTER.norm>
-0.354744

>  <SCORE.INTRA>
1.257

>  <SCORE.INTRA.DIHEDRAL>
8.2933

>  <SCORE.INTRA.DIHEDRAL.0>
7.52971

>  <SCORE.INTRA.POLAR>
0

>  <SCORE.INTRA.POLAR.0>
0

>  <SCORE.INTRA.REPUL>
0

>  <SCORE.INTRA.REPUL.0>
0

>  <SCORE.INTRA.SOLV>
-0.0467482

>  <SCORE.INTRA.SOLV.lig_0>
-22.1084

>  <SCORE.INTRA.VDW>
-2.86628

>  <SCORE.INTRA.VDW.0>
2.4256

>  <SCORE.INTRA.norm>
0.0523748

>  <SCORE.RESTR>
0.700723

>  <SCORE.RESTR.CAVITY>
0.700723

>  <SCORE.RESTR.norm>
0.0291968

>  <SCORE.SYSTEM>
0

>  <SCORE.SYSTEM.CONST>
0

>  <SCORE.SYSTEM.DIHEDRAL>
0

>  <SCORE.SYSTEM.SOLV>
0

>  <SCORE.SYSTEM.norm>
0

>  <SCORE.heavy>
24

>  <SCORE.norm>
-0.273172

>  <RMSD>
7.113

$$$$
lig.pdb
 OpenBabel11021811453D
libRbt.so/2013.1/901 2013/11/27
 24 24  0  0  0  0  0  0  0  0999 V2000
   12.1758   -1.5994   -1.1165 C   0  0  0  0  0  0  0  0  0  0  0  0
   11.9942   -2.5811   -2.1481 C   0  0  0  0  0  0  0  0  0  0  0  0
   10.8175   -3.2790   -2.2836 C   0  0  0  0  0  0  0  0  0  0  0  0
    9.7058   -3.0574   -1.4092 C   0  0  0  0  0  0  0  0  0  0  0  0
    9.9004   -2.1012   -0.3588 C   0  0  0  0  0  0  0  0  0  0  0  0
   11.0776   -1.4097   -0.2176 C   0  0  0  0  0  0  0  0  0  0  0  0
   13.3286   -0.8780   -0.9927 C   0  0  0  0  0  0  0  0  0  0  0  0
   13.3388    0.4360   -0.6821 N   0  0  0  0  0  0  0  0  0  0  0  0
    8.4023   -4.8919   -2.2117 N   0  0  0  0  0  0  0  0  0  0  0  0
    8.5217   -3.7176   -1.5568 C   0  0  0  0  0  0  0  0  0  0  0  0
   14.5545   -1.4305   -1.1693 N   0  0  0  0  0  0  0  0  0  0  0  0
    7.3561   -3.2445   -1.0553 N   0  0  0  0  0  0  0  0  0  0  0  0
   15.7761   -1.0971   -0.4395 C   0  0  0  0  0  0  0  0  0  0  0  0
    6.1617   -4.0313   -0.7638 C   0  0  0  0  0  0  0  0  0  0  0  0
   15.5097   -1.3179    1.0583 C   0  0  0  0  0  0  0  0  0  0  0  0
    6.2882   -4.5682    0.6741 C   0  0  0  0  0  0  0  0  0  0  0  0
   16.7522   -0.9777    1.8927 C   0  0  0  0  0  0  0  0  0  0  0  0
    4.9696   -5.1586    1.2056 C   0  0  0  0  0  0  0  0  0  0  0  0
   16.3618   -0.8657    3.3443 N   0  0  0  0  0  0  0  0  0  0  0  0
    3.9709   -4.0771    1.5320 N   0  0  0  0  0  0  0  0  0  0  0  0
   15.7684    0.4904    3.6130 C   0  0  0  0  0  0  0  0  0  0  0  0
    4.2852   -3.5209    2.8948 C   0  0  0  0  0  0  0  0  0  0  0  0
   17.5559   -1.0820    4.2406 C   0  0  0  0  0  0  0  0  0  0  0  0
    2.5574   -4.5891    1.5279 C   0  0  0  0  0  0  0  0  0  0  0  0
  1  6  2  0  0  0  0
  2  3  2  0  0  0  0
  2  1  1  0  0  0  0
  3  4  1  0  0  0  0
  4 10  1  0  0  0  0
  4  5  2  0  0  0  0
  6  5  1  0  0  0  0
  7  1  1  0  0  0  0
  7 11  1  0  0  0  0
  8  7  2  0  0  0  0
  9 10  2  0  0  0  0
 10 12  1  0  0  0  0
 12 14  1  0  0  0  0
 13 11  1  0  0  0  0
 13 15  1  0  0  0  0
 14 16  1  0  0  0  0
 16 18  1  0  0  0  0
 17 15  1  0  0  0  0
 17 19  1  0  0  0  0
 18 20  1  0  0  0  0
 19 23  1  0  0  0  0
 20 22  1  0  0  0  0
 20 24  1  0  0  0  0
 21 19  1  0  0  0  0
M  END
>  <CHROM.1>
21.79240678,139.77480076,87.91687696,57.50954573,-179.64433259,167.77117160
-73.48504295,165.76930539,-81.24126586,-81.74612114,10.69563230,-2.43641498
0.30153916,-0.12030532,-0.30682203,-1.68063847

>  <Name>
lig.pdb

>  <RI>
9.7521e+06

>  <Rbt.Current_Directory>
/home/itssahil/PROJECTS/Mol_Feturizer/New_Systems/rnas/2l94

>  <Rbt.Executable>
rbdock ($Id: //depot/dev/client3/rdock/2013.1/src/exe/rbdock.cxx#4 $)

>  <Rbt.Library>
libRbt.so (2013.1, Build901 2013/11/27)

>  <Rbt.Parameter_File>
/export/apps/rDock/src/rDock_2013.1_src/data/scripts/dock_solv.prm

>  <Rbt.Receptor>
prm/pocket_docking_7.prm

>  <SCORE>
-25.7707

>  <SCORE.INTER>
-26.7979

>  <SCORE.INTER.CONST>
1

>  <SCORE.INTER.POLAR>
-3.25837

>  <SCORE.INTER.ROT>
10

>  <SCORE.INTER.SOLV>
13.7163

>  <SCORE.INTER.VDW>
-21.8428

>  <SCORE.INTER.norm>
-1.11658

>  <SCORE.INTRA>
1.02719

>  <SCORE.INTRA.DIHEDRAL>
8.53544

>  <SCORE.INTRA.DIHEDRAL.0>
7.52971

>  <SCORE.INTRA.POLAR>
0

>  <SCORE.INTRA.POLAR.0>
0

>  <SCORE.INTRA.REPUL>
0

>  <SCORE.INTRA.REPUL.0>
0

>  <SCORE.INTRA.SOLV>
0.00236353

>  <SCORE.INTRA.SOLV.lig_0>
-22.1084

>  <SCORE.INTRA.VDW>
-3.24171

>  <SCORE.INTRA.VDW.0>
2.4256

>  <SCORE.INTRA.norm>
0.0427995

>  <SCORE.RESTR>
0

>  <SCORE.RESTR.CAVITY>
0

>  <SCORE.RESTR.norm>
0

>  <SCORE.SYSTEM>
0

>  <SCORE.SYSTEM.CONST>
0

>  <SCORE.SYSTEM.DIHEDRAL>
0

>  <SCORE.SYSTEM.SOLV>
0

>  <SCORE.SYSTEM.norm>
0

>  <SCORE.heavy>
24

>  <SCORE.norm>
-1.07378

>  <RMSD>
7.120

$$$$
lig.pdb
 OpenBabel11021811453D
libRbt.so/2013.1/901 2013/11/27
 24 24  0  0  0  0  0  0  0  0999 V2000
   10.3903   -2.1496   -1.2030 C   0  0  0  0  0  0  0  0  0  0  0  0
   10.9533   -2.1116   -2.5231 C   0  0  0  0  0  0  0  0  0  0  0  0
   12.2561   -1.7317   -2.7433 C   0  0  0  0  0  0  0  0  0  0  0  0
   13.1250   -1.3630   -1.6670 C   0  0  0  0  0  0  0  0  0  0  0  0
   12.5516   -1.3690   -0.3528 C   0  0  0  0  0  0  0  0  0  0  0  0
   11.2488   -1.7403   -0.1326 C   0  0  0  0  0  0  0  0  0  0  0  0
    9.1076   -2.5559   -0.9700 C   0  0  0  0  0  0  0  0  0  0  0  0
    8.4394   -3.3812   -1.8039 N   0  0  0  0  0  0  0  0  0  0  0  0
   14.8530   -0.3102   -2.9374 N   0  0  0  0  0  0  0  0  0  0  0  0
   14.4290   -1.0196   -1.8701 C   0  0  0  0  0  0  0  0  0  0  0  0
    8.4076   -2.1624    0.1228 N   0  0  0  0  0  0  0  0  0  0  0  0
   15.4164   -1.3666   -1.0107 N   0  0  0  0  0  0  0  0  0  0  0  0
    7.4410   -2.9602    0.8748 C   0  0  0  0  0  0  0  0  0  0  0  0
   16.7140   -0.7111   -0.8799 C   0  0  0  0  0  0  0  0  0  0  0  0
    6.0653   -2.2870    0.7440 C   0  0  0  0  0  0  0  0  0  0  0  0
   17.2779   -1.0515    0.5122 C   0  0  0  0  0  0  0  0  0  0  0  0
    5.0009   -3.0541    1.5406 C   0  0  0  0  0  0  0  0  0  0  0  0
   16.3821   -0.5431    1.6562 C   0  0  0  0  0  0  0  0  0  0  0  0
    5.1024   -2.6790    2.9969 N   0  0  0  0  0  0  0  0  0  0  0  0
   17.0342   -0.7439    3.0008 N   0  0  0  0  0  0  0  0  0  0  0  0
    4.2506   -3.6019    3.8251 C   0  0  0  0  0  0  0  0  0  0  0  0
   16.0069   -0.5182    4.0775 C   0  0  0  0  0  0  0  0  0  0  0  0
    4.6639   -1.2523    3.2167 C   0  0  0  0  0  0  0  0  0  0  0  0
   18.1858    0.1971    3.2199 C   0  0  0  0  0  0  0  0  0  0  0  0
  1  6  2  0  0  0  0
  2  3  2  0  0  0  0
  2  1  1  0  0  0  0
  3  4  1  0  0  0  0
  4 10  1  0  0  0  0
  4  5  2  0  0  0  0
  6  5  1  0  0  0  0
  7  1  1  0  0  0  0
  7 11  1  0  0  0  0
  8  7  2  0  0  0  0
  9 10  2  0  0  0  0
 10 12  1  0  0  0  0
 12 14  1  0  0  0  0
 13 11  1  0  0  0  0
 13 15  1  0  0  0  0
 14 16  1  0  0  0  0
 16 18  1  0  0  0  0
 17 15  1  0  0  0  0
 17 19  1  0  0  0  0
 18 20  1  0  0  0  0
 19 23  1  0  0  0  0
 20 22  1  0  0  0  0
 20 24  1  0  0  0  0
 21 19  1  0  0  0  0
M  END
>  <CHROM.1>
37.27501313,24.70276086,158.72143191,-116.13012649,-178.61151820,-61.35271087
-173.26132533,80.09513059,-169.45195681,-167.58614712,11.45800920,-1.68426430
0.40151914,3.06519377,0.19565785,1.48482129

>  <Name>
lig.pdb

>  <RI>
9.7521e+06

>  <Rbt.Current_Directory>
/home/itssahil/PROJECTS/Mol_Feturizer/New_Systems/rnas/2l94

>  <Rbt.Executable>
rbdock ($Id: //depot/dev/client3/rdock/2013.1/src/exe/rbdock.cxx#4 $)

>  <Rbt.Library>
libRbt.so (2013.1, Build901 2013/11/27)

>  <Rbt.Parameter_File>
/export/apps/rDock/src/rDock_2013.1_src/data/scripts/dock_solv.prm

>  <Rbt.Receptor>
prm/pocket_docking_7.prm

>  <SCORE>
-26.05

>  <SCORE.INTER>
-26.9114

>  <SCORE.INTER.CONST>
1

>  <SCORE.INTER.POLAR>
-3.6736

>  <SCORE.INTER.ROT>
10

>  <SCORE.INTER.SOLV>
10.5002

>  <SCORE.INTER.VDW>
-19.4624

>  <SCORE.INTER.norm>
-1.12131

>  <SCORE.INTRA>
0.861442

>  <SCORE.INTRA.DIHEDRAL>
6.3308

>  <SCORE.INTRA.DIHEDRAL.0>
7.52971

>  <SCORE.INTRA.POLAR>
0

>  <SCORE.INTRA.POLAR.0>
0

>  <SCORE.INTRA.REPUL>
0

>  <SCORE.INTRA.REPUL.0>
0

>  <SCORE.INTRA.SOLV>
-0.0396497

>  <SCORE.INTRA.SOLV.lig_0>
-22.1084

>  <SCORE.INTRA.VDW>
-2.28413

>  <SCORE.INTRA.VDW.0>
2.4256

>  <SCORE.INTRA.norm>
0.0358934

>  <SCORE.RESTR>
0

>  <SCORE.RESTR.CAVITY>
0

>  <SCORE.RESTR.norm>
0

>  <SCORE.SYSTEM>
0

>  <SCORE.SYSTEM.CONST>
0

>  <SCORE.SYSTEM.DIHEDRAL>
0

>  <SCORE.SYSTEM.SOLV>
0

>  <SCORE.SYSTEM.norm>
0

>  <SCORE.heavy>
24

>  <SCORE.norm>
-1.08542

>  <RMSD>
7.132

$$$$
lig.pdb
 OpenBabel11021811453D
libRbt.so/2013.1/901 2013/11/27
 24 24  0  0  0  0  0  0  0  0999 V2000
    9.6789   -3.0949   -1.9029 C   0  0  0  0  0  0  0  0  0  0  0  0
   10.0684   -2.4337   -3.1162 C   0  0  0  0  0  0  0  0  0  0  0  0
   11.2565   -1.7494   -3.2179 C   0  0  0  0  0  0  0  0  0  0  0  0
   12.1744   -1.6677   -2.1224 C   0  0  0  0  0  0  0  0  0  0  0  0
   11.7688   -2.2999   -0.9011 C   0  0  0  0  0  0  0  0  0  0  0  0
   10.5792   -2.9764   -0.7959 C   0  0  0  0  0  0  0  0  0  0  0  0
    8.5163   -3.8039   -1.8010 C   0  0  0  0  0  0  0  0  0  0  0  0
    8.2168   -4.5664   -0.7277 N   0  0  0  0  0  0  0  0  0  0  0  0
   13.7954   -0.4152   -3.3519 N   0  0  0  0  0  0  0  0  0  0  0  0
   13.3716   -1.0228   -2.2234 C   0  0  0  0  0  0  0  0  0  0  0  0
    7.5700   -3.7919   -2.7724 N   0  0  0  0  0  0  0  0  0  0  0  0
   14.2438   -0.9389   -1.1908 N   0  0  0  0  0  0  0  0  0  0  0  0
    6.1218   -3.8427   -2.5816 C   0  0  0  0  0  0  0  0  0  0  0  0
   15.3000    0.0563   -1.0343 C   0  0  0  0  0  0  0  0  0  0  0  0
    5.7309   -2.7163   -1.6113 C   0  0  0  0  0  0  0  0  0  0  0  0
   16.6153   -0.6912   -0.7463 C   0  0  0  0  0  0  0  0  0  0  0  0
    6.0425   -1.3396   -2.2144 C   0  0  0  0  0  0  0  0  0  0  0  0
   17.7954    0.2624   -0.4857 C   0  0  0  0  0  0  0  0  0  0  0  0
    5.7110   -0.2683   -1.2073 N   0  0  0  0  0  0  0  0  0  0  0  0
   19.0584   -0.4953   -0.1628 N   0  0  0  0  0  0  0  0  0  0  0  0
    5.6322    1.0704   -1.8893 C   0  0  0  0  0  0  0  0  0  0  0  0
   19.0178   -0.9137    1.2825 C   0  0  0  0  0  0  0  0  0  0  0  0
    6.7488   -0.2186   -0.1135 C   0  0  0  0  0  0  0  0  0  0  0  0
   20.2922    0.3309   -0.3972 C   0  0  0  0  0  0  0  0  0  0  0  0
  1  6  2  0  0  0  0
  2  3  2  0  0  0  0
  2  1  1  0  0  0  0
  3  4  1  0  0  0  0
  4 10  1  0  0  0  0
  4  5  2  0  0  0  0
  6  5  1  0  0  0  0
  7  1  1  0  0  0  0
  7 11  1  0  0  0  0
  8  7  2  0  0  0  0
  9 10  2  0  0  0  0
 10 12  1  0  0  0  0
 12 14  1  0  0  0  0
 13 11  1  0  0  0  0
 13 15  1  0  0  0  0
 14 16  1  0  0  0  0
 16 18  1  0  0  0  0
 17 15  1  0  0  0  0
 17 19  1  0  0  0  0
 18 20  1  0  0  0  0
 19 23  1  0  0  0  0
 20 22  1  0  0  0  0
 20 24  1  0  0  0  0
 21 19  1  0  0  0  0
M  END
>  <CHROM.1>
-0.22289387,171.47818060,-128.78947260,53.57759722,63.66351289,-176.90155544
178.14552634,-177.14841367,-163.99720043,-80.26806419,11.50289176,-1.52866783
-1.44294810,-2.97393817,-0.09703127,0.12321835

>  <Name>
lig.pdb

>  <RI>
1.39428e+07

>  <Rbt.Current_Directory>
/home/itssahil/PROJECTS/Mol_Feturizer/New_Systems/rnas/2l94

>  <Rbt.Executable>
rbdock ($Id: //depot/dev/client3/rdock/2013.1/src/exe/rbdock.cxx#4 $)

>  <Rbt.Library>
libRbt.so (2013.1, Build901 2013/11/27)

>  <Rbt.Parameter_File>
/export/apps/rDock/src/rDock_2013.1_src/data/scripts/dock_solv.prm

>  <Rbt.Receptor>
prm/pocket_docking_8.prm

>  <SCORE>
-27.0664

>  <SCORE.INTER>
-24.5754

>  <SCORE.INTER.CONST>
1

>  <SCORE.INTER.POLAR>
-4.03204

>  <SCORE.INTER.ROT>
10

>  <SCORE.INTER.SOLV>
12.7033

>  <SCORE.INTER.VDW>
-17.4446

>  <SCORE.INTER.norm>
-1.02397

>  <SCORE.INTRA>
-2.49106

>  <SCORE.INTRA.DIHEDRAL>
-0.806948

>  <SCORE.INTRA.DIHEDRAL.0>
7.52971

>  <SCORE.INTRA.POLAR>
0

>  <SCORE.INTRA.POLAR.0>
0

>  <SCORE.INTRA.REPUL>
0

>  <SCORE.INTRA.REPUL.0>
0

>  <SCORE.INTRA.SOLV>
0.370216

>  <SCORE.INTRA.SOLV.lig_0>
-22.1084

>  <SCORE.INTRA.VDW>
-2.27269

>  <SCORE.INTRA.VDW.0>
2.4256

>  <SCORE.INTRA.norm>
-0.103794

>  <SCORE.RESTR>
0

>  <SCORE.RESTR.CAVITY>
0

>  <SCORE.RESTR.norm>
0

>  <SCORE.SYSTEM>
0

>  <SCORE.SYSTEM.CONST>
0

>  <SCORE.SYSTEM.DIHEDRAL>
0

>  <SCORE.SYSTEM.SOLV>
0

>  <SCORE.SYSTEM.norm>
0

>  <SCORE.heavy>
24

>  <SCORE.norm>
-1.12777

>  <RMSD>
7.140

$$$$
lig.pdb
 OpenBabel11021811453D
libRbt.so/2013.1/901 2013/11/27
 24 24  0  0  0  0  0  0  0  0999 V2000
    1.3217   -5.9077    0.0045 C   0  0  0  0  0  0  0  0  0  0  0  0
    0.8879   -5.7717   -1.3572 C   0  0  0  0  0  0  0  0  0  0  0  0
    1.7449   -5.3652   -2.3524 C   0  0  0  0  0  0  0  0  0  0  0  0
    3.1191   -5.0650   -2.0864 C   0  0  0  0  0  0  0  0  0  0  0  0
    3.5425   -5.1687   -0.7204 C   0  0  0  0  0  0  0  0  0  0  0  0
    2.6857   -5.5666    0.2753 C   0  0  0  0  0  0  0  0  0  0  0  0
    0.4872   -6.3412    0.9947 C   0  0  0  0  0  0  0  0  0  0  0  0
   -0.6250   -7.0659    0.7480 N   0  0  0  0  0  0  0  0  0  0  0  0
    3.5936   -4.1500   -4.2418 N   0  0  0  0  0  0  0  0  0  0  0  0
    3.9868   -4.6961   -3.0716 C   0  0  0  0  0  0  0  0  0  0  0  0
    0.7163   -6.0787    2.3053 N   0  0  0  0  0  0  0  0  0  0  0  0
    5.3274   -4.8499   -2.9574 N   0  0  0  0  0  0  0  0  0  0  0  0
    0.4314   -6.9607    3.4354 C   0  0  0  0  0  0  0  0  0  0  0  0
    6.3450   -4.1194   -3.7067 C   0  0  0  0  0  0  0  0  0  0  0  0
    0.8512   -6.2334    4.7230 C   0  0  0  0  0  0  0  0  0  0  0  0
    6.7098   -2.8576   -2.9026 C   0  0  0  0  0  0  0  0  0  0  0  0
   -0.0470   -5.0163    4.9836 C   0  0  0  0  0  0  0  0  0  0  0  0
    8.1848   -2.8399   -2.4624 C   0  0  0  0  0  0  0  0  0  0  0  0
   -1.2312   -5.4401    5.8141 N   0  0  0  0  0  0  0  0  0  0  0  0
    8.4046   -3.6795   -1.2294 N   0  0  0  0  0  0  0  0  0  0  0  0
   -2.3106   -5.9935    4.9240 C   0  0  0  0  0  0  0  0  0  0  0  0
    8.5487   -5.1198   -1.6418 C   0  0  0  0  0  0  0  0  0  0  0  0
   -1.7757   -4.2778    6.6070 C   0  0  0  0  0  0  0  0  0  0  0  0
    7.2678   -3.5629   -0.2526 C   0  0  0  0  0  0  0  0  0  0  0  0
  1  6  2  0  0  0  0
  2  3  2  0  0  0  0
  2  1  1  0  0  0  0
  3  4  1  0  0  0  0
  4 10  1  0  0  0  0
  4  5  2  0  0  0  0
  6  5  1  0  0  0  0
  7  1  1  0  0  0  0
  7 11  1  0  0  0  0
  8  7  2  0  0  0  0
  9 10  2  0  0  0  0
 10 12  1  0  0  0  0
 12 14  1  0  0  0  0
 13 11  1  0  0  0  0
 13 15  1  0  0  0  0
 14 16  1  0  0  0  0
 16 18  1  0  0  0  0
 17 15  1  0  0  0  0
 17 19  1  0  0  0  0
 18 20  1  0  0  0  0
 19 23  1  0  0  0  0
 20 22  1  0  0  0  0
 20 24  1  0  0  0  0
 21 19  1  0  0  0  0
M  END
>  <CHROM.1>
23.15351503,21.89978213,90.31552265,-179.65455566,67.24291091,117.72502541
-80.85714757,89.72686393,-84.50586844,82.42015710,2.85521324,-5.07636463
0.30286392,2.42206819,0.31209713,1.48087808

>  <Name>
lig.pdb

>  <RI>
2.41306e+07

>  <Rbt.Current_Directory>
/home/itssahil/PROJECTS/Mol_Feturizer/New_Systems/rnas/2l94

>  <Rbt.Executable>
rbdock ($Id: //depot/dev/client3/rdock/2013.1/src/exe/rbdock.cxx#4 $)

>  <Rbt.Library>
libRbt.so (2013.1, Build901 2013/11/27)

>  <Rbt.Parameter_File>
/export/apps/rDock/src/rDock_2013.1_src/data/scripts/dock_solv.prm

>  <Rbt.Receptor>
prm/blind_docking_40.prm

>  <SCORE>
-0.423806

>  <SCORE.INTER>
-10.1278

>  <SCORE.INTER.CONST>
1

>  <SCORE.INTER.POLAR>
-1.48795

>  <SCORE.INTER.ROT>
10

>  <SCORE.INTER.SOLV>
15.5984

>  <SCORE.INTER.VDW>
-17.2581

>  <SCORE.INTER.norm>
-0.42199

>  <SCORE.INTRA>
8.70694

>  <SCORE.INTRA.DIHEDRAL>
13.3897

>  <SCORE.INTRA.DIHEDRAL.0>
7.52971

>  <SCORE.INTRA.POLAR>
0

>  <SCORE.INTRA.POLAR.0>
0

>  <SCORE.INTRA.REPUL>
0

>  <SCORE.INTRA.REPUL.0>
0

>  <SCORE.INTRA.SOLV>
0.862153

>  <SCORE.INTRA.SOLV.lig_0>
-22.1084

>  <SCORE.INTRA.VDW>
1.58103

>  <SCORE.INTRA.VDW.0>
2.4256

>  <SCORE.INTRA.norm>
0.362789

>  <SCORE.RESTR>
0.997009

>  <SCORE.RESTR.CAVITY>
0.997009

>  <SCORE.RESTR.norm>
0.041542

>  <SCORE.SYSTEM>
0

>  <SCORE.SYSTEM.CONST>
0

>  <SCORE.SYSTEM.DIHEDRAL>
0

>  <SCORE.SYSTEM.SOLV>
0

>  <SCORE.SYSTEM.norm>
0

>  <SCORE.heavy>
24

>  <SCORE.norm>
-0.0176586

>  <RMSD>
7.153

$$$$
lig.pdb
 OpenBabel11021811453D
libRbt.so/2013.1/901 2013/11/27
 24 24  0  0  0  0  0  0  0  0999 V2000
   11.5099   -2.0152   -1.8324 C   0  0  0  0  0  0  0  0  0  0  0  0
   10.5179   -2.0061   -2.8701 C   0  0  0  0  0  0  0  0  0  0  0  0
    9.2595   -2.5236   -2.6726 C   0  0  0  0  0  0  0  0  0  0  0  0
    8.8671   -3.0905   -1.4181 C   0  0  0  0  0  0  0  0  0  0  0  0
    9.8693   -3.1293   -0.3935 C   0  0  0  0  0  0  0  0  0  0  0  0
   11.1284   -2.6204   -0.5921 C   0  0  0  0  0  0  0  0  0  0  0  0
   12.7519   -1.4753   -2.0078 C   0  0  0  0  0  0  0  0  0  0  0  0
   13.1752   -0.9853   -3.1926 N   0  0  0  0  0  0  0  0  0  0  0  0
    7.2262   -4.1468   -0.0396 N   0  0  0  0  0  0  0  0  0  0  0  0
    7.6106   -3.5735   -1.1997 C   0  0  0  0  0  0  0  0  0  0  0  0
   13.6550   -1.3869   -1.0000 N   0  0  0  0  0  0  0  0  0  0  0  0
    6.6355   -3.5190   -2.1378 N   0  0  0  0  0  0  0  0  0  0  0  0
   14.6175   -0.3088   -0.7818 C   0  0  0  0  0  0  0  0  0  0  0  0
    5.1984   -3.5830   -1.8909 C   0  0  0  0  0  0  0  0  0  0  0  0
   16.0275   -0.9208   -0.7964 C   0  0  0  0  0  0  0  0  0  0  0  0
    4.4914   -3.7407   -3.2500 C   0  0  0  0  0  0  0  0  0  0  0  0
   17.0914    0.1445   -0.4975 C   0  0  0  0  0  0  0  0  0  0  0  0
    4.5158   -2.4479   -4.0855 C   0  0  0  0  0  0  0  0  0  0  0  0
   18.4353   -0.5218   -0.3494 N   0  0  0  0  0  0  0  0  0  0  0  0
    3.5563   -2.5210   -5.2464 N   0  0  0  0  0  0  0  0  0  0  0  0
   18.5422   -1.1655    1.0062 C   0  0  0  0  0  0  0  0  0  0  0  0
    4.1307   -3.4358   -6.2945 C   0  0  0  0  0  0  0  0  0  0  0  0
   19.5527    0.4765   -0.5249 C   0  0  0  0  0  0  0  0  0  0  0  0
    3.3041   -1.1724   -5.8607 C   0  0  0  0  0  0  0  0  0  0  0  0
  1  6  2  0  0  0  0
  2  3  2  0  0  0  0
  2  1  1  0  0  0  0
  3  4  1  0  0  0  0
  4 10  1  0  0  0  0
  4  5  2  0  0  0  0
  6  5  1  0  0  0  0
  7  1  1  0  0  0  0
  7 11  1  0  0  0  0
  8  7  2  0  0  0  0
  9 10  2  0  0  0  0
 10 12  1  0  0  0  0
 12 14  1  0  0  0  0
 13 11  1  0  0  0  0
 13 15  1  0  0  0  0
 14 16  1  0  0  0  0
 16 18  1  0  0  0  0
 17 15  1  0  0  0  0
 17 19  1  0  0  0  0
 18 20  1  0  0  0  0
 19 23  1  0  0  0  0
 20 22  1  0  0  0  0
 20 24  1  0  0  0  0
 21 19  1  0  0  0  0
M  END
>  <CHROM.1>
178.06467023,-5.10480610,-169.93190163,-121.04389696,-176.96096827,-72.58506780
-166.61494312,172.93983702,-77.97050860,-73.85572091,10.50381914,-2.05382456
-2.02135754,0.14117112,0.29809569,2.07552654

>  <Name>
lig.pdb

>  <RI>
9.7521e+06

>  <Rbt.Current_Directory>
/home/itssahil/PROJECTS/Mol_Feturizer/New_Systems/rnas/2l94

>  <Rbt.Executable>
rbdock ($Id: //depot/dev/client3/rdock/2013.1/src/exe/rbdock.cxx#4 $)

>  <Rbt.Library>
libRbt.so (2013.1, Build901 2013/11/27)

>  <Rbt.Parameter_File>
/export/apps/rDock/src/rDock_2013.1_src/data/scripts/dock_solv.prm

>  <Rbt.Receptor>
prm/pocket_docking_7.prm

>  <SCORE>
-25.46

>  <SCORE.INTER>
-24.2487

>  <SCORE.INTER.CONST>
1

>  <SCORE.INTER.POLAR>
-3.52281

>  <SCORE.INTER.ROT>
10

>  <SCORE.INTER.SOLV>
11.7971

>  <SCORE.INTER.VDW>
-18.6222

>  <SCORE.INTER.norm>
-1.01036

>  <SCORE.INTRA>
-1.21132

>  <SCORE.INTRA.DIHEDRAL>
0.154583

>  <SCORE.INTRA.DIHEDRAL.0>
7.52971

>  <SCORE.INTRA.POLAR>
0

>  <SCORE.INTRA.POLAR.0>
0

>  <SCORE.INTRA.REPUL>
0

>  <SCORE.INTRA.REPUL.0>
0

>  <SCORE.INTRA.SOLV>
-0.0852381

>  <SCORE.INTRA.SOLV.lig_0>
-22.1084

>  <SCORE.INTRA.VDW>
-1.24599

>  <SCORE.INTRA.VDW.0>
2.4256

>  <SCORE.INTRA.norm>
-0.0504716

>  <SCORE.RESTR>
0

>  <SCORE.RESTR.CAVITY>
0

>  <SCORE.RESTR.norm>
0

>  <SCORE.SYSTEM>
0

>  <SCORE.SYSTEM.CONST>
0

>  <SCORE.SYSTEM.DIHEDRAL>
0

>  <SCORE.SYSTEM.SOLV>
0

>  <SCORE.SYSTEM.norm>
0

>  <SCORE.heavy>
24

>  <SCORE.norm>
-1.06083

>  <RMSD>
7.165

$$$$
lig.pdb
 OpenBabel11021811453D
libRbt.so/2013.1/901 2013/11/27
 24 24  0  0  0  0  0  0  0  0999 V2000
   12.1516   -1.9193   -0.9191 C   0  0  0  0  0  0  0  0  0  0  0  0
   11.8190   -2.6112   -2.1321 C   0  0  0  0  0  0  0  0  0  0  0  0
   10.6252   -3.2766   -2.2815 C   0  0  0  0  0  0  0  0  0  0  0  0
    9.6448   -3.3070   -1.2388 C   0  0  0  0  0  0  0  0  0  0  0  0
    9.9925   -2.6441   -0.0159 C   0  0  0  0  0  0  0  0  0  0  0  0
   11.1874   -1.9864    0.1372 C   0  0  0  0  0  0  0  0  0  0  0  0
   13.3205   -1.2287   -0.7718 C   0  0  0  0  0  0  0  0  0  0  0  0
   14.3550   -1.3513   -1.6309 N   0  0  0  0  0  0  0  0  0  0  0  0
    7.7871   -4.5363   -0.3751 N   0  0  0  0  0  0  0  0  0  0  0  0
    8.4426   -3.9328   -1.3891 C   0  0  0  0  0  0  0  0  0  0  0  0
   13.5290   -0.3618    0.2499 N   0  0  0  0  0  0  0  0  0  0  0  0
    7.8013   -4.0030   -2.5798 N   0  0  0  0  0  0  0  0  0  0  0  0
   14.2859    0.8873    0.1949 C   0  0  0  0  0  0  0  0  0  0  0  0
    6.3735   -4.2340   -2.7767 C   0  0  0  0  0  0  0  0  0  0  0  0
   15.7343    0.5837    0.6106 C   0  0  0  0  0  0  0  0  0  0  0  0
    5.6528   -2.8792   -2.6468 C   0  0  0  0  0  0  0  0  0  0  0  0
   16.6887    1.6788    0.1148 C   0  0  0  0  0  0  0  0  0  0  0  0
    5.5694   -2.3882   -1.1902 C   0  0  0  0  0  0  0  0  0  0  0  0
   18.1053    1.2998    0.4632 N   0  0  0  0  0  0  0  0  0  0  0  0
    4.2034   -2.6333   -0.6008 N   0  0  0  0  0  0  0  0  0  0  0  0
   18.4722    1.8661    1.8078 C   0  0  0  0  0  0  0  0  0  0  0  0
    4.0476   -1.7859    0.6334 C   0  0  0  0  0  0  0  0  0  0  0  0
   19.0699    1.8075   -0.5798 C   0  0  0  0  0  0  0  0  0  0  0  0
    3.9941   -4.0756   -0.2322 C   0  0  0  0  0  0  0  0  0  0  0  0
  1  6  2  0  0  0  0
  2  3  2  0  0  0  0
  2  1  1  0  0  0  0
  3  4  1  0  0  0  0
  4 10  1  0  0  0  0
  4  5  2  0  0  0  0
  6  5  1  0  0  0  0
  7  1  1  0  0  0  0
  7 11  1  0  0  0  0
  8  7  2  0  0  0  0
  9 10  2  0  0  0  0
 10 12  1  0  0  0  0
 12 14  1  0  0  0  0
 13 11  1  0  0  0  0
 13 15  1  0  0  0  0
 14 16  1  0  0  0  0
 16 18  1  0  0  0  0
 17 15  1  0  0  0  0
 17 19  1  0  0  0  0
 18 20  1  0  0  0  0
 19 23  1  0  0  0  0
 20 22  1  0  0  0  0
 20 24  1  0  0  0  0
 21 19  1  0  0  0  0
M  END
>  <CHROM.1>
147.50587828,-13.24609850,84.07586384,-92.83624530,159.77624455,-73.88992437
-101.58812263,-176.32953585,-91.21181236,-163.14136145,10.95977895,-1.67900023
-0.69171210,-0.34054822,-0.18645471,-2.35478394

>  <Name>
lig.pdb

>  <RI>
9.7521e+06

>  <Rbt.Current_Directory>
/home/itssahil/PROJECTS/Mol_Feturizer/New_Systems/rnas/2l94

>  <Rbt.Executable>
rbdock ($Id: //depot/dev/client3/rdock/2013.1/src/exe/rbdock.cxx#4 $)

>  <Rbt.Library>
libRbt.so (2013.1, Build901 2013/11/27)

>  <Rbt.Parameter_File>
/export/apps/rDock/src/rDock_2013.1_src/data/scripts/dock_solv.prm

>  <Rbt.Receptor>
prm/pocket_docking_7.prm

>  <SCORE>
-16.3693

>  <SCORE.INTER>
-18.5611

>  <SCORE.INTER.CONST>
1

>  <SCORE.INTER.POLAR>
-3.65893

>  <SCORE.INTER.ROT>
10

>  <SCORE.INTER.SOLV>
10.8783

>  <SCORE.INTER.VDW>
-14.0704

>  <SCORE.INTER.norm>
-0.77338

>  <SCORE.INTRA>
2.17301

>  <SCORE.INTRA.DIHEDRAL>
10.6971

>  <SCORE.INTRA.DIHEDRAL.0>
7.52971

>  <SCORE.INTRA.POLAR>
0

>  <SCORE.INTRA.POLAR.0>
0

>  <SCORE.INTRA.REPUL>
0

>  <SCORE.INTRA.REPUL.0>
0

>  <SCORE.INTRA.SOLV>
0.853403

>  <SCORE.INTRA.SOLV.lig_0>
-22.1084

>  <SCORE.INTRA.VDW>
-3.60222

>  <SCORE.INTRA.VDW.0>
2.4256

>  <SCORE.INTRA.norm>
0.0905422

>  <SCORE.RESTR>
0.018779

>  <SCORE.RESTR.CAVITY>
0.018779

>  <SCORE.RESTR.norm>
0.00078246

>  <SCORE.SYSTEM>
0

>  <SCORE.SYSTEM.CONST>
0

>  <SCORE.SYSTEM.DIHEDRAL>
0

>  <SCORE.SYSTEM.SOLV>
0

>  <SCORE.SYSTEM.norm>
0

>  <SCORE.heavy>
24

>  <SCORE.norm>
-0.682056

>  <RMSD>
7.175

$$$$
lig.pdb
 OpenBabel11021811453D
libRbt.so/2013.1/901 2013/11/27
 24 24  0  0  0  0  0  0  0  0999 V2000
    1.7143   -6.4084    0.3035 C   0  0  0  0  0  0  0  0  0  0  0  0
    2.7635   -7.1575   -0.3281 C   0  0  0  0  0  0  0  0  0  0  0  0
    3.3495   -6.7366   -1.4984 C   0  0  0  0  0  0  0  0  0  0  0  0
    2.9519   -5.5230   -2.1453 C   0  0  0  0  0  0  0  0  0  0  0  0
    1.8810   -4.7934   -1.5316 C   0  0  0  0  0  0  0  0  0  0  0  0
    1.2898   -5.2169   -0.3676 C   0  0  0  0  0  0  0  0  0  0  0  0
    1.1475   -6.8007    1.4823 C   0  0  0  0  0  0  0  0  0  0  0  0
    1.2966   -8.0443    1.9867 N   0  0  0  0  0  0  0  0  0  0  0  0
    2.9040   -4.3726   -4.2388 N   0  0  0  0  0  0  0  0  0  0  0  0
    3.5509   -5.0774   -3.2865 C   0  0  0  0  0  0  0  0  0  0  0  0
    0.3930   -5.9662    2.2395 N   0  0  0  0  0  0  0  0  0  0  0  0
    4.8565   -5.3085   -3.5624 N   0  0  0  0  0  0  0  0  0  0  0  0
    0.3327   -5.9259    3.6992 C   0  0  0  0  0  0  0  0  0  0  0  0
    5.6915   -4.5408   -4.4810 C   0  0  0  0  0  0  0  0  0  0  0  0
    0.1808   -4.4574    4.1279 C   0  0  0  0  0  0  0  0  0  0  0  0
    6.6201   -3.6450   -3.6400 C   0  0  0  0  0  0  0  0  0  0  0  0
   -0.2913   -4.3570    5.5849 C   0  0  0  0  0  0  0  0  0  0  0  0
    7.3296   -4.4175   -2.5132 C   0  0  0  0  0  0  0  0  0  0  0  0
   -1.7629   -4.6754    5.6545 N   0  0  0  0  0  0  0  0  0  0  0  0
    8.0473   -3.4854   -1.5700 N   0  0  0  0  0  0  0  0  0  0  0  0
   -2.5680   -3.4750    5.2370 C   0  0  0  0  0  0  0  0  0  0  0  0
    9.4950   -3.8903   -1.4949 C   0  0  0  0  0  0  0  0  0  0  0  0
   -2.1583   -5.0892    7.0503 C   0  0  0  0  0  0  0  0  0  0  0  0
    7.4600   -3.5142   -0.1865 C   0  0  0  0  0  0  0  0  0  0  0  0
  1  6  2  0  0  0  0
  2  3  2  0  0  0  0
  2  1  1  0  0  0  0
  3  4  1  0  0  0  0
  4 10  1  0  0  0  0
  4  5  2  0  0  0  0
  6  5  1  0  0  0  0
  7  1  1  0  0  0  0
  7 11  1  0  0  0  0
  8  7  2  0  0  0  0
  9 10  2  0  0  0  0
 10 12  1  0  0  0  0
 12 14  1  0  0  0  0
 13 11  1  0  0  0  0
 13 15  1  0  0  0  0
 14 16  1  0  0  0  0
 16 18  1  0  0  0  0
 17 15  1  0  0  0  0
 17 19  1  0  0  0  0
 18 20  1  0  0  0  0
 19 23  1  0  0  0  0
 20 22  1  0  0  0  0
 20 24  1  0  0  0  0
 21 19  1  0  0  0  0
M  END
>  <CHROM.1>
148.31779906,-15.47858023,104.27670145,143.60839274,163.61116525,48.70917804
-170.53673033,-76.17685466,-79.66218893,-124.31799257,2.77995607,-5.08703334
0.32718428,2.39930639,0.34768091,1.30734436

>  <Name>
lig.pdb

>  <RI>
2.41306e+07

>  <Rbt.Current_Directory>
/home/itssahil/PROJECTS/Mol_Feturizer/New_Systems/rnas/2l94

>  <Rbt.Executable>
rbdock ($Id: //depot/dev/client3/rdock/2013.1/src/exe/rbdock.cxx#4 $)

>  <Rbt.Library>
libRbt.so (2013.1, Build901 2013/11/27)

>  <Rbt.Parameter_File>
/export/apps/rDock/src/rDock_2013.1_src/data/scripts/dock_solv.prm

>  <Rbt.Receptor>
prm/blind_docking_40.prm

>  <SCORE>
-6.0469

>  <SCORE.INTER>
-8.60038

>  <SCORE.INTER.CONST>
1

>  <SCORE.INTER.POLAR>
-1.89064

>  <SCORE.INTER.ROT>
10

>  <SCORE.INTER.SOLV>
18.8713

>  <SCORE.INTER.VDW>
-15.9886

>  <SCORE.INTER.norm>
-0.358349

>  <SCORE.INTRA>
2.10597

>  <SCORE.INTRA.DIHEDRAL>
8.84596

>  <SCORE.INTRA.DIHEDRAL.0>
7.52971

>  <SCORE.INTRA.POLAR>
0

>  <SCORE.INTRA.POLAR.0>
0

>  <SCORE.INTRA.REPUL>
0

>  <SCORE.INTRA.REPUL.0>
0

>  <SCORE.INTRA.SOLV>
0.103729

>  <SCORE.INTRA.SOLV.lig_0>
-22.1084

>  <SCORE.INTRA.VDW>
-2.36887

>  <SCORE.INTRA.VDW.0>
2.4256

>  <SCORE.INTRA.norm>
0.0877489

>  <SCORE.RESTR>
0.447509

>  <SCORE.RESTR.CAVITY>
0.447509

>  <SCORE.RESTR.norm>
0.0186462

>  <SCORE.SYSTEM>
0

>  <SCORE.SYSTEM.CONST>
0

>  <SCORE.SYSTEM.DIHEDRAL>
0

>  <SCORE.SYSTEM.SOLV>
0

>  <SCORE.SYSTEM.norm>
0

>  <SCORE.heavy>
24

>  <SCORE.norm>
-0.251954

>  <RMSD>
7.183

$$$$
lig.pdb
 OpenBabel11021811453D
libRbt.so/2013.1/901 2013/11/27
 24 24  0  0  0  0  0  0  0  0999 V2000
   12.0573   -1.3894   -1.7388 C   0  0  0  0  0  0  0  0  0  0  0  0
   11.8018   -2.4843   -2.6315 C   0  0  0  0  0  0  0  0  0  0  0  0
   10.7358   -3.3331   -2.4488 C   0  0  0  0  0  0  0  0  0  0  0  0
    9.8169   -3.1649   -1.3640 C   0  0  0  0  0  0  0  0  0  0  0  0
   10.0926   -2.0916   -0.4542 C   0  0  0  0  0  0  0  0  0  0  0  0
   11.1612   -1.2485   -0.6310 C   0  0  0  0  0  0  0  0  0  0  0  0
   13.0944   -0.5216   -1.9292 C   0  0  0  0  0  0  0  0  0  0  0  0
   14.1541   -0.8101   -2.7145 N   0  0  0  0  0  0  0  0  0  0  0  0
    8.5252   -5.0959   -1.9215 N   0  0  0  0  0  0  0  0  0  0  0  0
    8.7358   -3.9785   -1.1941 C   0  0  0  0  0  0  0  0  0  0  0  0
   13.1356    0.7014   -1.3446 N   0  0  0  0  0  0  0  0  0  0  0  0
    7.7738   -3.7296   -0.2740 N   0  0  0  0  0  0  0  0  0  0  0  0
   13.6797    1.9282   -1.9234 C   0  0  0  0  0  0  0  0  0  0  0  0
    6.8501   -4.7077    0.2923 C   0  0  0  0  0  0  0  0  0  0  0  0
   15.1254    2.0876   -1.4256 C   0  0  0  0  0  0  0  0  0  0  0  0
    5.5830   -3.9567    0.7419 C   0  0  0  0  0  0  0  0  0  0  0  0
   15.8674    3.1637   -2.2303 C   0  0  0  0  0  0  0  0  0  0  0  0
    5.7901   -3.1731    2.0507 C   0  0  0  0  0  0  0  0  0  0  0  0
   17.3477    3.0465   -1.9716 N   0  0  0  0  0  0  0  0  0  0  0  0
    4.5374   -2.4415    2.4618 N   0  0  0  0  0  0  0  0  0  0  0  0
   18.0605    4.2558   -2.5129 C   0  0  0  0  0  0  0  0  0  0  0  0
    4.4163   -1.1860    1.6404 C   0  0  0  0  0  0  0  0  0  0  0  0
   17.9084    1.8004   -2.6109 C   0  0  0  0  0  0  0  0  0  0  0  0
    4.5475   -2.0722    3.9190 C   0  0  0  0  0  0  0  0  0  0  0  0
  1  6  2  0  0  0  0
  2  3  2  0  0  0  0
  2  1  1  0  0  0  0
  3  4  1  0  0  0  0
  4 10  1  0  0  0  0
  4  5  2  0  0  0  0
  6  5  1  0  0  0  0
  7  1  1  0  0  0  0
  7 11  1  0  0  0  0
  8  7  2  0  0  0  0
  9 10  2  0  0  0  0
 10 12  1  0  0  0  0
 12 14  1  0  0  0  0
 13 11  1  0  0  0  0
 13 15  1  0  0  0  0
 14 16  1  0  0  0  0
 16 18  1  0  0  0  0
 17 15  1  0  0  0  0
 17 19  1  0  0  0  0
 18 20  1  0  0  0  0
 19 23  1  0  0  0  0
 20 22  1  0  0  0  0
 20 24  1  0  0  0  0
 21 19  1  0  0  0  0
M  END
>  <CHROM.1>
8.28392909,-18.75393683,-154.09866821,-95.79698803,167.03945110,-75.83078951
179.63971738,-165.39778833,-168.19306073,-78.95750022,10.87070905,-1.13801517
-0.81353522,-0.24416319,-0.50951712,-2.60242291

>  <Name>
lig.pdb

>  <RI>
1.39428e+07

>  <Rbt.Current_Directory>
/home/itssahil/PROJECTS/Mol_Feturizer/New_Systems/rnas/2l94

>  <Rbt.Executable>
rbdock ($Id: //depot/dev/client3/rdock/2013.1/src/exe/rbdock.cxx#4 $)

>  <Rbt.Library>
libRbt.so (2013.1, Build901 2013/11/27)

>  <Rbt.Parameter_File>
/export/apps/rDock/src/rDock_2013.1_src/data/scripts/dock_solv.prm

>  <Rbt.Receptor>
prm/pocket_docking_8.prm

>  <SCORE>
-20.69

>  <SCORE.INTER>
-20.123

>  <SCORE.INTER.CONST>
1

>  <SCORE.INTER.POLAR>
-2.69816

>  <SCORE.INTER.ROT>
10

>  <SCORE.INTER.SOLV>
13.1497

>  <SCORE.INTER.VDW>
-19.0714

>  <SCORE.INTER.norm>
-0.838458

>  <SCORE.INTRA>
-0.567037

>  <SCORE.INTRA.DIHEDRAL>
2.28642

>  <SCORE.INTRA.DIHEDRAL.0>
7.52971

>  <SCORE.INTRA.POLAR>
0

>  <SCORE.INTRA.POLAR.0>
0

>  <SCORE.INTRA.REPUL>
0

>  <SCORE.INTRA.REPUL.0>
0

>  <SCORE.INTRA.SOLV>
0.120385

>  <SCORE.INTRA.SOLV.lig_0>
-22.1084

>  <SCORE.INTRA.VDW>
-1.77044

>  <SCORE.INTRA.VDW.0>
2.4256

>  <SCORE.INTRA.norm>
-0.0236265

>  <SCORE.RESTR>
0

>  <SCORE.RESTR.CAVITY>
0

>  <SCORE.RESTR.norm>
0

>  <SCORE.SYSTEM>
0

>  <SCORE.SYSTEM.CONST>
0

>  <SCORE.SYSTEM.DIHEDRAL>
0

>  <SCORE.SYSTEM.SOLV>
0

>  <SCORE.SYSTEM.norm>
0

>  <SCORE.heavy>
24

>  <SCORE.norm>
-0.862085

>  <RMSD>
7.212

$$$$
lig.pdb
 OpenBabel11021811453D
libRbt.so/2013.1/901 2013/11/27
 24 24  0  0  0  0  0  0  0  0999 V2000
    0.8690    2.3119    0.5624 C   0  0  0  0  0  0  0  0  0  0  0  0
    0.2488    1.3021   -0.2480 C   0  0  0  0  0  0  0  0  0  0  0  0
    0.8992    0.7316   -1.3164 C   0  0  0  0  0  0  0  0  0  0  0  0
    2.2341    1.1066   -1.6727 C   0  0  0  0  0  0  0  0  0  0  0  0
    2.8396    2.1390   -0.8833 C   0  0  0  0  0  0  0  0  0  0  0  0
    2.1882    2.7150    0.1787 C   0  0  0  0  0  0  0  0  0  0  0  0
    0.2441    2.8621    1.6449 C   0  0  0  0  0  0  0  0  0  0  0  0
    0.7771    3.8764    2.3591 N   0  0  0  0  0  0  0  0  0  0  0  0
    4.1869    0.7990   -3.0144 N   0  0  0  0  0  0  0  0  0  0  0  0
    2.9019    0.5216   -2.7078 C   0  0  0  0  0  0  0  0  0  0  0  0
   -0.9651    2.4318    2.0826 N   0  0  0  0  0  0  0  0  0  0  0  0
    2.3255   -0.3937   -3.5227 N   0  0  0  0  0  0  0  0  0  0  0  0
   -2.0285    3.2529    2.6581 C   0  0  0  0  0  0  0  0  0  0  0  0
    3.0246   -1.3798   -4.3408 C   0  0  0  0  0  0  0  0  0  0  0  0
   -1.9467    3.1318    4.1883 C   0  0  0  0  0  0  0  0  0  0  0  0
    3.1752   -0.7972   -5.7584 C   0  0  0  0  0  0  0  0  0  0  0  0
   -3.3364    3.2706    4.8250 C   0  0  0  0  0  0  0  0  0  0  0  0
    3.1685   -1.8824   -6.8503 C   0  0  0  0  0  0  0  0  0  0  0  0
   -3.9525    4.5774    4.3956 N   0  0  0  0  0  0  0  0  0  0  0  0
    1.7715   -2.3741   -7.1334 N   0  0  0  0  0  0  0  0  0  0  0  0
   -3.2247    5.7247    5.0417 C   0  0  0  0  0  0  0  0  0  0  0  0
    1.8554   -3.7343   -7.7725 C   0  0  0  0  0  0  0  0  0  0  0  0
   -5.4136    4.6313    4.7678 C   0  0  0  0  0  0  0  0  0  0  0  0
    1.0187   -1.4500   -8.0494 C   0  0  0  0  0  0  0  0  0  0  0  0
  1  6  2  0  0  0  0
  2  3  2  0  0  0  0
  2  1  1  0  0  0  0
  3  4  1  0  0  0  0
  4 10  1  0  0  0  0
  4  5  2  0  0  0  0
  6  5  1  0  0  0  0
  7  1  1  0  0  0  0
  7 11  1  0  0  0  0
  8  7  2  0  0  0  0
  9 10  2  0  0  0  0
 10 12  1  0  0  0  0
 12 14  1  0  0  0  0
 13 11  1  0  0  0  0
 13 15  1  0  0  0  0
 14 16  1  0  0  0  0
 16 18  1  0  0  0  0
 17 15  1  0  0  0  0
 17 19  1  0  0  0  0
 18 20  1  0  0  0  0
 19 23  1  0  0  0  0
 20 22  1  0  0  0  0
 20 24  1  0  0  0  0
 21 19  1  0  0  0  0
M  END
>  <CHROM.1>
-175.90239484,-175.26799144,-95.63057584,-98.61665727,-149.12935652,-149.08150177
77.70864142,-56.08889951,-69.99063796,-158.55756279,0.48922999,1.38542545
-0.87143841,-2.00153158,-0.12348921,-2.13718734

>  <Name>
lig.pdb

>  <RI>
9.7521e+06

>  <Rbt.Current_Directory>
/home/itssahil/PROJECTS/Mol_Feturizer/New_Systems/rnas/2l94

>  <Rbt.Executable>
rbdock ($Id: //depot/dev/client3/rdock/2013.1/src/exe/rbdock.cxx#4 $)

>  <Rbt.Library>
libRbt.so (2013.1, Build901 2013/11/27)

>  <Rbt.Parameter_File>
/export/apps/rDock/src/rDock_2013.1_src/data/scripts/dock_solv.prm

>  <Rbt.Receptor>
prm/pocket_docking_7.prm

>  <SCORE>
-20.1049

>  <SCORE.INTER>
-21.7384

>  <SCORE.INTER.CONST>
1

>  <SCORE.INTER.POLAR>
-2.43524

>  <SCORE.INTER.ROT>
10

>  <SCORE.INTER.SOLV>
14.2238

>  <SCORE.INTER.VDW>
-21.3827

>  <SCORE.INTER.norm>
-0.905767

>  <SCORE.INTRA>
1.63353

>  <SCORE.INTRA.DIHEDRAL>
5.56773

>  <SCORE.INTRA.DIHEDRAL.0>
7.52971

>  <SCORE.INTRA.POLAR>
0

>  <SCORE.INTRA.POLAR.0>
0

>  <SCORE.INTRA.REPUL>
0

>  <SCORE.INTRA.REPUL.0>
0

>  <SCORE.INTRA.SOLV>
0.192029

>  <SCORE.INTRA.SOLV.lig_0>
-22.1084

>  <SCORE.INTRA.VDW>
-1.24635

>  <SCORE.INTRA.VDW.0>
2.4256

>  <SCORE.INTRA.norm>
0.0680637

>  <SCORE.RESTR>
0

>  <SCORE.RESTR.CAVITY>
0

>  <SCORE.RESTR.norm>
0

>  <SCORE.SYSTEM>
0

>  <SCORE.SYSTEM.CONST>
0

>  <SCORE.SYSTEM.DIHEDRAL>
0

>  <SCORE.SYSTEM.SOLV>
0

>  <SCORE.SYSTEM.norm>
0

>  <SCORE.heavy>
24

>  <SCORE.norm>
-0.837703

>  <RMSD>
7.214

$$$$
lig.pdb
 OpenBabel11021811453D
libRbt.so/2013.1/901 2013/11/27
 24 24  0  0  0  0  0  0  0  0999 V2000
    9.7573   -3.2057   -1.2653 C   0  0  0  0  0  0  0  0  0  0  0  0
   10.0267   -2.2911   -0.1919 C   0  0  0  0  0  0  0  0  0  0  0  0
   11.1667   -1.5230   -0.1648 C   0  0  0  0  0  0  0  0  0  0  0  0
   12.1421   -1.5864   -1.2107 C   0  0  0  0  0  0  0  0  0  0  0  0
   11.8881   -2.5246   -2.2648 C   0  0  0  0  0  0  0  0  0  0  0  0
   10.7544   -3.2977   -2.2888 C   0  0  0  0  0  0  0  0  0  0  0  0
    8.6134   -3.9496   -1.3181 C   0  0  0  0  0  0  0  0  0  0  0  0
    8.5115   -5.0830   -2.0447 N   0  0  0  0  0  0  0  0  0  0  0  0
   13.3112    0.4163   -0.6356 N   0  0  0  0  0  0  0  0  0  0  0  0
   13.2583   -0.8030   -1.2124 C   0  0  0  0  0  0  0  0  0  0  0  0
    7.4910   -3.6063   -0.6387 N   0  0  0  0  0  0  0  0  0  0  0  0
   14.4168   -1.1861   -1.8000 N   0  0  0  0  0  0  0  0  0  0  0  0
    6.5349   -4.5184   -0.0139 C   0  0  0  0  0  0  0  0  0  0  0  0
   15.7477   -0.6685   -1.4981 C   0  0  0  0  0  0  0  0  0  0  0  0
    6.3448   -4.0794    1.4469 C   0  0  0  0  0  0  0  0  0  0  0  0
   16.0736   -1.0250   -0.0358 C   0  0  0  0  0  0  0  0  0  0  0  0
    5.5908   -2.7446    1.5252 C   0  0  0  0  0  0  0  0  0  0  0  0
   17.3220   -0.2935    0.4898 C   0  0  0  0  0  0  0  0  0  0  0  0
    6.3830   -1.7737    2.3629 N   0  0  0  0  0  0  0  0  0  0  0  0
   18.5891   -0.8893   -0.0697 N   0  0  0  0  0  0  0  0  0  0  0  0
    5.4502   -0.8489    3.0964 C   0  0  0  0  0  0  0  0  0  0  0  0
   19.1939   -1.8022    0.9630 C   0  0  0  0  0  0  0  0  0  0  0  0
    7.3245   -0.9660    1.5042 C   0  0  0  0  0  0  0  0  0  0  0  0
   19.5963    0.1633   -0.4405 C   0  0  0  0  0  0  0  0  0  0  0  0
  1  6  2  0  0  0  0
  2  3  2  0  0  0  0
  2  1  1  0  0  0  0
  3  4  1  0  0  0  0
  4 10  1  0  0  0  0
  4  5  2  0  0  0  0
  6  5  1  0  0  0  0
  7  1  1  0  0  0  0
  7 11  1  0  0  0  0
  8  7  2  0  0  0  0
  9 10  2  0  0  0  0
 10 12  1  0  0  0  0
 12 14  1  0  0  0  0
 13 11  1  0  0  0  0
 13 15  1  0  0  0  0
 14 16  1  0  0  0  0
 16 18  1  0  0  0  0
 17 15  1  0  0  0  0
 17 19  1  0  0  0  0
 18 20  1  0  0  0  0
 19 23  1  0  0  0  0
 20 22  1  0  0  0  0
 20 24  1  0  0  0  0
 21 19  1  0  0  0  0
M  END
>  <CHROM.1>
-28.79028359,-158.67864438,63.17618039,127.67934949,69.57187409,-168.40622985
-74.82623378,-126.88148521,-147.85510253,-100.03595472,11.51088580,-1.98044273
-0.19672297,-3.09426388,0.22557833,0.90444385

>  <Name>
lig.pdb

>  <RI>
1.39428e+07

>  <Rbt.Current_Directory>
/home/itssahil/PROJECTS/Mol_Feturizer/New_Systems/rnas/2l94

>  <Rbt.Executable>
rbdock ($Id: //depot/dev/client3/rdock/2013.1/src/exe/rbdock.cxx#4 $)

>  <Rbt.Library>
libRbt.so (2013.1, Build901 2013/11/27)

>  <Rbt.Parameter_File>
/export/apps/rDock/src/rDock_2013.1_src/data/scripts/dock_solv.prm

>  <Rbt.Receptor>
prm/pocket_docking_8.prm

>  <SCORE>
-33.0181

>  <SCORE.INTER>
-36.7548

>  <SCORE.INTER.CONST>
1

>  <SCORE.INTER.POLAR>
-4.62175

>  <SCORE.INTER.ROT>
10

>  <SCORE.INTER.SOLV>
14.3542

>  <SCORE.INTER.VDW>
-24.1488

>  <SCORE.INTER.norm>
-1.53145

>  <SCORE.INTRA>
3.73674

>  <SCORE.INTRA.DIHEDRAL>
13.5341

>  <SCORE.INTRA.DIHEDRAL.0>
7.52971

>  <SCORE.INTRA.POLAR>
0

>  <SCORE.INTRA.POLAR.0>
0

>  <SCORE.INTRA.REPUL>
0

>  <SCORE.INTRA.REPUL.0>
0

>  <SCORE.INTRA.SOLV>
0.64001

>  <SCORE.INTRA.SOLV.lig_0>
-22.1084

>  <SCORE.INTRA.VDW>
-3.35032

>  <SCORE.INTRA.VDW.0>
2.4256

>  <SCORE.INTRA.norm>
0.155698

>  <SCORE.RESTR>
0

>  <SCORE.RESTR.CAVITY>
0

>  <SCORE.RESTR.norm>
0

>  <SCORE.SYSTEM>
0

>  <SCORE.SYSTEM.CONST>
0

>  <SCORE.SYSTEM.DIHEDRAL>
0

>  <SCORE.SYSTEM.SOLV>
0

>  <SCORE.SYSTEM.norm>
0

>  <SCORE.heavy>
24

>  <SCORE.norm>
-1.37575

>  <RMSD>
7.214

$$$$
lig.pdb
 OpenBabel11021811453D
libRbt.so/2013.1/901 2013/11/27
 24 24  0  0  0  0  0  0  0  0999 V2000
    9.8571   -3.2068   -1.1444 C   0  0  0  0  0  0  0  0  0  0  0  0
   10.8471   -3.3029   -2.1796 C   0  0  0  0  0  0  0  0  0  0  0  0
   12.0272   -2.6000   -2.1197 C   0  0  0  0  0  0  0  0  0  0  0  0
   12.3369   -1.7416   -1.0167 C   0  0  0  0  0  0  0  0  0  0  0  0
   11.3330   -1.6205   -0.0002 C   0  0  0  0  0  0  0  0  0  0  0  0
   10.1511   -2.3155   -0.0630 C   0  0  0  0  0  0  0  0  0  0  0  0
    8.6961   -3.9248   -1.1783 C   0  0  0  0  0  0  0  0  0  0  0  0
    8.5247   -5.0000   -1.9770 N   0  0  0  0  0  0  0  0  0  0  0  0
   14.5671   -1.2967   -1.7491 N   0  0  0  0  0  0  0  0  0  0  0  0
   13.5194   -1.0681   -0.9292 C   0  0  0  0  0  0  0  0  0  0  0  0
    7.6256   -3.6129   -0.4065 N   0  0  0  0  0  0  0  0  0  0  0  0
   13.7434   -0.1060   -0.0028 N   0  0  0  0  0  0  0  0  0  0  0  0
    6.6901   -4.5516    0.2100 C   0  0  0  0  0  0  0  0  0  0  0  0
   14.7457    0.9519   -0.0849 C   0  0  0  0  0  0  0  0  0  0  0  0
    6.3868   -4.0544    1.6326 C   0  0  0  0  0  0  0  0  0  0  0  0
   16.0133    0.4598    0.6380 C   0  0  0  0  0  0  0  0  0  0  0  0
    5.5212   -2.7873    1.5982 C   0  0  0  0  0  0  0  0  0  0  0  0
   17.2170    1.3967    0.4304 C   0  0  0  0  0  0  0  0  0  0  0  0
    5.3502   -2.2630    3.0010 N   0  0  0  0  0  0  0  0  0  0  0  0
   17.7153    1.3506   -0.9920 N   0  0  0  0  0  0  0  0  0  0  0  0
    4.2062   -2.9687    3.6767 C   0  0  0  0  0  0  0  0  0  0  0  0
   18.6058    0.1483   -1.1560 C   0  0  0  0  0  0  0  0  0  0  0  0
    5.0930   -0.7764    2.9919 C   0  0  0  0  0  0  0  0  0  0  0  0
   18.4887    2.5851   -1.3633 C   0  0  0  0  0  0  0  0  0  0  0  0
  1  6  2  0  0  0  0
  2  3  2  0  0  0  0
  2  1  1  0  0  0  0
  3  4  1  0  0  0  0
  4 10  1  0  0  0  0
  4  5  2  0  0  0  0
  6  5  1  0  0  0  0
  7  1  1  0  0  0  0
  7 11  1  0  0  0  0
  8  7  2  0  0  0  0
  9 10  2  0  0  0  0
 10 12  1  0  0  0  0
 12 14  1  0  0  0  0
 13 11  1  0  0  0  0
 13 15  1  0  0  0  0
 14 16  1  0  0  0  0
 16 18  1  0  0  0  0
 17 15  1  0  0  0  0
 17 19  1  0  0  0  0
 18 20  1  0  0  0  0
 19 23  1  0  0  0  0
 20 22  1  0  0  0  0
 20 24  1  0  0  0  0
 21 19  1  0  0  0  0
M  END
>  <CHROM.1>
-10.23296573,16.81693612,-93.65772670,138.63135245,70.99775931,170.97765142
-69.35094703,-174.95911670,-84.75081397,-81.68240398,11.23071055,-1.64588197
-0.05841579,-3.04777037,0.39002251,0.82190462

>  <Name>
lig.pdb

>  <RI>
9.7521e+06

>  <Rbt.Current_Directory>
/home/itssahil/PROJECTS/Mol_Feturizer/New_Systems/rnas/2l94

>  <Rbt.Executable>
rbdock ($Id: //depot/dev/client3/rdock/2013.1/src/exe/rbdock.cxx#4 $)

>  <Rbt.Library>
libRbt.so (2013.1, Build901 2013/11/27)

>  <Rbt.Parameter_File>
/export/apps/rDock/src/rDock_2013.1_src/data/scripts/dock_solv.prm

>  <Rbt.Receptor>
prm/pocket_docking_7.prm

>  <SCORE>
-29.0332

>  <SCORE.INTER>
-27.9246

>  <SCORE.INTER.CONST>
1

>  <SCORE.INTER.POLAR>
-3.50052

>  <SCORE.INTER.ROT>
10

>  <SCORE.INTER.SOLV>
13.4671

>  <SCORE.INTER.VDW>
-21.7037

>  <SCORE.INTER.norm>
-1.16353

>  <SCORE.INTRA>
-1.10852

>  <SCORE.INTRA.DIHEDRAL>
2.35082

>  <SCORE.INTRA.DIHEDRAL.0>
7.52971

>  <SCORE.INTRA.POLAR>
0

>  <SCORE.INTRA.POLAR.0>
0

>  <SCORE.INTRA.REPUL>
0.00624957

>  <SCORE.INTRA.REPUL.0>
0

>  <SCORE.INTRA.SOLV>
0.313315

>  <SCORE.INTRA.SOLV.lig_0>
-22.1084

>  <SCORE.INTRA.VDW>
-2.47183

>  <SCORE.INTRA.VDW.0>
2.4256

>  <SCORE.INTRA.norm>
-0.0461882

>  <SCORE.RESTR>
0

>  <SCORE.RESTR.CAVITY>
0

>  <SCORE.RESTR.norm>
0

>  <SCORE.SYSTEM>
0

>  <SCORE.SYSTEM.CONST>
0

>  <SCORE.SYSTEM.DIHEDRAL>
0

>  <SCORE.SYSTEM.SOLV>
0

>  <SCORE.SYSTEM.norm>
0

>  <SCORE.heavy>
24

>  <SCORE.norm>
-1.20971

>  <RMSD>
7.221

$$$$
lig.pdb
 OpenBabel11021811453D
libRbt.so/2013.1/901 2013/11/27
 24 24  0  0  0  0  0  0  0  0999 V2000
    9.6740   -3.0617   -1.6793 C   0  0  0  0  0  0  0  0  0  0  0  0
   10.1834   -2.4277   -0.4963 C   0  0  0  0  0  0  0  0  0  0  0  0
   11.2682   -1.5841   -0.5375 C   0  0  0  0  0  0  0  0  0  0  0  0
   11.9425   -1.2844   -1.7642 C   0  0  0  0  0  0  0  0  0  0  0  0
   11.4537   -1.9445   -2.9394 C   0  0  0  0  0  0  0  0  0  0  0  0
   10.3759   -2.7932   -2.8981 C   0  0  0  0  0  0  0  0  0  0  0  0
    8.5780   -3.8760   -1.6546 C   0  0  0  0  0  0  0  0  0  0  0  0
    8.3267   -4.7327   -0.6417 N   0  0  0  0  0  0  0  0  0  0  0  0
   12.8583    0.9088   -2.0086 N   0  0  0  0  0  0  0  0  0  0  0  0
   12.9965   -0.4210   -1.8224 C   0  0  0  0  0  0  0  0  0  0  0  0
    7.6543   -3.8820   -2.6474 N   0  0  0  0  0  0  0  0  0  0  0  0
   14.2815   -0.8302   -1.6987 N   0  0  0  0  0  0  0  0  0  0  0  0
    6.2130   -4.0733   -2.4983 C   0  0  0  0  0  0  0  0  0  0  0  0
   15.4161    0.0009   -1.3082 C   0  0  0  0  0  0  0  0  0  0  0  0
    5.6315   -2.8102   -1.8431 C   0  0  0  0  0  0  0  0  0  0  0  0
   16.5024   -0.9239   -0.7281 C   0  0  0  0  0  0  0  0  0  0  0  0
    4.1641   -3.0233   -1.4467 C   0  0  0  0  0  0  0  0  0  0  0  0
   17.7063   -0.1462   -0.1662 C   0  0  0  0  0  0  0  0  0  0  0  0
    4.1026   -3.8714   -0.2022 N   0  0  0  0  0  0  0  0  0  0  0  0
   18.5908    0.3771   -1.2696 N   0  0  0  0  0  0  0  0  0  0  0  0
    3.5200   -5.2197   -0.5282 C   0  0  0  0  0  0  0  0  0  0  0  0
   20.0246    0.3083   -0.8166 C   0  0  0  0  0  0  0  0  0  0  0  0
    3.2683   -3.2039    0.8629 C   0  0  0  0  0  0  0  0  0  0  0  0
   18.2622    1.7977   -1.6356 C   0  0  0  0  0  0  0  0  0  0  0  0
  1  6  2  0  0  0  0
  2  3  2  0  0  0  0
  2  1  1  0  0  0  0
  3  4  1  0  0  0  0
  4 10  1  0  0  0  0
  4  5  2  0  0  0  0
  6  5  1  0  0  0  0
  7  1  1  0  0  0  0
  7 11  1  0  0  0  0
  8  7  2  0  0  0  0
  9 10  2  0  0  0  0
 10 12  1  0  0  0  0
 12 14  1  0  0  0  0
 13 11  1  0  0  0  0
 13 15  1  0  0  0  0
 14 16  1  0  0  0  0
 16 18  1  0  0  0  0
 17 15  1  0  0  0  0
 17 19  1  0  0  0  0
 18 20  1  0  0  0  0
 19 23  1  0  0  0  0
 20 22  1  0  0  0  0
 20 24  1  0  0  0  0
 21 19  1  0  0  0  0
M  END
>  <CHROM.1>
-88.59837931,-38.00551917,156.35936918,71.44367674,-170.83215271,-175.02689995
-75.70986205,76.00944948,-111.56015446,-144.10227476,10.96860382,-1.93848355
-1.32916955,-3.07299145,0.32053231,1.30473935

>  <Name>
lig.pdb

>  <RI>
1.39428e+07

>  <Rbt.Current_Directory>
/home/itssahil/PROJECTS/Mol_Feturizer/New_Systems/rnas/2l94

>  <Rbt.Executable>
rbdock ($Id: //depot/dev/client3/rdock/2013.1/src/exe/rbdock.cxx#4 $)

>  <Rbt.Library>
libRbt.so (2013.1, Build901 2013/11/27)

>  <Rbt.Parameter_File>
/export/apps/rDock/src/rDock_2013.1_src/data/scripts/dock_solv.prm

>  <Rbt.Receptor>
prm/pocket_docking_8.prm

>  <SCORE>
-19.3376

>  <SCORE.INTER>
-26.9529

>  <SCORE.INTER.CONST>
1

>  <SCORE.INTER.POLAR>
-4.66627

>  <SCORE.INTER.ROT>
10

>  <SCORE.INTER.SOLV>
12.7727

>  <SCORE.INTER.VDW>
-16.9386

>  <SCORE.INTER.norm>
-1.12304

>  <SCORE.INTRA>
7.6153

>  <SCORE.INTRA.DIHEDRAL>
22.8692

>  <SCORE.INTRA.DIHEDRAL.0>
7.52971

>  <SCORE.INTRA.POLAR>
0

>  <SCORE.INTRA.POLAR.0>
0

>  <SCORE.INTRA.REPUL>
0

>  <SCORE.INTRA.REPUL.0>
0

>  <SCORE.INTRA.SOLV>
-0.211858

>  <SCORE.INTRA.SOLV.lig_0>
-22.1084

>  <SCORE.INTRA.VDW>
-3.71335

>  <SCORE.INTRA.VDW.0>
2.4256

>  <SCORE.INTRA.norm>
0.317304

>  <SCORE.RESTR>
0

>  <SCORE.RESTR.CAVITY>
0

>  <SCORE.RESTR.norm>
0

>  <SCORE.SYSTEM>
0

>  <SCORE.SYSTEM.CONST>
0

>  <SCORE.SYSTEM.DIHEDRAL>
0

>  <SCORE.SYSTEM.SOLV>
0

>  <SCORE.SYSTEM.norm>
0

>  <SCORE.heavy>
24

>  <SCORE.norm>
-0.805734

>  <RMSD>
7.230

$$$$
lig.pdb
 OpenBabel11021811453D
libRbt.so/2013.1/901 2013/11/27
 24 24  0  0  0  0  0  0  0  0999 V2000
   10.4000   -2.1932   -1.5543 C   0  0  0  0  0  0  0  0  0  0  0  0
   10.8712   -1.5875   -2.7677 C   0  0  0  0  0  0  0  0  0  0  0  0
   12.1752   -1.1767   -2.9123 C   0  0  0  0  0  0  0  0  0  0  0  0
   13.1364   -1.3397   -1.8641 C   0  0  0  0  0  0  0  0  0  0  0  0
   12.6564   -1.9138   -0.6411 C   0  0  0  0  0  0  0  0  0  0  0  0
   11.3528   -2.3169   -0.4927 C   0  0  0  0  0  0  0  0  0  0  0  0
    9.1154   -2.6338   -1.4116 C   0  0  0  0  0  0  0  0  0  0  0  0
    8.0987   -2.1826   -2.1771 N   0  0  0  0  0  0  0  0  0  0  0  0
   14.8866   -0.2037   -3.0281 N   0  0  0  0  0  0  0  0  0  0  0  0
   14.4407   -0.9691   -2.0095 C   0  0  0  0  0  0  0  0  0  0  0  0
    8.7641   -3.5640   -0.4895 N   0  0  0  0  0  0  0  0  0  0  0  0
   15.4064   -1.3433   -1.1368 N   0  0  0  0  0  0  0  0  0  0  0  0
    7.7507   -4.6061   -0.6423 C   0  0  0  0  0  0  0  0  0  0  0  0
   16.6892   -0.6771   -0.9343 C   0  0  0  0  0  0  0  0  0  0  0  0
    6.6984   -4.4106    0.4610 C   0  0  0  0  0  0  0  0  0  0  0  0
   16.8333   -0.3749    0.5689 C   0  0  0  0  0  0  0  0  0  0  0  0
    5.8455   -3.1632    0.1912 C   0  0  0  0  0  0  0  0  0  0  0  0
   15.6939    0.5083    1.1089 C   0  0  0  0  0  0  0  0  0  0  0  0
    4.9227   -2.9288    1.3597 N   0  0  0  0  0  0  0  0  0  0  0  0
   15.7908    0.6843    2.6033 N   0  0  0  0  0  0  0  0  0  0  0  0
    3.6355   -2.3138    0.8818 C   0  0  0  0  0  0  0  0  0  0  0  0
   14.4786    1.2138    3.1162 C   0  0  0  0  0  0  0  0  0  0  0  0
    5.5670   -2.0243    2.3809 C   0  0  0  0  0  0  0  0  0  0  0  0
   16.8871    1.6361    2.9933 C   0  0  0  0  0  0  0  0  0  0  0  0
  1  6  2  0  0  0  0
  2  3  2  0  0  0  0
  2  1  1  0  0  0  0
  3  4  1  0  0  0  0
  4 10  1  0  0  0  0
  4  5  2  0  0  0  0
  6  5  1  0  0  0  0
  7  1  1  0  0  0  0
  7 11  1  0  0  0  0
  8  7  2  0  0  0  0
  9 10  2  0  0  0  0
 10 12  1  0  0  0  0
 12 14  1  0  0  0  0
 13 11  1  0  0  0  0
 13 15  1  0  0  0  0
 14 16  1  0  0  0  0
 16 18  1  0  0  0  0
 17 15  1  0  0  0  0
 17 19  1  0  0  0  0
 18 20  1  0  0  0  0
 19 23  1  0  0  0  0
 20 22  1  0  0  0  0
 20 24  1  0  0  0  0
 21 19  1  0  0  0  0
M  END
>  <CHROM.1>
12.77721660,-21.55477511,126.79801001,-121.06892515,71.20201749,-58.52079816
174.82583175,-174.37177933,-147.79314137,-164.44781360,11.30749056,-1.55988382
-0.19829552,-3.03360826,0.29537801,1.24943658

>  <Name>
lig.pdb

>  <RI>
1.39428e+07

>  <Rbt.Current_Directory>
/home/itssahil/PROJECTS/Mol_Feturizer/New_Systems/rnas/2l94

>  <Rbt.Executable>
rbdock ($Id: //depot/dev/client3/rdock/2013.1/src/exe/rbdock.cxx#4 $)

>  <Rbt.Library>
libRbt.so (2013.1, Build901 2013/11/27)

>  <Rbt.Parameter_File>
/export/apps/rDock/src/rDock_2013.1_src/data/scripts/dock_solv.prm

>  <Rbt.Receptor>
prm/pocket_docking_8.prm

>  <SCORE>
-16.8194

>  <SCORE.INTER>
-15.5074

>  <SCORE.INTER.CONST>
1

>  <SCORE.INTER.POLAR>
-2.38479

>  <SCORE.INTER.ROT>
10

>  <SCORE.INTER.SOLV>
10.0475

>  <SCORE.INTER.VDW>
-16.0048

>  <SCORE.INTER.norm>
-0.64614

>  <SCORE.INTRA>
-1.31204

>  <SCORE.INTRA.DIHEDRAL>
2.76332

>  <SCORE.INTRA.DIHEDRAL.0>
7.52971

>  <SCORE.INTRA.POLAR>
0

>  <SCORE.INTRA.POLAR.0>
0

>  <SCORE.INTRA.REPUL>
0

>  <SCORE.INTRA.REPUL.0>
0

>  <SCORE.INTRA.SOLV>
0.612827

>  <SCORE.INTRA.SOLV.lig_0>
-22.1084

>  <SCORE.INTRA.VDW>
-3.00012

>  <SCORE.INTRA.VDW.0>
2.4256

>  <SCORE.INTRA.norm>
-0.0546685

>  <SCORE.RESTR>
0

>  <SCORE.RESTR.CAVITY>
0

>  <SCORE.RESTR.norm>
0

>  <SCORE.SYSTEM>
0

>  <SCORE.SYSTEM.CONST>
0

>  <SCORE.SYSTEM.DIHEDRAL>
0

>  <SCORE.SYSTEM.SOLV>
0

>  <SCORE.SYSTEM.norm>
0

>  <SCORE.heavy>
24

>  <SCORE.norm>
-0.700809

>  <RMSD>
7.233

$$$$
lig.pdb
 OpenBabel11021811453D
libRbt.so/2013.1/901 2013/11/27
 24 24  0  0  0  0  0  0  0  0999 V2000
    2.9801   -5.5516   -2.2253 C   0  0  0  0  0  0  0  0  0  0  0  0
    1.5739   -5.8407   -2.2341 C   0  0  0  0  0  0  0  0  0  0  0  0
    0.8750   -6.0695   -1.0724 C   0  0  0  0  0  0  0  0  0  0  0  0
    1.5099   -6.0220    0.2098 C   0  0  0  0  0  0  0  0  0  0  0  0
    2.9208   -5.7666    0.2147 C   0  0  0  0  0  0  0  0  0  0  0  0
    3.6210   -5.5460   -0.9450 C   0  0  0  0  0  0  0  0  0  0  0  0
    3.6770   -5.2915   -3.3705 C   0  0  0  0  0  0  0  0  0  0  0  0
    3.0817   -4.8845   -4.5119 N   0  0  0  0  0  0  0  0  0  0  0  0
   -0.3105   -6.9452    1.4516 N   0  0  0  0  0  0  0  0  0  0  0  0
    0.8195   -6.2113    1.3705 C   0  0  0  0  0  0  0  0  0  0  0  0
    5.0250   -5.4191   -3.4459 N   0  0  0  0  0  0  0  0  0  0  0  0
    1.2131   -5.6723    2.5488 N   0  0  0  0  0  0  0  0  0  0  0  0
    5.9399   -4.5798   -4.2172 C   0  0  0  0  0  0  0  0  0  0  0  0
    0.8400   -6.1438    3.8789 C   0  0  0  0  0  0  0  0  0  0  0  0
    6.2132   -3.3039   -3.4045 C   0  0  0  0  0  0  0  0  0  0  0  0
   -0.2104   -5.1719    4.4479 C   0  0  0  0  0  0  0  0  0  0  0  0
    7.5536   -3.4020   -2.6630 C   0  0  0  0  0  0  0  0  0  0  0  0
   -0.6525   -5.5441    5.8747 C   0  0  0  0  0  0  0  0  0  0  0  0
    7.3958   -4.3047   -1.4663 N   0  0  0  0  0  0  0  0  0  0  0  0
   -1.6468   -4.5518    6.4227 N   0  0  0  0  0  0  0  0  0  0  0  0
    6.6698   -3.5776   -0.3673 C   0  0  0  0  0  0  0  0  0  0  0  0
   -0.9146   -3.2965    6.8146 C   0  0  0  0  0  0  0  0  0  0  0  0
    8.7395   -4.7705   -0.9629 C   0  0  0  0  0  0  0  0  0  0  0  0
   -2.3788   -5.0847    7.6226 C   0  0  0  0  0  0  0  0  0  0  0  0
  1  6  2  0  0  0  0
  2  3  2  0  0  0  0
  2  1  1  0  0  0  0
  3  4  1  0  0  0  0
  4 10  1  0  0  0  0
  4  5  2  0  0  0  0
  6  5  1  0  0  0  0
  7  1  1  0  0  0  0
  7 11  1  0  0  0  0
  8  7  2  0  0  0  0
  9 10  2  0  0  0  0
 10 12  1  0  0  0  0
 12 14  1  0  0  0  0
 13 11  1  0  0  0  0
 13 15  1  0  0  0  0
 14 16  1  0  0  0  0
 16 18  1  0  0  0  0
 17 15  1  0  0  0  0
 17 19  1  0  0  0  0
 18 20  1  0  0  0  0
 19 23  1  0  0  0  0
 20 22  1  0  0  0  0
 20 24  1  0  0  0  0
 21 19  1  0  0  0  0
M  END
>  <CHROM.1>
27.05916016,20.80175177,-104.56400365,81.29764994,99.36930851,-178.24439624
178.17507541,-75.94858134,-76.16725461,-75.63255280,2.69240305,-5.09820075
0.48076877,0.83671919,-0.32949397,-1.78411336

>  <Name>
lig.pdb

>  <RI>
2.41306e+07

>  <Rbt.Current_Directory>
/home/itssahil/PROJECTS/Mol_Feturizer/New_Systems/rnas/2l94

>  <Rbt.Executable>
rbdock ($Id: //depot/dev/client3/rdock/2013.1/src/exe/rbdock.cxx#4 $)

>  <Rbt.Library>
libRbt.so (2013.1, Build901 2013/11/27)

>  <Rbt.Parameter_File>
/export/apps/rDock/src/rDock_2013.1_src/data/scripts/dock_solv.prm

>  <Rbt.Receptor>
prm/blind_docking_40.prm

>  <SCORE>
-12.1889

>  <SCORE.INTER>
-12.918

>  <SCORE.INTER.CONST>
1

>  <SCORE.INTER.POLAR>
-2.17556

>  <SCORE.INTER.ROT>
10

>  <SCORE.INTER.SOLV>
15.5767

>  <SCORE.INTER.VDW>
-16.819

>  <SCORE.INTER.norm>
-0.53825

>  <SCORE.INTRA>
0.632985

>  <SCORE.INTRA.DIHEDRAL>
7.85527

>  <SCORE.INTRA.DIHEDRAL.0>
7.52971

>  <SCORE.INTRA.POLAR>
0

>  <SCORE.INTRA.POLAR.0>
0

>  <SCORE.INTRA.REPUL>
0

>  <SCORE.INTRA.REPUL.0>
0

>  <SCORE.INTRA.SOLV>
0.751657

>  <SCORE.INTRA.SOLV.lig_0>
-22.1084

>  <SCORE.INTRA.VDW>
-3.67048

>  <SCORE.INTRA.VDW.0>
2.4256

>  <SCORE.INTRA.norm>
0.0263744

>  <SCORE.RESTR>
0.0960642

>  <SCORE.RESTR.CAVITY>
0.0960642

>  <SCORE.RESTR.norm>
0.00400268

>  <SCORE.SYSTEM>
0

>  <SCORE.SYSTEM.CONST>
0

>  <SCORE.SYSTEM.DIHEDRAL>
0

>  <SCORE.SYSTEM.SOLV>
0

>  <SCORE.SYSTEM.norm>
0

>  <SCORE.heavy>
24

>  <SCORE.norm>
-0.507873

>  <RMSD>
7.240

$$$$
lig.pdb
 OpenBabel11021811453D
libRbt.so/2013.1/901 2013/11/27
 24 24  0  0  0  0  0  0  0  0999 V2000
    2.7570   -5.2618   -2.1127 C   0  0  0  0  0  0  0  0  0  0  0  0
    3.3496   -5.1950   -0.8068 C   0  0  0  0  0  0  0  0  0  0  0  0
    2.6302   -5.4798    0.3296 C   0  0  0  0  0  0  0  0  0  0  0  0
    1.2535   -5.8680    0.2715 C   0  0  0  0  0  0  0  0  0  0  0  0
    0.6540   -5.9015   -1.0305 C   0  0  0  0  0  0  0  0  0  0  0  0
    1.3690   -5.6096   -2.1650 C   0  0  0  0  0  0  0  0  0  0  0  0
    3.4707   -5.0120   -3.2498 C   0  0  0  0  0  0  0  0  0  0  0  0
    2.9005   -4.5547   -4.3851 N   0  0  0  0  0  0  0  0  0  0  0  0
   -0.4665   -7.0868    1.3959 N   0  0  0  0  0  0  0  0  0  0  0  0
    0.5404   -6.1879    1.3890 C   0  0  0  0  0  0  0  0  0  0  0  0
    4.8116   -5.2016   -3.3228 N   0  0  0  0  0  0  0  0  0  0  0  0
    0.7845   -5.6236    2.5956 N   0  0  0  0  0  0  0  0  0  0  0  0
    5.7686   -4.3912   -4.0736 C   0  0  0  0  0  0  0  0  0  0  0  0
    0.4188   -6.1781    3.8954 C   0  0  0  0  0  0  0  0  0  0  0  0
    7.0191   -4.2020   -3.1999 C   0  0  0  0  0  0  0  0  0  0  0  0
   -0.2956   -5.0739    4.6967 C   0  0  0  0  0  0  0  0  0  0  0  0
    6.6622   -3.5224   -1.8707 C   0  0  0  0  0  0  0  0  0  0  0  0
   -0.7629   -5.5538    6.0827 C   0  0  0  0  0  0  0  0  0  0  0  0
    7.4264   -4.1838   -0.7524 N   0  0  0  0  0  0  0  0  0  0  0  0
   -1.6247   -4.5213    6.7644 N   0  0  0  0  0  0  0  0  0  0  0  0
    6.9518   -3.6577    0.5748 C   0  0  0  0  0  0  0  0  0  0  0  0
   -0.7515   -3.3821    7.2174 C   0  0  0  0  0  0  0  0  0  0  0  0
    8.9079   -3.9370   -0.8939 C   0  0  0  0  0  0  0  0  0  0  0  0
   -2.3503   -5.0834    7.9550 C   0  0  0  0  0  0  0  0  0  0  0  0
  1  6  2  0  0  0  0
  2  3  2  0  0  0  0
  2  1  1  0  0  0  0
  3  4  1  0  0  0  0
  4 10  1  0  0  0  0
  4  5  2  0  0  0  0
  6  5  1  0  0  0  0
  7  1  1  0  0  0  0
  7 11  1  0  0  0  0
  8  7  2  0  0  0  0
  9 10  2  0  0  0  0
 10 12  1  0  0  0  0
 12 14  1  0  0  0  0
 13 11  1  0  0  0  0
 13 15  1  0  0  0  0
 14 16  1  0  0  0  0
 16 18  1  0  0  0  0
 17 15  1  0  0  0  0
 17 19  1  0  0  0  0
 18 20  1  0  0  0  0
 19 23  1  0  0  0  0
 20 22  1  0  0  0  0
 20 24  1  0  0  0  0
 21 19  1  0  0  0  0
M  END
>  <CHROM.1>
-148.82034856,-153.17501672,-130.35146586,138.58499313,-58.65389224,178.59093109
-171.95793334,138.67874588,-172.37993613,-72.84905179,2.57064312,-5.00659447
0.71025448,0.84316668,-0.30569786,-1.75103955

>  <Name>
lig.pdb

>  <RI>
2.41306e+07

>  <Rbt.Current_Directory>
/home/itssahil/PROJECTS/Mol_Feturizer/New_Systems/rnas/2l94

>  <Rbt.Executable>
rbdock ($Id: //depot/dev/client3/rdock/2013.1/src/exe/rbdock.cxx#4 $)

>  <Rbt.Library>
libRbt.so (2013.1, Build901 2013/11/27)

>  <Rbt.Parameter_File>
/export/apps/rDock/src/rDock_2013.1_src/data/scripts/dock_solv.prm

>  <Rbt.Receptor>
prm/blind_docking_40.prm

>  <SCORE>
-10.8308

>  <SCORE.INTER>
-12.8914

>  <SCORE.INTER.CONST>
1

>  <SCORE.INTER.POLAR>
-2.30845

>  <SCORE.INTER.ROT>
10

>  <SCORE.INTER.SOLV>
15.3356

>  <SCORE.INTER.VDW>
-16.278

>  <SCORE.INTER.norm>
-0.537142

>  <SCORE.INTRA>
2.02857

>  <SCORE.INTRA.DIHEDRAL>
8.41057

>  <SCORE.INTRA.DIHEDRAL.0>
7.52971

>  <SCORE.INTRA.POLAR>
0

>  <SCORE.INTRA.POLAR.0>
0

>  <SCORE.INTRA.REPUL>
0

>  <SCORE.INTRA.REPUL.0>
0

>  <SCORE.INTRA.SOLV>
0.127839

>  <SCORE.INTRA.SOLV.lig_0>
-22.1084

>  <SCORE.INTRA.VDW>
-2.24064

>  <SCORE.INTRA.VDW.0>
2.4256

>  <SCORE.INTRA.norm>
0.0845236

>  <SCORE.RESTR>
0.0319967

>  <SCORE.RESTR.CAVITY>
0.0319967

>  <SCORE.RESTR.norm>
0.0013332

>  <SCORE.SYSTEM>
0

>  <SCORE.SYSTEM.CONST>
0

>  <SCORE.SYSTEM.DIHEDRAL>
0

>  <SCORE.SYSTEM.SOLV>
0

>  <SCORE.SYSTEM.norm>
0

>  <SCORE.heavy>
24

>  <SCORE.norm>
-0.451285

>  <RMSD>
7.247

$$$$
lig.pdb
 OpenBabel11021811453D
libRbt.so/2013.1/901 2013/11/27
 24 24  0  0  0  0  0  0  0  0999 V2000
    1.2141   -6.1145    0.0857 C   0  0  0  0  0  0  0  0  0  0  0  0
    0.5821   -5.9533   -1.1932 C   0  0  0  0  0  0  0  0  0  0  0  0
    1.2968   -5.6043   -2.3146 C   0  0  0  0  0  0  0  0  0  0  0  0
    2.7119   -5.3924   -2.2696 C   0  0  0  0  0  0  0  0  0  0  0  0
    3.3362   -5.5206   -0.9853 C   0  0  0  0  0  0  0  0  0  0  0  0
    2.6224   -5.8611    0.1364 C   0  0  0  0  0  0  0  0  0  0  0  0
    0.5191   -6.4919    1.1989 C   0  0  0  0  0  0  0  0  0  0  0  0
   -0.6253   -7.2059    1.1389 N   0  0  0  0  0  0  0  0  0  0  0  0
    2.8897   -4.5716   -4.5063 N   0  0  0  0  0  0  0  0  0  0  0  0
    3.4363   -5.0816   -3.3824 C   0  0  0  0  0  0  0  0  0  0  0  0
    0.9301   -6.1800    2.4531 N   0  0  0  0  0  0  0  0  0  0  0  0
    4.7765   -5.2621   -3.4535 N   0  0  0  0  0  0  0  0  0  0  0  0
    0.7932   -7.0095    3.6487 C   0  0  0  0  0  0  0  0  0  0  0  0
    5.6894   -4.5846   -4.3690 C   0  0  0  0  0  0  0  0  0  0  0  0
    0.4951   -6.0825    4.8382 C   0  0  0  0  0  0  0  0  0  0  0  0
    6.6026   -3.6677   -3.5341 C   0  0  0  0  0  0  0  0  0  0  0  0
   -0.9365   -5.5344    4.7616 C   0  0  0  0  0  0  0  0  0  0  0  0
    7.2909   -4.4112   -2.3752 C   0  0  0  0  0  0  0  0  0  0  0  0
   -1.1057   -4.4392    5.7832 N   0  0  0  0  0  0  0  0  0  0  0  0
    8.0613   -3.4643   -1.4900 N   0  0  0  0  0  0  0  0  0  0  0  0
   -1.1474   -5.0296    7.1664 C   0  0  0  0  0  0  0  0  0  0  0  0
    9.5024   -3.8970   -1.4539 C   0  0  0  0  0  0  0  0  0  0  0  0
   -2.3703   -3.6569    5.5288 C   0  0  0  0  0  0  0  0  0  0  0  0
    7.5248   -3.4357   -0.0860 C   0  0  0  0  0  0  0  0  0  0  0  0
  1  6  2  0  0  0  0
  2  3  2  0  0  0  0
  2  1  1  0  0  0  0
  3  4  1  0  0  0  0
  4 10  1  0  0  0  0
  4  5  2  0  0  0  0
  6  5  1  0  0  0  0
  7  1  1  0  0  0  0
  7 11  1  0  0  0  0
  8  7  2  0  0  0  0
  9 10  2  0  0  0  0
 10 12  1  0  0  0  0
 12 14  1  0  0  0  0
 13 11  1  0  0  0  0
 13 15  1  0  0  0  0
 14 16  1  0  0  0  0
 16 18  1  0  0  0  0
 17 15  1  0  0  0  0
 17 19  1  0  0  0  0
 18 20  1  0  0  0  0
 19 23  1  0  0  0  0
 20 22  1  0  0  0  0
 20 24  1  0  0  0  0
 21 19  1  0  0  0  0
M  END
>  <CHROM.1>
19.93479494,25.51376368,112.80585921,-143.23770436,72.53171741,52.43435317
-173.99548927,-169.35728334,-72.09035016,-122.00356178,2.69272734,-5.15000701
0.28249855,2.36963230,0.30210635,1.42363513

>  <Name>
lig.pdb

>  <RI>
2.41306e+07

>  <Rbt.Current_Directory>
/home/itssahil/PROJECTS/Mol_Feturizer/New_Systems/rnas/2l94

>  <Rbt.Executable>
rbdock ($Id: //depot/dev/client3/rdock/2013.1/src/exe/rbdock.cxx#4 $)

>  <Rbt.Library>
libRbt.so (2013.1, Build901 2013/11/27)

>  <Rbt.Parameter_File>
/export/apps/rDock/src/rDock_2013.1_src/data/scripts/dock_solv.prm

>  <Rbt.Receptor>
prm/blind_docking_40.prm

>  <SCORE>
-8.14485

>  <SCORE.INTER>
-9.33692

>  <SCORE.INTER.CONST>
1

>  <SCORE.INTER.POLAR>
-1.48795

>  <SCORE.INTER.ROT>
10

>  <SCORE.INTER.SOLV>
17.2156

>  <SCORE.INTER.VDW>
-17.27

>  <SCORE.INTER.norm>
-0.389038

>  <SCORE.INTRA>
1.05647

>  <SCORE.INTRA.DIHEDRAL>
6.50869

>  <SCORE.INTRA.DIHEDRAL.0>
7.52971

>  <SCORE.INTRA.POLAR>
0

>  <SCORE.INTRA.POLAR.0>
0

>  <SCORE.INTRA.REPUL>
0

>  <SCORE.INTRA.REPUL.0>
0

>  <SCORE.INTRA.SOLV>
0.364002

>  <SCORE.INTRA.SOLV.lig_0>
-22.1084

>  <SCORE.INTRA.VDW>
-2.37988

>  <SCORE.INTRA.VDW.0>
2.4256

>  <SCORE.INTRA.norm>
0.0440195

>  <SCORE.RESTR>
0.135601

>  <SCORE.RESTR.CAVITY>
0.135601

>  <SCORE.RESTR.norm>
0.00565004

>  <SCORE.SYSTEM>
0

>  <SCORE.SYSTEM.CONST>
0

>  <SCORE.SYSTEM.DIHEDRAL>
0

>  <SCORE.SYSTEM.SOLV>
0

>  <SCORE.SYSTEM.norm>
0

>  <SCORE.heavy>
24

>  <SCORE.norm>
-0.339369

>  <RMSD>
7.255

$$$$
lig.pdb
 OpenBabel11021811453D
libRbt.so/2013.1/901 2013/11/27
 24 24  0  0  0  0  0  0  0  0999 V2000
   10.2934   -2.3945   -1.6682 C   0  0  0  0  0  0  0  0  0  0  0  0
   11.1643   -2.2423   -0.5371 C   0  0  0  0  0  0  0  0  0  0  0  0
   12.4706   -1.8378   -0.6791 C   0  0  0  0  0  0  0  0  0  0  0  0
   13.0302   -1.5368   -1.9618 C   0  0  0  0  0  0  0  0  0  0  0  0
   12.1693   -1.7217   -3.0934 C   0  0  0  0  0  0  0  0  0  0  0  0
   10.8675   -2.1333   -2.9536 C   0  0  0  0  0  0  0  0  0  0  0  0
    8.9857   -2.7649   -1.5356 C   0  0  0  0  0  0  0  0  0  0  0  0
    8.2577   -3.2567   -2.5609 N   0  0  0  0  0  0  0  0  0  0  0  0
   14.7415   -0.4050   -3.1861 N   0  0  0  0  0  0  0  0  0  0  0  0
   14.3134   -1.0999   -2.1109 C   0  0  0  0  0  0  0  0  0  0  0  0
    8.3190   -2.6698   -0.3585 N   0  0  0  0  0  0  0  0  0  0  0  0
   15.2741   -1.3306   -1.1848 N   0  0  0  0  0  0  0  0  0  0  0  0
    7.3005   -3.5892    0.1451 C   0  0  0  0  0  0  0  0  0  0  0  0
   16.5079   -0.5692   -1.0158 C   0  0  0  0  0  0  0  0  0  0  0  0
    6.9399   -3.1604    1.5766 C   0  0  0  0  0  0  0  0  0  0  0  0
   16.3848    0.2488    0.2832 C   0  0  0  0  0  0  0  0  0  0  0  0
    6.0552   -1.9061    1.5675 C   0  0  0  0  0  0  0  0  0  0  0  0
   17.7287    0.8461    0.7384 C   0  0  0  0  0  0  0  0  0  0  0  0
    5.4768   -1.6948    2.9432 N   0  0  0  0  0  0  0  0  0  0  0  0
   18.6804   -0.2256    1.2066 N   0  0  0  0  0  0  0  0  0  0  0  0
    4.2802   -2.5854    3.1392 C   0  0  0  0  0  0  0  0  0  0  0  0
   19.5480    0.3389    2.2994 C   0  0  0  0  0  0  0  0  0  0  0  0
    5.0735   -0.2547    3.1417 C   0  0  0  0  0  0  0  0  0  0  0  0
   19.5598   -0.7290    0.0962 C   0  0  0  0  0  0  0  0  0  0  0  0
  1  6  2  0  0  0  0
  2  3  2  0  0  0  0
  2  1  1  0  0  0  0
  3  4  1  0  0  0  0
  4 10  1  0  0  0  0
  4  5  2  0  0  0  0
  6  5  1  0  0  0  0
  7  1  1  0  0  0  0
  7 11  1  0  0  0  0
  8  7  2  0  0  0  0
  9 10  2  0  0  0  0
 10 12  1  0  0  0  0
 12 14  1  0  0  0  0
 13 11  1  0  0  0  0
 13 15  1  0  0  0  0
 14 16  1  0  0  0  0
 16 18  1  0  0  0  0
 17 15  1  0  0  0  0
 17 19  1  0  0  0  0
 18 20  1  0  0  0  0
 19 23  1  0  0  0  0
 20 22  1  0  0  0  0
 20 24  1  0  0  0  0
 21 19  1  0  0  0  0
M  END
>  <CHROM.1>
-157.48314837,-161.70130204,108.86388395,174.10913342,75.33211970,167.14992278
-68.99151877,167.62045369,-81.00065238,-147.78828516,11.81625287,-1.50956160
-0.17094437,3.07826142,0.20242887,1.30443370

>  <Name>
lig.pdb

>  <RI>
9.7521e+06

>  <Rbt.Current_Directory>
/home/itssahil/PROJECTS/Mol_Feturizer/New_Systems/rnas/2l94

>  <Rbt.Executable>
rbdock ($Id: //depot/dev/client3/rdock/2013.1/src/exe/rbdock.cxx#4 $)

>  <Rbt.Library>
libRbt.so (2013.1, Build901 2013/11/27)

>  <Rbt.Parameter_File>
/export/apps/rDock/src/rDock_2013.1_src/data/scripts/dock_solv.prm

>  <Rbt.Receptor>
prm/pocket_docking_7.prm

>  <SCORE>
-23.4867

>  <SCORE.INTER>
-24.1649

>  <SCORE.INTER.CONST>
1

>  <SCORE.INTER.POLAR>
-3.50526

>  <SCORE.INTER.ROT>
10

>  <SCORE.INTER.SOLV>
11.5417

>  <SCORE.INTER.VDW>
-18.5397

>  <SCORE.INTER.norm>
-1.00687

>  <SCORE.INTRA>
0.678193

>  <SCORE.INTRA.DIHEDRAL>
5.73487

>  <SCORE.INTRA.DIHEDRAL.0>
7.52971

>  <SCORE.INTRA.POLAR>
0

>  <SCORE.INTRA.POLAR.0>
0

>  <SCORE.INTRA.REPUL>
0

>  <SCORE.INTRA.REPUL.0>
0

>  <SCORE.INTRA.SOLV>
-0.0593143

>  <SCORE.INTRA.SOLV.lig_0>
-22.1084

>  <SCORE.INTRA.VDW>
-2.15958

>  <SCORE.INTRA.VDW.0>
2.4256

>  <SCORE.INTRA.norm>
0.0282581

>  <SCORE.RESTR>
0

>  <SCORE.RESTR.CAVITY>
0

>  <SCORE.RESTR.norm>
0

>  <SCORE.SYSTEM>
0

>  <SCORE.SYSTEM.CONST>
0

>  <SCORE.SYSTEM.DIHEDRAL>
0

>  <SCORE.SYSTEM.SOLV>
0

>  <SCORE.SYSTEM.norm>
0

>  <SCORE.heavy>
24

>  <SCORE.norm>
-0.978615

>  <RMSD>
7.255

$$$$
lig.pdb
 OpenBabel11021811453D
libRbt.so/2013.1/901 2013/11/27
 24 24  0  0  0  0  0  0  0  0999 V2000
    9.8646   -2.8992   -0.9166 C   0  0  0  0  0  0  0  0  0  0  0  0
   10.8662   -3.1482   -1.9146 C   0  0  0  0  0  0  0  0  0  0  0  0
   12.0825   -2.5076   -1.8945 C   0  0  0  0  0  0  0  0  0  0  0  0
   12.4199   -1.5647   -0.8715 C   0  0  0  0  0  0  0  0  0  0  0  0
   11.4061   -1.2920    0.1051 C   0  0  0  0  0  0  0  0  0  0  0  0
   10.1885   -1.9249    0.0814 C   0  0  0  0  0  0  0  0  0  0  0  0
    8.6660   -3.5534   -0.9090 C   0  0  0  0  0  0  0  0  0  0  0  0
    8.3452   -4.5019   -1.8148 N   0  0  0  0  0  0  0  0  0  0  0  0
   14.6443   -1.2272   -1.6756 N   0  0  0  0  0  0  0  0  0  0  0  0
   13.6365   -0.9508   -0.8211 C   0  0  0  0  0  0  0  0  0  0  0  0
    7.7059   -3.3010    0.0149 N   0  0  0  0  0  0  0  0  0  0  0  0
   13.9381   -0.0051    0.1001 N   0  0  0  0  0  0  0  0  0  0  0  0
    6.7884   -4.2716    0.6086 C   0  0  0  0  0  0  0  0  0  0  0  0
   14.9883    1.0024   -0.0120 C   0  0  0  0  0  0  0  0  0  0  0  0
    5.8180   -3.5090    1.5248 C   0  0  0  0  0  0  0  0  0  0  0  0
   16.2988    0.3790    0.5034 C   0  0  0  0  0  0  0  0  0  0  0  0
    4.6834   -4.4241    2.0058 C   0  0  0  0  0  0  0  0  0  0  0  0
   17.4819    1.3631    0.4599 C   0  0  0  0  0  0  0  0  0  0  0  0
    3.6584   -3.6010    2.7431 N   0  0  0  0  0  0  0  0  0  0  0  0
   18.7892    0.6700    0.7495 N   0  0  0  0  0  0  0  0  0  0  0  0
    4.0953   -3.3934    4.1677 C   0  0  0  0  0  0  0  0  0  0  0  0
   19.0651   -0.3242   -0.3463 C   0  0  0  0  0  0  0  0  0  0  0  0
    2.3094   -4.2762    2.7209 C   0  0  0  0  0  0  0  0  0  0  0  0
   18.7702   -0.0505    2.0688 C   0  0  0  0  0  0  0  0  0  0  0  0
  1  6  2  0  0  0  0
  2  3  2  0  0  0  0
  2  1  1  0  0  0  0
  3  4  1  0  0  0  0
  4 10  1  0  0  0  0
  4  5  2  0  0  0  0
  6  5  1  0  0  0  0
  7  1  1  0  0  0  0
  7 11  1  0  0  0  0
  8  7  2  0  0  0  0
  9 10  2  0  0  0  0
 10 12  1  0  0  0  0
 12 14  1  0  0  0  0
 13 11  1  0  0  0  0
 13 15  1  0  0  0  0
 14 16  1  0  0  0  0
 16 18  1  0  0  0  0
 17 15  1  0  0  0  0
 17 19  1  0  0  0  0
 18 20  1  0  0  0  0
 19 23  1  0  0  0  0
 20 22  1  0  0  0  0
 20 24  1  0  0  0  0
 21 19  1  0  0  0  0
M  END
>  <CHROM.1>
-3.73571784,1.63378807,-86.50803162,-176.01190424,170.77448149,-178.87427498
-170.57045200,-172.40901411,-82.69003866,64.48317255,11.10810488,-1.96314201
0.32404664,-3.13631841,0.34419612,1.18961503

>  <Name>
lig.pdb

>  <RI>
1.39428e+07

>  <Rbt.Current_Directory>
/home/itssahil/PROJECTS/Mol_Feturizer/New_Systems/rnas/2l94

>  <Rbt.Executable>
rbdock ($Id: //depot/dev/client3/rdock/2013.1/src/exe/rbdock.cxx#4 $)

>  <Rbt.Library>
libRbt.so (2013.1, Build901 2013/11/27)

>  <Rbt.Parameter_File>
/export/apps/rDock/src/rDock_2013.1_src/data/scripts/dock_solv.prm

>  <Rbt.Receptor>
prm/pocket_docking_8.prm

>  <SCORE>
-16.5426

>  <SCORE.INTER>
-17.6192

>  <SCORE.INTER.CONST>
1

>  <SCORE.INTER.POLAR>
-2.40261

>  <SCORE.INTER.ROT>
10

>  <SCORE.INTER.SOLV>
11.3158

>  <SCORE.INTER.VDW>
-17.7761

>  <SCORE.INTER.norm>
-0.734134

>  <SCORE.INTRA>
1.07665

>  <SCORE.INTRA.DIHEDRAL>
-0.567528

>  <SCORE.INTRA.DIHEDRAL.0>
7.52971

>  <SCORE.INTRA.POLAR>
0

>  <SCORE.INTRA.POLAR.0>
0

>  <SCORE.INTRA.REPUL>
0

>  <SCORE.INTRA.REPUL.0>
0

>  <SCORE.INTRA.SOLV>
-0.128686

>  <SCORE.INTRA.SOLV.lig_0>
-22.1084

>  <SCORE.INTRA.VDW>
1.42475

>  <SCORE.INTRA.VDW.0>
2.4256

>  <SCORE.INTRA.norm>
0.0448602

>  <SCORE.RESTR>
0

>  <SCORE.RESTR.CAVITY>
0

>  <SCORE.RESTR.norm>
0

>  <SCORE.SYSTEM>
0

>  <SCORE.SYSTEM.CONST>
0

>  <SCORE.SYSTEM.DIHEDRAL>
0

>  <SCORE.SYSTEM.SOLV>
0

>  <SCORE.SYSTEM.norm>
0

>  <SCORE.heavy>
24

>  <SCORE.norm>
-0.689274

>  <RMSD>
7.258

$$$$
lig.pdb
 OpenBabel11021811453D
libRbt.so/2013.1/901 2013/11/27
 24 24  0  0  0  0  0  0  0  0999 V2000
    1.1630   -6.1999   -0.0180 C   0  0  0  0  0  0  0  0  0  0  0  0
    0.5737   -6.0857   -1.3221 C   0  0  0  0  0  0  0  0  0  0  0  0
    1.3158   -5.7270   -2.4225 C   0  0  0  0  0  0  0  0  0  0  0  0
    2.7187   -5.4575   -2.3291 C   0  0  0  0  0  0  0  0  0  0  0  0
    3.2988   -5.5391   -1.0204 C   0  0  0  0  0  0  0  0  0  0  0  0
    2.5573   -5.8893    0.0801 C   0  0  0  0  0  0  0  0  0  0  0  0
    0.4420   -6.5863    1.0754 C   0  0  0  0  0  0  0  0  0  0  0  0
   -0.6925   -7.3127    0.9835 N   0  0  0  0  0  0  0  0  0  0  0  0
    2.9507   -4.6431   -4.5632 N   0  0  0  0  0  0  0  0  0  0  0  0
    3.4716   -5.1365   -3.4198 C   0  0  0  0  0  0  0  0  0  0  0  0
    0.8152   -6.2716    2.3407 N   0  0  0  0  0  0  0  0  0  0  0  0
    4.8170   -5.2890   -3.4472 N   0  0  0  0  0  0  0  0  0  0  0  0
    0.6548   -7.1042    3.5312 C   0  0  0  0  0  0  0  0  0  0  0  0
    5.7442   -4.5964   -4.3366 C   0  0  0  0  0  0  0  0  0  0  0  0
    0.9647   -6.2372    4.7622 C   0  0  0  0  0  0  0  0  0  0  0  0
    6.6205   -3.6674   -3.4760 C   0  0  0  0  0  0  0  0  0  0  0  0
   -0.3169   -5.9136    5.5424 C   0  0  0  0  0  0  0  0  0  0  0  0
    7.4515   -4.4344   -2.4314 C   0  0  0  0  0  0  0  0  0  0  0  0
   -1.1090   -4.8752    4.7900 N   0  0  0  0  0  0  0  0  0  0  0  0
    7.9212   -3.5267   -1.3229 N   0  0  0  0  0  0  0  0  0  0  0  0
   -0.4958   -3.5163    4.9917 C   0  0  0  0  0  0  0  0  0  0  0  0
    9.2446   -4.0292   -0.8115 C   0  0  0  0  0  0  0  0  0  0  0  0
   -2.5452   -4.8556    5.2515 C   0  0  0  0  0  0  0  0  0  0  0  0
    6.9452   -3.4728   -0.1807 C   0  0  0  0  0  0  0  0  0  0  0  0
  1  6  2  0  0  0  0
  2  3  2  0  0  0  0
  2  1  1  0  0  0  0
  3  4  1  0  0  0  0
  4 10  1  0  0  0  0
  4  5  2  0  0  0  0
  6  5  1  0  0  0  0
  7  1  1  0  0  0  0
  7 11  1  0  0  0  0
  8  7  2  0  0  0  0
  9 10  2  0  0  0  0
 10 12  1  0  0  0  0
 12 14  1  0  0  0  0
 13 11  1  0  0  0  0
 13 15  1  0  0  0  0
 14 16  1  0  0  0  0
 16 18  1  0  0  0  0
 17 15  1  0  0  0  0
 17 19  1  0  0  0  0
 18 20  1  0  0  0  0
 19 23  1  0  0  0  0
 20 22  1  0  0  0  0
 20 24  1  0  0  0  0
 21 19  1  0  0  0  0
M  END
>  <CHROM.1>
21.27423686,23.45651750,113.36962904,-169.11083151,108.04326524,61.01414146
-160.64634178,-74.52035472,-77.33798327,-148.79055356,2.70753655,-5.23215830
0.14455703,2.40151984,0.30907973,1.43913431

>  <Name>
lig.pdb

>  <RI>
2.41306e+07

>  <Rbt.Current_Directory>
/home/itssahil/PROJECTS/Mol_Feturizer/New_Systems/rnas/2l94

>  <Rbt.Executable>
rbdock ($Id: //depot/dev/client3/rdock/2013.1/src/exe/rbdock.cxx#4 $)

>  <Rbt.Library>
libRbt.so (2013.1, Build901 2013/11/27)

>  <Rbt.Parameter_File>
/export/apps/rDock/src/rDock_2013.1_src/data/scripts/dock_solv.prm

>  <Rbt.Receptor>
prm/blind_docking_40.prm

>  <SCORE>
-11.2607

>  <SCORE.INTER>
-14.2713

>  <SCORE.INTER.CONST>
1

>  <SCORE.INTER.POLAR>
-2.13828

>  <SCORE.INTER.ROT>
10

>  <SCORE.INTER.SOLV>
17.4684

>  <SCORE.INTER.VDW>
-18.4761

>  <SCORE.INTER.norm>
-0.594639

>  <SCORE.INTRA>
2.64698

>  <SCORE.INTRA.DIHEDRAL>
10.6954

>  <SCORE.INTRA.DIHEDRAL.0>
7.52971

>  <SCORE.INTRA.POLAR>
0

>  <SCORE.INTRA.POLAR.0>
0

>  <SCORE.INTRA.REPUL>
0

>  <SCORE.INTRA.REPUL.0>
0

>  <SCORE.INTRA.SOLV>
0.758784

>  <SCORE.INTRA.SOLV.lig_0>
-22.1084

>  <SCORE.INTRA.VDW>
-3.08009

>  <SCORE.INTRA.VDW.0>
2.4256

>  <SCORE.INTRA.norm>
0.110291

>  <SCORE.RESTR>
0.363663

>  <SCORE.RESTR.CAVITY>
0.363663

>  <SCORE.RESTR.norm>
0.0151526

>  <SCORE.SYSTEM>
0

>  <SCORE.SYSTEM.CONST>
0

>  <SCORE.SYSTEM.DIHEDRAL>
0

>  <SCORE.SYSTEM.SOLV>
0

>  <SCORE.SYSTEM.norm>
0

>  <SCORE.heavy>
24

>  <SCORE.norm>
-0.469196

>  <RMSD>
7.281

$$$$
lig.pdb
 OpenBabel11021811453D
libRbt.so/2013.1/901 2013/11/27
 24 24  0  0  0  0  0  0  0  0999 V2000
    1.2425   -6.2890   -0.0179 C   0  0  0  0  0  0  0  0  0  0  0  0
    2.6484   -6.0187    0.0887 C   0  0  0  0  0  0  0  0  0  0  0  0
    3.3904   -5.6084   -0.9936 C   0  0  0  0  0  0  0  0  0  0  0  0
    2.7990   -5.4189   -2.2834 C   0  0  0  0  0  0  0  0  0  0  0  0
    1.4020   -5.7217   -2.3961 C   0  0  0  0  0  0  0  0  0  0  0  0
    0.6621   -6.1391   -1.3182 C   0  0  0  0  0  0  0  0  0  0  0  0
    0.4900   -6.6662    1.0574 C   0  0  0  0  0  0  0  0  0  0  0  0
   -0.6690   -7.3480    0.9355 N   0  0  0  0  0  0  0  0  0  0  0  0
    2.9519   -4.4730   -4.4721 N   0  0  0  0  0  0  0  0  0  0  0  0
    3.5176   -4.9775   -3.3551 C   0  0  0  0  0  0  0  0  0  0  0  0
    0.8541   -6.3864    2.3335 N   0  0  0  0  0  0  0  0  0  0  0  0
    4.8710   -5.0104   -3.3886 N   0  0  0  0  0  0  0  0  0  0  0  0
    0.6437   -7.2318    3.5071 C   0  0  0  0  0  0  0  0  0  0  0  0
    5.7315   -4.1946   -4.2397 C   0  0  0  0  0  0  0  0  0  0  0  0
    0.7638   -6.3463    4.7579 C   0  0  0  0  0  0  0  0  0  0  0  0
    6.9821   -3.8166   -3.4244 C   0  0  0  0  0  0  0  0  0  0  0  0
   -0.5911   -5.7236    5.1217 C   0  0  0  0  0  0  0  0  0  0  0  0
    6.6429   -3.3618   -1.9933 C   0  0  0  0  0  0  0  0  0  0  0  0
   -0.3641   -4.4960    5.9663 N   0  0  0  0  0  0  0  0  0  0  0  0
    7.3292   -4.2216   -0.9621 N   0  0  0  0  0  0  0  0  0  0  0  0
   -1.6015   -4.1858    6.7638 C   0  0  0  0  0  0  0  0  0  0  0  0
    6.7389   -3.9230    0.3899 C   0  0  0  0  0  0  0  0  0  0  0  0
   -0.0063   -3.3096    5.1057 C   0  0  0  0  0  0  0  0  0  0  0  0
    8.8114   -3.9756   -0.9127 C   0  0  0  0  0  0  0  0  0  0  0  0
  1  6  2  0  0  0  0
  2  3  2  0  0  0  0
  2  1  1  0  0  0  0
  3  4  1  0  0  0  0
  4 10  1  0  0  0  0
  4  5  2  0  0  0  0
  6  5  1  0  0  0  0
  7  1  1  0  0  0  0
  7 11  1  0  0  0  0
  8  7  2  0  0  0  0
  9 10  2  0  0  0  0
 10 12  1  0  0  0  0
 12 14  1  0  0  0  0
 13 11  1  0  0  0  0
 13 15  1  0  0  0  0
 14 16  1  0  0  0  0
 16 18  1  0  0  0  0
 17 15  1  0  0  0  0
 17 19  1  0  0  0  0
 18 20  1  0  0  0  0
 19 23  1  0  0  0  0
 20 22  1  0  0  0  0
 20 24  1  0  0  0  0
 21 19  1  0  0  0  0
M  END
>  <CHROM.1>
-162.78752909,-156.79456960,142.70828532,-160.94920001,88.21229665,-44.58270206
121.63667523,-158.25634821,-158.00107777,-168.12424577,2.74004344,-5.17198258
0.32812145,2.32765942,0.36859389,1.39036672

>  <Name>
lig.pdb

>  <RI>
2.41306e+07

>  <Rbt.Current_Directory>
/home/itssahil/PROJECTS/Mol_Feturizer/New_Systems/rnas/2l94

>  <Rbt.Executable>
rbdock ($Id: //depot/dev/client3/rdock/2013.1/src/exe/rbdock.cxx#4 $)

>  <Rbt.Library>
libRbt.so (2013.1, Build901 2013/11/27)

>  <Rbt.Parameter_File>
/export/apps/rDock/src/rDock_2013.1_src/data/scripts/dock_solv.prm

>  <Rbt.Receptor>
prm/blind_docking_40.prm

>  <SCORE>
-13.8547

>  <SCORE.INTER>
-18.0933

>  <SCORE.INTER.CONST>
1

>  <SCORE.INTER.POLAR>
-3.03368

>  <SCORE.INTER.ROT>
10

>  <SCORE.INTER.SOLV>
16.1799

>  <SCORE.INTER.VDW>
-17.6099

>  <SCORE.INTER.norm>
-0.753886

>  <SCORE.INTRA>
3.90863

>  <SCORE.INTRA.DIHEDRAL>
12.1608

>  <SCORE.INTRA.DIHEDRAL.0>
7.52971

>  <SCORE.INTRA.POLAR>
0

>  <SCORE.INTRA.POLAR.0>
0

>  <SCORE.INTRA.REPUL>
0

>  <SCORE.INTRA.REPUL.0>
0

>  <SCORE.INTRA.SOLV>
0.636883

>  <SCORE.INTRA.SOLV.lig_0>
-22.1084

>  <SCORE.INTRA.VDW>
-2.49023

>  <SCORE.INTRA.VDW.0>
2.4256

>  <SCORE.INTRA.norm>
0.16286

>  <SCORE.RESTR>
0.329985

>  <SCORE.RESTR.CAVITY>
0.329985

>  <SCORE.RESTR.norm>
0.0137494

>  <SCORE.SYSTEM>
0

>  <SCORE.SYSTEM.CONST>
0

>  <SCORE.SYSTEM.DIHEDRAL>
0

>  <SCORE.SYSTEM.SOLV>
0

>  <SCORE.SYSTEM.norm>
0

>  <SCORE.heavy>
24

>  <SCORE.norm>
-0.577277

>  <RMSD>
7.306

$$$$
lig.pdb
 OpenBabel11021811453D
libRbt.so/2013.1/901 2013/11/27
 24 24  0  0  0  0  0  0  0  0999 V2000
    2.9686   -5.4883   -2.1870 C   0  0  0  0  0  0  0  0  0  0  0  0
    2.0465   -4.7269   -1.3925 C   0  0  0  0  0  0  0  0  0  0  0  0
    1.4574   -5.2513   -0.2664 C   0  0  0  0  0  0  0  0  0  0  0  0
    1.7392   -6.5818    0.1805 C   0  0  0  0  0  0  0  0  0  0  0  0
    2.6342   -7.3524   -0.6325 C   0  0  0  0  0  0  0  0  0  0  0  0
    3.2166   -6.8327   -1.7614 C   0  0  0  0  0  0  0  0  0  0  0  0
    3.5836   -4.9664   -3.2890 C   0  0  0  0  0  0  0  0  0  0  0  0
    2.9113   -4.3124   -4.2602 N   0  0  0  0  0  0  0  0  0  0  0  0
    1.3420   -8.3854    1.6963 N   0  0  0  0  0  0  0  0  0  0  0  0
    1.1888   -7.0993    1.3158 C   0  0  0  0  0  0  0  0  0  0  0  0
    4.9214   -5.0630   -3.4889 N   0  0  0  0  0  0  0  0  0  0  0  0
    0.4344   -6.3595    2.1628 N   0  0  0  0  0  0  0  0  0  0  0  0
    5.7860   -4.0619   -4.1105 C   0  0  0  0  0  0  0  0  0  0  0  0
    0.1776   -6.6549    3.5690 C   0  0  0  0  0  0  0  0  0  0  0  0
    7.0195   -3.8760   -3.2121 C   0  0  0  0  0  0  0  0  0  0  0  0
    0.7776   -5.5126    4.4096 C   0  0  0  0  0  0  0  0  0  0  0  0
    6.6088   -3.4339   -1.8008 C   0  0  0  0  0  0  0  0  0  0  0  0
   -0.2489   -4.4125    4.7352 C   0  0  0  0  0  0  0  0  0  0  0  0
    7.3698   -4.2453   -0.7837 N   0  0  0  0  0  0  0  0  0  0  0  0
   -0.3552   -4.1768    6.2207 N   0  0  0  0  0  0  0  0  0  0  0  0
    6.8518   -3.9526    0.5981 C   0  0  0  0  0  0  0  0  0  0  0  0
   -1.0222   -5.3677    6.8550 C   0  0  0  0  0  0  0  0  0  0  0  0
    8.8456   -3.9387   -0.8462 C   0  0  0  0  0  0  0  0  0  0  0  0
   -1.1496   -2.9424    6.5446 C   0  0  0  0  0  0  0  0  0  0  0  0
  1  6  2  0  0  0  0
  2  3  2  0  0  0  0
  2  1  1  0  0  0  0
  3  4  1  0  0  0  0
  4 10  1  0  0  0  0
  4  5  2  0  0  0  0
  6  5  1  0  0  0  0
  7  1  1  0  0  0  0
  7 11  1  0  0  0  0
  8  7  2  0  0  0  0
  9 10  2  0  0  0  0
 10 12  1  0  0  0  0
 12 14  1  0  0  0  0
 13 11  1  0  0  0  0
 13 15  1  0  0  0  0
 14 16  1  0  0  0  0
 16 18  1  0  0  0  0
 17 15  1  0  0  0  0
 17 19  1  0  0  0  0
 18 20  1  0  0  0  0
 19 23  1  0  0  0  0
 20 22  1  0  0  0  0
 20 24  1  0  0  0  0
 21 19  1  0  0  0  0
M  END
>  <CHROM.1>
173.89840700,-48.94235583,116.96075324,132.19045316,-58.61844689,93.78186502
124.38495938,134.35520887,-172.67098785,-70.12836529,2.89892321,-5.17929164
0.49883383,0.79795412,-0.46349920,-1.88571105

>  <Name>
lig.pdb

>  <RI>
2.41306e+07

>  <Rbt.Current_Directory>
/home/itssahil/PROJECTS/Mol_Feturizer/New_Systems/rnas/2l94

>  <Rbt.Executable>
rbdock ($Id: //depot/dev/client3/rdock/2013.1/src/exe/rbdock.cxx#4 $)

>  <Rbt.Library>
libRbt.so (2013.1, Build901 2013/11/27)

>  <Rbt.Parameter_File>
/export/apps/rDock/src/rDock_2013.1_src/data/scripts/dock_solv.prm

>  <Rbt.Receptor>
prm/blind_docking_40.prm

>  <SCORE>
-9.49839

>  <SCORE.INTER>
-17.4679

>  <SCORE.INTER.CONST>
1

>  <SCORE.INTER.POLAR>
-3.34217

>  <SCORE.INTER.ROT>
10

>  <SCORE.INTER.SOLV>
17.4544

>  <SCORE.INTER.VDW>
-16.5895

>  <SCORE.INTER.norm>
-0.72783

>  <SCORE.INTRA>
7.3526

>  <SCORE.INTRA.DIHEDRAL>
18.5908

>  <SCORE.INTRA.DIHEDRAL.0>
7.52971

>  <SCORE.INTRA.POLAR>
0

>  <SCORE.INTRA.POLAR.0>
0

>  <SCORE.INTRA.REPUL>
0

>  <SCORE.INTRA.REPUL.0>
0

>  <SCORE.INTRA.SOLV>
0.277403

>  <SCORE.INTRA.SOLV.lig_0>
-22.1084

>  <SCORE.INTRA.VDW>
-2.08149

>  <SCORE.INTRA.VDW.0>
2.4256

>  <SCORE.INTRA.norm>
0.306358

>  <SCORE.RESTR>
0.616924

>  <SCORE.RESTR.CAVITY>
0.616924

>  <SCORE.RESTR.norm>
0.0257052

>  <SCORE.SYSTEM>
0

>  <SCORE.SYSTEM.CONST>
0

>  <SCORE.SYSTEM.DIHEDRAL>
0

>  <SCORE.SYSTEM.SOLV>
0

>  <SCORE.SYSTEM.norm>
0

>  <SCORE.heavy>
24

>  <SCORE.norm>
-0.395766

>  <RMSD>
7.320

$$$$
lig.pdb
 OpenBabel11021811453D
libRbt.so/2013.1/901 2013/11/27
 24 24  0  0  0  0  0  0  0  0999 V2000
    2.6219   -5.6815   -2.0822 C   0  0  0  0  0  0  0  0  0  0  0  0
    1.1963   -5.8366   -2.0150 C   0  0  0  0  0  0  0  0  0  0  0  0
    0.5519   -6.0954   -0.8284 C   0  0  0  0  0  0  0  0  0  0  0  0
    1.2668   -6.2145    0.4061 C   0  0  0  0  0  0  0  0  0  0  0  0
    2.6935   -6.0929    0.3321 C   0  0  0  0  0  0  0  0  0  0  0  0
    3.3387   -5.8425   -0.8532 C   0  0  0  0  0  0  0  0  0  0  0  0
    3.2686   -5.3927   -3.2498 C   0  0  0  0  0  0  0  0  0  0  0  0
    2.6160   -5.0554   -4.3827 N   0  0  0  0  0  0  0  0  0  0  0  0
   -0.5174   -7.1296    1.7051 N   0  0  0  0  0  0  0  0  0  0  0  0
    0.6346   -6.4349    1.5941 C   0  0  0  0  0  0  0  0  0  0  0  0
    4.6201   -5.4192   -3.3581 N   0  0  0  0  0  0  0  0  0  0  0  0
    1.1138   -5.9694    2.7721 N   0  0  0  0  0  0  0  0  0  0  0  0
    5.4491   -4.5289   -4.1683 C   0  0  0  0  0  0  0  0  0  0  0  0
    0.7962   -6.4915    4.0976 C   0  0  0  0  0  0  0  0  0  0  0  0
    6.2549   -3.6319   -3.2149 C   0  0  0  0  0  0  0  0  0  0  0  0
    0.5375   -5.2925    5.0289 C   0  0  0  0  0  0  0  0  0  0  0  0
    7.3787   -4.4250   -2.5337 C   0  0  0  0  0  0  0  0  0  0  0  0
   -0.7548   -4.5342    4.6756 C   0  0  0  0  0  0  0  0  0  0  0  0
    8.1310   -3.5165   -1.5953 N   0  0  0  0  0  0  0  0  0  0  0  0
   -1.9355   -5.0617    5.4511 N   0  0  0  0  0  0  0  0  0  0  0  0
    8.8724   -2.4685   -2.3798 C   0  0  0  0  0  0  0  0  0  0  0  0
   -2.4516   -6.2995    4.7679 C   0  0  0  0  0  0  0  0  0  0  0  0
    9.1057   -4.3015   -0.7528 C   0  0  0  0  0  0  0  0  0  0  0  0
   -3.0487   -4.0558    5.5449 C   0  0  0  0  0  0  0  0  0  0  0  0
  1  6  2  0  0  0  0
  2  3  2  0  0  0  0
  2  1  1  0  0  0  0
  3  4  1  0  0  0  0
  4 10  1  0  0  0  0
  4  5  2  0  0  0  0
  6  5  1  0  0  0  0
  7  1  1  0  0  0  0
  7 11  1  0  0  0  0
  8  7  2  0  0  0  0
  9 10  2  0  0  0  0
 10 12  1  0  0  0  0
 12 14  1  0  0  0  0
 13 11  1  0  0  0  0
 13 15  1  0  0  0  0
 14 16  1  0  0  0  0
 16 18  1  0  0  0  0
 17 15  1  0  0  0  0
 17 19  1  0  0  0  0
 18 20  1  0  0  0  0
 19 23  1  0  0  0  0
 20 22  1  0  0  0  0
 20 24  1  0  0  0  0
 21 19  1  0  0  0  0
M  END
>  <CHROM.1>
30.90144656,9.14812691,-136.02539169,111.29387623,73.24848062,68.59597690
91.91012752,-179.22180877,-67.24052023,-81.41020900,2.58632998,-5.21086235
0.25595918,0.68927626,-0.31407461,-1.73967798

>  <Name>
lig.pdb

>  <RI>
3.93418e+07

>  <Rbt.Current_Directory>
/home/itssahil/PROJECTS/Mol_Feturizer/New_Systems/rnas/2l94

>  <Rbt.Executable>
rbdock ($Id: //depot/dev/client3/rdock/2013.1/src/exe/rbdock.cxx#4 $)

>  <Rbt.Library>
libRbt.so (2013.1, Build901 2013/11/27)

>  <Rbt.Parameter_File>
/export/apps/rDock/src/rDock_2013.1_src/data/scripts/dock_solv.prm

>  <Rbt.Receptor>
prm/blind_docking_20.prm

>  <SCORE>
-4.42536

>  <SCORE.INTER>
-7.3864

>  <SCORE.INTER.CONST>
1

>  <SCORE.INTER.POLAR>
-1.06358

>  <SCORE.INTER.ROT>
10

>  <SCORE.INTER.SOLV>
17.9725

>  <SCORE.INTER.VDW>
-17.6365

>  <SCORE.INTER.norm>
-0.307767

>  <SCORE.INTRA>
1.27286

>  <SCORE.INTRA.DIHEDRAL>
6.20956

>  <SCORE.INTRA.DIHEDRAL.0>
7.52971

>  <SCORE.INTRA.POLAR>
0

>  <SCORE.INTRA.POLAR.0>
0

>  <SCORE.INTRA.REPUL>
0

>  <SCORE.INTRA.REPUL.0>
0

>  <SCORE.INTRA.SOLV>
0.646169

>  <SCORE.INTRA.SOLV.lig_0>
-22.1084

>  <SCORE.INTRA.VDW>
-2.155

>  <SCORE.INTRA.VDW.0>
2.4256

>  <SCORE.INTRA.norm>
0.053036

>  <SCORE.RESTR>
1.68817

>  <SCORE.RESTR.CAVITY>
1.68817

>  <SCORE.RESTR.norm>
0.0703405

>  <SCORE.SYSTEM>
0

>  <SCORE.SYSTEM.CONST>
0

>  <SCORE.SYSTEM.DIHEDRAL>
0

>  <SCORE.SYSTEM.SOLV>
0

>  <SCORE.SYSTEM.norm>
0

>  <SCORE.heavy>
24

>  <SCORE.norm>
-0.18439

>  <RMSD>
7.325

$$$$
lig.pdb
 OpenBabel11021811453D
libRbt.so/2013.1/901 2013/11/27
 24 24  0  0  0  0  0  0  0  0999 V2000
    2.8060   -5.3522   -2.0307 C   0  0  0  0  0  0  0  0  0  0  0  0
    3.4562   -5.3684   -0.7508 C   0  0  0  0  0  0  0  0  0  0  0  0
    2.7690   -5.6495    0.4063 C   0  0  0  0  0  0  0  0  0  0  0  0
    1.3696   -5.9511    0.3963 C   0  0  0  0  0  0  0  0  0  0  0  0
    0.7148   -5.9015   -0.8783 C   0  0  0  0  0  0  0  0  0  0  0  0
    1.3982   -5.6130   -2.0331 C   0  0  0  0  0  0  0  0  0  0  0  0
    3.4854   -5.1056   -3.1893 C   0  0  0  0  0  0  0  0  0  0  0  0
    2.8796   -4.6623   -4.3116 N   0  0  0  0  0  0  0  0  0  0  0  0
   -0.4146   -7.0488    1.5452 N   0  0  0  0  0  0  0  0  0  0  0  0
    0.6857   -6.2669    1.5330 C   0  0  0  0  0  0  0  0  0  0  0  0
    4.8252   -5.2845   -3.2986 N   0  0  0  0  0  0  0  0  0  0  0  0
    1.0562   -5.8168    2.7553 N   0  0  0  0  0  0  0  0  0  0  0  0
    5.7538   -4.4722   -4.0823 C   0  0  0  0  0  0  0  0  0  0  0  0
    0.7002   -6.4157    4.0379 C   0  0  0  0  0  0  0  0  0  0  0  0
    6.9976   -4.2065   -3.2190 C   0  0  0  0  0  0  0  0  0  0  0  0
   -0.3839   -5.5350    4.6867 C   0  0  0  0  0  0  0  0  0  0  0  0
    6.6055   -3.6070   -1.8614 C   0  0  0  0  0  0  0  0  0  0  0  0
   -0.4760   -5.7326    6.2106 C   0  0  0  0  0  0  0  0  0  0  0  0
    7.4087   -4.2719   -0.7730 N   0  0  0  0  0  0  0  0  0  0  0  0
   -1.4600   -4.7754    6.8343 N   0  0  0  0  0  0  0  0  0  0  0  0
    6.9065   -3.8339    0.5759 C   0  0  0  0  0  0  0  0  0  0  0  0
   -0.9017   -3.3803    6.7483 C   0  0  0  0  0  0  0  0  0  0  0  0
    8.8732   -3.9333   -0.9019 C   0  0  0  0  0  0  0  0  0  0  0  0
   -1.7356   -5.1028    8.2754 C   0  0  0  0  0  0  0  0  0  0  0  0
  1  6  2  0  0  0  0
  2  3  2  0  0  0  0
  2  1  1  0  0  0  0
  3  4  1  0  0  0  0
  4 10  1  0  0  0  0
  4  5  2  0  0  0  0
  6  5  1  0  0  0  0
  7  1  1  0  0  0  0
  7 11  1  0  0  0  0
  8  7  2  0  0  0  0
  9 10  2  0  0  0  0
 10 12  1  0  0  0  0
 12 14  1  0  0  0  0
 13 11  1  0  0  0  0
 13 15  1  0  0  0  0
 14 16  1  0  0  0  0
 16 18  1  0  0  0  0
 17 15  1  0  0  0  0
 17 19  1  0  0  0  0
 18 20  1  0  0  0  0
 19 23  1  0  0  0  0
 20 22  1  0  0  0  0
 20 24  1  0  0  0  0
 21 19  1  0  0  0  0
M  END
>  <CHROM.1>
-152.28823660,-157.94881835,-104.81701521,135.80661528,-53.37057868,-158.81145967
175.10826521,136.77969005,-172.29128988,-68.94742301,2.64894233,-5.11655278
0.76561785,0.86326811,-0.30340350,-1.72847031

>  <Name>
lig.pdb

>  <RI>
2.41306e+07

>  <Rbt.Current_Directory>
/home/itssahil/PROJECTS/Mol_Feturizer/New_Systems/rnas/2l94

>  <Rbt.Executable>
rbdock ($Id: //depot/dev/client3/rdock/2013.1/src/exe/rbdock.cxx#4 $)

>  <Rbt.Library>
libRbt.so (2013.1, Build901 2013/11/27)

>  <Rbt.Parameter_File>
/export/apps/rDock/src/rDock_2013.1_src/data/scripts/dock_solv.prm

>  <Rbt.Receptor>
prm/blind_docking_40.prm

>  <SCORE>
-10.9167

>  <SCORE.INTER>
-13.2801

>  <SCORE.INTER.CONST>
1

>  <SCORE.INTER.POLAR>
-2.25021

>  <SCORE.INTER.ROT>
10

>  <SCORE.INTER.SOLV>
16.2261

>  <SCORE.INTER.VDW>
-17.0281

>  <SCORE.INTER.norm>
-0.553337

>  <SCORE.INTRA>
2.32278

>  <SCORE.INTRA.DIHEDRAL>
8.46918

>  <SCORE.INTRA.DIHEDRAL.0>
7.52971

>  <SCORE.INTRA.POLAR>
0

>  <SCORE.INTRA.POLAR.0>
0

>  <SCORE.INTRA.REPUL>
0

>  <SCORE.INTRA.REPUL.0>
0

>  <SCORE.INTRA.SOLV>
0.295859

>  <SCORE.INTRA.SOLV.lig_0>
-22.1084

>  <SCORE.INTRA.VDW>
-2.05974

>  <SCORE.INTRA.VDW.0>
2.4256

>  <SCORE.INTRA.norm>
0.0967825

>  <SCORE.RESTR>
0.0405897

>  <SCORE.RESTR.CAVITY>
0.0405897

>  <SCORE.RESTR.norm>
0.00169124

>  <SCORE.SYSTEM>
0

>  <SCORE.SYSTEM.CONST>
0

>  <SCORE.SYSTEM.DIHEDRAL>
0

>  <SCORE.SYSTEM.SOLV>
0

>  <SCORE.SYSTEM.norm>
0

>  <SCORE.heavy>
24

>  <SCORE.norm>
-0.454863

>  <RMSD>
7.342

$$$$
lig.pdb
 OpenBabel11021811453D
libRbt.so/2013.1/901 2013/11/27
 24 24  0  0  0  0  0  0  0  0999 V2000
    3.0432   -5.3200   -1.9353 C   0  0  0  0  0  0  0  0  0  0  0  0
    3.3337   -6.5285   -1.2169 C   0  0  0  0  0  0  0  0  0  0  0  0
    2.7758   -6.7917    0.0117 C   0  0  0  0  0  0  0  0  0  0  0  0
    1.8670   -5.8793    0.6369 C   0  0  0  0  0  0  0  0  0  0  0  0
    1.6041   -4.6577   -0.0662 C   0  0  0  0  0  0  0  0  0  0  0  0
    2.1668   -4.3902   -1.2891 C   0  0  0  0  0  0  0  0  0  0  0  0
    3.5667   -5.0633   -3.1701 C   0  0  0  0  0  0  0  0  0  0  0  0
    2.8239   -4.5959   -4.1962 N   0  0  0  0  0  0  0  0  0  0  0  0
    0.8854   -7.3816    2.2141 N   0  0  0  0  0  0  0  0  0  0  0  0
    1.2796   -6.1465    1.8382 C   0  0  0  0  0  0  0  0  0  0  0  0
    4.8779   -5.2554   -3.4581 N   0  0  0  0  0  0  0  0  0  0  0  0
    1.0394   -5.1857    2.7619 N   0  0  0  0  0  0  0  0  0  0  0  0
    5.7054   -4.4416   -4.3465 C   0  0  0  0  0  0  0  0  0  0  0  0
    0.8432   -5.3965    4.1928 C   0  0  0  0  0  0  0  0  0  0  0  0
    6.5890   -3.5351   -3.4744 C   0  0  0  0  0  0  0  0  0  0  0  0
   -0.6506   -5.1849    4.5018 C   0  0  0  0  0  0  0  0  0  0  0  0
    7.4504   -4.3674   -2.5145 C   0  0  0  0  0  0  0  0  0  0  0  0
   -1.1109   -5.9466    5.7579 C   0  0  0  0  0  0  0  0  0  0  0  0
    7.8784   -3.5052   -1.3548 N   0  0  0  0  0  0  0  0  0  0  0  0
   -0.5070   -5.3641    7.0107 N   0  0  0  0  0  0  0  0  0  0  0  0
    9.2312   -3.9420   -0.8622 C   0  0  0  0  0  0  0  0  0  0  0  0
   -0.5126   -6.4161    8.0872 C   0  0  0  0  0  0  0  0  0  0  0  0
    6.8793   -3.5856   -0.2272 C   0  0  0  0  0  0  0  0  0  0  0  0
   -1.2642   -4.1611    7.5000 C   0  0  0  0  0  0  0  0  0  0  0  0
  1  6  2  0  0  0  0
  2  3  2  0  0  0  0
  2  1  1  0  0  0  0
  3  4  1  0  0  0  0
  4 10  1  0  0  0  0
  4  5  2  0  0  0  0
  6  5  1  0  0  0  0
  7  1  1  0  0  0  0
  7 11  1  0  0  0  0
  8  7  2  0  0  0  0
  9 10  2  0  0  0  0
 10 12  1  0  0  0  0
 12 14  1  0  0  0  0
 13 11  1  0  0  0  0
 13 15  1  0  0  0  0
 14 16  1  0  0  0  0
 16 18  1  0  0  0  0
 17 15  1  0  0  0  0
 17 19  1  0  0  0  0
 18 20  1  0  0  0  0
 19 23  1  0  0  0  0
 20 22  1  0  0  0  0
 20 24  1  0  0  0  0
 21 19  1  0  0  0  0
M  END
>  <CHROM.1>
-36.23789464,134.02756966,-107.04360883,102.65653061,57.69176385,154.58923536
68.80852494,-158.30308361,-148.20508549,-157.26349754,2.92681781,-5.10677654
0.75065610,0.89190390,-0.30397911,-1.66415939

>  <Name>
lig.pdb

>  <RI>
3.30914e+07

>  <Rbt.Current_Directory>
/home/itssahil/PROJECTS/Mol_Feturizer/New_Systems/rnas/2l94

>  <Rbt.Executable>
rbdock ($Id: //depot/dev/client3/rdock/2013.1/src/exe/rbdock.cxx#4 $)

>  <Rbt.Library>
libRbt.so (2013.1, Build901 2013/11/27)

>  <Rbt.Parameter_File>
/export/apps/rDock/src/rDock_2013.1_src/data/scripts/dock_solv.prm

>  <Rbt.Receptor>
prm/blind_docking_80.prm

>  <SCORE>
-5.83907

>  <SCORE.INTER>
-9.95763

>  <SCORE.INTER.CONST>
1

>  <SCORE.INTER.POLAR>
-1.91439

>  <SCORE.INTER.ROT>
10

>  <SCORE.INTER.SOLV>
17.997

>  <SCORE.INTER.VDW>
-16.5228

>  <SCORE.INTER.norm>
-0.414901

>  <SCORE.INTRA>
3.7878

>  <SCORE.INTRA.DIHEDRAL>
15.3189

>  <SCORE.INTRA.DIHEDRAL.0>
7.52971

>  <SCORE.INTRA.POLAR>
0

>  <SCORE.INTRA.POLAR.0>
0

>  <SCORE.INTRA.REPUL>
0

>  <SCORE.INTRA.REPUL.0>
0

>  <SCORE.INTRA.SOLV>
0.30617

>  <SCORE.INTRA.SOLV.lig_0>
-22.1084

>  <SCORE.INTRA.VDW>
-4.02475

>  <SCORE.INTRA.VDW.0>
2.4256

>  <SCORE.INTRA.norm>
0.157825

>  <SCORE.RESTR>
0.330754

>  <SCORE.RESTR.CAVITY>
0.330754

>  <SCORE.RESTR.norm>
0.0137814

>  <SCORE.SYSTEM>
0

>  <SCORE.SYSTEM.CONST>
0

>  <SCORE.SYSTEM.DIHEDRAL>
0

>  <SCORE.SYSTEM.SOLV>
0

>  <SCORE.SYSTEM.norm>
0

>  <SCORE.heavy>
24

>  <SCORE.norm>
-0.243295

>  <RMSD>
7.355

$$$$
lig.pdb
 OpenBabel11021811453D
libRbt.so/2013.1/901 2013/11/27
 24 24  0  0  0  0  0  0  0  0999 V2000
    2.6138   -5.3137   -0.7978 C   0  0  0  0  0  0  0  0  0  0  0  0
    1.2617   -5.3991   -0.3229 C   0  0  0  0  0  0  0  0  0  0  0  0
    0.9530   -5.2624    1.0098 C   0  0  0  0  0  0  0  0  0  0  0  0
    1.9623   -5.0175    1.9951 C   0  0  0  0  0  0  0  0  0  0  0  0
    3.3155   -4.9662    1.5239 C   0  0  0  0  0  0  0  0  0  0  0  0
    3.6257   -5.1105    0.1947 C   0  0  0  0  0  0  0  0  0  0  0  0
    2.9280   -5.4162   -2.1228 C   0  0  0  0  0  0  0  0  0  0  0  0
    1.9914   -5.5023   -3.0915 N   0  0  0  0  0  0  0  0  0  0  0  0
    2.5957   -4.8234    4.2906 N   0  0  0  0  0  0  0  0  0  0  0  0
    1.6637   -4.8442    3.3143 C   0  0  0  0  0  0  0  0  0  0  0  0
    4.2093   -5.4351   -2.5668 N   0  0  0  0  0  0  0  0  0  0  0  0
    0.3953   -4.6786    3.7589 N   0  0  0  0  0  0  0  0  0  0  0  0
    4.7132   -4.8453   -3.8055 C   0  0  0  0  0  0  0  0  0  0  0  0
   -0.0013   -4.0624    5.0212 C   0  0  0  0  0  0  0  0  0  0  0  0
    5.2881   -3.4592   -3.4720 C   0  0  0  0  0  0  0  0  0  0  0  0
   -0.2051   -5.1872    6.0533 C   0  0  0  0  0  0  0  0  0  0  0  0
    6.8041   -3.5344   -3.2435 C   0  0  0  0  0  0  0  0  0  0  0  0
   -0.7986   -4.6765    7.3787 C   0  0  0  0  0  0  0  0  0  0  0  0
    7.0768   -4.2412   -1.9404 N   0  0  0  0  0  0  0  0  0  0  0  0
   -2.3006   -4.5666    7.3066 N   0  0  0  0  0  0  0  0  0  0  0  0
    6.5272   -3.4356   -0.7948 C   0  0  0  0  0  0  0  0  0  0  0  0
   -2.6606   -3.3943    6.4339 C   0  0  0  0  0  0  0  0  0  0  0  0
    8.5572   -4.4551   -1.7441 C   0  0  0  0  0  0  0  0  0  0  0  0
   -2.9220   -4.3751    8.6621 C   0  0  0  0  0  0  0  0  0  0  0  0
  1  6  2  0  0  0  0
  2  3  2  0  0  0  0
  2  1  1  0  0  0  0
  3  4  1  0  0  0  0
  4 10  1  0  0  0  0
  4  5  2  0  0  0  0
  6  5  1  0  0  0  0
  7  1  1  0  0  0  0
  7 11  1  0  0  0  0
  8  7  2  0  0  0  0
  9 10  2  0  0  0  0
 10 12  1  0  0  0  0
 12 14  1  0  0  0  0
 13 11  1  0  0  0  0
 13 15  1  0  0  0  0
 14 16  1  0  0  0  0
 16 18  1  0  0  0  0
 17 15  1  0  0  0  0
 17 19  1  0  0  0  0
 18 20  1  0  0  0  0
 19 23  1  0  0  0  0
 20 22  1  0  0  0  0
 20 24  1  0  0  0  0
 21 19  1  0  0  0  0
M  END
>  <CHROM.1>
169.15365156,5.18867094,-95.48152738,96.41213262,95.43454911,-172.72348434
83.64396604,-71.09006090,-64.18559770,-72.33744115,2.39865941,-4.65448366
1.41834926,0.90728464,-0.18346802,-1.71311071

>  <Name>
lig.pdb

>  <RI>
2.41306e+07

>  <Rbt.Current_Directory>
/home/itssahil/PROJECTS/Mol_Feturizer/New_Systems/rnas/2l94

>  <Rbt.Executable>
rbdock ($Id: //depot/dev/client3/rdock/2013.1/src/exe/rbdock.cxx#4 $)

>  <Rbt.Library>
libRbt.so (2013.1, Build901 2013/11/27)

>  <Rbt.Parameter_File>
/export/apps/rDock/src/rDock_2013.1_src/data/scripts/dock_solv.prm

>  <Rbt.Receptor>
prm/blind_docking_40.prm

>  <SCORE>
-11.1006

>  <SCORE.INTER>
-14.3631

>  <SCORE.INTER.CONST>
1

>  <SCORE.INTER.POLAR>
-2.78322

>  <SCORE.INTER.ROT>
10

>  <SCORE.INTER.SOLV>
16.9642

>  <SCORE.INTER.VDW>
-16.2194

>  <SCORE.INTER.norm>
-0.598462

>  <SCORE.INTRA>
2.17114

>  <SCORE.INTRA.DIHEDRAL>
4.34403

>  <SCORE.INTRA.DIHEDRAL.0>
7.52971

>  <SCORE.INTRA.POLAR>
0

>  <SCORE.INTRA.POLAR.0>
0

>  <SCORE.INTRA.REPUL>
0

>  <SCORE.INTRA.REPUL.0>
0

>  <SCORE.INTRA.SOLV>
1.01178

>  <SCORE.INTRA.SOLV.lig_0>
-22.1084

>  <SCORE.INTRA.VDW>
-0.506768

>  <SCORE.INTRA.VDW.0>
2.4256

>  <SCORE.INTRA.norm>
0.0904642

>  <SCORE.RESTR>
1.09136

>  <SCORE.RESTR.CAVITY>
1.09136

>  <SCORE.RESTR.norm>
0.0454732

>  <SCORE.SYSTEM>
0

>  <SCORE.SYSTEM.CONST>
0

>  <SCORE.SYSTEM.DIHEDRAL>
0

>  <SCORE.SYSTEM.SOLV>
0

>  <SCORE.SYSTEM.norm>
0

>  <SCORE.heavy>
24

>  <SCORE.norm>
-0.462525

>  <RMSD>
7.372

$$$$
lig.pdb
 OpenBabel11021811453D
libRbt.so/2013.1/901 2013/11/27
 24 24  0  0  0  0  0  0  0  0999 V2000
    2.8583   -5.3765   -2.1754 C   0  0  0  0  0  0  0  0  0  0  0  0
    1.4359   -5.5700   -2.1580 C   0  0  0  0  0  0  0  0  0  0  0  0
    0.7591   -5.8584   -0.9965 C   0  0  0  0  0  0  0  0  0  0  0  0
    1.4351   -5.9716    0.2603 C   0  0  0  0  0  0  0  0  0  0  0  0
    2.8597   -5.8115    0.2358 C   0  0  0  0  0  0  0  0  0  0  0  0
    3.5374   -5.5316   -0.9244 C   0  0  0  0  0  0  0  0  0  0  0  0
    3.5359   -5.0583   -3.3175 C   0  0  0  0  0  0  0  0  0  0  0  0
    2.9260   -4.5606   -4.4146 N   0  0  0  0  0  0  0  0  0  0  0  0
   -0.3775   -6.9303    1.4865 N   0  0  0  0  0  0  0  0  0  0  0  0
    0.7695   -6.2213    1.4240 C   0  0  0  0  0  0  0  0  0  0  0  0
    4.8778   -5.2153   -3.4344 N   0  0  0  0  0  0  0  0  0  0  0  0
    1.2072   -5.7731    2.6246 N   0  0  0  0  0  0  0  0  0  0  0  0
    5.7975   -4.3502   -4.1704 C   0  0  0  0  0  0  0  0  0  0  0  0
    0.8552   -6.3236    3.9298 C   0  0  0  0  0  0  0  0  0  0  0  0
    6.9953   -4.0440   -3.2569 C   0  0  0  0  0  0  0  0  0  0  0  0
   -0.1234   -5.3463    4.6072 C   0  0  0  0  0  0  0  0  0  0  0  0
    6.5251   -3.5351   -1.8873 C   0  0  0  0  0  0  0  0  0  0  0  0
   -0.4972   -5.7761    6.0374 C   0  0  0  0  0  0  0  0  0  0  0  0
    7.2380   -4.2987   -0.8008 N   0  0  0  0  0  0  0  0  0  0  0  0
   -1.5011   -4.8349    6.6536 N   0  0  0  0  0  0  0  0  0  0  0  0
    6.6262   -3.9803    0.5363 C   0  0  0  0  0  0  0  0  0  0  0  0
   -1.5574   -5.0875    8.1364 C   0  0  0  0  0  0  0  0  0  0  0  0
    8.7074   -3.9574   -0.7790 C   0  0  0  0  0  0  0  0  0  0  0  0
   -2.8772   -5.0141    6.0754 C   0  0  0  0  0  0  0  0  0  0  0  0
  1  6  2  0  0  0  0
  2  3  2  0  0  0  0
  2  1  1  0  0  0  0
  3  4  1  0  0  0  0
  4 10  1  0  0  0  0
  4  5  2  0  0  0  0
  6  5  1  0  0  0  0
  7  1  1  0  0  0  0
  7 11  1  0  0  0  0
  8  7  2  0  0  0  0
  9 10  2  0  0  0  0
 10 12  1  0  0  0  0
 12 14  1  0  0  0  0
 13 11  1  0  0  0  0
 13 15  1  0  0  0  0
 14 16  1  0  0  0  0
 16 18  1  0  0  0  0
 17 15  1  0  0  0  0
 17 19  1  0  0  0  0
 18 20  1  0  0  0  0
 19 23  1  0  0  0  0
 20 22  1  0  0  0  0
 20 24  1  0  0  0  0
 21 19  1  0  0  0  0
M  END
>  <CHROM.1>
29.86209887,17.98461669,-106.12046183,132.19447808,-51.21485023,-176.22868501
-177.53138544,130.96979928,-170.50443340,-165.57497919,2.58963646,-5.16440195
0.64235707,0.85069523,-0.26461937,-1.67293656

>  <Name>
lig.pdb

>  <RI>
2.41306e+07

>  <Rbt.Current_Directory>
/home/itssahil/PROJECTS/Mol_Feturizer/New_Systems/rnas/2l94

>  <Rbt.Executable>
rbdock ($Id: //depot/dev/client3/rdock/2013.1/src/exe/rbdock.cxx#4 $)

>  <Rbt.Library>
libRbt.so (2013.1, Build901 2013/11/27)

>  <Rbt.Parameter_File>
/export/apps/rDock/src/rDock_2013.1_src/data/scripts/dock_solv.prm

>  <Rbt.Receptor>
prm/blind_docking_40.prm

>  <SCORE>
-12.6133

>  <SCORE.INTER>
-13.7222

>  <SCORE.INTER.CONST>
1

>  <SCORE.INTER.POLAR>
-2.2884

>  <SCORE.INTER.ROT>
10

>  <SCORE.INTER.SOLV>
16.3819

>  <SCORE.INTER.VDW>
-17.2474

>  <SCORE.INTER.norm>
-0.571758

>  <SCORE.INTRA>
1.10734

>  <SCORE.INTRA.DIHEDRAL>
7.71873

>  <SCORE.INTRA.DIHEDRAL.0>
7.52971

>  <SCORE.INTRA.POLAR>
0

>  <SCORE.INTRA.POLAR.0>
0

>  <SCORE.INTRA.REPUL>
0

>  <SCORE.INTRA.REPUL.0>
0

>  <SCORE.INTRA.SOLV>
0.395681

>  <SCORE.INTRA.SOLV.lig_0>
-22.1084

>  <SCORE.INTRA.VDW>
-2.94987

>  <SCORE.INTRA.VDW.0>
2.4256

>  <SCORE.INTRA.norm>
0.046139

>  <SCORE.RESTR>
0.00151749

>  <SCORE.RESTR.CAVITY>
0.00151749

>  <SCORE.RESTR.norm>
6.32288e-05

>  <SCORE.SYSTEM>
0

>  <SCORE.SYSTEM.CONST>
0

>  <SCORE.SYSTEM.DIHEDRAL>
0

>  <SCORE.SYSTEM.SOLV>
0

>  <SCORE.SYSTEM.norm>
0

>  <SCORE.heavy>
24

>  <SCORE.norm>
-0.525556

>  <RMSD>
7.377

$$$$
lig.pdb
 OpenBabel11021811453D
libRbt.so/2013.1/901 2013/11/27
 24 24  0  0  0  0  0  0  0  0999 V2000
    2.9607   -5.5673   -1.7545 C   0  0  0  0  0  0  0  0  0  0  0  0
    3.6656   -6.4151   -0.8351 C   0  0  0  0  0  0  0  0  0  0  0  0
    3.0792   -6.8750    0.3202 C   0  0  0  0  0  0  0  0  0  0  0  0
    1.7303   -6.5412    0.6642 C   0  0  0  0  0  0  0  0  0  0  0  0
    1.0389   -5.6672   -0.2379 C   0  0  0  0  0  0  0  0  0  0  0  0
    1.6260   -5.2010   -1.3876 C   0  0  0  0  0  0  0  0  0  0  0  0
    3.5227   -5.1311   -2.9201 C   0  0  0  0  0  0  0  0  0  0  0  0
    2.8032   -4.5593   -3.9093 N   0  0  0  0  0  0  0  0  0  0  0  0
    1.4510   -8.1999    2.3610 N   0  0  0  0  0  0  0  0  0  0  0  0
    1.1267   -7.0210    1.7889 C   0  0  0  0  0  0  0  0  0  0  0  0
    4.8513   -5.2364   -3.1706 N   0  0  0  0  0  0  0  0  0  0  0  0
    0.1414   -6.3491    2.4305 N   0  0  0  0  0  0  0  0  0  0  0  0
    5.6796   -4.2833   -3.9066 C   0  0  0  0  0  0  0  0  0  0  0  0
   -0.2538   -6.5240    3.8247 C   0  0  0  0  0  0  0  0  0  0  0  0
    6.0944   -3.1659   -2.9359 C   0  0  0  0  0  0  0  0  0  0  0  0
   -0.4370   -5.1257    4.4435 C   0  0  0  0  0  0  0  0  0  0  0  0
    7.5122   -3.4042   -2.3984 C   0  0  0  0  0  0  0  0  0  0  0  0
   -0.9776   -5.1800    5.8839 C   0  0  0  0  0  0  0  0  0  0  0  0
    7.4624   -4.4396   -1.3042 N   0  0  0  0  0  0  0  0  0  0  0  0
   -1.4993   -3.8376    6.3302 N   0  0  0  0  0  0  0  0  0  0  0  0
    6.8872   -3.8357   -0.0520 C   0  0  0  0  0  0  0  0  0  0  0  0
   -1.6457   -3.8469    7.8282 C   0  0  0  0  0  0  0  0  0  0  0  0
    8.8394   -4.9847   -1.0165 C   0  0  0  0  0  0  0  0  0  0  0  0
   -2.8301   -3.5111    5.7118 C   0  0  0  0  0  0  0  0  0  0  0  0
  1  6  2  0  0  0  0
  2  3  2  0  0  0  0
  2  1  1  0  0  0  0
  3  4  1  0  0  0  0
  4 10  1  0  0  0  0
  4  5  2  0  0  0  0
  6  5  1  0  0  0  0
  7  1  1  0  0  0  0
  7 11  1  0  0  0  0
  8  7  2  0  0  0  0
  9 10  2  0  0  0  0
 10 12  1  0  0  0  0
 12 14  1  0  0  0  0
 13 11  1  0  0  0  0
 13 15  1  0  0  0  0
 14 16  1  0  0  0  0
 16 18  1  0  0  0  0
 17 15  1  0  0  0  0
 17 19  1  0  0  0  0
 18 20  1  0  0  0  0
 19 23  1  0  0  0  0
 20 22  1  0  0  0  0
 20 24  1  0  0  0  0
 21 19  1  0  0  0  0
M  END
>  <CHROM.1>
-28.32836093,166.71299374,135.30492967,82.97364413,98.77006464,174.88264677
-164.47131828,-79.01905181,-74.52434479,-164.18381987,2.62489874,-5.17276458
0.71415927,0.76506402,-0.35669485,-1.86519589

>  <Name>
lig.pdb

>  <RI>
2.41306e+07

>  <Rbt.Current_Directory>
/home/itssahil/PROJECTS/Mol_Feturizer/New_Systems/rnas/2l94

>  <Rbt.Executable>
rbdock ($Id: //depot/dev/client3/rdock/2013.1/src/exe/rbdock.cxx#4 $)

>  <Rbt.Library>
libRbt.so (2013.1, Build901 2013/11/27)

>  <Rbt.Parameter_File>
/export/apps/rDock/src/rDock_2013.1_src/data/scripts/dock_solv.prm

>  <Rbt.Receptor>
prm/blind_docking_40.prm

>  <SCORE>
-10.3271

>  <SCORE.INTER>
-12.5916

>  <SCORE.INTER.CONST>
1

>  <SCORE.INTER.POLAR>
-2.5323

>  <SCORE.INTER.ROT>
10

>  <SCORE.INTER.SOLV>
19.6894

>  <SCORE.INTER.VDW>
-16.7832

>  <SCORE.INTER.norm>
-0.524651

>  <SCORE.INTRA>
1.21009

>  <SCORE.INTRA.DIHEDRAL>
8.12597

>  <SCORE.INTRA.DIHEDRAL.0>
7.52971

>  <SCORE.INTRA.POLAR>
0

>  <SCORE.INTRA.POLAR.0>
0

>  <SCORE.INTRA.REPUL>
0

>  <SCORE.INTRA.REPUL.0>
0

>  <SCORE.INTRA.SOLV>
0.571362

>  <SCORE.INTRA.SOLV.lig_0>
-22.1084

>  <SCORE.INTRA.VDW>
-3.13857

>  <SCORE.INTRA.VDW.0>
2.4256

>  <SCORE.INTRA.norm>
0.0504205

>  <SCORE.RESTR>
1.05442

>  <SCORE.RESTR.CAVITY>
1.05442

>  <SCORE.RESTR.norm>
0.043934

>  <SCORE.SYSTEM>
0

>  <SCORE.SYSTEM.CONST>
0

>  <SCORE.SYSTEM.DIHEDRAL>
0

>  <SCORE.SYSTEM.SOLV>
0

>  <SCORE.SYSTEM.norm>
0

>  <SCORE.heavy>
24

>  <SCORE.norm>
-0.430297

>  <RMSD>
7.378

$$$$
lig.pdb
 OpenBabel11021811453D
libRbt.so/2013.1/901 2013/11/27
 24 24  0  0  0  0  0  0  0  0999 V2000
    2.4684   -5.2390   -0.6332 C   0  0  0  0  0  0  0  0  0  0  0  0
    1.1274   -5.3597   -0.1349 C   0  0  0  0  0  0  0  0  0  0  0  0
    0.8405   -5.2465    1.2049 C   0  0  0  0  0  0  0  0  0  0  0  0
    1.8623   -4.9921    2.1747 C   0  0  0  0  0  0  0  0  0  0  0  0
    3.2051   -4.9053    1.6796 C   0  0  0  0  0  0  0  0  0  0  0  0
    3.4937   -5.0262    0.3433 C   0  0  0  0  0  0  0  0  0  0  0  0
    2.7601   -5.3179   -1.9649 C   0  0  0  0  0  0  0  0  0  0  0  0
    1.8072   -5.3796   -2.9195 N   0  0  0  0  0  0  0  0  0  0  0  0
    2.4984   -5.0270    4.4774 N   0  0  0  0  0  0  0  0  0  0  0  0
    1.5845   -4.8419    3.5013 C   0  0  0  0  0  0  0  0  0  0  0  0
    4.0337   -5.3363   -2.4302 N   0  0  0  0  0  0  0  0  0  0  0  0
    0.3568   -4.4928    3.9539 N   0  0  0  0  0  0  0  0  0  0  0  0
    4.5211   -4.7260   -3.6656 C   0  0  0  0  0  0  0  0  0  0  0  0
    0.0560   -3.8872    5.2475 C   0  0  0  0  0  0  0  0  0  0  0  0
    6.0158   -4.4158   -3.4846 C   0  0  0  0  0  0  0  0  0  0  0  0
   -0.3328   -5.0167    6.2196 C   0  0  0  0  0  0  0  0  0  0  0  0
    6.2430   -3.4953   -2.2775 C   0  0  0  0  0  0  0  0  0  0  0  0
   -1.6987   -5.6434    5.8860 C   0  0  0  0  0  0  0  0  0  0  0  0
    7.0639   -4.2230   -1.2439 N   0  0  0  0  0  0  0  0  0  0  0  0
   -2.8354   -4.7310    6.2723 N   0  0  0  0  0  0  0  0  0  0  0  0
    6.8240   -3.6255    0.1158 C   0  0  0  0  0  0  0  0  0  0  0  0
   -4.0536   -5.5672    6.5588 C   0  0  0  0  0  0  0  0  0  0  0  0
    8.5338   -4.1507   -1.5761 C   0  0  0  0  0  0  0  0  0  0  0  0
   -3.1651   -3.7438    5.1875 C   0  0  0  0  0  0  0  0  0  0  0  0
  1  6  2  0  0  0  0
  2  3  2  0  0  0  0
  2  1  1  0  0  0  0
  3  4  1  0  0  0  0
  4 10  1  0  0  0  0
  4  5  2  0  0  0  0
  6  5  1  0  0  0  0
  7  1  1  0  0  0  0
  7 11  1  0  0  0  0
  8  7  2  0  0  0  0
  9 10  2  0  0  0  0
 10 12  1  0  0  0  0
 12 14  1  0  0  0  0
 13 11  1  0  0  0  0
 13 15  1  0  0  0  0
 14 16  1  0  0  0  0
 16 18  1  0  0  0  0
 17 15  1  0  0  0  0
 17 19  1  0  0  0  0
 18 20  1  0  0  0  0
 19 23  1  0  0  0  0
 20 22  1  0  0  0  0
 20 24  1  0  0  0  0
 21 19  1  0  0  0  0
M  END
>  <CHROM.1>
158.07693165,6.84294386,-95.19182277,154.00362690,-57.64438057,-70.26209510
-74.22071442,116.60872509,-156.33043101,-153.02205988,2.21466632,-4.75623347
1.38848399,0.79237808,-0.16910593,-1.68821765

>  <Name>
lig.pdb

>  <RI>
3.30914e+07

>  <Rbt.Current_Directory>
/home/itssahil/PROJECTS/Mol_Feturizer/New_Systems/rnas/2l94

>  <Rbt.Executable>
rbdock ($Id: //depot/dev/client3/rdock/2013.1/src/exe/rbdock.cxx#4 $)

>  <Rbt.Library>
libRbt.so (2013.1, Build901 2013/11/27)

>  <Rbt.Parameter_File>
/export/apps/rDock/src/rDock_2013.1_src/data/scripts/dock_solv.prm

>  <Rbt.Receptor>
prm/blind_docking_80.prm

>  <SCORE>
-13.8497

>  <SCORE.INTER>
-17.0801

>  <SCORE.INTER.CONST>
1

>  <SCORE.INTER.POLAR>
-3.1152

>  <SCORE.INTER.ROT>
10

>  <SCORE.INTER.SOLV>
18.7531

>  <SCORE.INTER.VDW>
-17.5204

>  <SCORE.INTER.norm>
-0.71167

>  <SCORE.INTRA>
1.74404

>  <SCORE.INTRA.DIHEDRAL>
8.36971

>  <SCORE.INTRA.DIHEDRAL.0>
7.52971

>  <SCORE.INTRA.POLAR>
0

>  <SCORE.INTRA.POLAR.0>
0

>  <SCORE.INTRA.REPUL>
0.00664647

>  <SCORE.INTRA.REPUL.0>
0

>  <SCORE.INTRA.SOLV>
1.0998

>  <SCORE.INTRA.SOLV.lig_0>
-22.1084

>  <SCORE.INTRA.VDW>
-3.02394

>  <SCORE.INTRA.VDW.0>
2.4256

>  <SCORE.INTRA.norm>
0.0726685

>  <SCORE.RESTR>
1.48636

>  <SCORE.RESTR.CAVITY>
1.48636

>  <SCORE.RESTR.norm>
0.0619316

>  <SCORE.SYSTEM>
0

>  <SCORE.SYSTEM.CONST>
0

>  <SCORE.SYSTEM.DIHEDRAL>
0

>  <SCORE.SYSTEM.SOLV>
0

>  <SCORE.SYSTEM.norm>
0

>  <SCORE.heavy>
24

>  <SCORE.norm>
-0.57707

>  <RMSD>
7.384

$$$$
lig.pdb
 OpenBabel11021811453D
libRbt.so/2013.1/901 2013/11/27
 24 24  0  0  0  0  0  0  0  0999 V2000
    3.0270   -5.1812   -2.1408 C   0  0  0  0  0  0  0  0  0  0  0  0
    2.1575   -4.4619   -1.2534 C   0  0  0  0  0  0  0  0  0  0  0  0
    1.6313   -5.0457   -0.1253 C   0  0  0  0  0  0  0  0  0  0  0  0
    1.9300   -6.3997    0.2307 C   0  0  0  0  0  0  0  0  0  0  0  0
    2.7713   -7.1271   -0.6742 C   0  0  0  0  0  0  0  0  0  0  0  0
    3.2906   -6.5478   -1.8049 C   0  0  0  0  0  0  0  0  0  0  0  0
    3.5804   -4.6013   -3.2464 C   0  0  0  0  0  0  0  0  0  0  0  0
    3.1630   -3.4139   -3.7353 N   0  0  0  0  0  0  0  0  0  0  0  0
    1.6455   -8.2731    1.6860 N   0  0  0  0  0  0  0  0  0  0  0  0
    1.4431   -6.9774    1.3660 C   0  0  0  0  0  0  0  0  0  0  0  0
    4.5972   -5.1750   -3.9363 N   0  0  0  0  0  0  0  0  0  0  0  0
    0.7077   -6.2931    2.2742 N   0  0  0  0  0  0  0  0  0  0  0  0
    5.7062   -4.4851   -4.5924 C   0  0  0  0  0  0  0  0  0  0  0  0
    0.5201   -6.6518    3.6766 C   0  0  0  0  0  0  0  0  0  0  0  0
    6.3764   -3.5698   -3.5550 C   0  0  0  0  0  0  0  0  0  0  0  0
   -0.9790   -6.5175    4.0028 C   0  0  0  0  0  0  0  0  0  0  0  0
    7.1919   -4.3895   -2.5454 C   0  0  0  0  0  0  0  0  0  0  0  0
   -1.3217   -5.1783    4.6803 C   0  0  0  0  0  0  0  0  0  0  0  0
    7.6753   -3.4827   -1.4428 N   0  0  0  0  0  0  0  0  0  0  0  0
   -2.8031   -5.0465    4.9280 N   0  0  0  0  0  0  0  0  0  0  0  0
    9.0077   -3.9602   -0.9327 C   0  0  0  0  0  0  0  0  0  0  0  0
   -3.1239   -3.6008    5.1971 C   0  0  0  0  0  0  0  0  0  0  0  0
    6.6838   -3.4418   -0.3065 C   0  0  0  0  0  0  0  0  0  0  0  0
   -3.2594   -5.8736    6.0975 C   0  0  0  0  0  0  0  0  0  0  0  0
  1  6  2  0  0  0  0
  2  3  2  0  0  0  0
  2  1  1  0  0  0  0
  3  4  1  0  0  0  0
  4 10  1  0  0  0  0
  4  5  2  0  0  0  0
  6  5  1  0  0  0  0
  7  1  1  0  0  0  0
  7 11  1  0  0  0  0
  8  7  2  0  0  0  0
  9 10  2  0  0  0  0
 10 12  1  0  0  0  0
 12 14  1  0  0  0  0
 13 11  1  0  0  0  0
 13 15  1  0  0  0  0
 14 16  1  0  0  0  0
 16 18  1  0  0  0  0
 17 15  1  0  0  0  0
 17 19  1  0  0  0  0
 18 20  1  0  0  0  0
 19 23  1  0  0  0  0
 20 22  1  0  0  0  0
 20 24  1  0  0  0  0
 21 19  1  0  0  0  0
M  END
>  <CHROM.1>
176.04703339,-13.18541749,-133.96884014,53.57381492,73.33239376,-97.80005188
177.27696448,-172.34609313,-147.73740916,-163.29149399,2.56227387,-5.20835035
0.21277169,0.71220014,-0.27258198,-1.67418597

>  <Name>
lig.pdb

>  <RI>
2.41306e+07

>  <Rbt.Current_Directory>
/home/itssahil/PROJECTS/Mol_Feturizer/New_Systems/rnas/2l94

>  <Rbt.Executable>
rbdock ($Id: //depot/dev/client3/rdock/2013.1/src/exe/rbdock.cxx#4 $)

>  <Rbt.Library>
libRbt.so (2013.1, Build901 2013/11/27)

>  <Rbt.Parameter_File>
/export/apps/rDock/src/rDock_2013.1_src/data/scripts/dock_solv.prm

>  <Rbt.Receptor>
prm/blind_docking_40.prm

>  <SCORE>
-7.92949

>  <SCORE.INTER>
-8.72824

>  <SCORE.INTER.CONST>
1

>  <SCORE.INTER.POLAR>
-1.31676

>  <SCORE.INTER.ROT>
10

>  <SCORE.INTER.SOLV>
19.4039

>  <SCORE.INTER.VDW>
-18.1642

>  <SCORE.INTER.norm>
-0.363677

>  <SCORE.INTRA>
0.0275407

>  <SCORE.INTRA.DIHEDRAL>
5.26917

>  <SCORE.INTRA.DIHEDRAL.0>
7.52971

>  <SCORE.INTRA.POLAR>
0

>  <SCORE.INTRA.POLAR.0>
0

>  <SCORE.INTRA.REPUL>
0

>  <SCORE.INTRA.REPUL.0>
0

>  <SCORE.INTRA.SOLV>
0.386137

>  <SCORE.INTRA.SOLV.lig_0>
-22.1084

>  <SCORE.INTRA.VDW>
-2.80011

>  <SCORE.INTRA.VDW.0>
2.4256

>  <SCORE.INTRA.norm>
0.00114753

>  <SCORE.RESTR>
0.77121

>  <SCORE.RESTR.CAVITY>
0.77121

>  <SCORE.RESTR.norm>
0.0321338

>  <SCORE.SYSTEM>
0

>  <SCORE.SYSTEM.CONST>
0

>  <SCORE.SYSTEM.DIHEDRAL>
0

>  <SCORE.SYSTEM.SOLV>
0

>  <SCORE.SYSTEM.norm>
0

>  <SCORE.heavy>
24

>  <SCORE.norm>
-0.330395

>  <RMSD>
7.394

$$$$
lig.pdb
 OpenBabel11021811453D
libRbt.so/2013.1/901 2013/11/27
 24 24  0  0  0  0  0  0  0  0999 V2000
   10.9118   -1.5303   -1.1914 C   0  0  0  0  0  0  0  0  0  0  0  0
   10.6879   -0.5851   -2.2486 C   0  0  0  0  0  0  0  0  0  0  0  0
   11.7142    0.1539   -2.7878 C   0  0  0  0  0  0  0  0  0  0  0  0
   13.0637    0.0136   -2.3310 C   0  0  0  0  0  0  0  0  0  0  0  0
   13.2803   -0.9060   -1.2525 C   0  0  0  0  0  0  0  0  0  0  0  0
   12.2552   -1.6383   -0.7079 C   0  0  0  0  0  0  0  0  0  0  0  0
    9.9053   -2.2922   -0.6707 C   0  0  0  0  0  0  0  0  0  0  0  0
   10.0762   -3.5825   -0.3117 N   0  0  0  0  0  0  0  0  0  0  0  0
   14.1504    1.0491   -4.1898 N   0  0  0  0  0  0  0  0  0  0  0  0
   14.0948    0.7146   -2.8832 C   0  0  0  0  0  0  0  0  0  0  0  0
    8.6550   -1.8067   -0.4707 N   0  0  0  0  0  0  0  0  0  0  0  0
   15.1595    1.1359   -2.1600 N   0  0  0  0  0  0  0  0  0  0  0  0
    7.7517   -2.1456    0.6272 C   0  0  0  0  0  0  0  0  0  0  0  0
   16.0622    2.2275   -2.5123 C   0  0  0  0  0  0  0  0  0  0  0  0
    7.1888   -0.8352    1.2008 C   0  0  0  0  0  0  0  0  0  0  0  0
   17.5044    1.6930   -2.4330 C   0  0  0  0  0  0  0  0  0  0  0  0
    5.9191   -1.0966    2.0227 C   0  0  0  0  0  0  0  0  0  0  0  0
   17.7523    0.8373   -1.1776 C   0  0  0  0  0  0  0  0  0  0  0  0
    5.4127    0.2071    2.5848 N   0  0  0  0  0  0  0  0  0  0  0  0
   19.2156    0.7961   -0.8161 N   0  0  0  0  0  0  0  0  0  0  0  0
    4.2496   -0.0478    3.5044 C   0  0  0  0  0  0  0  0  0  0  0  0
   19.5070   -0.5050   -0.1176 C   0  0  0  0  0  0  0  0  0  0  0  0
    4.9878    1.1408    1.4786 C   0  0  0  0  0  0  0  0  0  0  0  0
   19.6104    1.9329    0.0850 C   0  0  0  0  0  0  0  0  0  0  0  0
  1  6  2  0  0  0  0
  2  3  2  0  0  0  0
  2  1  1  0  0  0  0
  3  4  1  0  0  0  0
  4 10  1  0  0  0  0
  4  5  2  0  0  0  0
  6  5  1  0  0  0  0
  7  1  1  0  0  0  0
  7 11  1  0  0  0  0
  8  7  2  0  0  0  0
  9 10  2  0  0  0  0
 10 12  1  0  0  0  0
 12 14  1  0  0  0  0
 13 11  1  0  0  0  0
 13 15  1  0  0  0  0
 14 16  1  0  0  0  0
 16 18  1  0  0  0  0
 17 15  1  0  0  0  0
 17 19  1  0  0  0  0
 18 20  1  0  0  0  0
 19 23  1  0  0  0  0
 20 22  1  0  0  0  0
 20 24  1  0  0  0  0
 21 19  1  0  0  0  0
M  END
>  <CHROM.1>
-33.67063371,141.42531633,-128.13210871,132.30093393,161.53809484,-44.01845713
-156.83085129,179.08168398,-174.37645588,-151.21478069,12.05461641,-0.19051314
-0.65212996,2.92539353,0.21114173,1.32534407

>  <Name>
lig.pdb

>  <RI>
9.7521e+06

>  <Rbt.Current_Directory>
/home/itssahil/PROJECTS/Mol_Feturizer/New_Systems/rnas/2l94

>  <Rbt.Executable>
rbdock ($Id: //depot/dev/client3/rdock/2013.1/src/exe/rbdock.cxx#4 $)

>  <Rbt.Library>
libRbt.so (2013.1, Build901 2013/11/27)

>  <Rbt.Parameter_File>
/export/apps/rDock/src/rDock_2013.1_src/data/scripts/dock_solv.prm

>  <Rbt.Receptor>
prm/pocket_docking_7.prm

>  <SCORE>
-23.8373

>  <SCORE.INTER>
-28.7322

>  <SCORE.INTER.CONST>
1

>  <SCORE.INTER.POLAR>
-4.50135

>  <SCORE.INTER.ROT>
10

>  <SCORE.INTER.SOLV>
10.6337

>  <SCORE.INTER.VDW>
-17.9615

>  <SCORE.INTER.norm>
-1.19717

>  <SCORE.INTRA>
4.74174

>  <SCORE.INTRA.DIHEDRAL>
11.7244

>  <SCORE.INTRA.DIHEDRAL.0>
7.52971

>  <SCORE.INTRA.POLAR>
0

>  <SCORE.INTRA.POLAR.0>
0

>  <SCORE.INTRA.REPUL>
0

>  <SCORE.INTRA.REPUL.0>
0

>  <SCORE.INTRA.SOLV>
-0.0729409

>  <SCORE.INTRA.SOLV.lig_0>
-22.1084

>  <SCORE.INTRA.VDW>
-1.084

>  <SCORE.INTRA.VDW.0>
2.4256

>  <SCORE.INTRA.norm>
0.197573

>  <SCORE.RESTR>
0.153134

>  <SCORE.RESTR.CAVITY>
0.153134

>  <SCORE.RESTR.norm>
0.0063806

>  <SCORE.SYSTEM>
0

>  <SCORE.SYSTEM.CONST>
0

>  <SCORE.SYSTEM.DIHEDRAL>
0

>  <SCORE.SYSTEM.SOLV>
0

>  <SCORE.SYSTEM.norm>
0

>  <SCORE.heavy>
24

>  <SCORE.norm>
-0.99322

>  <RMSD>
7.396

$$$$
lig.pdb
 OpenBabel11021811453D
libRbt.so/2013.1/901 2013/11/27
 24 24  0  0  0  0  0  0  0  0999 V2000
    1.9877   -5.1785    2.1186 C   0  0  0  0  0  0  0  0  0  0  0  0
    3.2880   -4.8876    1.5843 C   0  0  0  0  0  0  0  0  0  0  0  0
    3.5523   -4.9722    0.2377 C   0  0  0  0  0  0  0  0  0  0  0  0
    2.5424   -5.3455   -0.7057 C   0  0  0  0  0  0  0  0  0  0  0  0
    1.2535   -5.6684   -0.1670 C   0  0  0  0  0  0  0  0  0  0  0  0
    0.9906   -5.5920    1.1779 C   0  0  0  0  0  0  0  0  0  0  0  0
    1.7060   -5.0666    3.4502 C   0  0  0  0  0  0  0  0  0  0  0  0
    2.6174   -4.6566    4.3581 N   0  0  0  0  0  0  0  0  0  0  0  0
    1.8082   -5.5042   -2.9737 N   0  0  0  0  0  0  0  0  0  0  0  0
    2.7837   -5.3975   -2.0468 C   0  0  0  0  0  0  0  0  0  0  0  0
    0.4839   -5.3563    3.9615 N   0  0  0  0  0  0  0  0  0  0  0  0
    4.0340   -5.3476   -2.5649 N   0  0  0  0  0  0  0  0  0  0  0  0
   -0.1832   -4.6751    5.0694 C   0  0  0  0  0  0  0  0  0  0  0  0
    4.3872   -4.9568   -3.9261 C   0  0  0  0  0  0  0  0  0  0  0  0
   -1.6746   -5.0448    5.0252 C   0  0  0  0  0  0  0  0  0  0  0  0
    5.5808   -3.9871   -3.8454 C   0  0  0  0  0  0  0  0  0  0  0  0
   -2.5099   -4.0558    5.8500 C   0  0  0  0  0  0  0  0  0  0  0  0
    6.8371   -4.6408   -3.2418 C   0  0  0  0  0  0  0  0  0  0  0  0
   -2.0215   -4.0598    7.2759 N   0  0  0  0  0  0  0  0  0  0  0  0
    7.3018   -3.9109   -2.0069 N   0  0  0  0  0  0  0  0  0  0  0  0
   -2.5292   -5.2836    7.9888 C   0  0  0  0  0  0  0  0  0  0  0  0
    7.8307   -2.5609   -2.4107 C   0  0  0  0  0  0  0  0  0  0  0  0
   -2.4816   -2.8221    8.0055 C   0  0  0  0  0  0  0  0  0  0  0  0
    8.3816   -4.6598   -1.2769 C   0  0  0  0  0  0  0  0  0  0  0  0
  1  6  2  0  0  0  0
  2  3  2  0  0  0  0
  2  1  1  0  0  0  0
  3  4  1  0  0  0  0
  4 10  1  0  0  0  0
  4  5  2  0  0  0  0
  6  5  1  0  0  0  0
  7  1  1  0  0  0  0
  7 11  1  0  0  0  0
  8  7  2  0  0  0  0
  9 10  2  0  0  0  0
 10 12  1  0  0  0  0
 12 14  1  0  0  0  0
 13 11  1  0  0  0  0
 13 15  1  0  0  0  0
 14 16  1  0  0  0  0
 16 18  1  0  0  0  0
 17 15  1  0  0  0  0
 17 19  1  0  0  0  0
 18 20  1  0  0  0  0
 19 23  1  0  0  0  0
 20 22  1  0  0  0  0
 20 24  1  0  0  0  0
 21 19  1  0  0  0  0
M  END
>  <CHROM.1>
-167.46566913,1.04506611,134.38556158,163.26580906,-162.15065602,62.86876512
-121.23480720,-58.61868746,-77.06864355,-68.84727855,2.34142285,-4.71029791
1.33117766,-2.28327163,-0.25645918,-1.78943472

>  <Name>
lig.pdb

>  <RI>
2.41306e+07

>  <Rbt.Current_Directory>
/home/itssahil/PROJECTS/Mol_Feturizer/New_Systems/rnas/2l94

>  <Rbt.Executable>
rbdock ($Id: //depot/dev/client3/rdock/2013.1/src/exe/rbdock.cxx#4 $)

>  <Rbt.Library>
libRbt.so (2013.1, Build901 2013/11/27)

>  <Rbt.Parameter_File>
/export/apps/rDock/src/rDock_2013.1_src/data/scripts/dock_solv.prm

>  <Rbt.Receptor>
prm/blind_docking_40.prm

>  <SCORE>
-3.65526

>  <SCORE.INTER>
-8.03282

>  <SCORE.INTER.CONST>
1

>  <SCORE.INTER.POLAR>
-1.51252

>  <SCORE.INTER.ROT>
10

>  <SCORE.INTER.SOLV>
16.3514

>  <SCORE.INTER.VDW>
-16.0306

>  <SCORE.INTER.norm>
-0.334701

>  <SCORE.INTRA>
2.65278

>  <SCORE.INTRA.DIHEDRAL>
5.48536

>  <SCORE.INTRA.DIHEDRAL.0>
7.52971

>  <SCORE.INTRA.POLAR>
0

>  <SCORE.INTRA.POLAR.0>
0

>  <SCORE.INTRA.REPUL>
0

>  <SCORE.INTRA.REPUL.0>
0

>  <SCORE.INTRA.SOLV>
0.252516

>  <SCORE.INTRA.SOLV.lig_0>
-22.1084

>  <SCORE.INTRA.VDW>
-0.216157

>  <SCORE.INTRA.VDW.0>
2.4256

>  <SCORE.INTRA.norm>
0.110533

>  <SCORE.RESTR>
1.72478

>  <SCORE.RESTR.CAVITY>
1.72478

>  <SCORE.RESTR.norm>
0.071866

>  <SCORE.SYSTEM>
0

>  <SCORE.SYSTEM.CONST>
0

>  <SCORE.SYSTEM.DIHEDRAL>
0

>  <SCORE.SYSTEM.SOLV>
0

>  <SCORE.SYSTEM.norm>
0

>  <SCORE.heavy>
24

>  <SCORE.norm>
-0.152302

>  <RMSD>
7.406

$$$$
lig.pdb
 OpenBabel11021811453D
libRbt.so/2013.1/901 2013/11/27
 24 24  0  0  0  0  0  0  0  0999 V2000
    1.7474   -6.4822    0.4298 C   0  0  0  0  0  0  0  0  0  0  0  0
    2.9864   -7.0153   -0.0620 C   0  0  0  0  0  0  0  0  0  0  0  0
    3.5735   -6.5395   -1.2105 C   0  0  0  0  0  0  0  0  0  0  0  0
    2.9862   -5.4798   -1.9729 C   0  0  0  0  0  0  0  0  0  0  0  0
    1.7321   -4.9714   -1.4991 C   0  0  0  0  0  0  0  0  0  0  0  0
    1.1409   -5.4511   -0.3571 C   0  0  0  0  0  0  0  0  0  0  0  0
    1.1721   -6.9254    1.5862 C   0  0  0  0  0  0  0  0  0  0  0  0
    1.2026   -8.2200    1.9683 N   0  0  0  0  0  0  0  0  0  0  0  0
    2.9000   -4.3284   -4.0646 N   0  0  0  0  0  0  0  0  0  0  0  0
    3.5781   -4.9755   -3.0932 C   0  0  0  0  0  0  0  0  0  0  0  0
    0.5280   -6.0943    2.4427 N   0  0  0  0  0  0  0  0  0  0  0  0
    4.9075   -5.0846   -3.3272 N   0  0  0  0  0  0  0  0  0  0  0  0
    0.5084   -6.1874    3.9012 C   0  0  0  0  0  0  0  0  0  0  0  0
    5.6976   -4.2392   -4.2168 C   0  0  0  0  0  0  0  0  0  0  0  0
   -0.9597   -6.2321    4.3546 C   0  0  0  0  0  0  0  0  0  0  0  0
    6.9505   -3.7827   -3.4464 C   0  0  0  0  0  0  0  0  0  0  0  0
   -1.4680   -4.8276    4.7080 C   0  0  0  0  0  0  0  0  0  0  0  0
    6.6409   -3.3833   -1.9923 C   0  0  0  0  0  0  0  0  0  0  0  0
   -2.9528   -4.8844    4.9607 N   0  0  0  0  0  0  0  0  0  0  0  0
    7.3413   -4.2868   -1.0091 N   0  0  0  0  0  0  0  0  0  0  0  0
   -3.4879   -3.4970    5.1893 C   0  0  0  0  0  0  0  0  0  0  0  0
    6.7105   -4.1116    0.3462 C   0  0  0  0  0  0  0  0  0  0  0  0
   -3.2620   -5.7493    6.1575 C   0  0  0  0  0  0  0  0  0  0  0  0
    8.8103   -3.9845   -0.9066 C   0  0  0  0  0  0  0  0  0  0  0  0
  1  6  2  0  0  0  0
  2  3  2  0  0  0  0
  2  1  1  0  0  0  0
  3  4  1  0  0  0  0
  4 10  1  0  0  0  0
  4  5  2  0  0  0  0
  6  5  1  0  0  0  0
  7  1  1  0  0  0  0
  7 11  1  0  0  0  0
  8  7  2  0  0  0  0
  9 10  2  0  0  0  0
 10 12  1  0  0  0  0
 12 14  1  0  0  0  0
 13 11  1  0  0  0  0
 13 15  1  0  0  0  0
 14 16  1  0  0  0  0
 16 18  1  0  0  0  0
 17 15  1  0  0  0  0
 17 19  1  0  0  0  0
 18 20  1  0  0  0  0
 19 23  1  0  0  0  0
 20 22  1  0  0  0  0
 20 24  1  0  0  0  0
 21 19  1  0  0  0  0
M  END
>  <CHROM.1>
157.12330087,-37.11367344,131.30115655,-125.00365302,-94.22552273,-41.96614960
116.64736719,172.19564614,-175.03366261,-164.06431977,2.44963186,-5.25931288
0.42239712,2.42796602,0.18444527,1.51625068

>  <Name>
lig.pdb

>  <RI>
2.41306e+07

>  <Rbt.Current_Directory>
/home/itssahil/PROJECTS/Mol_Feturizer/New_Systems/rnas/2l94

>  <Rbt.Executable>
rbdock ($Id: //depot/dev/client3/rdock/2013.1/src/exe/rbdock.cxx#4 $)

>  <Rbt.Library>
libRbt.so (2013.1, Build901 2013/11/27)

>  <Rbt.Parameter_File>
/export/apps/rDock/src/rDock_2013.1_src/data/scripts/dock_solv.prm

>  <Rbt.Receptor>
prm/blind_docking_40.prm

>  <SCORE>
-12.8903

>  <SCORE.INTER>
-19.156

>  <SCORE.INTER.CONST>
1

>  <SCORE.INTER.POLAR>
-3.50902

>  <SCORE.INTER.ROT>
10

>  <SCORE.INTER.SOLV>
20.8415

>  <SCORE.INTER.VDW>
-18.2878

>  <SCORE.INTER.norm>
-0.798166

>  <SCORE.INTRA>
5.30561

>  <SCORE.INTRA.DIHEDRAL>
14.6467

>  <SCORE.INTRA.DIHEDRAL.0>
7.52971

>  <SCORE.INTRA.POLAR>
0

>  <SCORE.INTRA.POLAR.0>
0

>  <SCORE.INTRA.REPUL>
0

>  <SCORE.INTRA.REPUL.0>
0

>  <SCORE.INTRA.SOLV>
0.645489

>  <SCORE.INTRA.SOLV.lig_0>
-22.1084

>  <SCORE.INTRA.VDW>
-2.34046

>  <SCORE.INTRA.VDW.0>
2.4256

>  <SCORE.INTRA.norm>
0.221067

>  <SCORE.RESTR>
0.960111

>  <SCORE.RESTR.CAVITY>
0.960111

>  <SCORE.RESTR.norm>
0.0400046

>  <SCORE.SYSTEM>
0

>  <SCORE.SYSTEM.CONST>
0

>  <SCORE.SYSTEM.DIHEDRAL>
0

>  <SCORE.SYSTEM.SOLV>
0

>  <SCORE.SYSTEM.norm>
0

>  <SCORE.heavy>
24

>  <SCORE.norm>
-0.537095

>  <RMSD>
7.412

$$$$
lig.pdb
 OpenBabel11021811453D
libRbt.so/2013.1/901 2013/11/27
 24 24  0  0  0  0  0  0  0  0999 V2000
    3.0271   -5.5580   -2.4893 C   0  0  0  0  0  0  0  0  0  0  0  0
    1.5941   -5.6127   -2.5564 C   0  0  0  0  0  0  0  0  0  0  0  0
    0.8357   -6.0389   -1.4918 C   0  0  0  0  0  0  0  0  0  0  0  0
    1.4336   -6.4419   -0.2551 C   0  0  0  0  0  0  0  0  0  0  0  0
    2.8662   -6.4188   -0.2010 C   0  0  0  0  0  0  0  0  0  0  0  0
    3.6246   -6.0011   -1.2660 C   0  0  0  0  0  0  0  0  0  0  0  0
    3.7879   -5.1062   -3.5294 C   0  0  0  0  0  0  0  0  0  0  0  0
    3.2544   -4.5438   -4.6350 N   0  0  0  0  0  0  0  0  0  0  0  0
   -0.6457   -7.0223    0.7685 N   0  0  0  0  0  0  0  0  0  0  0  0
    0.6896   -6.8317    0.8193 C   0  0  0  0  0  0  0  0  0  0  0  0
    5.1417   -5.1853   -3.5279 N   0  0  0  0  0  0  0  0  0  0  0  0
    1.2337   -7.0604    2.0382 N   0  0  0  0  0  0  0  0  0  0  0  0
    6.0740   -4.2135   -4.0960 C   0  0  0  0  0  0  0  0  0  0  0  0
    0.6541   -7.8765    3.1005 C   0  0  0  0  0  0  0  0  0  0  0  0
    6.3425   -3.1357   -3.0333 C   0  0  0  0  0  0  0  0  0  0  0  0
    0.4662   -6.9787    4.3376 C   0  0  0  0  0  0  0  0  0  0  0  0
    7.6868   -3.3781   -2.3332 C   0  0  0  0  0  0  0  0  0  0  0  0
   -0.8395   -6.1648    4.2878 C   0  0  0  0  0  0  0  0  0  0  0  0
    7.5159   -4.4458   -1.2832 N   0  0  0  0  0  0  0  0  0  0  0  0
   -0.9793   -5.2685    5.4922 N   0  0  0  0  0  0  0  0  0  0  0  0
    6.9015   -3.8535   -0.0442 C   0  0  0  0  0  0  0  0  0  0  0  0
   -2.4278   -4.8923    5.6524 C   0  0  0  0  0  0  0  0  0  0  0  0
    8.8417   -5.0777   -0.9379 C   0  0  0  0  0  0  0  0  0  0  0  0
   -0.1605   -4.0142    5.3650 C   0  0  0  0  0  0  0  0  0  0  0  0
  1  6  2  0  0  0  0
  2  3  2  0  0  0  0
  2  1  1  0  0  0  0
  3  4  1  0  0  0  0
  4 10  1  0  0  0  0
  4  5  2  0  0  0  0
  6  5  1  0  0  0  0
  7  1  1  0  0  0  0
  7 11  1  0  0  0  0
  8  7  2  0  0  0  0
  9 10  2  0  0  0  0
 10 12  1  0  0  0  0
 12 14  1  0  0  0  0
 13 11  1  0  0  0  0
 13 15  1  0  0  0  0
 14 16  1  0  0  0  0
 16 18  1  0  0  0  0
 17 15  1  0  0  0  0
 17 19  1  0  0  0  0
 18 20  1  0  0  0  0
 19 23  1  0  0  0  0
 20 22  1  0  0  0  0
 20 24  1  0  0  0  0
 21 19  1  0  0  0  0
M  END
>  <CHROM.1>
8.00903801,7.43946744,-120.87566239,86.21327092,100.76657454,83.40108660
-178.47296292,-80.00387068,-79.81443356,-159.84642722,2.80034931,-5.44029989
0.07260290,0.75455723,-0.31105715,-1.66338148

>  <Name>
lig.pdb

>  <RI>
3.30914e+07

>  <Rbt.Current_Directory>
/home/itssahil/PROJECTS/Mol_Feturizer/New_Systems/rnas/2l94

>  <Rbt.Executable>
rbdock ($Id: //depot/dev/client3/rdock/2013.1/src/exe/rbdock.cxx#4 $)

>  <Rbt.Library>
libRbt.so (2013.1, Build901 2013/11/27)

>  <Rbt.Parameter_File>
/export/apps/rDock/src/rDock_2013.1_src/data/scripts/dock_solv.prm

>  <Rbt.Receptor>
prm/blind_docking_80.prm

>  <SCORE>
-15.1028

>  <SCORE.INTER>
-15.6232

>  <SCORE.INTER.CONST>
1

>  <SCORE.INTER.POLAR>
-2.81543

>  <SCORE.INTER.ROT>
10

>  <SCORE.INTER.SOLV>
18.0577

>  <SCORE.INTER.VDW>
-17.3166

>  <SCORE.INTER.norm>
-0.650965

>  <SCORE.INTRA>
0.251914

>  <SCORE.INTRA.DIHEDRAL>
7.04182

>  <SCORE.INTRA.DIHEDRAL.0>
7.52971

>  <SCORE.INTRA.POLAR>
0

>  <SCORE.INTRA.POLAR.0>
0

>  <SCORE.INTRA.REPUL>
0

>  <SCORE.INTRA.REPUL.0>
0

>  <SCORE.INTRA.SOLV>
1.01051

>  <SCORE.INTRA.SOLV.lig_0>
-22.1084

>  <SCORE.INTRA.VDW>
-3.77425

>  <SCORE.INTRA.VDW.0>
2.4256

>  <SCORE.INTRA.norm>
0.0104964

>  <SCORE.RESTR>
0.268401

>  <SCORE.RESTR.CAVITY>
0.268401

>  <SCORE.RESTR.norm>
0.0111834

>  <SCORE.SYSTEM>
0

>  <SCORE.SYSTEM.CONST>
0

>  <SCORE.SYSTEM.DIHEDRAL>
0

>  <SCORE.SYSTEM.SOLV>
0

>  <SCORE.SYSTEM.norm>
0

>  <SCORE.heavy>
24

>  <SCORE.norm>
-0.629285

>  <RMSD>
7.415

$$$$
lig.pdb
 OpenBabel11021811453D
libRbt.so/2013.1/901 2013/11/27
 24 24  0  0  0  0  0  0  0  0999 V2000
    1.6123   -6.8175    0.0669 C   0  0  0  0  0  0  0  0  0  0  0  0
    3.0261   -6.9474   -0.1461 C   0  0  0  0  0  0  0  0  0  0  0  0
    3.6414   -6.4230   -1.2581 C   0  0  0  0  0  0  0  0  0  0  0  0
    2.9070   -5.7102   -2.2590 C   0  0  0  0  0  0  0  0  0  0  0  0
    1.4903   -5.6104   -2.0618 C   0  0  0  0  0  0  0  0  0  0  0  0
    0.8738   -6.1406   -0.9560 C   0  0  0  0  0  0  0  0  0  0  0  0
    0.9962   -7.3066    1.1832 C   0  0  0  0  0  0  0  0  0  0  0  0
    1.2699   -8.5262    1.6939 N   0  0  0  0  0  0  0  0  0  0  0  0
    2.8469   -4.4566   -4.2920 N   0  0  0  0  0  0  0  0  0  0  0  0
    3.5122   -5.1546   -3.3474 C   0  0  0  0  0  0  0  0  0  0  0  0
    0.0627   -6.5996    1.8671 N   0  0  0  0  0  0  0  0  0  0  0  0
    4.8433   -5.2595   -3.5739 N   0  0  0  0  0  0  0  0  0  0  0  0
   -0.1421   -6.5948    3.3143 C   0  0  0  0  0  0  0  0  0  0  0  0
    5.6463   -4.3756   -4.4133 C   0  0  0  0  0  0  0  0  0  0  0  0
    0.9568   -5.7255    3.9465 C   0  0  0  0  0  0  0  0  0  0  0  0
    6.5251   -3.5139   -3.4876 C   0  0  0  0  0  0  0  0  0  0  0  0
    0.8498   -5.7332    5.4777 C   0  0  0  0  0  0  0  0  0  0  0  0
    7.4228   -4.3587   -2.5655 C   0  0  0  0  0  0  0  0  0  0  0  0
   -0.2056   -4.7469    5.9080 N   0  0  0  0  0  0  0  0  0  0  0  0
    7.9579   -3.5434   -1.4155 N   0  0  0  0  0  0  0  0  0  0  0  0
   -1.5711   -5.2681    5.5516 C   0  0  0  0  0  0  0  0  0  0  0  0
    9.1996   -4.2083   -0.8849 C   0  0  0  0  0  0  0  0  0  0  0  0
    0.0114   -3.4062    5.2511 C   0  0  0  0  0  0  0  0  0  0  0  0
    6.9595   -3.4122   -0.2992 C   0  0  0  0  0  0  0  0  0  0  0  0
  1  6  2  0  0  0  0
  2  3  2  0  0  0  0
  2  1  1  0  0  0  0
  3  4  1  0  0  0  0
  4 10  1  0  0  0  0
  4  5  2  0  0  0  0
  6  5  1  0  0  0  0
  7  1  1  0  0  0  0
  7 11  1  0  0  0  0
  8  7  2  0  0  0  0
  9 10  2  0  0  0  0
 10 12  1  0  0  0  0
 12 14  1  0  0  0  0
 13 11  1  0  0  0  0
 13 15  1  0  0  0  0
 14 16  1  0  0  0  0
 16 18  1  0  0  0  0
 17 15  1  0  0  0  0
 17 19  1  0  0  0  0
 18 20  1  0  0  0  0
 19 23  1  0  0  0  0
 20 22  1  0  0  0  0
 20 24  1  0  0  0  0
 21 19  1  0  0  0  0
M  END
>  <CHROM.1>
-178.71438776,-43.75283624,107.87041872,76.77915038,-177.00979079,57.29142691
-163.26774726,-81.44436773,71.33314133,-157.97675537,2.97037639,-5.37043589
0.19926350,2.37107413,0.42247690,1.36005573

>  <Name>
lig.pdb

>  <RI>
2.41306e+07

>  <Rbt.Current_Directory>
/home/itssahil/PROJECTS/Mol_Feturizer/New_Systems/rnas/2l94

>  <Rbt.Executable>
rbdock ($Id: //depot/dev/client3/rdock/2013.1/src/exe/rbdock.cxx#4 $)

>  <Rbt.Library>
libRbt.so (2013.1, Build901 2013/11/27)

>  <Rbt.Parameter_File>
/export/apps/rDock/src/rDock_2013.1_src/data/scripts/dock_solv.prm

>  <Rbt.Receptor>
prm/blind_docking_40.prm

>  <SCORE>
-1.43107

>  <SCORE.INTER>
-8.33114

>  <SCORE.INTER.CONST>
1

>  <SCORE.INTER.POLAR>
-1.88583

>  <SCORE.INTER.ROT>
10

>  <SCORE.INTER.SOLV>
18.5909

>  <SCORE.INTER.VDW>
-15.7316

>  <SCORE.INTER.norm>
-0.347131

>  <SCORE.INTRA>
6.17037

>  <SCORE.INTRA.DIHEDRAL>
7.33377

>  <SCORE.INTRA.DIHEDRAL.0>
7.52971

>  <SCORE.INTRA.POLAR>
0

>  <SCORE.INTRA.POLAR.0>
0

>  <SCORE.INTRA.REPUL>
0

>  <SCORE.INTRA.REPUL.0>
0

>  <SCORE.INTRA.SOLV>
0.281972

>  <SCORE.INTRA.SOLV.lig_0>
-22.1084

>  <SCORE.INTRA.VDW>
2.3625

>  <SCORE.INTRA.VDW.0>
2.4256

>  <SCORE.INTRA.norm>
0.257099

>  <SCORE.RESTR>
0.729701

>  <SCORE.RESTR.CAVITY>
0.729701

>  <SCORE.RESTR.norm>
0.0304042

>  <SCORE.SYSTEM>
0

>  <SCORE.SYSTEM.CONST>
0

>  <SCORE.SYSTEM.DIHEDRAL>
0

>  <SCORE.SYSTEM.SOLV>
0

>  <SCORE.SYSTEM.norm>
0

>  <SCORE.heavy>
24

>  <SCORE.norm>
-0.0596279

>  <RMSD>
7.429

$$$$
lig.pdb
 OpenBabel11021811453D
libRbt.so/2013.1/901 2013/11/27
 24 24  0  0  0  0  0  0  0  0999 V2000
    9.8867   -3.2388   -1.7606 C   0  0  0  0  0  0  0  0  0  0  0  0
   10.6519   -2.9994   -0.5697 C   0  0  0  0  0  0  0  0  0  0  0  0
   11.8244   -2.2821   -0.5950 C   0  0  0  0  0  0  0  0  0  0  0  0
   12.3409   -1.7264   -1.8091 C   0  0  0  0  0  0  0  0  0  0  0  0
   11.5934   -1.9949   -3.0028 C   0  0  0  0  0  0  0  0  0  0  0  0
   10.4270   -2.7178   -2.9800 C   0  0  0  0  0  0  0  0  0  0  0  0
    8.7048   -3.9225   -1.7415 C   0  0  0  0  0  0  0  0  0  0  0  0
    8.3797   -4.7930   -0.7619 N   0  0  0  0  0  0  0  0  0  0  0  0
   13.7095   -0.0053   -2.7432 N   0  0  0  0  0  0  0  0  0  0  0  0
   13.4834   -0.9827   -1.8400 C   0  0  0  0  0  0  0  0  0  0  0  0
    7.7637   -3.7745   -2.7067 N   0  0  0  0  0  0  0  0  0  0  0  0
   14.4963   -1.1658   -0.9600 N   0  0  0  0  0  0  0  0  0  0  0  0
    6.3138   -3.8067   -2.5251 C   0  0  0  0  0  0  0  0  0  0  0  0
   15.5244   -0.1888   -0.6148 C   0  0  0  0  0  0  0  0  0  0  0  0
    5.9947   -3.2087   -1.1454 C   0  0  0  0  0  0  0  0  0  0  0  0
   16.7846   -0.9611   -0.1819 C   0  0  0  0  0  0  0  0  0  0  0  0
    4.7632   -3.8840   -0.5260 C   0  0  0  0  0  0  0  0  0  0  0  0
   18.0036   -0.0429    0.0200 C   0  0  0  0  0  0  0  0  0  0  0  0
    4.7094   -3.5669    0.9465 N   0  0  0  0  0  0  0  0  0  0  0  0
   19.2762   -0.8376    0.1698 N   0  0  0  0  0  0  0  0  0  0  0  0
    5.7732   -4.3402    1.6772 C   0  0  0  0  0  0  0  0  0  0  0  0
   19.3665   -1.3483    1.5828 C   0  0  0  0  0  0  0  0  0  0  0  0
    3.3552   -3.9037    1.5200 C   0  0  0  0  0  0  0  0  0  0  0  0
   20.4982   -0.0152   -0.1309 C   0  0  0  0  0  0  0  0  0  0  0  0
  1  6  2  0  0  0  0
  2  3  2  0  0  0  0
  2  1  1  0  0  0  0
  3  4  1  0  0  0  0
  4 10  1  0  0  0  0
  4  5  2  0  0  0  0
  6  5  1  0  0  0  0
  7  1  1  0  0  0  0
  7 11  1  0  0  0  0
  8  7  2  0  0  0  0
  9 10  2  0  0  0  0
 10 12  1  0  0  0  0
 12 14  1  0  0  0  0
 13 11  1  0  0  0  0
 13 15  1  0  0  0  0
 14 16  1  0  0  0  0
 16 18  1  0  0  0  0
 17 15  1  0  0  0  0
 17 19  1  0  0  0  0
 18 20  1  0  0  0  0
 19 23  1  0  0  0  0
 20 22  1  0  0  0  0
 20 24  1  0  0  0  0
 21 19  1  0  0  0  0
M  END
>  <CHROM.1>
-150.60837305,-23.03276274,-152.45214731,33.36860221,-147.03526981,172.00834365
-168.58546268,164.16115391,-73.10333436,-80.17207306,11.42067190,-2.31891591
-0.81478892,3.11696110,0.26345780,1.71736832

>  <Name>
lig.pdb

>  <RI>
1.39428e+07

>  <Rbt.Current_Directory>
/home/itssahil/PROJECTS/Mol_Feturizer/New_Systems/rnas/2l94

>  <Rbt.Executable>
rbdock ($Id: //depot/dev/client3/rdock/2013.1/src/exe/rbdock.cxx#4 $)

>  <Rbt.Library>
libRbt.so (2013.1, Build901 2013/11/27)

>  <Rbt.Parameter_File>
/export/apps/rDock/src/rDock_2013.1_src/data/scripts/dock_solv.prm

>  <Rbt.Receptor>
prm/pocket_docking_8.prm

>  <SCORE>
-26.214

>  <SCORE.INTER>
-29.2786

>  <SCORE.INTER.CONST>
1

>  <SCORE.INTER.POLAR>
-4.26211

>  <SCORE.INTER.ROT>
10

>  <SCORE.INTER.SOLV>
13.4224

>  <SCORE.INTER.VDW>
-20.0529

>  <SCORE.INTER.norm>
-1.21994

>  <SCORE.INTRA>
3.06461

>  <SCORE.INTRA.DIHEDRAL>
8.55821

>  <SCORE.INTRA.DIHEDRAL.0>
7.52971

>  <SCORE.INTRA.POLAR>
0

>  <SCORE.INTRA.POLAR.0>
0

>  <SCORE.INTRA.REPUL>
0

>  <SCORE.INTRA.REPUL.0>
0

>  <SCORE.INTRA.SOLV>
0.339935

>  <SCORE.INTRA.SOLV.lig_0>
-22.1084

>  <SCORE.INTRA.VDW>
-1.38447

>  <SCORE.INTRA.VDW.0>
2.4256

>  <SCORE.INTRA.norm>
0.127692

>  <SCORE.RESTR>
0

>  <SCORE.RESTR.CAVITY>
0

>  <SCORE.RESTR.norm>
0

>  <SCORE.SYSTEM>
0

>  <SCORE.SYSTEM.CONST>
0

>  <SCORE.SYSTEM.DIHEDRAL>
0

>  <SCORE.SYSTEM.SOLV>
0

>  <SCORE.SYSTEM.norm>
0

>  <SCORE.heavy>
24

>  <SCORE.norm>
-1.09225

>  <RMSD>
7.429

$$$$
lig.pdb
 OpenBabel11021811453D
libRbt.so/2013.1/901 2013/11/27
 24 24  0  0  0  0  0  0  0  0999 V2000
    2.7333   -5.4993   -2.0550 C   0  0  0  0  0  0  0  0  0  0  0  0
    3.2108   -5.2947   -0.7167 C   0  0  0  0  0  0  0  0  0  0  0  0
    2.4710   -5.6678    0.3804 C   0  0  0  0  0  0  0  0  0  0  0  0
    1.1886   -6.2899    0.2474 C   0  0  0  0  0  0  0  0  0  0  0  0
    0.6983   -6.4629   -1.0889 C   0  0  0  0  0  0  0  0  0  0  0  0
    1.4325   -6.0834   -2.1846 C   0  0  0  0  0  0  0  0  0  0  0  0
    3.4736   -5.1617   -3.1518 C   0  0  0  0  0  0  0  0  0  0  0  0
    2.9264   -4.6401   -4.2706 N   0  0  0  0  0  0  0  0  0  0  0  0
   -0.5551   -7.5806    1.2484 N   0  0  0  0  0  0  0  0  0  0  0  0
    0.4624   -6.6970    1.3274 C   0  0  0  0  0  0  0  0  0  0  0  0
    4.8194   -5.3218   -3.1979 N   0  0  0  0  0  0  0  0  0  0  0  0
    0.7029   -6.2432    2.5805 N   0  0  0  0  0  0  0  0  0  0  0  0
    5.7808   -4.4462   -3.8652 C   0  0  0  0  0  0  0  0  0  0  0  0
    0.3198   -6.9042    3.8242 C   0  0  0  0  0  0  0  0  0  0  0  0
    6.0765   -3.2640   -2.9281 C   0  0  0  0  0  0  0  0  0  0  0  0
   -1.1625   -6.5843    4.0928 C   0  0  0  0  0  0  0  0  0  0  0  0
    7.4853   -3.3774   -2.3293 C   0  0  0  0  0  0  0  0  0  0  0  0
   -1.3624   -5.2105    4.7581 C   0  0  0  0  0  0  0  0  0  0  0  0
    7.5019   -4.4790   -1.3007 N   0  0  0  0  0  0  0  0  0  0  0  0
   -2.8242   -4.9010    4.9604 N   0  0  0  0  0  0  0  0  0  0  0  0
    6.8007   -4.0239   -0.0499 C   0  0  0  0  0  0  0  0  0  0  0  0
   -2.9864   -3.4149    5.1355 C   0  0  0  0  0  0  0  0  0  0  0  0
    8.9169   -4.8836   -0.9688 C   0  0  0  0  0  0  0  0  0  0  0  0
   -3.3912   -5.5991    6.1650 C   0  0  0  0  0  0  0  0  0  0  0  0
  1  6  2  0  0  0  0
  2  3  2  0  0  0  0
  2  1  1  0  0  0  0
  3  4  1  0  0  0  0
  4 10  1  0  0  0  0
  4  5  2  0  0  0  0
  6  5  1  0  0  0  0
  7  1  1  0  0  0  0
  7 11  1  0  0  0  0
  8  7  2  0  0  0  0
  9 10  2  0  0  0  0
 10 12  1  0  0  0  0
 12 14  1  0  0  0  0
 13 11  1  0  0  0  0
 13 15  1  0  0  0  0
 14 16  1  0  0  0  0
 16 18  1  0  0  0  0
 17 15  1  0  0  0  0
 17 19  1  0  0  0  0
 18 20  1  0  0  0  0
 19 23  1  0  0  0  0
 20 22  1  0  0  0  0
 20 24  1  0  0  0  0
 21 19  1  0  0  0  0
M  END
>  <CHROM.1>
-161.97087882,-142.39457554,-80.92712699,82.06968323,107.75667194,-82.12161001
177.79921926,-72.70321475,-74.41259351,-159.92008455,2.27817192,-5.31604572
0.32528309,0.67004090,-0.26910103,-1.72680907

>  <Name>
lig.pdb

>  <RI>
3.30914e+07

>  <Rbt.Current_Directory>
/home/itssahil/PROJECTS/Mol_Feturizer/New_Systems/rnas/2l94

>  <Rbt.Executable>
rbdock ($Id: //depot/dev/client3/rdock/2013.1/src/exe/rbdock.cxx#4 $)

>  <Rbt.Library>
libRbt.so (2013.1, Build901 2013/11/27)

>  <Rbt.Parameter_File>
/export/apps/rDock/src/rDock_2013.1_src/data/scripts/dock_solv.prm

>  <Rbt.Receptor>
prm/blind_docking_80.prm

>  <SCORE>
-14.4163

>  <SCORE.INTER>
-18.1544

>  <SCORE.INTER.CONST>
1

>  <SCORE.INTER.POLAR>
-2.96901

>  <SCORE.INTER.ROT>
10

>  <SCORE.INTER.SOLV>
17.7845

>  <SCORE.INTER.VDW>
-18.401

>  <SCORE.INTER.norm>
-0.756432

>  <SCORE.INTRA>
3.60501

>  <SCORE.INTRA.DIHEDRAL>
11.9239

>  <SCORE.INTRA.DIHEDRAL.0>
7.52971

>  <SCORE.INTRA.POLAR>
0

>  <SCORE.INTRA.POLAR.0>
0

>  <SCORE.INTRA.REPUL>
0

>  <SCORE.INTRA.REPUL.0>
0

>  <SCORE.INTRA.SOLV>
0.912277

>  <SCORE.INTRA.SOLV.lig_0>
-22.1084

>  <SCORE.INTRA.VDW>
-2.81309

>  <SCORE.INTRA.VDW.0>
2.4256

>  <SCORE.INTRA.norm>
0.150209

>  <SCORE.RESTR>
0.133031

>  <SCORE.RESTR.CAVITY>
0.133031

>  <SCORE.RESTR.norm>
0.00554298

>  <SCORE.SYSTEM>
0

>  <SCORE.SYSTEM.CONST>
0

>  <SCORE.SYSTEM.DIHEDRAL>
0

>  <SCORE.SYSTEM.SOLV>
0

>  <SCORE.SYSTEM.norm>
0

>  <SCORE.heavy>
24

>  <SCORE.norm>
-0.60068

>  <RMSD>
7.431

$$$$
lig.pdb
 OpenBabel11021811453D
libRbt.so/2013.1/901 2013/11/27
 24 24  0  0  0  0  0  0  0  0999 V2000
   12.5293   -1.8832   -1.9537 C   0  0  0  0  0  0  0  0  0  0  0  0
   11.9589   -1.9753   -0.6395 C   0  0  0  0  0  0  0  0  0  0  0  0
   10.7748   -2.6347   -0.4093 C   0  0  0  0  0  0  0  0  0  0  0  0
   10.0513   -3.2739   -1.4663 C   0  0  0  0  0  0  0  0  0  0  0  0
   10.6047   -3.1523   -2.7834 C   0  0  0  0  0  0  0  0  0  0  0  0
   11.7827   -2.4873   -3.0156 C   0  0  0  0  0  0  0  0  0  0  0  0
   13.7207   -1.2582   -2.1882 C   0  0  0  0  0  0  0  0  0  0  0  0
   14.0141   -0.6615   -3.3633 N   0  0  0  0  0  0  0  0  0  0  0  0
    8.5661   -5.0945   -1.9000 N   0  0  0  0  0  0  0  0  0  0  0  0
    8.8949   -3.9616   -1.2438 C   0  0  0  0  0  0  0  0  0  0  0  0
   14.7003   -1.1865   -1.2532 N   0  0  0  0  0  0  0  0  0  0  0  0
    7.9710   -3.5604   -0.3386 N   0  0  0  0  0  0  0  0  0  0  0  0
   15.6179   -0.0702   -1.0335 C   0  0  0  0  0  0  0  0  0  0  0  0
    6.9581   -4.4030    0.2894 C   0  0  0  0  0  0  0  0  0  0  0  0
   16.8220   -0.5953   -0.2352 C   0  0  0  0  0  0  0  0  0  0  0  0
    6.5343   -3.7302    1.6083 C   0  0  0  0  0  0  0  0  0  0  0  0
   17.8821    0.5003   -0.0567 C   0  0  0  0  0  0  0  0  0  0  0  0
    5.1596   -4.2123    2.1059 C   0  0  0  0  0  0  0  0  0  0  0  0
   18.9730   -0.0057    0.8520 N   0  0  0  0  0  0  0  0  0  0  0  0
    4.6428   -3.3477    3.2279 N   0  0  0  0  0  0  0  0  0  0  0  0
   19.8273    1.1422    1.3169 C   0  0  0  0  0  0  0  0  0  0  0  0
    3.6652   -4.1475    4.0466 C   0  0  0  0  0  0  0  0  0  0  0  0
   19.8337   -1.0228    0.1445 C   0  0  0  0  0  0  0  0  0  0  0  0
    3.9572   -2.1095    2.7215 C   0  0  0  0  0  0  0  0  0  0  0  0
  1  6  2  0  0  0  0
  2  3  2  0  0  0  0
  2  1  1  0  0  0  0
  3  4  1  0  0  0  0
  4 10  1  0  0  0  0
  4  5  2  0  0  0  0
  6  5  1  0  0  0  0
  7  1  1  0  0  0  0
  7 11  1  0  0  0  0
  8  7  2  0  0  0  0
  9 10  2  0  0  0  0
 10 12  1  0  0  0  0
 12 14  1  0  0  0  0
 13 11  1  0  0  0  0
 13 15  1  0  0  0  0
 14 16  1  0  0  0  0
 16 18  1  0  0  0  0
 17 15  1  0  0  0  0
 17 19  1  0  0  0  0
 18 20  1  0  0  0  0
 19 23  1  0  0  0  0
 20 22  1  0  0  0  0
 20 24  1  0  0  0  0
 21 19  1  0  0  0  0
M  END
>  <CHROM.1>
-142.89863204,-151.10716796,157.20570463,-161.04694770,175.72040009,159.25814250
-168.34608126,173.97805643,-165.76341544,-155.90930938,11.48770074,-2.19921895
-0.16702734,0.08350380,-0.31568462,-1.82141213

>  <Name>
lig.pdb

>  <RI>
1.39428e+07

>  <Rbt.Current_Directory>
/home/itssahil/PROJECTS/Mol_Feturizer/New_Systems/rnas/2l94

>  <Rbt.Executable>
rbdock ($Id: //depot/dev/client3/rdock/2013.1/src/exe/rbdock.cxx#4 $)

>  <Rbt.Library>
libRbt.so (2013.1, Build901 2013/11/27)

>  <Rbt.Parameter_File>
/export/apps/rDock/src/rDock_2013.1_src/data/scripts/dock_solv.prm

>  <Rbt.Receptor>
prm/pocket_docking_8.prm

>  <SCORE>
-32.3369

>  <SCORE.INTER>
-34.3469

>  <SCORE.INTER.CONST>
1

>  <SCORE.INTER.POLAR>
-4.44908

>  <SCORE.INTER.ROT>
10

>  <SCORE.INTER.SOLV>
16.8308

>  <SCORE.INTER.VDW>
-23.9446

>  <SCORE.INTER.norm>
-1.43112

>  <SCORE.INTRA>
2.01

>  <SCORE.INTRA.DIHEDRAL>
8.7397

>  <SCORE.INTRA.DIHEDRAL.0>
7.52971

>  <SCORE.INTRA.POLAR>
0

>  <SCORE.INTRA.POLAR.0>
0

>  <SCORE.INTRA.REPUL>
0

>  <SCORE.INTRA.REPUL.0>
0

>  <SCORE.INTRA.SOLV>
-0.450556

>  <SCORE.INTRA.SOLV.lig_0>
-22.1084

>  <SCORE.INTRA.VDW>
-2.13457

>  <SCORE.INTRA.VDW.0>
2.4256

>  <SCORE.INTRA.norm>
0.0837501

>  <SCORE.RESTR>
0

>  <SCORE.RESTR.CAVITY>
0

>  <SCORE.RESTR.norm>
0

>  <SCORE.SYSTEM>
0

>  <SCORE.SYSTEM.CONST>
0

>  <SCORE.SYSTEM.DIHEDRAL>
0

>  <SCORE.SYSTEM.SOLV>
0

>  <SCORE.SYSTEM.norm>
0

>  <SCORE.heavy>
24

>  <SCORE.norm>
-1.34737

>  <RMSD>
7.447

$$$$
lig.pdb
 OpenBabel11021811453D
libRbt.so/2013.1/901 2013/11/27
 24 24  0  0  0  0  0  0  0  0999 V2000
   12.4561   -1.8880   -1.8938 C   0  0  0  0  0  0  0  0  0  0  0  0
   11.8296   -1.9231   -0.6025 C   0  0  0  0  0  0  0  0  0  0  0  0
   10.6537   -2.6020   -0.3871 C   0  0  0  0  0  0  0  0  0  0  0  0
    9.9953   -3.3191   -1.4367 C   0  0  0  0  0  0  0  0  0  0  0  0
   10.6042   -3.2551   -2.7332 C   0  0  0  0  0  0  0  0  0  0  0  0
   11.7739   -2.5710   -2.9512 C   0  0  0  0  0  0  0  0  0  0  0  0
   13.6402   -1.2435   -2.1112 C   0  0  0  0  0  0  0  0  0  0  0  0
   13.9282   -0.6152   -3.2711 N   0  0  0  0  0  0  0  0  0  0  0  0
    8.5288   -5.1450   -1.9100 N   0  0  0  0  0  0  0  0  0  0  0  0
    8.8482   -4.0258   -1.2261 C   0  0  0  0  0  0  0  0  0  0  0  0
   14.6177   -1.1827   -1.1732 N   0  0  0  0  0  0  0  0  0  0  0  0
    7.9248   -3.6592   -0.3058 N   0  0  0  0  0  0  0  0  0  0  0  0
   15.5217   -0.0613   -0.9252 C   0  0  0  0  0  0  0  0  0  0  0  0
    6.9252   -4.5297    0.3052 C   0  0  0  0  0  0  0  0  0  0  0  0
   16.0541   -0.1892    0.5112 C   0  0  0  0  0  0  0  0  0  0  0  0
    5.6364   -3.7087    0.4965 C   0  0  0  0  0  0  0  0  0  0  0  0
   16.7597    1.1007    0.9519 C   0  0  0  0  0  0  0  0  0  0  0  0
    4.3970   -4.5932    0.7231 C   0  0  0  0  0  0  0  0  0  0  0  0
   15.7271    2.1624    1.2319 N   0  0  0  0  0  0  0  0  0  0  0  0
    3.9578   -5.2678   -0.5519 N   0  0  0  0  0  0  0  0  0  0  0  0
   16.3663    3.5237    1.1904 C   0  0  0  0  0  0  0  0  0  0  0  0
    3.1966   -4.2754   -1.3892 C   0  0  0  0  0  0  0  0  0  0  0  0
   15.0849    1.9459    2.5797 C   0  0  0  0  0  0  0  0  0  0  0  0
    3.0807   -6.4604   -0.2906 C   0  0  0  0  0  0  0  0  0  0  0  0
  1  6  2  0  0  0  0
  2  3  2  0  0  0  0
  2  1  1  0  0  0  0
  3  4  1  0  0  0  0
  4 10  1  0  0  0  0
  4  5  2  0  0  0  0
  6  5  1  0  0  0  0
  7  1  1  0  0  0  0
  7 11  1  0  0  0  0
  8  7  2  0  0  0  0
  9 10  2  0  0  0  0
 10 12  1  0  0  0  0
 12 14  1  0  0  0  0
 13 11  1  0  0  0  0
 13 15  1  0  0  0  0
 14 16  1  0  0  0  0
 16 18  1  0  0  0  0
 17 15  1  0  0  0  0
 17 19  1  0  0  0  0
 18 20  1  0  0  0  0
 19 23  1  0  0  0  0
 20 22  1  0  0  0  0
 20 24  1  0  0  0  0
 21 19  1  0  0  0  0
M  END
>  <CHROM.1>
-148.47821565,-145.82470985,-143.55646235,158.11385453,-167.56581043,162.46579645
-73.66622908,74.16930951,-160.26188745,-78.73076073,10.70049698,-2.13962547
-0.60451930,-0.31882519,-0.40700373,-2.14436407

>  <Name>
lig.pdb

>  <RI>
1.39428e+07

>  <Rbt.Current_Directory>
/home/itssahil/PROJECTS/Mol_Feturizer/New_Systems/rnas/2l94

>  <Rbt.Executable>
rbdock ($Id: //depot/dev/client3/rdock/2013.1/src/exe/rbdock.cxx#4 $)

>  <Rbt.Library>
libRbt.so (2013.1, Build901 2013/11/27)

>  <Rbt.Parameter_File>
/export/apps/rDock/src/rDock_2013.1_src/data/scripts/dock_solv.prm

>  <Rbt.Receptor>
prm/pocket_docking_8.prm

>  <SCORE>
-27.1152

>  <SCORE.INTER>
-29.3382

>  <SCORE.INTER.CONST>
1

>  <SCORE.INTER.POLAR>
-4.25148

>  <SCORE.INTER.ROT>
10

>  <SCORE.INTER.SOLV>
16.5911

>  <SCORE.INTER.VDW>
-21.1842

>  <SCORE.INTER.norm>
-1.22242

>  <SCORE.INTRA>
2.22291

>  <SCORE.INTRA.DIHEDRAL>
9.52331

>  <SCORE.INTRA.DIHEDRAL.0>
7.52971

>  <SCORE.INTRA.POLAR>
0

>  <SCORE.INTRA.POLAR.0>
0

>  <SCORE.INTRA.REPUL>
0

>  <SCORE.INTRA.REPUL.0>
0

>  <SCORE.INTRA.SOLV>
-0.256678

>  <SCORE.INTRA.SOLV.lig_0>
-22.1084

>  <SCORE.INTRA.VDW>
-2.4104

>  <SCORE.INTRA.VDW.0>
2.4256

>  <SCORE.INTRA.norm>
0.0926214

>  <SCORE.RESTR>
0

>  <SCORE.RESTR.CAVITY>
0

>  <SCORE.RESTR.norm>
0

>  <SCORE.SYSTEM>
0

>  <SCORE.SYSTEM.CONST>
0

>  <SCORE.SYSTEM.DIHEDRAL>
0

>  <SCORE.SYSTEM.SOLV>
0

>  <SCORE.SYSTEM.norm>
0

>  <SCORE.heavy>
24

>  <SCORE.norm>
-1.1298

>  <RMSD>
7.468

$$$$
lig.pdb
 OpenBabel11021811453D
libRbt.so/2013.1/901 2013/11/27
 24 24  0  0  0  0  0  0  0  0999 V2000
    2.9500   -5.5341   -2.3488 C   0  0  0  0  0  0  0  0  0  0  0  0
    1.5662   -5.9061   -2.4368 C   0  0  0  0  0  0  0  0  0  0  0  0
    0.8294   -6.2216   -1.3198 C   0  0  0  0  0  0  0  0  0  0  0  0
    1.3997   -6.1867   -0.0072 C   0  0  0  0  0  0  0  0  0  0  0  0
    2.7904   -5.8479    0.0759 C   0  0  0  0  0  0  0  0  0  0  0  0
    3.5290   -5.5406   -1.0393 C   0  0  0  0  0  0  0  0  0  0  0  0
    3.6822   -5.1880   -3.4483 C   0  0  0  0  0  0  0  0  0  0  0  0
    3.1226   -4.6931   -4.5730 N   0  0  0  0  0  0  0  0  0  0  0  0
   -0.5586   -7.0229    1.0764 N   0  0  0  0  0  0  0  0  0  0  0  0
    0.6689   -6.4624    1.1106 C   0  0  0  0  0  0  0  0  0  0  0  0
    5.0319   -5.3123   -3.4915 N   0  0  0  0  0  0  0  0  0  0  0  0
    1.1176   -6.1926    2.3596 N   0  0  0  0  0  0  0  0  0  0  0  0
    5.9702   -4.4181   -4.1669 C   0  0  0  0  0  0  0  0  0  0  0  0
    0.6558   -6.8188    3.5945 C   0  0  0  0  0  0  0  0  0  0  0  0
    6.2454   -3.2268   -3.2352 C   0  0  0  0  0  0  0  0  0  0  0  0
    1.2293   -6.0144    4.7760 C   0  0  0  0  0  0  0  0  0  0  0  0
    7.6192   -3.3610   -2.5638 C   0  0  0  0  0  0  0  0  0  0  0  0
    0.1903   -5.0752    5.4149 C   0  0  0  0  0  0  0  0  0  0  0  0
    7.5180   -4.3278   -1.4118 N   0  0  0  0  0  0  0  0  0  0  0  0
   -0.9518   -5.8471    6.0259 N   0  0  0  0  0  0  0  0  0  0  0  0
    6.8897   -3.6486   -0.2255 C   0  0  0  0  0  0  0  0  0  0  0  0
   -1.9865   -4.8727    6.5215 C   0  0  0  0  0  0  0  0  0  0  0  0
    8.8794   -4.8546   -1.0307 C   0  0  0  0  0  0  0  0  0  0  0  0
   -0.5050   -6.7100    7.1728 C   0  0  0  0  0  0  0  0  0  0  0  0
  1  6  2  0  0  0  0
  2  3  2  0  0  0  0
  2  1  1  0  0  0  0
  3  4  1  0  0  0  0
  4 10  1  0  0  0  0
  4  5  2  0  0  0  0
  6  5  1  0  0  0  0
  7  1  1  0  0  0  0
  7 11  1  0  0  0  0
  8  7  2  0  0  0  0
  9 10  2  0  0  0  0
 10 12  1  0  0  0  0
 12 14  1  0  0  0  0
 13 11  1  0  0  0  0
 13 15  1  0  0  0  0
 14 16  1  0  0  0  0
 16 18  1  0  0  0  0
 17 15  1  0  0  0  0
 17 19  1  0  0  0  0
 18 20  1  0  0  0  0
 19 23  1  0  0  0  0
 20 22  1  0  0  0  0
 20 24  1  0  0  0  0
 21 19  1  0  0  0  0
M  END
>  <CHROM.1>
12.64690826,25.09463605,-168.78815261,82.71192613,103.57429348,102.12463955
63.70648530,-79.28320315,-78.22689713,-175.01489684,2.83968249,-5.37619403
0.34971111,0.86138934,-0.29763291,-1.61887857

>  <Name>
lig.pdb

>  <RI>
2.41306e+07

>  <Rbt.Current_Directory>
/home/itssahil/PROJECTS/Mol_Feturizer/New_Systems/rnas/2l94

>  <Rbt.Executable>
rbdock ($Id: //depot/dev/client3/rdock/2013.1/src/exe/rbdock.cxx#4 $)

>  <Rbt.Library>
libRbt.so (2013.1, Build901 2013/11/27)

>  <Rbt.Parameter_File>
/export/apps/rDock/src/rDock_2013.1_src/data/scripts/dock_solv.prm

>  <Rbt.Receptor>
prm/blind_docking_40.prm

>  <SCORE>
-11.0022

>  <SCORE.INTER>
-14.6079

>  <SCORE.INTER.CONST>
1

>  <SCORE.INTER.POLAR>
-2.26798

>  <SCORE.INTER.ROT>
10

>  <SCORE.INTER.SOLV>
16.6862

>  <SCORE.INTER.VDW>
-18.0074

>  <SCORE.INTER.norm>
-0.608664

>  <SCORE.INTRA>
3.38902

>  <SCORE.INTRA.DIHEDRAL>
11.4148

>  <SCORE.INTRA.DIHEDRAL.0>
7.52971

>  <SCORE.INTRA.POLAR>
0

>  <SCORE.INTRA.POLAR.0>
0

>  <SCORE.INTRA.REPUL>
0

>  <SCORE.INTRA.REPUL.0>
0

>  <SCORE.INTRA.SOLV>
0.667057

>  <SCORE.INTRA.SOLV.lig_0>
-22.1084

>  <SCORE.INTRA.VDW>
-2.6519

>  <SCORE.INTRA.VDW.0>
2.4256

>  <SCORE.INTRA.norm>
0.141209

>  <SCORE.RESTR>
0.216758

>  <SCORE.RESTR.CAVITY>
0.216758

>  <SCORE.RESTR.norm>
0.0090316

>  <SCORE.SYSTEM>
0

>  <SCORE.SYSTEM.CONST>
0

>  <SCORE.SYSTEM.DIHEDRAL>
0

>  <SCORE.SYSTEM.SOLV>
0

>  <SCORE.SYSTEM.norm>
0

>  <SCORE.heavy>
24

>  <SCORE.norm>
-0.458424

>  <RMSD>
7.484

$$$$
lig.pdb
 OpenBabel11021811453D
libRbt.so/2013.1/901 2013/11/27
 24 24  0  0  0  0  0  0  0  0999 V2000
    2.9180   -5.5785   -1.8364 C   0  0  0  0  0  0  0  0  0  0  0  0
    3.6113   -6.5327   -1.0179 C   0  0  0  0  0  0  0  0  0  0  0  0
    3.0820   -6.9908    0.1654 C   0  0  0  0  0  0  0  0  0  0  0  0
    1.8061   -6.5484    0.6406 C   0  0  0  0  0  0  0  0  0  0  0  0
    1.1304   -5.5702   -0.1609 C   0  0  0  0  0  0  0  0  0  0  0  0
    1.6615   -5.1061   -1.3383 C   0  0  0  0  0  0  0  0  0  0  0  0
    3.4199   -5.1411   -3.0287 C   0  0  0  0  0  0  0  0  0  0  0  0
    2.6371   -4.6676   -4.0217 N   0  0  0  0  0  0  0  0  0  0  0  0
    1.3819   -8.3023    2.2064 N   0  0  0  0  0  0  0  0  0  0  0  0
    1.2553   -7.0232    1.7941 C   0  0  0  0  0  0  0  0  0  0  0  0
    4.7478   -5.1459   -3.3041 N   0  0  0  0  0  0  0  0  0  0  0  0
    0.5272   -6.2440    2.6288 N   0  0  0  0  0  0  0  0  0  0  0  0
    5.4801   -4.1558   -4.0913 C   0  0  0  0  0  0  0  0  0  0  0  0
    0.2779   -6.4968    4.0446 C   0  0  0  0  0  0  0  0  0  0  0  0
    6.7500   -3.7752   -3.3131 C   0  0  0  0  0  0  0  0  0  0  0  0
   -1.2377   -6.3717    4.2878 C   0  0  0  0  0  0  0  0  0  0  0  0
    6.4813   -3.7516   -1.8020 C   0  0  0  0  0  0  0  0  0  0  0  0
   -1.6338   -5.0057    4.8766 C   0  0  0  0  0  0  0  0  0  0  0  0
    7.7876   -3.5954   -1.0665 N   0  0  0  0  0  0  0  0  0  0  0  0
   -3.1287   -4.8814    5.0296 N   0  0  0  0  0  0  0  0  0  0  0  0
    8.6270   -4.8314   -1.2429 C   0  0  0  0  0  0  0  0  0  0  0  0
   -3.4864   -3.4233    5.1373 C   0  0  0  0  0  0  0  0  0  0  0  0
    7.5513   -3.3499    0.4032 C   0  0  0  0  0  0  0  0  0  0  0  0
   -3.6368   -5.6000    6.2483 C   0  0  0  0  0  0  0  0  0  0  0  0
  1  6  2  0  0  0  0
  2  3  2  0  0  0  0
  2  1  1  0  0  0  0
  3  4  1  0  0  0  0
  4 10  1  0  0  0  0
  4  5  2  0  0  0  0
  6  5  1  0  0  0  0
  7  1  1  0  0  0  0
  7 11  1  0  0  0  0
  8  7  2  0  0  0  0
  9 10  2  0  0  0  0
 10 12  1  0  0  0  0
 12 14  1  0  0  0  0
 13 11  1  0  0  0  0
 13 15  1  0  0  0  0
 14 16  1  0  0  0  0
 16 18  1  0  0  0  0
 17 15  1  0  0  0  0
 17 19  1  0  0  0  0
 18 20  1  0  0  0  0
 19 23  1  0  0  0  0
 20 22  1  0  0  0  0
 20 24  1  0  0  0  0
 21 19  1  0  0  0  0
M  END
>  <CHROM.1>
-36.39403495,154.81418953,-129.80399153,133.05276341,-36.06770666,-99.35820840
176.70428079,170.97239023,-67.57611328,-160.45725063,2.41238747,-5.30813656
0.51547466,0.69152751,-0.20508869,-1.65169496

>  <Name>
lig.pdb

>  <RI>
3.30914e+07

>  <Rbt.Current_Directory>
/home/itssahil/PROJECTS/Mol_Feturizer/New_Systems/rnas/2l94

>  <Rbt.Executable>
rbdock ($Id: //depot/dev/client3/rdock/2013.1/src/exe/rbdock.cxx#4 $)

>  <Rbt.Library>
libRbt.so (2013.1, Build901 2013/11/27)

>  <Rbt.Parameter_File>
/export/apps/rDock/src/rDock_2013.1_src/data/scripts/dock_solv.prm

>  <Rbt.Receptor>
prm/blind_docking_80.prm

>  <SCORE>
-9.0859

>  <SCORE.INTER>
-13.6168

>  <SCORE.INTER.CONST>
1

>  <SCORE.INTER.POLAR>
-2.34953

>  <SCORE.INTER.ROT>
10

>  <SCORE.INTER.SOLV>
21.5624

>  <SCORE.INTER.VDW>
-18.7002

>  <SCORE.INTER.norm>
-0.567365

>  <SCORE.INTRA>
4.41196

>  <SCORE.INTRA.DIHEDRAL>
11.3446

>  <SCORE.INTRA.DIHEDRAL.0>
7.52971

>  <SCORE.INTRA.POLAR>
0

>  <SCORE.INTRA.POLAR.0>
0

>  <SCORE.INTRA.REPUL>
0

>  <SCORE.INTRA.REPUL.0>
0

>  <SCORE.INTRA.SOLV>
0.231058

>  <SCORE.INTRA.SOLV.lig_0>
-22.1084

>  <SCORE.INTRA.VDW>
-1.37585

>  <SCORE.INTRA.VDW.0>
2.4256

>  <SCORE.INTRA.norm>
0.183832

>  <SCORE.RESTR>
0.118903

>  <SCORE.RESTR.CAVITY>
0.118903

>  <SCORE.RESTR.norm>
0.0049543

>  <SCORE.SYSTEM>
0

>  <SCORE.SYSTEM.CONST>
0

>  <SCORE.SYSTEM.DIHEDRAL>
0

>  <SCORE.SYSTEM.SOLV>
0

>  <SCORE.SYSTEM.norm>
0

>  <SCORE.heavy>
24

>  <SCORE.norm>
-0.378579

>  <RMSD>
7.490

$$$$
lig.pdb
 OpenBabel11021811453D
libRbt.so/2013.1/901 2013/11/27
 24 24  0  0  0  0  0  0  0  0999 V2000
   10.8598   -2.1022   -0.3465 C   0  0  0  0  0  0  0  0  0  0  0  0
   11.6188   -2.5138   -1.4935 C   0  0  0  0  0  0  0  0  0  0  0  0
   12.8381   -1.9537   -1.7932 C   0  0  0  0  0  0  0  0  0  0  0  0
   13.4215   -0.9364   -0.9722 C   0  0  0  0  0  0  0  0  0  0  0  0
   12.6471   -0.5026    0.1538 C   0  0  0  0  0  0  0  0  0  0  0  0
   11.4261   -1.0553    0.4495 C   0  0  0  0  0  0  0  0  0  0  0  0
    9.6630   -2.6741   -0.0219 C   0  0  0  0  0  0  0  0  0  0  0  0
    9.3681   -3.9614   -0.3028 N   0  0  0  0  0  0  0  0  0  0  0  0
   15.4857   -0.8933   -2.1745 N   0  0  0  0  0  0  0  0  0  0  0  0
   14.6462   -0.3998   -1.2396 C   0  0  0  0  0  0  0  0  0  0  0  0
    8.6789   -1.9903    0.6129 N   0  0  0  0  0  0  0  0  0  0  0  0
   15.1273    0.6820   -0.5821 N   0  0  0  0  0  0  0  0  0  0  0  0
    7.7490   -2.5204    1.6082 C   0  0  0  0  0  0  0  0  0  0  0  0
   16.1720    1.5841   -1.0568 C   0  0  0  0  0  0  0  0  0  0  0  0
    6.3774   -2.6881    0.9347 C   0  0  0  0  0  0  0  0  0  0  0  0
   15.7054    2.1854   -2.3956 C   0  0  0  0  0  0  0  0  0  0  0  0
    5.3164   -1.8215    1.6270 C   0  0  0  0  0  0  0  0  0  0  0  0
   14.3492    2.9050   -2.2829 C   0  0  0  0  0  0  0  0  0  0  0  0
    5.1182   -2.3102    3.0390 N   0  0  0  0  0  0  0  0  0  0  0  0
   13.7950    3.2572   -3.6402 N   0  0  0  0  0  0  0  0  0  0  0  0
    4.3487   -3.6029    3.0313 C   0  0  0  0  0  0  0  0  0  0  0  0
   12.7464    4.3243   -3.4747 C   0  0  0  0  0  0  0  0  0  0  0  0
    4.3787   -1.2861    3.8637 C   0  0  0  0  0  0  0  0  0  0  0  0
   13.1795    2.0706   -4.3279 C   0  0  0  0  0  0  0  0  0  0  0  0
  1  6  2  0  0  0  0
  2  3  2  0  0  0  0
  2  1  1  0  0  0  0
  3  4  1  0  0  0  0
  4 10  1  0  0  0  0
  4  5  2  0  0  0  0
  6  5  1  0  0  0  0
  7  1  1  0  0  0  0
  7 11  1  0  0  0  0
  8  7  2  0  0  0  0
  9 10  2  0  0  0  0
 10 12  1  0  0  0  0
 12 14  1  0  0  0  0
 13 11  1  0  0  0  0
 13 15  1  0  0  0  0
 14 16  1  0  0  0  0
 16 18  1  0  0  0  0
 17 15  1  0  0  0  0
 17 19  1  0  0  0  0
 18 20  1  0  0  0  0
 19 23  1  0  0  0  0
 20 22  1  0  0  0  0
 20 24  1  0  0  0  0
 21 19  1  0  0  0  0
M  END
>  <CHROM.1>
-9.25620314,30.53554461,58.70963345,-105.41821733,-119.07545824,56.54980463
-169.39689750,-64.76233656,-73.86685245,-161.45953087,10.99133160,-0.64603036
-0.44639295,-2.61351779,0.34057279,-0.30744334

>  <Name>
lig.pdb

>  <RI>
9.7521e+06

>  <Rbt.Current_Directory>
/home/itssahil/PROJECTS/Mol_Feturizer/New_Systems/rnas/2l94

>  <Rbt.Executable>
rbdock ($Id: //depot/dev/client3/rdock/2013.1/src/exe/rbdock.cxx#4 $)

>  <Rbt.Library>
libRbt.so (2013.1, Build901 2013/11/27)

>  <Rbt.Parameter_File>
/export/apps/rDock/src/rDock_2013.1_src/data/scripts/dock_solv.prm

>  <Rbt.Receptor>
prm/pocket_docking_7.prm

>  <SCORE>
-24.5125

>  <SCORE.INTER>
-26.552

>  <SCORE.INTER.CONST>
1

>  <SCORE.INTER.POLAR>
-4.05343

>  <SCORE.INTER.ROT>
10

>  <SCORE.INTER.SOLV>
12.7672

>  <SCORE.INTER.VDW>
-18.7123

>  <SCORE.INTER.norm>
-1.10633

>  <SCORE.INTRA>
2.03943

>  <SCORE.INTRA.DIHEDRAL>
8.17525

>  <SCORE.INTRA.DIHEDRAL.0>
7.52971

>  <SCORE.INTRA.POLAR>
0

>  <SCORE.INTRA.POLAR.0>
0

>  <SCORE.INTRA.REPUL>
0

>  <SCORE.INTRA.REPUL.0>
0

>  <SCORE.INTRA.SOLV>
0.698418

>  <SCORE.INTRA.SOLV.lig_0>
-22.1084

>  <SCORE.INTRA.VDW>
-2.39741

>  <SCORE.INTRA.VDW.0>
2.4256

>  <SCORE.INTRA.norm>
0.0849762

>  <SCORE.RESTR>
0

>  <SCORE.RESTR.CAVITY>
0

>  <SCORE.RESTR.norm>
0

>  <SCORE.SYSTEM>
0

>  <SCORE.SYSTEM.CONST>
0

>  <SCORE.SYSTEM.DIHEDRAL>
0

>  <SCORE.SYSTEM.SOLV>
0

>  <SCORE.SYSTEM.norm>
0

>  <SCORE.heavy>
24

>  <SCORE.norm>
-1.02136

>  <RMSD>
7.504

$$$$
lig.pdb
 OpenBabel11021811453D
libRbt.so/2013.1/901 2013/11/27
 24 24  0  0  0  0  0  0  0  0999 V2000
    2.4842   -4.9143   -2.1392 C   0  0  0  0  0  0  0  0  0  0  0  0
    1.8732   -6.2102   -2.2321 C   0  0  0  0  0  0  0  0  0  0  0  0
    1.2113   -6.7759   -1.1682 C   0  0  0  0  0  0  0  0  0  0  0  0
    1.0868   -6.0990    0.0870 C   0  0  0  0  0  0  0  0  0  0  0  0
    1.7263   -4.8197    0.1888 C   0  0  0  0  0  0  0  0  0  0  0  0
    2.3944   -4.2575   -0.8701 C   0  0  0  0  0  0  0  0  0  0  0  0
    3.1164   -4.3298   -3.1992 C   0  0  0  0  0  0  0  0  0  0  0  0
    3.1568   -2.9922   -3.3791 N   0  0  0  0  0  0  0  0  0  0  0  0
   -0.6130   -7.5133    0.9919 N   0  0  0  0  0  0  0  0  0  0  0  0
    0.4015   -6.6347    1.1372 C   0  0  0  0  0  0  0  0  0  0  0  0
    3.7568   -5.0517   -4.1519 N   0  0  0  0  0  0  0  0  0  0  0  0
    0.6834   -6.3257    2.4252 N   0  0  0  0  0  0  0  0  0  0  0  0
    4.9819   -4.6770   -4.8554 C   0  0  0  0  0  0  0  0  0  0  0  0
    0.3482   -7.1291    3.5968 C   0  0  0  0  0  0  0  0  0  0  0  0
    6.1758   -5.0509   -3.9622 C   0  0  0  0  0  0  0  0  0  0  0  0
    0.5168   -6.2409    4.8436 C   0  0  0  0  0  0  0  0  0  0  0  0
    6.3252   -4.0576   -2.8016 C   0  0  0  0  0  0  0  0  0  0  0  0
   -0.6608   -5.2700    5.0446 C   0  0  0  0  0  0  0  0  0  0  0  0
    7.7887   -3.7887   -2.5617 N   0  0  0  0  0  0  0  0  0  0  0  0
   -0.6188   -4.6233    6.4060 N   0  0  0  0  0  0  0  0  0  0  0  0
    8.3730   -4.8680   -1.6915 C   0  0  0  0  0  0  0  0  0  0  0  0
   -1.0613   -5.6286    7.4351 C   0  0  0  0  0  0  0  0  0  0  0  0
    7.9881   -2.4455   -1.9043 C   0  0  0  0  0  0  0  0  0  0  0  0
   -1.5099   -3.4154    6.4890 C   0  0  0  0  0  0  0  0  0  0  0  0
  1  6  2  0  0  0  0
  2  3  2  0  0  0  0
  2  1  1  0  0  0  0
  3  4  1  0  0  0  0
  4 10  1  0  0  0  0
  4  5  2  0  0  0  0
  6  5  1  0  0  0  0
  7  1  1  0  0  0  0
  7 11  1  0  0  0  0
  8  7  2  0  0  0  0
  9 10  2  0  0  0  0
 10 12  1  0  0  0  0
 12 14  1  0  0  0  0
 13 11  1  0  0  0  0
 13 15  1  0  0  0  0
 14 16  1  0  0  0  0
 16 18  1  0  0  0  0
 17 15  1  0  0  0  0
 17 19  1  0  0  0  0
 18 20  1  0  0  0  0
 19 23  1  0  0  0  0
 20 22  1  0  0  0  0
 20 24  1  0  0  0  0
 21 19  1  0  0  0  0
M  END
>  <CHROM.1>
-26.81787492,148.98695832,-165.27126208,82.72222495,-75.19811735,77.82324941
168.10618283,-141.00587900,-83.41284735,-75.15570761,2.52659586,-5.10164208
0.21223416,0.84025253,-0.43366577,-1.77574648

>  <Name>
lig.pdb

>  <RI>
3.30914e+07

>  <Rbt.Current_Directory>
/home/itssahil/PROJECTS/Mol_Feturizer/New_Systems/rnas/2l94

>  <Rbt.Executable>
rbdock ($Id: //depot/dev/client3/rdock/2013.1/src/exe/rbdock.cxx#4 $)

>  <Rbt.Library>
libRbt.so (2013.1, Build901 2013/11/27)

>  <Rbt.Parameter_File>
/export/apps/rDock/src/rDock_2013.1_src/data/scripts/dock_solv.prm

>  <Rbt.Receptor>
prm/blind_docking_80.prm

>  <SCORE>
-4.2185

>  <SCORE.INTER>
-8.10976

>  <SCORE.INTER.CONST>
1

>  <SCORE.INTER.POLAR>
-1.54573

>  <SCORE.INTER.ROT>
10

>  <SCORE.INTER.SOLV>
16.3888

>  <SCORE.INTER.VDW>
-15.9837

>  <SCORE.INTER.norm>
-0.337907

>  <SCORE.INTRA>
3.33451

>  <SCORE.INTRA.DIHEDRAL>
11.6355

>  <SCORE.INTRA.DIHEDRAL.0>
7.52971

>  <SCORE.INTRA.POLAR>
0

>  <SCORE.INTRA.POLAR.0>
0

>  <SCORE.INTRA.REPUL>
0

>  <SCORE.INTRA.REPUL.0>
0

>  <SCORE.INTRA.SOLV>
0.3922

>  <SCORE.INTRA.SOLV.lig_0>
-22.1084

>  <SCORE.INTRA.VDW>
-2.67932

>  <SCORE.INTRA.VDW.0>
2.4256

>  <SCORE.INTRA.norm>
0.138938

>  <SCORE.RESTR>
0.556746

>  <SCORE.RESTR.CAVITY>
0.556746

>  <SCORE.RESTR.norm>
0.0231977

>  <SCORE.SYSTEM>
0

>  <SCORE.SYSTEM.CONST>
0

>  <SCORE.SYSTEM.DIHEDRAL>
0

>  <SCORE.SYSTEM.SOLV>
0

>  <SCORE.SYSTEM.norm>
0

>  <SCORE.heavy>
24

>  <SCORE.norm>
-0.175771

>  <RMSD>
7.519

$$$$
lig.pdb
 OpenBabel11021811453D
libRbt.so/2013.1/901 2013/11/27
 24 24  0  0  0  0  0  0  0  0999 V2000
   12.4784   -1.8019   -1.8999 C   0  0  0  0  0  0  0  0  0  0  0  0
   11.7168   -2.0812   -3.0844 C   0  0  0  0  0  0  0  0  0  0  0  0
   10.5257   -2.7659   -3.0340 C   0  0  0  0  0  0  0  0  0  0  0  0
    9.9753   -3.2288   -1.7962 C   0  0  0  0  0  0  0  0  0  0  0  0
   10.7534   -2.9787   -0.6182 C   0  0  0  0  0  0  0  0  0  0  0  0
   11.9466   -2.3023   -0.6683 C   0  0  0  0  0  0  0  0  0  0  0  0
   13.6463   -1.0951   -1.9350 C   0  0  0  0  0  0  0  0  0  0  0  0
   13.9539   -0.2409   -2.9345 N   0  0  0  0  0  0  0  0  0  0  0  0
    8.4271   -4.6894   -0.7108 N   0  0  0  0  0  0  0  0  0  0  0  0
    8.7773   -3.8769   -1.7303 C   0  0  0  0  0  0  0  0  0  0  0  0
   14.5863   -1.1955   -0.9628 N   0  0  0  0  0  0  0  0  0  0  0  0
    7.8312   -3.7594   -2.6921 N   0  0  0  0  0  0  0  0  0  0  0  0
   15.4407   -0.1217   -0.4597 C   0  0  0  0  0  0  0  0  0  0  0  0
    6.4043   -4.0228   -2.5333 C   0  0  0  0  0  0  0  0  0  0  0  0
   16.9014   -0.4998   -0.7536 C   0  0  0  0  0  0  0  0  0  0  0  0
    5.8643   -3.0676   -1.4528 C   0  0  0  0  0  0  0  0  0  0  0  0
   17.8617    0.2571    0.1743 C   0  0  0  0  0  0  0  0  0  0  0  0
    4.4578   -3.4584   -0.9639 C   0  0  0  0  0  0  0  0  0  0  0  0
   18.1567    1.6132   -0.4135 N   0  0  0  0  0  0  0  0  0  0  0  0
    4.4593   -4.8115   -0.2986 N   0  0  0  0  0  0  0  0  0  0  0  0
   19.5271    2.0685    0.0087 C   0  0  0  0  0  0  0  0  0  0  0  0
    3.0352   -5.2562   -0.0989 C   0  0  0  0  0  0  0  0  0  0  0  0
   17.1290    2.6258    0.0276 C   0  0  0  0  0  0  0  0  0  0  0  0
    5.1548   -4.7886    1.0340 C   0  0  0  0  0  0  0  0  0  0  0  0
  1  6  2  0  0  0  0
  2  3  2  0  0  0  0
  2  1  1  0  0  0  0
  3  4  1  0  0  0  0
  4 10  1  0  0  0  0
  4  5  2  0  0  0  0
  6  5  1  0  0  0  0
  7  1  1  0  0  0  0
  7 11  1  0  0  0  0
  8  7  2  0  0  0  0
  9 10  2  0  0  0  0
 10 12  1  0  0  0  0
 12 14  1  0  0  0  0
 13 11  1  0  0  0  0
 13 15  1  0  0  0  0
 14 16  1  0  0  0  0
 16 18  1  0  0  0  0
 17 15  1  0  0  0  0
 17 19  1  0  0  0  0
 18 20  1  0  0  0  0
 19 23  1  0  0  0  0
 20 22  1  0  0  0  0
 20 24  1  0  0  0  0
 21 19  1  0  0  0  0
M  END
>  <CHROM.1>
157.79492801,22.87376413,60.29960721,-117.76254765,-158.36118814,-166.85062368
63.04978222,-84.86917020,-151.00450334,-168.59633033,11.21112012,-2.04525161
-1.13018756,-0.07322001,-0.41318549,-1.69197986

>  <Name>
lig.pdb

>  <RI>
9.7521e+06

>  <Rbt.Current_Directory>
/home/itssahil/PROJECTS/Mol_Feturizer/New_Systems/rnas/2l94

>  <Rbt.Executable>
rbdock ($Id: //depot/dev/client3/rdock/2013.1/src/exe/rbdock.cxx#4 $)

>  <Rbt.Library>
libRbt.so (2013.1, Build901 2013/11/27)

>  <Rbt.Parameter_File>
/export/apps/rDock/src/rDock_2013.1_src/data/scripts/dock_solv.prm

>  <Rbt.Receptor>
prm/pocket_docking_7.prm

>  <SCORE>
-25.1034

>  <SCORE.INTER>
-26.1298

>  <SCORE.INTER.CONST>
1

>  <SCORE.INTER.POLAR>
-4.16673

>  <SCORE.INTER.ROT>
10

>  <SCORE.INTER.SOLV>
14.64

>  <SCORE.INTER.VDW>
-18.6775

>  <SCORE.INTER.norm>
-1.08874

>  <SCORE.INTRA>
1.02644

>  <SCORE.INTRA.DIHEDRAL>
7.18353

>  <SCORE.INTRA.DIHEDRAL.0>
7.52971

>  <SCORE.INTRA.POLAR>
0

>  <SCORE.INTRA.POLAR.0>
0

>  <SCORE.INTRA.REPUL>
0

>  <SCORE.INTRA.REPUL.0>
0

>  <SCORE.INTRA.SOLV>
0.487466

>  <SCORE.INTRA.SOLV.lig_0>
-22.1084

>  <SCORE.INTRA.VDW>
-2.80906

>  <SCORE.INTRA.VDW.0>
2.4256

>  <SCORE.INTRA.norm>
0.0427683

>  <SCORE.RESTR>
0

>  <SCORE.RESTR.CAVITY>
0

>  <SCORE.RESTR.norm>
0

>  <SCORE.SYSTEM>
0

>  <SCORE.SYSTEM.CONST>
0

>  <SCORE.SYSTEM.DIHEDRAL>
0

>  <SCORE.SYSTEM.SOLV>
0

>  <SCORE.SYSTEM.norm>
0

>  <SCORE.heavy>
24

>  <SCORE.norm>
-1.04598

>  <RMSD>
7.534

$$$$
lig.pdb
 OpenBabel11021811453D
libRbt.so/2013.1/901 2013/11/27
 24 24  0  0  0  0  0  0  0  0999 V2000
    3.2997   -5.6213   -2.6552 C   0  0  0  0  0  0  0  0  0  0  0  0
    2.1781   -6.4702   -2.9420 C   0  0  0  0  0  0  0  0  0  0  0  0
    1.4925   -7.1243   -1.9459 C   0  0  0  0  0  0  0  0  0  0  0  0
    1.8540   -6.9865   -0.5676 C   0  0  0  0  0  0  0  0  0  0  0  0
    2.9950   -6.1653   -0.2858 C   0  0  0  0  0  0  0  0  0  0  0  0
    3.6851   -5.5182   -1.2801 C   0  0  0  0  0  0  0  0  0  0  0  0
    3.9676   -4.9419   -3.6336 C   0  0  0  0  0  0  0  0  0  0  0  0
    3.3441   -4.3921   -4.6976 N   0  0  0  0  0  0  0  0  0  0  0  0
    0.3802   -8.6867    0.2358 N   0  0  0  0  0  0  0  0  0  0  0  0
    1.1588   -7.6015    0.4315 C   0  0  0  0  0  0  0  0  0  0  0  0
    5.3118   -4.7645   -3.6076 N   0  0  0  0  0  0  0  0  0  0  0  0
    1.1909   -7.1696    1.7146 N   0  0  0  0  0  0  0  0  0  0  0  0
    6.0464   -3.5871   -4.0662 C   0  0  0  0  0  0  0  0  0  0  0  0
    0.8741   -7.9626    2.8983 C   0  0  0  0  0  0  0  0  0  0  0  0
    7.2520   -3.3866   -3.1337 C   0  0  0  0  0  0  0  0  0  0  0  0
   -0.2608   -7.2488    3.6561 C   0  0  0  0  0  0  0  0  0  0  0  0
    6.7992   -3.2450   -1.6739 C   0  0  0  0  0  0  0  0  0  0  0  0
    0.2269   -6.0061    4.4228 C   0  0  0  0  0  0  0  0  0  0  0  0
    7.3489   -4.3943   -0.8684 N   0  0  0  0  0  0  0  0  0  0  0  0
   -0.9235   -5.1212    4.8314 N   0  0  0  0  0  0  0  0  0  0  0  0
    6.7222   -4.4085    0.4993 C   0  0  0  0  0  0  0  0  0  0  0  0
   -0.3732   -3.8411    5.4007 C   0  0  0  0  0  0  0  0  0  0  0  0
    8.8482   -4.2903   -0.7368 C   0  0  0  0  0  0  0  0  0  0  0  0
   -1.8048   -5.7736    5.8598 C   0  0  0  0  0  0  0  0  0  0  0  0
  1  6  2  0  0  0  0
  2  3  2  0  0  0  0
  2  1  1  0  0  0  0
  3  4  1  0  0  0  0
  4 10  1  0  0  0  0
  4  5  2  0  0  0  0
  6  5  1  0  0  0  0
  7  1  1  0  0  0  0
  7 11  1  0  0  0  0
  8  7  2  0  0  0  0
  9 10  2  0  0  0  0
 10 12  1  0  0  0  0
 12 14  1  0  0  0  0
 13 11  1  0  0  0  0
 13 15  1  0  0  0  0
 14 16  1  0  0  0  0
 16 18  1  0  0  0  0
 17 15  1  0  0  0  0
 17 19  1  0  0  0  0
 18 20  1  0  0  0  0
 19 23  1  0  0  0  0
 20 22  1  0  0  0  0
 20 24  1  0  0  0  0
 21 19  1  0  0  0  0
M  END
>  <CHROM.1>
21.72922657,37.27794204,-122.71971672,144.58367679,-57.07257164,-75.36201658
164.25951746,116.44996312,-170.03939859,-172.18034167,2.98931126,-5.58642600
-0.02414358,0.68558036,-0.50198844,-1.81458415

>  <Name>
lig.pdb

>  <RI>
3.30914e+07

>  <Rbt.Current_Directory>
/home/itssahil/PROJECTS/Mol_Feturizer/New_Systems/rnas/2l94

>  <Rbt.Executable>
rbdock ($Id: //depot/dev/client3/rdock/2013.1/src/exe/rbdock.cxx#4 $)

>  <Rbt.Library>
libRbt.so (2013.1, Build901 2013/11/27)

>  <Rbt.Parameter_File>
/export/apps/rDock/src/rDock_2013.1_src/data/scripts/dock_solv.prm

>  <Rbt.Receptor>
prm/blind_docking_80.prm

>  <SCORE>
-8.23131

>  <SCORE.INTER>
-11.8587

>  <SCORE.INTER.CONST>
1

>  <SCORE.INTER.POLAR>
-2.39483

>  <SCORE.INTER.ROT>
10

>  <SCORE.INTER.SOLV>
14.1477

>  <SCORE.INTER.VDW>
-14.9056

>  <SCORE.INTER.norm>
-0.494112

>  <SCORE.INTRA>
3.08202

>  <SCORE.INTRA.DIHEDRAL>
11.264

>  <SCORE.INTRA.DIHEDRAL.0>
7.52971

>  <SCORE.INTRA.POLAR>
0

>  <SCORE.INTRA.POLAR.0>
0

>  <SCORE.INTRA.REPUL>
0.0115308

>  <SCORE.INTRA.REPUL.0>
0

>  <SCORE.INTRA.SOLV>
0.660116

>  <SCORE.INTRA.SOLV.lig_0>
-22.1084

>  <SCORE.INTRA.VDW>
-2.93769

>  <SCORE.INTRA.VDW.0>
2.4256

>  <SCORE.INTRA.norm>
0.128417

>  <SCORE.RESTR>
0.545373

>  <SCORE.RESTR.CAVITY>
0.545373

>  <SCORE.RESTR.norm>
0.0227239

>  <SCORE.SYSTEM>
0

>  <SCORE.SYSTEM.CONST>
0

>  <SCORE.SYSTEM.DIHEDRAL>
0

>  <SCORE.SYSTEM.SOLV>
0

>  <SCORE.SYSTEM.norm>
0

>  <SCORE.heavy>
24

>  <SCORE.norm>
-0.342971

>  <RMSD>
7.542

$$$$
lig.pdb
 OpenBabel11021811453D
libRbt.so/2013.1/901 2013/11/27
 24 24  0  0  0  0  0  0  0  0999 V2000
    2.7614   -5.3110   -2.1257 C   0  0  0  0  0  0  0  0  0  0  0  0
    3.3760   -5.3139   -0.8283 C   0  0  0  0  0  0  0  0  0  0  0  0
    2.6673   -5.6271    0.3073 C   0  0  0  0  0  0  0  0  0  0  0  0
    1.2801   -5.9770    0.2564 C   0  0  0  0  0  0  0  0  0  0  0  0
    0.6594   -5.9408   -1.0356 C   0  0  0  0  0  0  0  0  0  0  0  0
    1.3640   -5.6205   -2.1690 C   0  0  0  0  0  0  0  0  0  0  0  0
    3.4635   -5.0327   -3.2634 C   0  0  0  0  0  0  0  0  0  0  0  0
    2.8810   -4.5517   -4.3825 N   0  0  0  0  0  0  0  0  0  0  0  0
   -0.5313   -7.0953    1.3411 N   0  0  0  0  0  0  0  0  0  0  0  0
    0.5764   -6.3245    1.3717 C   0  0  0  0  0  0  0  0  0  0  0  0
    4.8042   -5.2154   -3.3532 N   0  0  0  0  0  0  0  0  0  0  0  0
    0.9331   -5.9201    2.6139 N   0  0  0  0  0  0  0  0  0  0  0  0
    5.7513   -4.3845   -4.0942 C   0  0  0  0  0  0  0  0  0  0  0  0
    0.5524   -6.5589    3.8700 C   0  0  0  0  0  0  0  0  0  0  0  0
    6.9930   -4.1778   -3.2120 C   0  0  0  0  0  0  0  0  0  0  0  0
   -0.5423   -5.6971    4.5262 C   0  0  0  0  0  0  0  0  0  0  0  0
    6.6150   -3.5199   -1.8777 C   0  0  0  0  0  0  0  0  0  0  0  0
   -1.0430   -6.2858    5.8576 C   0  0  0  0  0  0  0  0  0  0  0  0
    7.3807   -4.1827   -0.7613 N   0  0  0  0  0  0  0  0  0  0  0  0
   -0.3496   -5.6537    7.0379 N   0  0  0  0  0  0  0  0  0  0  0  0
    6.9167   -3.6490    0.5666 C   0  0  0  0  0  0  0  0  0  0  0  0
   -0.2783   -6.6595    8.1553 C   0  0  0  0  0  0  0  0  0  0  0  0
    8.8631   -3.9462   -0.9114 C   0  0  0  0  0  0  0  0  0  0  0  0
   -1.0681   -4.4281    7.5294 C   0  0  0  0  0  0  0  0  0  0  0  0
  1  6  2  0  0  0  0
  2  3  2  0  0  0  0
  2  1  1  0  0  0  0
  3  4  1  0  0  0  0
  4 10  1  0  0  0  0
  4  5  2  0  0  0  0
  6  5  1  0  0  0  0
  7  1  1  0  0  0  0
  7 11  1  0  0  0  0
  8  7  2  0  0  0  0
  9 10  2  0  0  0  0
 10 12  1  0  0  0  0
 12 14  1  0  0  0  0
 13 11  1  0  0  0  0
 13 15  1  0  0  0  0
 14 16  1  0  0  0  0
 16 18  1  0  0  0  0
 17 15  1  0  0  0  0
 17 19  1  0  0  0  0
 18 20  1  0  0  0  0
 19 23  1  0  0  0  0
 20 22  1  0  0  0  0
 20 24  1  0  0  0  0
 21 19  1  0  0  0  0
M  END
>  <CHROM.1>
-155.38060401,-155.22389000,-104.28411124,137.01998284,-58.27569025,179.12177677
96.67040994,138.30558546,-174.11086115,-150.17323492,2.69212678,-5.28299265
0.71872387,0.90312338,-0.30492708,-1.62076131

>  <Name>
lig.pdb

>  <RI>
3.30914e+07

>  <Rbt.Current_Directory>
/home/itssahil/PROJECTS/Mol_Feturizer/New_Systems/rnas/2l94

>  <Rbt.Executable>
rbdock ($Id: //depot/dev/client3/rdock/2013.1/src/exe/rbdock.cxx#4 $)

>  <Rbt.Library>
libRbt.so (2013.1, Build901 2013/11/27)

>  <Rbt.Parameter_File>
/export/apps/rDock/src/rDock_2013.1_src/data/scripts/dock_solv.prm

>  <Rbt.Receptor>
prm/blind_docking_80.prm

>  <SCORE>
-12.4748

>  <SCORE.INTER>
-15.4897

>  <SCORE.INTER.CONST>
1

>  <SCORE.INTER.POLAR>
-2.69543

>  <SCORE.INTER.ROT>
10

>  <SCORE.INTER.SOLV>
17.32

>  <SCORE.INTER.VDW>
-17.3817

>  <SCORE.INTER.norm>
-0.645403

>  <SCORE.INTRA>
3.00642

>  <SCORE.INTRA.DIHEDRAL>
11.5626

>  <SCORE.INTRA.DIHEDRAL.0>
7.52971

>  <SCORE.INTRA.POLAR>
0

>  <SCORE.INTRA.POLAR.0>
0

>  <SCORE.INTRA.REPUL>
0

>  <SCORE.INTRA.REPUL.0>
0

>  <SCORE.INTRA.SOLV>
0.283776

>  <SCORE.INTRA.SOLV.lig_0>
-22.1084

>  <SCORE.INTRA.VDW>
-2.91677

>  <SCORE.INTRA.VDW.0>
2.4256

>  <SCORE.INTRA.norm>
0.125267

>  <SCORE.RESTR>
0.00844502

>  <SCORE.RESTR.CAVITY>
0.00844502

>  <SCORE.RESTR.norm>
0.000351876

>  <SCORE.SYSTEM>
0

>  <SCORE.SYSTEM.CONST>
0

>  <SCORE.SYSTEM.DIHEDRAL>
0

>  <SCORE.SYSTEM.SOLV>
0

>  <SCORE.SYSTEM.norm>
0

>  <SCORE.heavy>
24

>  <SCORE.norm>
-0.519783

>  <RMSD>
7.555

$$$$
lig.pdb
 OpenBabel11021811453D
libRbt.so/2013.1/901 2013/11/27
 24 24  0  0  0  0  0  0  0  0999 V2000
    2.8515   -5.5309   -2.2894 C   0  0  0  0  0  0  0  0  0  0  0  0
    3.4548   -5.8863   -1.0362 C   0  0  0  0  0  0  0  0  0  0  0  0
    2.7038   -6.3154    0.0325 C   0  0  0  0  0  0  0  0  0  0  0  0
    1.2801   -6.4404   -0.0498 C   0  0  0  0  0  0  0  0  0  0  0  0
    0.6758   -6.0529   -1.2909 C   0  0  0  0  0  0  0  0  0  0  0  0
    1.4238   -5.6168   -2.3558 C   0  0  0  0  0  0  0  0  0  0  0  0
    3.5908   -5.1341   -3.3669 C   0  0  0  0  0  0  0  0  0  0  0  0
    3.0375   -4.5959   -4.4747 N   0  0  0  0  0  0  0  0  0  0  0  0
   -0.7976   -7.1328    0.9051 N   0  0  0  0  0  0  0  0  0  0  0  0
    0.5291   -6.8994    0.9918 C   0  0  0  0  0  0  0  0  0  0  0  0
    4.9416   -5.2479   -3.4032 N   0  0  0  0  0  0  0  0  0  0  0  0
    1.0566   -7.1600    2.2115 N   0  0  0  0  0  0  0  0  0  0  0  0
    5.8796   -4.3200   -4.0321 C   0  0  0  0  0  0  0  0  0  0  0  0
    0.4849   -8.0386    3.2272 C   0  0  0  0  0  0  0  0  0  0  0  0
    7.1183   -4.2116   -3.1284 C   0  0  0  0  0  0  0  0  0  0  0  0
    0.2543   -7.2030    4.5002 C   0  0  0  0  0  0  0  0  0  0  0  0
    6.7864   -3.4642   -1.8295 C   0  0  0  0  0  0  0  0  0  0  0  0
   -0.8633   -6.1581    4.3302 C   0  0  0  0  0  0  0  0  0  0  0  0
    7.5399   -4.0941   -0.6861 N   0  0  0  0  0  0  0  0  0  0  0  0
   -0.9549   -5.2459    5.5273 N   0  0  0  0  0  0  0  0  0  0  0  0
    7.0785   -3.5049    0.6191 C   0  0  0  0  0  0  0  0  0  0  0  0
   -1.4851   -6.0312    6.6968 C   0  0  0  0  0  0  0  0  0  0  0  0
    9.0257   -3.8822   -0.8396 C   0  0  0  0  0  0  0  0  0  0  0  0
   -1.8588   -4.0708    5.2783 C   0  0  0  0  0  0  0  0  0  0  0  0
  1  6  2  0  0  0  0
  2  3  2  0  0  0  0
  2  1  1  0  0  0  0
  3  4  1  0  0  0  0
  4 10  1  0  0  0  0
  4  5  2  0  0  0  0
  6  5  1  0  0  0  0
  7  1  1  0  0  0  0
  7 11  1  0  0  0  0
  8  7  2  0  0  0  0
  9 10  2  0  0  0  0
 10 12  1  0  0  0  0
 12 14  1  0  0  0  0
 13 11  1  0  0  0  0
 13 15  1  0  0  0  0
 14 16  1  0  0  0  0
 16 18  1  0  0  0  0
 17 15  1  0  0  0  0
 17 19  1  0  0  0  0
 18 20  1  0  0  0  0
 19 23  1  0  0  0  0
 20 22  1  0  0  0  0
 20 24  1  0  0  0  0
 21 19  1  0  0  0  0
M  END
>  <CHROM.1>
-174.25777480,-169.11920552,-121.41361711,141.45479358,-69.96616645,68.65488363
-173.09082535,142.70744030,-171.92485047,-69.89408002,2.67332163,-5.48470768
0.29779978,0.73770227,-0.34305697,-1.66343463

>  <Name>
lig.pdb

>  <RI>
3.93418e+07

>  <Rbt.Current_Directory>
/home/itssahil/PROJECTS/Mol_Feturizer/New_Systems/rnas/2l94

>  <Rbt.Executable>
rbdock ($Id: //depot/dev/client3/rdock/2013.1/src/exe/rbdock.cxx#4 $)

>  <Rbt.Library>
libRbt.so (2013.1, Build901 2013/11/27)

>  <Rbt.Parameter_File>
/export/apps/rDock/src/rDock_2013.1_src/data/scripts/dock_solv.prm

>  <Rbt.Receptor>
prm/blind_docking_20.prm

>  <SCORE>
-15.7089

>  <SCORE.INTER>
-16.1619

>  <SCORE.INTER.CONST>
1

>  <SCORE.INTER.POLAR>
-2.88484

>  <SCORE.INTER.ROT>
10

>  <SCORE.INTER.SOLV>
17.2381

>  <SCORE.INTER.VDW>
-17.1711

>  <SCORE.INTER.norm>
-0.673412

>  <SCORE.INTRA>
0.0525566

>  <SCORE.INTRA.DIHEDRAL>
2.83727

>  <SCORE.INTRA.DIHEDRAL.0>
7.52971

>  <SCORE.INTRA.POLAR>
0

>  <SCORE.INTRA.POLAR.0>
0

>  <SCORE.INTRA.REPUL>
0

>  <SCORE.INTRA.REPUL.0>
0

>  <SCORE.INTRA.SOLV>
0.536534

>  <SCORE.INTRA.SOLV.lig_0>
-22.1084

>  <SCORE.INTRA.VDW>
-1.63434

>  <SCORE.INTRA.VDW.0>
2.4256

>  <SCORE.INTRA.norm>
0.00218986

>  <SCORE.RESTR>
0.400439

>  <SCORE.RESTR.CAVITY>
0.400439

>  <SCORE.RESTR.norm>
0.016685

>  <SCORE.SYSTEM>
0

>  <SCORE.SYSTEM.CONST>
0

>  <SCORE.SYSTEM.DIHEDRAL>
0

>  <SCORE.SYSTEM.SOLV>
0

>  <SCORE.SYSTEM.norm>
0

>  <SCORE.heavy>
24

>  <SCORE.norm>
-0.654537

>  <RMSD>
7.556

$$$$
lig.pdb
 OpenBabel11021811453D
libRbt.so/2013.1/901 2013/11/27
 24 24  0  0  0  0  0  0  0  0999 V2000
    1.5969   -6.5862    0.5600 C   0  0  0  0  0  0  0  0  0  0  0  0
    1.1589   -5.2734    0.1783 C   0  0  0  0  0  0  0  0  0  0  0  0
    1.7108   -4.6091   -0.8915 C   0  0  0  0  0  0  0  0  0  0  0  0
    2.7454   -5.1948   -1.6889 C   0  0  0  0  0  0  0  0  0  0  0  0
    3.2051   -6.4918   -1.2861 C   0  0  0  0  0  0  0  0  0  0  0  0
    2.6605   -7.1525   -0.2134 C   0  0  0  0  0  0  0  0  0  0  0  0
    1.0337   -7.2677    1.6008 C   0  0  0  0  0  0  0  0  0  0  0  0
    1.4531   -8.4922    1.9849 N   0  0  0  0  0  0  0  0  0  0  0  0
    2.8902   -3.3303   -3.1758 N   0  0  0  0  0  0  0  0  0  0  0  0
    3.2745   -4.5603   -2.7738 C   0  0  0  0  0  0  0  0  0  0  0  0
    0.0097   -6.7617    2.3318 N   0  0  0  0  0  0  0  0  0  0  0  0
    4.2374   -5.1174   -3.5461 N   0  0  0  0  0  0  0  0  0  0  0  0
   -0.2123   -6.9410    3.7652 C   0  0  0  0  0  0  0  0  0  0  0  0
    5.1630   -4.4014   -4.4186 C   0  0  0  0  0  0  0  0  0  0  0  0
   -0.4214   -5.5525    4.3908 C   0  0  0  0  0  0  0  0  0  0  0  0
    6.5269   -4.3327   -3.7066 C   0  0  0  0  0  0  0  0  0  0  0  0
   -1.1295   -5.6630    5.7481 C   0  0  0  0  0  0  0  0  0  0  0  0
    6.4472   -3.6348   -2.3368 C   0  0  0  0  0  0  0  0  0  0  0  0
   -1.5380   -4.2877    6.2101 N   0  0  0  0  0  0  0  0  0  0  0  0
    7.3828   -4.2676   -1.3380 N   0  0  0  0  0  0  0  0  0  0  0  0
   -1.9494   -4.3332    7.6565 C   0  0  0  0  0  0  0  0  0  0  0  0
    6.9610   -3.8606    0.0483 C   0  0  0  0  0  0  0  0  0  0  0  0
   -2.6778   -3.7568    5.3764 C   0  0  0  0  0  0  0  0  0  0  0  0
    8.8112   -3.8523   -1.5552 C   0  0  0  0  0  0  0  0  0  0  0  0
  1  6  2  0  0  0  0
  2  3  2  0  0  0  0
  2  1  1  0  0  0  0
  3  4  1  0  0  0  0
  4 10  1  0  0  0  0
  4  5  2  0  0  0  0
  6  5  1  0  0  0  0
  7  1  1  0  0  0  0
  7 11  1  0  0  0  0
  8  7  2  0  0  0  0
  9 10  2  0  0  0  0
 10 12  1  0  0  0  0
 12 14  1  0  0  0  0
 13 11  1  0  0  0  0
 13 15  1  0  0  0  0
 14 16  1  0  0  0  0
 16 18  1  0  0  0  0
 17 15  1  0  0  0  0
 17 19  1  0  0  0  0
 18 20  1  0  0  0  0
 19 23  1  0  0  0  0
 20 22  1  0  0  0  0
 20 24  1  0  0  0  0
 21 19  1  0  0  0  0
M  END
>  <CHROM.1>
1.05795299,-178.74413767,102.50994334,128.47930436,160.20566701,-58.34239072
144.12903817,-169.85667294,-167.38575835,-162.18594951,2.48475917,-5.20827178
0.59521518,2.41741990,0.46892583,1.22719388

>  <Name>
lig.pdb

>  <RI>
3.30914e+07

>  <Rbt.Current_Directory>
/home/itssahil/PROJECTS/Mol_Feturizer/New_Systems/rnas/2l94

>  <Rbt.Executable>
rbdock ($Id: //depot/dev/client3/rdock/2013.1/src/exe/rbdock.cxx#4 $)

>  <Rbt.Library>
libRbt.so (2013.1, Build901 2013/11/27)

>  <Rbt.Parameter_File>
/export/apps/rDock/src/rDock_2013.1_src/data/scripts/dock_solv.prm

>  <Rbt.Receptor>
prm/blind_docking_80.prm

>  <SCORE>
-11.3338

>  <SCORE.INTER>
-11.138

>  <SCORE.INTER.CONST>
1

>  <SCORE.INTER.POLAR>
-1.74862

>  <SCORE.INTER.ROT>
10

>  <SCORE.INTER.SOLV>
17.734

>  <SCORE.INTER.VDW>
-17.7746

>  <SCORE.INTER.norm>
-0.464083

>  <SCORE.INTRA>
-0.499595

>  <SCORE.INTRA.DIHEDRAL>
3.62588

>  <SCORE.INTRA.DIHEDRAL.0>
7.52971

>  <SCORE.INTRA.POLAR>
0

>  <SCORE.INTRA.POLAR.0>
0

>  <SCORE.INTRA.REPUL>
0

>  <SCORE.INTRA.REPUL.0>
0

>  <SCORE.INTRA.SOLV>
0.330707

>  <SCORE.INTRA.SOLV.lig_0>
-22.1084

>  <SCORE.INTRA.VDW>
-2.47789

>  <SCORE.INTRA.VDW.0>
2.4256

>  <SCORE.INTRA.norm>
-0.0208165

>  <SCORE.RESTR>
0.303802

>  <SCORE.RESTR.CAVITY>
0.303802

>  <SCORE.RESTR.norm>
0.0126584

>  <SCORE.SYSTEM>
0

>  <SCORE.SYSTEM.CONST>
0

>  <SCORE.SYSTEM.DIHEDRAL>
0

>  <SCORE.SYSTEM.SOLV>
0

>  <SCORE.SYSTEM.norm>
0

>  <SCORE.heavy>
24

>  <SCORE.norm>
-0.472241

>  <RMSD>
7.556

$$$$
lig.pdb
 OpenBabel11021811453D
libRbt.so/2013.1/901 2013/11/27
 24 24  0  0  0  0  0  0  0  0999 V2000
    1.0945   -6.0481   -0.2113 C   0  0  0  0  0  0  0  0  0  0  0  0
    0.6527   -5.9941   -1.5761 C   0  0  0  0  0  0  0  0  0  0  0  0
    1.4855   -5.5849   -2.5905 C   0  0  0  0  0  0  0  0  0  0  0  0
    2.8418   -5.1999   -2.3420 C   0  0  0  0  0  0  0  0  0  0  0  0
    3.2714   -5.2221   -0.9742 C   0  0  0  0  0  0  0  0  0  0  0  0
    2.4383   -5.6227    0.0403 C   0  0  0  0  0  0  0  0  0  0  0  0
    0.2856   -6.4833    0.7992 C   0  0  0  0  0  0  0  0  0  0  0  0
   -0.8486   -7.1817    0.5782 N   0  0  0  0  0  0  0  0  0  0  0  0
    3.2644   -4.3422   -4.5315 N   0  0  0  0  0  0  0  0  0  0  0  0
    3.6873   -4.8272   -3.3449 C   0  0  0  0  0  0  0  0  0  0  0  0
    0.5641   -6.2490    2.1056 N   0  0  0  0  0  0  0  0  0  0  0  0
    5.0340   -4.9151   -3.2331 N   0  0  0  0  0  0  0  0  0  0  0  0
    0.3002   -7.1455    3.2293 C   0  0  0  0  0  0  0  0  0  0  0  0
    6.0137   -4.1660   -4.0140 C   0  0  0  0  0  0  0  0  0  0  0  0
   -0.4675   -6.3525    4.2993 C   0  0  0  0  0  0  0  0  0  0  0  0
    6.4917   -2.9778   -3.1588 C   0  0  0  0  0  0  0  0  0  0  0  0
   -0.1843   -6.9074    5.7022 C   0  0  0  0  0  0  0  0  0  0  0  0
    7.0816   -3.4185   -1.8069 C   0  0  0  0  0  0  0  0  0  0  0  0
   -1.0623   -6.2014    6.7034 N   0  0  0  0  0  0  0  0  0  0  0  0
    8.4810   -3.9577   -1.9630 N   0  0  0  0  0  0  0  0  0  0  0  0
   -0.5867   -4.7871    6.8959 C   0  0  0  0  0  0  0  0  0  0  0  0
    8.6427   -5.1560   -1.0667 C   0  0  0  0  0  0  0  0  0  0  0  0
   -1.0545   -6.9225    8.0285 C   0  0  0  0  0  0  0  0  0  0  0  0
    9.5259   -2.9373   -1.6070 C   0  0  0  0  0  0  0  0  0  0  0  0
  1  6  2  0  0  0  0
  2  3  2  0  0  0  0
  2  1  1  0  0  0  0
  3  4  1  0  0  0  0
  4 10  1  0  0  0  0
  4  5  2  0  0  0  0
  6  5  1  0  0  0  0
  7  1  1  0  0  0  0
  7 11  1  0  0  0  0
  8  7  2  0  0  0  0
  9 10  2  0  0  0  0
 10 12  1  0  0  0  0
 12 14  1  0  0  0  0
 13 11  1  0  0  0  0
 13 15  1  0  0  0  0
 14 16  1  0  0  0  0
 16 18  1  0  0  0  0
 17 15  1  0  0  0  0
 17 19  1  0  0  0  0
 18 20  1  0  0  0  0
 19 23  1  0  0  0  0
 20 22  1  0  0  0  0
 20 24  1  0  0  0  0
 21 19  1  0  0  0  0
M  END
>  <CHROM.1>
23.78226978,16.13971410,99.22581944,-128.28312292,-151.50900604,57.01021818
77.42246755,-174.10055501,-71.79338370,-139.91220733,2.81820584,-5.34878873
0.31358139,2.31934378,0.30119682,1.58669227

>  <Name>
lig.pdb

>  <RI>
3.30914e+07

>  <Rbt.Current_Directory>
/home/itssahil/PROJECTS/Mol_Feturizer/New_Systems/rnas/2l94

>  <Rbt.Executable>
rbdock ($Id: //depot/dev/client3/rdock/2013.1/src/exe/rbdock.cxx#4 $)

>  <Rbt.Library>
libRbt.so (2013.1, Build901 2013/11/27)

>  <Rbt.Parameter_File>
/export/apps/rDock/src/rDock_2013.1_src/data/scripts/dock_solv.prm

>  <Rbt.Receptor>
prm/blind_docking_80.prm

>  <SCORE>
-12.2264

>  <SCORE.INTER>
-13.8437

>  <SCORE.INTER.CONST>
1

>  <SCORE.INTER.POLAR>
-2.30459

>  <SCORE.INTER.ROT>
10

>  <SCORE.INTER.SOLV>
15.7732

>  <SCORE.INTER.VDW>
-17.0715

>  <SCORE.INTER.norm>
-0.576819

>  <SCORE.INTRA>
0.855638

>  <SCORE.INTRA.DIHEDRAL>
7.20108

>  <SCORE.INTRA.DIHEDRAL.0>
7.52971

>  <SCORE.INTRA.POLAR>
0

>  <SCORE.INTRA.POLAR.0>
0

>  <SCORE.INTRA.REPUL>
0

>  <SCORE.INTRA.REPUL.0>
0

>  <SCORE.INTRA.SOLV>
0.339145

>  <SCORE.INTRA.SOLV.lig_0>
-22.1084

>  <SCORE.INTRA.VDW>
-2.91447

>  <SCORE.INTRA.VDW.0>
2.4256

>  <SCORE.INTRA.norm>
0.0356516

>  <SCORE.RESTR>
0.761652

>  <SCORE.RESTR.CAVITY>
0.761652

>  <SCORE.RESTR.norm>
0.0317355

>  <SCORE.SYSTEM>
0

>  <SCORE.SYSTEM.CONST>
0

>  <SCORE.SYSTEM.DIHEDRAL>
0

>  <SCORE.SYSTEM.SOLV>
0

>  <SCORE.SYSTEM.norm>
0

>  <SCORE.heavy>
24

>  <SCORE.norm>
-0.509432

>  <RMSD>
7.562

$$$$
lig.pdb
 OpenBabel11021811453D
libRbt.so/2013.1/901 2013/11/27
 24 24  0  0  0  0  0  0  0  0999 V2000
    2.5267   -5.8004   -1.5213 C   0  0  0  0  0  0  0  0  0  0  0  0
    3.1682   -6.8034   -0.7191 C   0  0  0  0  0  0  0  0  0  0  0  0
    2.6813   -7.1631    0.5153 C   0  0  0  0  0  0  0  0  0  0  0  0
    1.5023   -6.5639    1.0632 C   0  0  0  0  0  0  0  0  0  0  0  0
    0.8821   -5.5387    0.2758 C   0  0  0  0  0  0  0  0  0  0  0  0
    1.3719   -5.1731   -0.9530 C   0  0  0  0  0  0  0  0  0  0  0  0
    2.9836   -5.4584   -2.7619 C   0  0  0  0  0  0  0  0  0  0  0  0
    2.1598   -5.2342   -3.8080 N   0  0  0  0  0  0  0  0  0  0  0  0
    1.2173   -8.1450    2.8317 N   0  0  0  0  0  0  0  0  0  0  0  0
    0.9899   -6.9387    2.2702 C   0  0  0  0  0  0  0  0  0  0  0  0
    4.3038   -5.3139   -3.0362 N   0  0  0  0  0  0  0  0  0  0  0  0
    0.2016   -6.1247    3.0118 N   0  0  0  0  0  0  0  0  0  0  0  0
    4.9051   -4.3438   -3.9492 C   0  0  0  0  0  0  0  0  0  0  0  0
   -0.0281   -6.2245    4.4497 C   0  0  0  0  0  0  0  0  0  0  0  0
    6.3466   -4.0832   -3.4831 C   0  0  0  0  0  0  0  0  0  0  0  0
    0.1673   -4.8234    5.0584 C   0  0  0  0  0  0  0  0  0  0  0  0
    6.3649   -3.4362   -2.0913 C   0  0  0  0  0  0  0  0  0  0  0  0
   -1.1065   -3.9619    4.9867 C   0  0  0  0  0  0  0  0  0  0  0  0
    7.2481   -4.2463   -1.1772 N   0  0  0  0  0  0  0  0  0  0  0  0
   -2.1878   -4.4965    5.8915 N   0  0  0  0  0  0  0  0  0  0  0  0
    6.9163   -3.9428    0.2585 C   0  0  0  0  0  0  0  0  0  0  0  0
   -3.0267   -5.4783    5.1183 C   0  0  0  0  0  0  0  0  0  0  0  0
    8.7046   -3.9483   -1.4337 C   0  0  0  0  0  0  0  0  0  0  0  0
   -3.0765   -3.4056    6.4207 C   0  0  0  0  0  0  0  0  0  0  0  0
  1  6  2  0  0  0  0
  2  3  2  0  0  0  0
  2  1  1  0  0  0  0
  3  4  1  0  0  0  0
  4 10  1  0  0  0  0
  4  5  2  0  0  0  0
  6  5  1  0  0  0  0
  7  1  1  0  0  0  0
  7 11  1  0  0  0  0
  8  7  2  0  0  0  0
  9 10  2  0  0  0  0
 10 12  1  0  0  0  0
 12 14  1  0  0  0  0
 13 11  1  0  0  0  0
 13 15  1  0  0  0  0
 14 16  1  0  0  0  0
 16 18  1  0  0  0  0
 17 15  1  0  0  0  0
 17 19  1  0  0  0  0
 18 20  1  0  0  0  0
 19 23  1  0  0  0  0
 20 22  1  0  0  0  0
 20 24  1  0  0  0  0
 21 19  1  0  0  0  0
M  END
>  <CHROM.1>
-23.63736970,138.52384382,131.40518906,153.93548287,-63.79649971,85.26882228
68.25166249,126.48529902,-160.23974843,-90.10605996,2.30577147,-5.25187278
0.76579576,0.73754443,-0.33694647,-1.83968676

>  <Name>
lig.pdb

>  <RI>
3.30914e+07

>  <Rbt.Current_Directory>
/home/itssahil/PROJECTS/Mol_Feturizer/New_Systems/rnas/2l94

>  <Rbt.Executable>
rbdock ($Id: //depot/dev/client3/rdock/2013.1/src/exe/rbdock.cxx#4 $)

>  <Rbt.Library>
libRbt.so (2013.1, Build901 2013/11/27)

>  <Rbt.Parameter_File>
/export/apps/rDock/src/rDock_2013.1_src/data/scripts/dock_solv.prm

>  <Rbt.Receptor>
prm/blind_docking_80.prm

>  <SCORE>
-9.48099

>  <SCORE.INTER>
-14.8697

>  <SCORE.INTER.CONST>
1

>  <SCORE.INTER.POLAR>
-2.26629

>  <SCORE.INTER.ROT>
10

>  <SCORE.INTER.SOLV>
19.5404

>  <SCORE.INTER.VDW>
-19.139

>  <SCORE.INTER.norm>
-0.619572

>  <SCORE.INTRA>
5.33006

>  <SCORE.INTRA.DIHEDRAL>
15.3199

>  <SCORE.INTRA.DIHEDRAL.0>
7.52971

>  <SCORE.INTRA.POLAR>
0

>  <SCORE.INTRA.POLAR.0>
0

>  <SCORE.INTRA.REPUL>
0

>  <SCORE.INTRA.REPUL.0>
0

>  <SCORE.INTRA.SOLV>
0.543845

>  <SCORE.INTRA.SOLV.lig_0>
-22.1084

>  <SCORE.INTRA.VDW>
-2.60182

>  <SCORE.INTRA.VDW.0>
2.4256

>  <SCORE.INTRA.norm>
0.222086

>  <SCORE.RESTR>
0.0586601

>  <SCORE.RESTR.CAVITY>
0.0586601

>  <SCORE.RESTR.norm>
0.00244417

>  <SCORE.SYSTEM>
0

>  <SCORE.SYSTEM.CONST>
0

>  <SCORE.SYSTEM.DIHEDRAL>
0

>  <SCORE.SYSTEM.SOLV>
0

>  <SCORE.SYSTEM.norm>
0

>  <SCORE.heavy>
24

>  <SCORE.norm>
-0.395041

>  <RMSD>
7.568

$$$$
lig.pdb
 OpenBabel11021811453D
libRbt.so/2013.1/901 2013/11/27
 24 24  0  0  0  0  0  0  0  0999 V2000
    1.5864   -6.7476   -0.0113 C   0  0  0  0  0  0  0  0  0  0  0  0
    2.5115   -7.4776   -0.8312 C   0  0  0  0  0  0  0  0  0  0  0  0
    3.2116   -6.8716   -1.8475 C   0  0  0  0  0  0  0  0  0  0  0  0
    3.0634   -5.4775   -2.1367 C   0  0  0  0  0  0  0  0  0  0  0  0
    2.1144   -4.7572   -1.3391 C   0  0  0  0  0  0  0  0  0  0  0  0
    1.4089   -5.3629   -0.3295 C   0  0  0  0  0  0  0  0  0  0  0  0
    0.9100   -7.3323    1.0209 C   0  0  0  0  0  0  0  0  0  0  0  0
    0.9344   -8.6627    1.2502 N   0  0  0  0  0  0  0  0  0  0  0  0
    3.2353   -3.9984   -4.0052 N   0  0  0  0  0  0  0  0  0  0  0  0
    3.7795   -4.8584   -3.1183 C   0  0  0  0  0  0  0  0  0  0  0  0
    0.1634   -6.6172    1.8985 N   0  0  0  0  0  0  0  0  0  0  0  0
    5.1082   -5.0580   -3.2875 N   0  0  0  0  0  0  0  0  0  0  0  0
    0.0010   -6.8830    3.3265 C   0  0  0  0  0  0  0  0  0  0  0  0
    6.0335   -4.1609   -3.9727 C   0  0  0  0  0  0  0  0  0  0  0  0
    0.9240   -5.9243    4.0960 C   0  0  0  0  0  0  0  0  0  0  0  0
    6.3907   -3.0190   -3.0031 C   0  0  0  0  0  0  0  0  0  0  0  0
    0.8412   -6.1778    5.6076 C   0  0  0  0  0  0  0  0  0  0  0  0
    7.0298   -3.5264   -1.6978 C   0  0  0  0  0  0  0  0  0  0  0  0
   -0.5218   -5.7717    6.1067 N   0  0  0  0  0  0  0  0  0  0  0  0
    8.4373   -4.0170   -1.9249 N   0  0  0  0  0  0  0  0  0  0  0  0
   -0.6644   -4.2751    6.0492 C   0  0  0  0  0  0  0  0  0  0  0  0
    8.6750   -5.2273   -1.0624 C   0  0  0  0  0  0  0  0  0  0  0  0
   -0.7399   -6.2467    7.5219 C   0  0  0  0  0  0  0  0  0  0  0  0
    9.4643   -2.9709   -1.5918 C   0  0  0  0  0  0  0  0  0  0  0  0
  1  6  2  0  0  0  0
  2  3  2  0  0  0  0
  2  1  1  0  0  0  0
  3  4  1  0  0  0  0
  4 10  1  0  0  0  0
  4  5  2  0  0  0  0
  6  5  1  0  0  0  0
  7  1  1  0  0  0  0
  7 11  1  0  0  0  0
  8  7  2  0  0  0  0
  9 10  2  0  0  0  0
 10 12  1  0  0  0  0
 12 14  1  0  0  0  0
 13 11  1  0  0  0  0
 13 15  1  0  0  0  0
 14 16  1  0  0  0  0
 16 18  1  0  0  0  0
 17 15  1  0  0  0  0
 17 19  1  0  0  0  0
 18 20  1  0  0  0  0
 19 23  1  0  0  0  0
 20 22  1  0  0  0  0
 20 24  1  0  0  0  0
 21 19  1  0  0  0  0
M  END
>  <CHROM.1>
135.22550362,-8.08550661,79.37248384,100.40135447,-178.12689448,58.71314346
72.28030267,-68.20510266,-69.58616624,-142.45836103,3.10681128,-5.45576025
0.33674842,2.37126385,0.42660959,1.43539179

>  <Name>
lig.pdb

>  <RI>
3.30914e+07

>  <Rbt.Current_Directory>
/home/itssahil/PROJECTS/Mol_Feturizer/New_Systems/rnas/2l94

>  <Rbt.Executable>
rbdock ($Id: //depot/dev/client3/rdock/2013.1/src/exe/rbdock.cxx#4 $)

>  <Rbt.Library>
libRbt.so (2013.1, Build901 2013/11/27)

>  <Rbt.Parameter_File>
/export/apps/rDock/src/rDock_2013.1_src/data/scripts/dock_solv.prm

>  <Rbt.Receptor>
prm/blind_docking_80.prm

>  <SCORE>
-12.9371

>  <SCORE.INTER>
-14.6515

>  <SCORE.INTER.CONST>
1

>  <SCORE.INTER.POLAR>
-2.7166

>  <SCORE.INTER.ROT>
10

>  <SCORE.INTER.SOLV>
17.5457

>  <SCORE.INTER.VDW>
-16.8275

>  <SCORE.INTER.norm>
-0.610478

>  <SCORE.INTRA>
1.09024

>  <SCORE.INTRA.DIHEDRAL>
7.41178

>  <SCORE.INTRA.DIHEDRAL.0>
7.52971

>  <SCORE.INTRA.POLAR>
0

>  <SCORE.INTRA.POLAR.0>
0

>  <SCORE.INTRA.REPUL>
0

>  <SCORE.INTRA.REPUL.0>
0

>  <SCORE.INTRA.SOLV>
0.457105

>  <SCORE.INTRA.SOLV.lig_0>
-22.1084

>  <SCORE.INTRA.VDW>
-2.8442

>  <SCORE.INTRA.VDW.0>
2.4256

>  <SCORE.INTRA.norm>
0.0454268

>  <SCORE.RESTR>
0.624131

>  <SCORE.RESTR.CAVITY>
0.624131

>  <SCORE.RESTR.norm>
0.0260055

>  <SCORE.SYSTEM>
0

>  <SCORE.SYSTEM.CONST>
0

>  <SCORE.SYSTEM.DIHEDRAL>
0

>  <SCORE.SYSTEM.SOLV>
0

>  <SCORE.SYSTEM.norm>
0

>  <SCORE.heavy>
24

>  <SCORE.norm>
-0.539046

>  <RMSD>
7.575

$$$$
lig.pdb
 OpenBabel11021811453D
libRbt.so/2013.1/901 2013/11/27
 24 24  0  0  0  0  0  0  0  0999 V2000
    9.6278   -3.1985   -1.2349 C   0  0  0  0  0  0  0  0  0  0  0  0
    9.9678   -2.5416   -0.0045 C   0  0  0  0  0  0  0  0  0  0  0  0
   11.1648   -1.8852    0.1584 C   0  0  0  0  0  0  0  0  0  0  0  0
   12.1329   -1.8128   -0.8937 C   0  0  0  0  0  0  0  0  0  0  0  0
   11.8063   -2.4979   -2.1102 C   0  0  0  0  0  0  0  0  0  0  0  0
   10.6151   -3.1603   -2.2712 C   0  0  0  0  0  0  0  0  0  0  0  0
    8.4287   -3.8258   -1.4181 C   0  0  0  0  0  0  0  0  0  0  0  0
    7.7960   -4.4958   -0.4312 N   0  0  0  0  0  0  0  0  0  0  0  0
   14.3657   -1.3053   -1.5759 N   0  0  0  0  0  0  0  0  0  0  0  0
   13.3074   -1.1339   -0.7556 C   0  0  0  0  0  0  0  0  0  0  0  0
    7.7793   -3.8194   -2.6086 N   0  0  0  0  0  0  0  0  0  0  0  0
   13.5121   -0.2238    0.2262 N   0  0  0  0  0  0  0  0  0  0  0  0
    6.3332   -3.7676   -2.8144 C   0  0  0  0  0  0  0  0  0  0  0  0
   14.5042    0.8467    0.2149 C   0  0  0  0  0  0  0  0  0  0  0  0
    6.0633   -2.9436   -4.0837 C   0  0  0  0  0  0  0  0  0  0  0  0
   15.4058    0.6693    1.4508 C   0  0  0  0  0  0  0  0  0  0  0  0
    6.4403   -1.4707   -3.8724 C   0  0  0  0  0  0  0  0  0  0  0  0
   16.2287   -0.6309    1.4038 C   0  0  0  0  0  0  0  0  0  0  0  0
    6.1252   -0.6917   -5.1236 N   0  0  0  0  0  0  0  0  0  0  0  0
   17.3121   -0.6384    2.4524 N   0  0  0  0  0  0  0  0  0  0  0  0
    7.1615   -0.9722   -6.1776 C   0  0  0  0  0  0  0  0  0  0  0  0
   18.4032   -1.5795    2.0169 C   0  0  0  0  0  0  0  0  0  0  0  0
    6.0816    0.7892   -4.8386 C   0  0  0  0  0  0  0  0  0  0  0  0
   16.7989   -1.0747    3.7963 C   0  0  0  0  0  0  0  0  0  0  0  0
  1  6  2  0  0  0  0
  2  3  2  0  0  0  0
  2  1  1  0  0  0  0
  3  4  1  0  0  0  0
  4 10  1  0  0  0  0
  4  5  2  0  0  0  0
  6  5  1  0  0  0  0
  7  1  1  0  0  0  0
  7 11  1  0  0  0  0
  8  7  2  0  0  0  0
  9 10  2  0  0  0  0
 10 12  1  0  0  0  0
 12 14  1  0  0  0  0
 13 11  1  0  0  0  0
 13 15  1  0  0  0  0
 14 16  1  0  0  0  0
 16 18  1  0  0  0  0
 17 15  1  0  0  0  0
 17 19  1  0  0  0  0
 18 20  1  0  0  0  0
 19 23  1  0  0  0  0
 20 22  1  0  0  0  0
 20 24  1  0  0  0  0
 21 19  1  0  0  0  0
M  END
>  <CHROM.1>
163.39078264,-35.79110023,-122.39026439,145.29050284,-67.57202657,64.75996870
167.46260799,-178.42038928,-75.71877404,-156.25178692,11.16026734,-1.69311879
-1.19206171,2.93151733,-0.50237535,-0.67064028

>  <Name>
lig.pdb

>  <RI>
9.7521e+06

>  <Rbt.Current_Directory>
/home/itssahil/PROJECTS/Mol_Feturizer/New_Systems/rnas/2l94

>  <Rbt.Executable>
rbdock ($Id: //depot/dev/client3/rdock/2013.1/src/exe/rbdock.cxx#4 $)

>  <Rbt.Library>
libRbt.so (2013.1, Build901 2013/11/27)

>  <Rbt.Parameter_File>
/export/apps/rDock/src/rDock_2013.1_src/data/scripts/dock_solv.prm

>  <Rbt.Receptor>
prm/pocket_docking_7.prm

>  <SCORE>
-21.3253

>  <SCORE.INTER>
-21.4684

>  <SCORE.INTER.CONST>
1

>  <SCORE.INTER.POLAR>
-3.56312

>  <SCORE.INTER.ROT>
10

>  <SCORE.INTER.SOLV>
10.6151

>  <SCORE.INTER.VDW>
-16.2402

>  <SCORE.INTER.norm>
-0.894515

>  <SCORE.INTRA>
0.14312

>  <SCORE.INTRA.DIHEDRAL>
5.3376

>  <SCORE.INTRA.DIHEDRAL.0>
7.52971

>  <SCORE.INTRA.POLAR>
0

>  <SCORE.INTRA.POLAR.0>
0

>  <SCORE.INTRA.REPUL>
0

>  <SCORE.INTRA.REPUL.0>
0

>  <SCORE.INTRA.SOLV>
0.382295

>  <SCORE.INTRA.SOLV.lig_0>
-22.1084

>  <SCORE.INTRA.VDW>
-2.71683

>  <SCORE.INTRA.VDW.0>
2.4256

>  <SCORE.INTRA.norm>
0.00596333

>  <SCORE.RESTR>
0

>  <SCORE.RESTR.CAVITY>
0

>  <SCORE.RESTR.norm>
0

>  <SCORE.SYSTEM>
0

>  <SCORE.SYSTEM.CONST>
0

>  <SCORE.SYSTEM.DIHEDRAL>
0

>  <SCORE.SYSTEM.SOLV>
0

>  <SCORE.SYSTEM.norm>
0

>  <SCORE.heavy>
24

>  <SCORE.norm>
-0.888552

>  <RMSD>
7.577

$$$$
lig.pdb
 OpenBabel11021811453D
libRbt.so/2013.1/901 2013/11/27
 24 24  0  0  0  0  0  0  0  0999 V2000
    2.8864   -6.1605   -0.2702 C   0  0  0  0  0  0  0  0  0  0  0  0
    2.3634   -7.4069    0.2137 C   0  0  0  0  0  0  0  0  0  0  0  0
    1.6631   -7.4882    1.3939 C   0  0  0  0  0  0  0  0  0  0  0  0
    1.4088   -6.3324    2.1995 C   0  0  0  0  0  0  0  0  0  0  0  0
    1.9606   -5.0943    1.7322 C   0  0  0  0  0  0  0  0  0  0  0  0
    2.6669   -5.0134    0.5581 C   0  0  0  0  0  0  0  0  0  0  0  0
    3.5556   -6.0632   -1.4566 C   0  0  0  0  0  0  0  0  0  0  0  0
    3.3555   -6.9198   -2.4809 N   0  0  0  0  0  0  0  0  0  0  0  0
    0.5689   -7.5152    4.0980 N   0  0  0  0  0  0  0  0  0  0  0  0
    0.6844   -6.3953    3.3532 C   0  0  0  0  0  0  0  0  0  0  0  0
    4.4719   -5.0928   -1.6969 N   0  0  0  0  0  0  0  0  0  0  0  0
    0.0131   -5.3298    3.8512 N   0  0  0  0  0  0  0  0  0  0  0  0
    4.7154   -4.4176   -2.9701 C   0  0  0  0  0  0  0  0  0  0  0  0
   -0.4046   -5.1465    5.2378 C   0  0  0  0  0  0  0  0  0  0  0  0
    5.9094   -3.4676   -2.7831 C   0  0  0  0  0  0  0  0  0  0  0  0
   -1.9249   -4.9012    5.2454 C   0  0  0  0  0  0  0  0  0  0  0  0
    7.1793   -4.2478   -2.4164 C   0  0  0  0  0  0  0  0  0  0  0  0
   -2.4756   -4.6299    6.6572 C   0  0  0  0  0  0  0  0  0  0  0  0
    8.0156   -3.4224   -1.4725 N   0  0  0  0  0  0  0  0  0  0  0  0
   -1.9102   -3.3580    7.2368 N   0  0  0  0  0  0  0  0  0  0  0  0
    9.4216   -3.9563   -1.4317 C   0  0  0  0  0  0  0  0  0  0  0  0
   -0.7596   -3.7064    8.1425 C   0  0  0  0  0  0  0  0  0  0  0  0
    7.4291   -3.4354   -0.0826 C   0  0  0  0  0  0  0  0  0  0  0  0
   -2.9342   -2.5875    8.0228 C   0  0  0  0  0  0  0  0  0  0  0  0
  1  6  2  0  0  0  0
  2  3  2  0  0  0  0
  2  1  1  0  0  0  0
  3  4  1  0  0  0  0
  4 10  1  0  0  0  0
  4  5  2  0  0  0  0
  6  5  1  0  0  0  0
  7  1  1  0  0  0  0
  7 11  1  0  0  0  0
  8  7  2  0  0  0  0
  9 10  2  0  0  0  0
 10 12  1  0  0  0  0
 12 14  1  0  0  0  0
 13 11  1  0  0  0  0
 13 15  1  0  0  0  0
 14 16  1  0  0  0  0
 16 18  1  0  0  0  0
 17 15  1  0  0  0  0
 17 19  1  0  0  0  0
 18 20  1  0  0  0  0
 19 23  1  0  0  0  0
 20 22  1  0  0  0  0
 20 24  1  0  0  0  0
 21 19  1  0  0  0  0
M  END
>  <CHROM.1>
25.47942646,26.31172546,-124.50712673,-176.11502911,62.10611671,-177.44119622
64.05111631,-145.61997113,-162.75809027,-97.77984903,2.42981161,-5.03831668
1.74253776,0.59447030,-0.59158584,-2.27033150

>  <Name>
lig.pdb

>  <RI>
2.41306e+07

>  <Rbt.Current_Directory>
/home/itssahil/PROJECTS/Mol_Feturizer/New_Systems/rnas/2l94

>  <Rbt.Executable>
rbdock ($Id: //depot/dev/client3/rdock/2013.1/src/exe/rbdock.cxx#4 $)

>  <Rbt.Library>
libRbt.so (2013.1, Build901 2013/11/27)

>  <Rbt.Parameter_File>
/export/apps/rDock/src/rDock_2013.1_src/data/scripts/dock_solv.prm

>  <Rbt.Receptor>
prm/blind_docking_40.prm

>  <SCORE>
0.777147

>  <SCORE.INTER>
-2.20963

>  <SCORE.INTER.CONST>
1

>  <SCORE.INTER.POLAR>
-0.513569

>  <SCORE.INTER.ROT>
10

>  <SCORE.INTER.SOLV>
16.7362

>  <SCORE.INTER.VDW>
-15.6066

>  <SCORE.INTER.norm>
-0.0920679

>  <SCORE.INTRA>
2.42223

>  <SCORE.INTRA.DIHEDRAL>
8.864

>  <SCORE.INTRA.DIHEDRAL.0>
7.52971

>  <SCORE.INTRA.POLAR>
0

>  <SCORE.INTRA.POLAR.0>
0

>  <SCORE.INTRA.REPUL>
0

>  <SCORE.INTRA.REPUL.0>
0

>  <SCORE.INTRA.SOLV>
0.246621

>  <SCORE.INTRA.SOLV.lig_0>
-22.1084

>  <SCORE.INTRA.VDW>
-2.13308

>  <SCORE.INTRA.VDW.0>
2.4256

>  <SCORE.INTRA.norm>
0.100926

>  <SCORE.RESTR>
0.564549

>  <SCORE.RESTR.CAVITY>
0.564549

>  <SCORE.RESTR.norm>
0.0235229

>  <SCORE.SYSTEM>
0

>  <SCORE.SYSTEM.CONST>
0

>  <SCORE.SYSTEM.DIHEDRAL>
0

>  <SCORE.SYSTEM.SOLV>
0

>  <SCORE.SYSTEM.norm>
0

>  <SCORE.heavy>
24

>  <SCORE.norm>
0.0323811

>  <RMSD>
7.583

$$$$
lig.pdb
 OpenBabel11021811453D
libRbt.so/2013.1/901 2013/11/27
 24 24  0  0  0  0  0  0  0  0999 V2000
    2.7049   -5.6023   -2.5017 C   0  0  0  0  0  0  0  0  0  0  0  0
    3.3617   -5.7195   -1.2306 C   0  0  0  0  0  0  0  0  0  0  0  0
    2.6665   -6.0124   -0.0812 C   0  0  0  0  0  0  0  0  0  0  0  0
    1.2510   -6.2263   -0.0915 C   0  0  0  0  0  0  0  0  0  0  0  0
    0.5916   -6.0756   -1.3557 C   0  0  0  0  0  0  0  0  0  0  0  0
    1.2835   -5.7753   -2.5024 C   0  0  0  0  0  0  0  0  0  0  0  0
    3.3901   -5.3432   -3.6542 C   0  0  0  0  0  0  0  0  0  0  0  0
    2.7753   -5.0461   -4.8190 N   0  0  0  0  0  0  0  0  0  0  0  0
   -0.6787   -7.0963    1.0164 N   0  0  0  0  0  0  0  0  0  0  0  0
    0.5568   -6.5530    1.0359 C   0  0  0  0  0  0  0  0  0  0  0  0
    4.7448   -5.3612   -3.7141 N   0  0  0  0  0  0  0  0  0  0  0  0
    1.0534   -6.3562    2.2803 N   0  0  0  0  0  0  0  0  0  0  0  0
    5.5949   -4.4886   -4.5216 C   0  0  0  0  0  0  0  0  0  0  0  0
    0.6273   -7.0425    3.4960 C   0  0  0  0  0  0  0  0  0  0  0  0
    6.3675   -3.5632   -3.5678 C   0  0  0  0  0  0  0  0  0  0  0  0
   -0.2023   -6.0510    4.3330 C   0  0  0  0  0  0  0  0  0  0  0  0
    7.2882   -4.3724   -2.6439 C   0  0  0  0  0  0  0  0  0  0  0  0
    0.0951   -6.1520    5.8401 C   0  0  0  0  0  0  0  0  0  0  0  0
    7.7594   -3.4918   -1.5150 N   0  0  0  0  0  0  0  0  0  0  0  0
   -1.0162   -5.5533    6.6648 N   0  0  0  0  0  0  0  0  0  0  0  0
    9.0596   -4.0129   -0.9661 C   0  0  0  0  0  0  0  0  0  0  0  0
   -0.8527   -4.0572    6.6871 C   0  0  0  0  0  0  0  0  0  0  0  0
    6.7314   -3.4348   -0.4123 C   0  0  0  0  0  0  0  0  0  0  0  0
   -1.0141   -6.0656    8.0781 C   0  0  0  0  0  0  0  0  0  0  0  0
  1  6  2  0  0  0  0
  2  3  2  0  0  0  0
  2  1  1  0  0  0  0
  3  4  1  0  0  0  0
  4 10  1  0  0  0  0
  4  5  2  0  0  0  0
  6  5  1  0  0  0  0
  7  1  1  0  0  0  0
  7 11  1  0  0  0  0
  8  7  2  0  0  0  0
  9 10  2  0  0  0  0
 10 12  1  0  0  0  0
 12 14  1  0  0  0  0
 13 11  1  0  0  0  0
 13 15  1  0  0  0  0
 14 16  1  0  0  0  0
 16 18  1  0  0  0  0
 17 15  1  0  0  0  0
 17 19  1  0  0  0  0
 18 20  1  0  0  0  0
 19 23  1  0  0  0  0
 20 22  1  0  0  0  0
 20 24  1  0  0  0  0
 21 19  1  0  0  0  0
M  END
>  <CHROM.1>
-162.00395550,-170.48161347,-106.18969766,111.70407050,62.59271518,-139.87402796
-160.36245719,-166.04085619,-155.58466270,-80.31124215,2.69042963,-5.36700678
0.31608164,0.88340053,-0.35853869,-1.68036623

>  <Name>
lig.pdb

>  <RI>
3.30914e+07

>  <Rbt.Current_Directory>
/home/itssahil/PROJECTS/Mol_Feturizer/New_Systems/rnas/2l94

>  <Rbt.Executable>
rbdock ($Id: //depot/dev/client3/rdock/2013.1/src/exe/rbdock.cxx#4 $)

>  <Rbt.Library>
libRbt.so (2013.1, Build901 2013/11/27)

>  <Rbt.Parameter_File>
/export/apps/rDock/src/rDock_2013.1_src/data/scripts/dock_solv.prm

>  <Rbt.Receptor>
prm/blind_docking_80.prm

>  <SCORE>
-6.79989

>  <SCORE.INTER>
-7.59112

>  <SCORE.INTER.CONST>
1

>  <SCORE.INTER.POLAR>
-1.12989

>  <SCORE.INTER.ROT>
10

>  <SCORE.INTER.SOLV>
16.3458

>  <SCORE.INTER.VDW>
-17.0097

>  <SCORE.INTER.norm>
-0.316297

>  <SCORE.INTRA>
0.787013

>  <SCORE.INTRA.DIHEDRAL>
7.26149

>  <SCORE.INTRA.DIHEDRAL.0>
7.52971

>  <SCORE.INTRA.POLAR>
0

>  <SCORE.INTRA.POLAR.0>
0

>  <SCORE.INTRA.REPUL>
0

>  <SCORE.INTRA.REPUL.0>
0

>  <SCORE.INTRA.SOLV>
0.18302

>  <SCORE.INTRA.SOLV.lig_0>
-22.1084

>  <SCORE.INTRA.VDW>
-2.93524

>  <SCORE.INTRA.VDW.0>
2.4256

>  <SCORE.INTRA.norm>
0.0327922

>  <SCORE.RESTR>
0.00421897

>  <SCORE.RESTR.CAVITY>
0.00421897

>  <SCORE.RESTR.norm>
0.000175791

>  <SCORE.SYSTEM>
0

>  <SCORE.SYSTEM.CONST>
0

>  <SCORE.SYSTEM.DIHEDRAL>
0

>  <SCORE.SYSTEM.SOLV>
0

>  <SCORE.SYSTEM.norm>
0

>  <SCORE.heavy>
24

>  <SCORE.norm>
-0.283329

>  <RMSD>
7.586

$$$$
lig.pdb
 OpenBabel11021811453D
libRbt.so/2013.1/901 2013/11/27
 24 24  0  0  0  0  0  0  0  0999 V2000
    2.9455   -5.5655   -2.4709 C   0  0  0  0  0  0  0  0  0  0  0  0
    1.5113   -5.5878   -2.5300 C   0  0  0  0  0  0  0  0  0  0  0  0
    0.7495   -5.9972   -1.4613 C   0  0  0  0  0  0  0  0  0  0  0  0
    1.3450   -6.4140   -0.2280 C   0  0  0  0  0  0  0  0  0  0  0  0
    2.7781   -6.4232   -0.1820 C   0  0  0  0  0  0  0  0  0  0  0  0
    3.5398   -6.0224   -1.2510 C   0  0  0  0  0  0  0  0  0  0  0  0
    3.7105   -5.1305   -3.5151 C   0  0  0  0  0  0  0  0  0  0  0  0
    3.1819   -4.5798   -4.6288 N   0  0  0  0  0  0  0  0  0  0  0  0
   -0.7374   -6.9749    0.8003 N   0  0  0  0  0  0  0  0  0  0  0  0
    0.5985   -6.7874    0.8504 C   0  0  0  0  0  0  0  0  0  0  0  0
    5.0639   -5.2159   -3.5099 N   0  0  0  0  0  0  0  0  0  0  0  0
    1.1402   -7.0014    2.0730 N   0  0  0  0  0  0  0  0  0  0  0  0
    6.0019   -4.2558   -4.0883 C   0  0  0  0  0  0  0  0  0  0  0  0
    0.5568   -7.8016    3.1453 C   0  0  0  0  0  0  0  0  0  0  0  0
    6.6011   -3.4269   -2.9408 C   0  0  0  0  0  0  0  0  0  0  0  0
    0.5301   -6.9374    4.4197 C   0  0  0  0  0  0  0  0  0  0  0  0
    7.6563   -4.2349   -2.1729 C   0  0  0  0  0  0  0  0  0  0  0  0
   -0.8126   -7.0237    5.1677 C   0  0  0  0  0  0  0  0  0  0  0  0
    8.0918   -3.4570   -0.9576 N   0  0  0  0  0  0  0  0  0  0  0  0
   -1.8809   -6.2089    4.4831 N   0  0  0  0  0  0  0  0  0  0  0  0
    9.4783   -3.8754   -0.5501 C   0  0  0  0  0  0  0  0  0  0  0  0
   -2.1776   -4.9947    5.3215 C   0  0  0  0  0  0  0  0  0  0  0  0
    7.1390   -3.6764    0.1914 C   0  0  0  0  0  0  0  0  0  0  0  0
   -3.1511   -6.9885    4.2862 C   0  0  0  0  0  0  0  0  0  0  0  0
  1  6  2  0  0  0  0
  2  3  2  0  0  0  0
  2  1  1  0  0  0  0
  3  4  1  0  0  0  0
  4 10  1  0  0  0  0
  4  5  2  0  0  0  0
  6  5  1  0  0  0  0
  7  1  1  0  0  0  0
  7 11  1  0  0  0  0
  8  7  2  0  0  0  0
  9 10  2  0  0  0  0
 10 12  1  0  0  0  0
 12 14  1  0  0  0  0
 13 11  1  0  0  0  0
 13 15  1  0  0  0  0
 14 16  1  0  0  0  0
 16 18  1  0  0  0  0
 17 15  1  0  0  0  0
 17 19  1  0  0  0  0
 18 20  1  0  0  0  0
 19 23  1  0  0  0  0
 20 22  1  0  0  0  0
 20 24  1  0  0  0  0
 21 19  1  0  0  0  0
M  END
>  <CHROM.1>
9.43761845,6.09790647,-127.73007242,103.14036960,76.11821208,134.71813282
-76.40397338,-172.91904944,-154.79271434,-108.47123007,2.66999500,-5.58201951
0.06577864,0.66461665,-0.29771405,-1.55781650

>  <Name>
lig.pdb

>  <RI>
3.93418e+07

>  <Rbt.Current_Directory>
/home/itssahil/PROJECTS/Mol_Feturizer/New_Systems/rnas/2l94

>  <Rbt.Executable>
rbdock ($Id: //depot/dev/client3/rdock/2013.1/src/exe/rbdock.cxx#4 $)

>  <Rbt.Library>
libRbt.so (2013.1, Build901 2013/11/27)

>  <Rbt.Parameter_File>
/export/apps/rDock/src/rDock_2013.1_src/data/scripts/dock_solv.prm

>  <Rbt.Receptor>
prm/blind_docking_20.prm

>  <SCORE>
-14.4046

>  <SCORE.INTER>
-16.0996

>  <SCORE.INTER.CONST>
1

>  <SCORE.INTER.POLAR>
-2.6942

>  <SCORE.INTER.ROT>
10

>  <SCORE.INTER.SOLV>
17.9211

>  <SCORE.INTER.VDW>
-17.9927

>  <SCORE.INTER.norm>
-0.670815

>  <SCORE.INTRA>
1.37137

>  <SCORE.INTRA.DIHEDRAL>
9.19707

>  <SCORE.INTRA.DIHEDRAL.0>
7.52971

>  <SCORE.INTRA.POLAR>
0

>  <SCORE.INTRA.POLAR.0>
0

>  <SCORE.INTRA.REPUL>
0.0322953

>  <SCORE.INTRA.REPUL.0>
0

>  <SCORE.INTRA.SOLV>
0.655031

>  <SCORE.INTRA.SOLV.lig_0>
-22.1084

>  <SCORE.INTRA.VDW>
-3.71616

>  <SCORE.INTRA.VDW.0>
2.4256

>  <SCORE.INTRA.norm>
0.0571403

>  <SCORE.RESTR>
0.323572

>  <SCORE.RESTR.CAVITY>
0.323572

>  <SCORE.RESTR.norm>
0.0134822

>  <SCORE.SYSTEM>
0

>  <SCORE.SYSTEM.CONST>
0

>  <SCORE.SYSTEM.DIHEDRAL>
0

>  <SCORE.SYSTEM.SOLV>
0

>  <SCORE.SYSTEM.norm>
0

>  <SCORE.heavy>
24

>  <SCORE.norm>
-0.600193

>  <RMSD>
7.601

$$$$
lig.pdb
 OpenBabel11021811453D
libRbt.so/2013.1/901 2013/11/27
 24 24  0  0  0  0  0  0  0  0999 V2000
    1.0495   -6.2940   -0.3094 C   0  0  0  0  0  0  0  0  0  0  0  0
    2.4513   -6.0554   -0.1120 C   0  0  0  0  0  0  0  0  0  0  0  0
    3.2898   -5.7607   -1.1610 C   0  0  0  0  0  0  0  0  0  0  0  0
    2.8083   -5.6660   -2.5058 C   0  0  0  0  0  0  0  0  0  0  0  0
    1.4147   -5.9376   -2.7058 C   0  0  0  0  0  0  0  0  0  0  0  0
    0.5784   -6.2398   -1.6604 C   0  0  0  0  0  0  0  0  0  0  0  0
    0.2023   -6.5559    0.7291 C   0  0  0  0  0  0  0  0  0  0  0  0
   -0.9814   -7.1847    0.5659 N   0  0  0  0  0  0  0  0  0  0  0  0
    3.1693   -4.8510   -4.7225 N   0  0  0  0  0  0  0  0  0  0  0  0
    3.6237   -5.3387   -3.5487 C   0  0  0  0  0  0  0  0  0  0  0  0
    0.4895   -6.2064    2.0075 N   0  0  0  0  0  0  0  0  0  0  0  0
    4.9696   -5.4786   -3.4934 N   0  0  0  0  0  0  0  0  0  0  0  0
    0.1488   -6.9556    3.2154 C   0  0  0  0  0  0  0  0  0  0  0  0
    5.9432   -4.7780   -4.3251 C   0  0  0  0  0  0  0  0  0  0  0  0
    0.1558   -5.9758    4.3998 C   0  0  0  0  0  0  0  0  0  0  0  0
    6.3241   -3.4697   -3.6074 C   0  0  0  0  0  0  0  0  0  0  0  0
   -0.3595   -6.6543    5.6765 C   0  0  0  0  0  0  0  0  0  0  0  0
    6.8013   -3.7024   -2.1624 C   0  0  0  0  0  0  0  0  0  0  0  0
   -0.3828   -5.6495    6.7998 N   0  0  0  0  0  0  0  0  0  0  0  0
    8.2930   -3.9130   -2.0993 N   0  0  0  0  0  0  0  0  0  0  0  0
   -0.5541   -6.3560    8.1169 C   0  0  0  0  0  0  0  0  0  0  0  0
    8.5913   -4.9694   -1.0695 C   0  0  0  0  0  0  0  0  0  0  0  0
   -1.5018   -4.6558    6.6094 C   0  0  0  0  0  0  0  0  0  0  0  0
    9.0295   -2.6542   -1.7346 C   0  0  0  0  0  0  0  0  0  0  0  0
  1  6  2  0  0  0  0
  2  3  2  0  0  0  0
  2  1  1  0  0  0  0
  3  4  1  0  0  0  0
  4 10  1  0  0  0  0
  4  5  2  0  0  0  0
  6  5  1  0  0  0  0
  7  1  1  0  0  0  0
  7 11  1  0  0  0  0
  8  7  2  0  0  0  0
  9 10  2  0  0  0  0
 10 12  1  0  0  0  0
 12 14  1  0  0  0  0
 13 11  1  0  0  0  0
 13 15  1  0  0  0  0
 14 16  1  0  0  0  0
 16 18  1  0  0  0  0
 17 15  1  0  0  0  0
 17 19  1  0  0  0  0
 18 20  1  0  0  0  0
 19 23  1  0  0  0  0
 20 22  1  0  0  0  0
 20 24  1  0  0  0  0
 21 19  1  0  0  0  0
M  END
>  <CHROM.1>
-159.26282426,-158.40760071,89.69427425,-157.98902158,173.09442319,53.74866574
90.26904705,-178.02312131,-166.12867255,-141.73046818,2.76461513,-5.44686259
0.18875480,2.30023027,0.33990830,1.48901539

>  <Name>
lig.pdb

>  <RI>
3.30914e+07

>  <Rbt.Current_Directory>
/home/itssahil/PROJECTS/Mol_Feturizer/New_Systems/rnas/2l94

>  <Rbt.Executable>
rbdock ($Id: //depot/dev/client3/rdock/2013.1/src/exe/rbdock.cxx#4 $)

>  <Rbt.Library>
libRbt.so (2013.1, Build901 2013/11/27)

>  <Rbt.Parameter_File>
/export/apps/rDock/src/rDock_2013.1_src/data/scripts/dock_solv.prm

>  <Rbt.Receptor>
prm/blind_docking_80.prm

>  <SCORE>
-15.3935

>  <SCORE.INTER>
-17.014

>  <SCORE.INTER.CONST>
1

>  <SCORE.INTER.POLAR>
-2.85833

>  <SCORE.INTER.ROT>
10

>  <SCORE.INTER.SOLV>
17.7047

>  <SCORE.INTER.VDW>
-17.9831

>  <SCORE.INTER.norm>
-0.708917

>  <SCORE.INTRA>
0.821224

>  <SCORE.INTRA.DIHEDRAL>
6.70606

>  <SCORE.INTRA.DIHEDRAL.0>
7.52971

>  <SCORE.INTRA.POLAR>
0

>  <SCORE.INTRA.POLAR.0>
0

>  <SCORE.INTRA.REPUL>
0

>  <SCORE.INTRA.REPUL.0>
0

>  <SCORE.INTRA.SOLV>
0.213202

>  <SCORE.INTRA.SOLV.lig_0>
-22.1084

>  <SCORE.INTRA.VDW>
-2.63841

>  <SCORE.INTRA.VDW.0>
2.4256

>  <SCORE.INTRA.norm>
0.0342177

>  <SCORE.RESTR>
0.799241

>  <SCORE.RESTR.CAVITY>
0.799241

>  <SCORE.RESTR.norm>
0.0333017

>  <SCORE.SYSTEM>
0

>  <SCORE.SYSTEM.CONST>
0

>  <SCORE.SYSTEM.DIHEDRAL>
0

>  <SCORE.SYSTEM.SOLV>
0

>  <SCORE.SYSTEM.norm>
0

>  <SCORE.heavy>
24

>  <SCORE.norm>
-0.641398

>  <RMSD>
7.604

$$$$
lig.pdb
 OpenBabel11021811453D
libRbt.so/2013.1/901 2013/11/27
 24 24  0  0  0  0  0  0  0  0999 V2000
    1.5799   -6.6453    0.7346 C   0  0  0  0  0  0  0  0  0  0  0  0
    2.6306   -7.2420   -0.0406 C   0  0  0  0  0  0  0  0  0  0  0  0
    3.1853   -6.6004   -1.1226 C   0  0  0  0  0  0  0  0  0  0  0  0
    2.7518   -5.2979   -1.5290 C   0  0  0  0  0  0  0  0  0  0  0  0
    1.6794   -4.7177   -0.7746 C   0  0  0  0  0  0  0  0  0  0  0  0
    1.1194   -5.3607    0.3009 C   0  0  0  0  0  0  0  0  0  0  0  0
    1.0441   -7.2600    1.8300 C   0  0  0  0  0  0  0  0  0  0  0  0
    1.3757   -8.5159    2.1986 N   0  0  0  0  0  0  0  0  0  0  0  0
    2.9222   -3.4140   -2.9884 N   0  0  0  0  0  0  0  0  0  0  0  0
    3.3195   -4.6371   -2.5780 C   0  0  0  0  0  0  0  0  0  0  0  0
    0.1385   -6.6511    2.6350 N   0  0  0  0  0  0  0  0  0  0  0  0
    4.3374   -5.1586   -3.3031 N   0  0  0  0  0  0  0  0  0  0  0  0
    0.0222   -6.7955    4.0848 C   0  0  0  0  0  0  0  0  0  0  0  0
    5.2873   -4.4077   -4.1182 C   0  0  0  0  0  0  0  0  0  0  0  0
   -0.7130   -5.5595    4.6277 C   0  0  0  0  0  0  0  0  0  0  0  0
    6.6115   -4.3156   -3.3373 C   0  0  0  0  0  0  0  0  0  0  0  0
   -0.8428   -5.6253    6.1558 C   0  0  0  0  0  0  0  0  0  0  0  0
    6.4454   -3.6393   -1.9644 C   0  0  0  0  0  0  0  0  0  0  0  0
   -1.6520   -4.4486    6.6378 N   0  0  0  0  0  0  0  0  0  0  0  0
    7.3594   -4.2501   -0.9324 N   0  0  0  0  0  0  0  0  0  0  0  0
   -0.7903   -3.2161    6.6803 C   0  0  0  0  0  0  0  0  0  0  0  0
    6.9825   -3.7199    0.4250 C   0  0  0  0  0  0  0  0  0  0  0  0
   -2.2231   -4.7140    8.0087 C   0  0  0  0  0  0  0  0  0  0  0  0
    8.8053   -3.9338   -1.1957 C   0  0  0  0  0  0  0  0  0  0  0  0
  1  6  2  0  0  0  0
  2  3  2  0  0  0  0
  2  1  1  0  0  0  0
  3  4  1  0  0  0  0
  4 10  1  0  0  0  0
  4  5  2  0  0  0  0
  6  5  1  0  0  0  0
  7  1  1  0  0  0  0
  7 11  1  0  0  0  0
  8  7  2  0  0  0  0
  9 10  2  0  0  0  0
 10 12  1  0  0  0  0
 12 14  1  0  0  0  0
 13 11  1  0  0  0  0
 13 15  1  0  0  0  0
 14 16  1  0  0  0  0
 16 18  1  0  0  0  0
 17 15  1  0  0  0  0
 17 19  1  0  0  0  0
 18 20  1  0  0  0  0
 19 23  1  0  0  0  0
 20 22  1  0  0  0  0
 20 24  1  0  0  0  0
 21 19  1  0  0  0  0
M  END
>  <CHROM.1>
179.42650183,-5.89282449,102.82379459,157.68616259,-178.63507307,-58.35451449
144.93548714,-176.02125314,-79.07412174,-170.18462347,2.56957208,-5.22407967
0.91434080,2.40157987,0.51314961,1.19747078

>  <Name>
lig.pdb

>  <RI>
2.41306e+07

>  <Rbt.Current_Directory>
/home/itssahil/PROJECTS/Mol_Feturizer/New_Systems/rnas/2l94

>  <Rbt.Executable>
rbdock ($Id: //depot/dev/client3/rdock/2013.1/src/exe/rbdock.cxx#4 $)

>  <Rbt.Library>
libRbt.so (2013.1, Build901 2013/11/27)

>  <Rbt.Parameter_File>
/export/apps/rDock/src/rDock_2013.1_src/data/scripts/dock_solv.prm

>  <Rbt.Receptor>
prm/blind_docking_40.prm

>  <SCORE>
-11.9246

>  <SCORE.INTER>
-12.0025

>  <SCORE.INTER.CONST>
1

>  <SCORE.INTER.POLAR>
-1.84484

>  <SCORE.INTER.ROT>
10

>  <SCORE.INTER.SOLV>
17.3178

>  <SCORE.INTER.VDW>
-17.8915

>  <SCORE.INTER.norm>
-0.500104

>  <SCORE.INTRA>
-0.793395

>  <SCORE.INTRA.DIHEDRAL>
2.05259

>  <SCORE.INTRA.DIHEDRAL.0>
7.52971

>  <SCORE.INTRA.POLAR>
0

>  <SCORE.INTRA.POLAR.0>
0

>  <SCORE.INTRA.REPUL>
0

>  <SCORE.INTRA.REPUL.0>
0

>  <SCORE.INTRA.SOLV>
0.270716

>  <SCORE.INTRA.SOLV.lig_0>
-22.1084

>  <SCORE.INTRA.VDW>
-1.95505

>  <SCORE.INTRA.VDW.0>
2.4256

>  <SCORE.INTRA.norm>
-0.0330581

>  <SCORE.RESTR>
0.87125

>  <SCORE.RESTR.CAVITY>
0.87125

>  <SCORE.RESTR.norm>
0.0363021

>  <SCORE.SYSTEM>
0

>  <SCORE.SYSTEM.CONST>
0

>  <SCORE.SYSTEM.DIHEDRAL>
0

>  <SCORE.SYSTEM.SOLV>
0

>  <SCORE.SYSTEM.norm>
0

>  <SCORE.heavy>
24

>  <SCORE.norm>
-0.49686

>  <RMSD>
7.607

$$$$
lig.pdb
 OpenBabel11021811453D
libRbt.so/2013.1/901 2013/11/27
 24 24  0  0  0  0  0  0  0  0999 V2000
    1.1574   -7.0980    0.4147 C   0  0  0  0  0  0  0  0  0  0  0  0
    1.6804   -7.5434   -0.8459 C   0  0  0  0  0  0  0  0  0  0  0  0
    2.4005   -6.7077   -1.6664 C   0  0  0  0  0  0  0  0  0  0  0  0
    2.6763   -5.3507   -1.3035 C   0  0  0  0  0  0  0  0  0  0  0  0
    2.1247   -4.8975   -0.0600 C   0  0  0  0  0  0  0  0  0  0  0  0
    1.3988   -5.7286    0.7561 C   0  0  0  0  0  0  0  0  0  0  0  0
    0.4684   -7.9286    1.2515 C   0  0  0  0  0  0  0  0  0  0  0  0
    0.4149   -9.2659    1.0728 N   0  0  0  0  0  0  0  0  0  0  0  0
    2.9973   -3.3091   -2.5023 N   0  0  0  0  0  0  0  0  0  0  0  0
    3.4201   -4.5238   -2.0926 C   0  0  0  0  0  0  0  0  0  0  0  0
   -0.2129   -7.4710    2.3311 N   0  0  0  0  0  0  0  0  0  0  0  0
    4.6556   -4.8565   -2.5361 N   0  0  0  0  0  0  0  0  0  0  0  0
   -0.3604   -8.1438    3.6202 C   0  0  0  0  0  0  0  0  0  0  0  0
    5.6882   -3.9279   -2.9857 C   0  0  0  0  0  0  0  0  0  0  0  0
   -1.4017   -7.3690    4.4438 C   0  0  0  0  0  0  0  0  0  0  0  0
    7.0176   -4.3449   -2.3297 C   0  0  0  0  0  0  0  0  0  0  0  0
   -0.7269   -6.3052    5.3207 C   0  0  0  0  0  0  0  0  0  0  0  0
    8.1254   -3.2914   -2.5109 C   0  0  0  0  0  0  0  0  0  0  0  0
   -1.2012   -4.9381    4.8988 N   0  0  0  0  0  0  0  0  0  0  0  0
    9.4640   -3.8112   -2.0511 N   0  0  0  0  0  0  0  0  0  0  0  0
   -0.3490   -3.8781    5.5418 C   0  0  0  0  0  0  0  0  0  0  0  0
    9.4588   -3.9047   -0.5489 C   0  0  0  0  0  0  0  0  0  0  0  0
   -2.6451   -4.7278    5.2821 C   0  0  0  0  0  0  0  0  0  0  0  0
   10.5970   -2.9215   -2.4809 C   0  0  0  0  0  0  0  0  0  0  0  0
  1  6  2  0  0  0  0
  2  3  2  0  0  0  0
  2  1  1  0  0  0  0
  3  4  1  0  0  0  0
  4 10  1  0  0  0  0
  4  5  2  0  0  0  0
  6  5  1  0  0  0  0
  7  1  1  0  0  0  0
  7 11  1  0  0  0  0
  8  7  2  0  0  0  0
  9 10  2  0  0  0  0
 10 12  1  0  0  0  0
 12 14  1  0  0  0  0
 13 11  1  0  0  0  0
 13 15  1  0  0  0  0
 14 16  1  0  0  0  0
 16 18  1  0  0  0  0
 17 15  1  0  0  0  0
 17 19  1  0  0  0  0
 18 20  1  0  0  0  0
 19 23  1  0  0  0  0
 20 22  1  0  0  0  0
 20 24  1  0  0  0  0
 21 19  1  0  0  0  0
M  END
>  <CHROM.1>
126.71437344,11.26144385,133.95650111,-170.57475992,-91.93740609,-169.10533508
-171.17819861,117.15005669,-168.31277647,-71.39009124,2.82497456,-5.47425441
0.49178123,2.77040875,0.55464774,1.03984510

>  <Name>
lig.pdb

>  <RI>
3.93418e+07

>  <Rbt.Current_Directory>
/home/itssahil/PROJECTS/Mol_Feturizer/New_Systems/rnas/2l94

>  <Rbt.Executable>
rbdock ($Id: //depot/dev/client3/rdock/2013.1/src/exe/rbdock.cxx#4 $)

>  <Rbt.Library>
libRbt.so (2013.1, Build901 2013/11/27)

>  <Rbt.Parameter_File>
/export/apps/rDock/src/rDock_2013.1_src/data/scripts/dock_solv.prm

>  <Rbt.Receptor>
prm/blind_docking_20.prm

>  <SCORE>
-2.17204

>  <SCORE.INTER>
-10.0954

>  <SCORE.INTER.CONST>
1

>  <SCORE.INTER.POLAR>
-2.29573

>  <SCORE.INTER.ROT>
10

>  <SCORE.INTER.SOLV>
14.5174

>  <SCORE.INTER.VDW>
-14.1837

>  <SCORE.INTER.norm>
-0.420643

>  <SCORE.INTRA>
6.14433

>  <SCORE.INTRA.DIHEDRAL>
15.8441

>  <SCORE.INTRA.DIHEDRAL.0>
7.52971

>  <SCORE.INTRA.POLAR>
0

>  <SCORE.INTRA.POLAR.0>
0

>  <SCORE.INTRA.REPUL>
0.0444483

>  <SCORE.INTRA.REPUL.0>
0

>  <SCORE.INTRA.SOLV>
-0.0294422

>  <SCORE.INTRA.SOLV.lig_0>
-22.1084

>  <SCORE.INTRA.VDW>
-1.98522

>  <SCORE.INTRA.VDW.0>
2.4256

>  <SCORE.INTRA.norm>
0.256014

>  <SCORE.RESTR>
1.77906

>  <SCORE.RESTR.CAVITY>
1.77906

>  <SCORE.RESTR.norm>
0.0741274

>  <SCORE.SYSTEM>
0

>  <SCORE.SYSTEM.CONST>
0

>  <SCORE.SYSTEM.DIHEDRAL>
0

>  <SCORE.SYSTEM.SOLV>
0

>  <SCORE.SYSTEM.norm>
0

>  <SCORE.heavy>
24

>  <SCORE.norm>
-0.0905017

>  <RMSD>
7.624

$$$$
lig.pdb
 OpenBabel11021811453D
libRbt.so/2013.1/901 2013/11/27
 24 24  0  0  0  0  0  0  0  0999 V2000
   13.0888   -0.0053   -2.9635 C   0  0  0  0  0  0  0  0  0  0  0  0
   11.7550    0.3526   -3.3557 C   0  0  0  0  0  0  0  0  0  0  0  0
   10.6782   -0.4567   -3.0803 C   0  0  0  0  0  0  0  0  0  0  0  0
   10.8276   -1.6956   -2.3787 C   0  0  0  0  0  0  0  0  0  0  0  0
   12.1643   -2.0677   -2.0175 C   0  0  0  0  0  0  0  0  0  0  0  0
   13.2410   -1.2644   -2.2990 C   0  0  0  0  0  0  0  0  0  0  0  0
   14.1607    0.8060   -3.2037 C   0  0  0  0  0  0  0  0  0  0  0  0
   14.0415    2.0265   -3.7689 N   0  0  0  0  0  0  0  0  0  0  0  0
    9.8799   -3.6812   -1.4472 N   0  0  0  0  0  0  0  0  0  0  0  0
    9.7624   -2.4885   -2.0683 C   0  0  0  0  0  0  0  0  0  0  0  0
   15.4296    0.4467   -2.8877 N   0  0  0  0  0  0  0  0  0  0  0  0
    8.4864   -2.1426   -2.3618 N   0  0  0  0  0  0  0  0  0  0  0  0
   16.4930    1.3274   -2.4083 C   0  0  0  0  0  0  0  0  0  0  0  0
    7.2839   -2.6583   -1.7148 C   0  0  0  0  0  0  0  0  0  0  0  0
   16.6867    1.0641   -0.9063 C   0  0  0  0  0  0  0  0  0  0  0  0
    7.0375   -1.8266   -0.4423 C   0  0  0  0  0  0  0  0  0  0  0  0
   17.2385   -0.3475   -0.6632 C   0  0  0  0  0  0  0  0  0  0  0  0
    7.7877   -2.3797    0.7830 C   0  0  0  0  0  0  0  0  0  0  0  0
   17.2585   -0.6260    0.8179 N   0  0  0  0  0  0  0  0  0  0  0  0
    6.8338   -2.9165    1.8200 N   0  0  0  0  0  0  0  0  0  0  0  0
   18.2811   -1.6853    1.1272 C   0  0  0  0  0  0  0  0  0  0  0  0
    6.1811   -4.1613    1.2815 C   0  0  0  0  0  0  0  0  0  0  0  0
   15.9016   -1.0770    1.2988 C   0  0  0  0  0  0  0  0  0  0  0  0
    5.7656   -1.9214    2.1786 C   0  0  0  0  0  0  0  0  0  0  0  0
  1  6  2  0  0  0  0
  2  3  2  0  0  0  0
  2  1  1  0  0  0  0
  3  4  1  0  0  0  0
  4 10  1  0  0  0  0
  4  5  2  0  0  0  0
  6  5  1  0  0  0  0
  7  1  1  0  0  0  0
  7 11  1  0  0  0  0
  8  7  2  0  0  0  0
  9 10  2  0  0  0  0
 10 12  1  0  0  0  0
 12 14  1  0  0  0  0
 13 11  1  0  0  0  0
 13 15  1  0  0  0  0
 14 16  1  0  0  0  0
 16 18  1  0  0  0  0
 17 15  1  0  0  0  0
 17 19  1  0  0  0  0
 18 20  1  0  0  0  0
 19 23  1  0  0  0  0
 20 22  1  0  0  0  0
 20 24  1  0  0  0  0
 21 19  1  0  0  0  0
M  END
>  <CHROM.1>
177.73370687,3.15075733,84.64999117,105.70335179,66.71329263,-87.37425940
-113.02172338,-173.29023923,-156.18602675,68.86869773,11.92571588,-1.16125054
-1.11805310,0.25119825,-0.21724191,-1.13208530

>  <Name>
lig.pdb

>  <RI>
9.7521e+06

>  <Rbt.Current_Directory>
/home/itssahil/PROJECTS/Mol_Feturizer/New_Systems/rnas/2l94

>  <Rbt.Executable>
rbdock ($Id: //depot/dev/client3/rdock/2013.1/src/exe/rbdock.cxx#4 $)

>  <Rbt.Library>
libRbt.so (2013.1, Build901 2013/11/27)

>  <Rbt.Parameter_File>
/export/apps/rDock/src/rDock_2013.1_src/data/scripts/dock_solv.prm

>  <Rbt.Receptor>
prm/pocket_docking_7.prm

>  <SCORE>
-19.4656

>  <SCORE.INTER>
-22.68

>  <SCORE.INTER.CONST>
1

>  <SCORE.INTER.POLAR>
-3.12101

>  <SCORE.INTER.ROT>
10

>  <SCORE.INTER.SOLV>
10.8582

>  <SCORE.INTER.VDW>
-18.6027

>  <SCORE.INTER.norm>
-0.945

>  <SCORE.INTRA>
3.21445

>  <SCORE.INTRA.DIHEDRAL>
6.73285

>  <SCORE.INTRA.DIHEDRAL.0>
7.52971

>  <SCORE.INTRA.POLAR>
0

>  <SCORE.INTRA.POLAR.0>
0

>  <SCORE.INTRA.REPUL>
0

>  <SCORE.INTRA.REPUL.0>
0

>  <SCORE.INTRA.SOLV>
0.591916

>  <SCORE.INTRA.SOLV.lig_0>
-22.1084

>  <SCORE.INTRA.VDW>
-0.447932

>  <SCORE.INTRA.VDW.0>
2.4256

>  <SCORE.INTRA.norm>
0.133935

>  <SCORE.RESTR>
0

>  <SCORE.RESTR.CAVITY>
0

>  <SCORE.RESTR.norm>
0

>  <SCORE.SYSTEM>
0

>  <SCORE.SYSTEM.CONST>
0

>  <SCORE.SYSTEM.DIHEDRAL>
0

>  <SCORE.SYSTEM.SOLV>
0

>  <SCORE.SYSTEM.norm>
0

>  <SCORE.heavy>
24

>  <SCORE.norm>
-0.811065

>  <RMSD>
7.633

$$$$
lig.pdb
 OpenBabel11021811453D
libRbt.so/2013.1/901 2013/11/27
 24 24  0  0  0  0  0  0  0  0999 V2000
    1.3969   -6.8371    0.0143 C   0  0  0  0  0  0  0  0  0  0  0  0
    0.6932   -6.3126   -1.1218 C   0  0  0  0  0  0  0  0  0  0  0  0
    1.3571   -5.7797   -2.2013 C   0  0  0  0  0  0  0  0  0  0  0  0
    2.7867   -5.7280   -2.2553 C   0  0  0  0  0  0  0  0  0  0  0  0
    3.4873   -6.2213   -1.1057 C   0  0  0  0  0  0  0  0  0  0  0  0
    2.8254   -6.7461   -0.0240 C   0  0  0  0  0  0  0  0  0  0  0  0
    0.7484   -7.3975    1.0774 C   0  0  0  0  0  0  0  0  0  0  0  0
    0.4635   -8.7155    1.1477 N   0  0  0  0  0  0  0  0  0  0  0  0
    2.8488   -4.5954   -4.3580 N   0  0  0  0  0  0  0  0  0  0  0  0
    3.4561   -5.2350   -3.3362 C   0  0  0  0  0  0  0  0  0  0  0  0
    0.3441   -6.6700    2.1480 N   0  0  0  0  0  0  0  0  0  0  0  0
    4.7983   -5.3488   -3.4763 N   0  0  0  0  0  0  0  0  0  0  0  0
    0.3256   -7.1054    3.5431 C   0  0  0  0  0  0  0  0  0  0  0  0
    5.6504   -4.5129   -4.3164 C   0  0  0  0  0  0  0  0  0  0  0  0
    0.3793   -5.8527    4.4323 C   0  0  0  0  0  0  0  0  0  0  0  0
    6.3484   -3.4845   -3.4071 C   0  0  0  0  0  0  0  0  0  0  0  0
   -0.7272   -5.8865    5.4956 C   0  0  0  0  0  0  0  0  0  0  0  0
    7.3151   -4.1388   -2.4034 C   0  0  0  0  0  0  0  0  0  0  0  0
   -1.9987   -5.3288    4.9090 N   0  0  0  0  0  0  0  0  0  0  0  0
    7.3061   -3.4206   -1.0777 N   0  0  0  0  0  0  0  0  0  0  0  0
   -2.0636   -3.8440    5.1427 C   0  0  0  0  0  0  0  0  0  0  0  0
    8.6817   -3.5012   -0.4722 C   0  0  0  0  0  0  0  0  0  0  0  0
   -3.2087   -5.9906    5.5205 C   0  0  0  0  0  0  0  0  0  0  0  0
    6.3142   -4.0143   -0.1167 C   0  0  0  0  0  0  0  0  0  0  0  0
  1  6  2  0  0  0  0
  2  3  2  0  0  0  0
  2  1  1  0  0  0  0
  3  4  1  0  0  0  0
  4 10  1  0  0  0  0
  4  5  2  0  0  0  0
  6  5  1  0  0  0  0
  7  1  1  0  0  0  0
  7 11  1  0  0  0  0
  8  7  2  0  0  0  0
  9 10  2  0  0  0  0
 10 12  1  0  0  0  0
 12 14  1  0  0  0  0
 13 11  1  0  0  0  0
 13 15  1  0  0  0  0
 14 16  1  0  0  0  0
 16 18  1  0  0  0  0
 17 15  1  0  0  0  0
 17 19  1  0  0  0  0
 18 20  1  0  0  0  0
 19 23  1  0  0  0  0
 20 22  1  0  0  0  0
 20 24  1  0  0  0  0
 21 19  1  0  0  0  0
M  END
>  <CHROM.1>
9.22410507,90.46221756,101.31560476,156.41132737,129.62533273,65.03483864
-143.84555732,-85.36579614,-90.27762795,-147.25060757,2.48306488,-5.49411263
0.21073203,2.46548137,0.43142356,1.32958843

>  <Name>
lig.pdb

>  <RI>
3.30914e+07

>  <Rbt.Current_Directory>
/home/itssahil/PROJECTS/Mol_Feturizer/New_Systems/rnas/2l94

>  <Rbt.Executable>
rbdock ($Id: //depot/dev/client3/rdock/2013.1/src/exe/rbdock.cxx#4 $)

>  <Rbt.Library>
libRbt.so (2013.1, Build901 2013/11/27)

>  <Rbt.Parameter_File>
/export/apps/rDock/src/rDock_2013.1_src/data/scripts/dock_solv.prm

>  <Rbt.Receptor>
prm/blind_docking_80.prm

>  <SCORE>
-5.5599

>  <SCORE.INTER>
-14.4616

>  <SCORE.INTER.CONST>
1

>  <SCORE.INTER.POLAR>
-2.30797

>  <SCORE.INTER.ROT>
10

>  <SCORE.INTER.SOLV>
16.0702

>  <SCORE.INTER.VDW>
-17.5713

>  <SCORE.INTER.norm>
-0.602569

>  <SCORE.INTRA>
8.81461

>  <SCORE.INTRA.DIHEDRAL>
25.2996

>  <SCORE.INTRA.DIHEDRAL.0>
7.52971

>  <SCORE.INTRA.POLAR>
0

>  <SCORE.INTRA.POLAR.0>
0

>  <SCORE.INTRA.REPUL>
0

>  <SCORE.INTRA.REPUL.0>
0

>  <SCORE.INTRA.SOLV>
0.343482

>  <SCORE.INTRA.SOLV.lig_0>
-22.1084

>  <SCORE.INTRA.VDW>
-4.00692

>  <SCORE.INTRA.VDW.0>
2.4256

>  <SCORE.INTRA.norm>
0.367276

>  <SCORE.RESTR>
0.0871333

>  <SCORE.RESTR.CAVITY>
0.0871333

>  <SCORE.RESTR.norm>
0.00363055

>  <SCORE.SYSTEM>
0

>  <SCORE.SYSTEM.CONST>
0

>  <SCORE.SYSTEM.DIHEDRAL>
0

>  <SCORE.SYSTEM.SOLV>
0

>  <SCORE.SYSTEM.norm>
0

>  <SCORE.heavy>
24

>  <SCORE.norm>
-0.231662

>  <RMSD>
7.639

$$$$
lig.pdb
 OpenBabel11021811453D
libRbt.so/2013.1/901 2013/11/27
 24 24  0  0  0  0  0  0  0  0999 V2000
    3.1682   -5.3584   -2.6391 C   0  0  0  0  0  0  0  0  0  0  0  0
    3.9291   -5.7252   -1.4783 C   0  0  0  0  0  0  0  0  0  0  0  0
    3.3455   -6.3375   -0.3945 C   0  0  0  0  0  0  0  0  0  0  0  0
    1.9490   -6.6514   -0.3689 C   0  0  0  0  0  0  0  0  0  0  0  0
    1.1842   -6.2541   -1.5147 C   0  0  0  0  0  0  0  0  0  0  0  0
    1.7642   -5.6355   -2.5939 C   0  0  0  0  0  0  0  0  0  0  0  0
    3.7436   -4.7790   -3.7337 C   0  0  0  0  0  0  0  0  0  0  0  0
    3.1076   -3.8632   -4.4952 N   0  0  0  0  0  0  0  0  0  0  0  0
    2.0473   -8.0802    1.5435 N   0  0  0  0  0  0  0  0  0  0  0  0
    1.3668   -7.2911    0.6854 C   0  0  0  0  0  0  0  0  0  0  0  0
    5.0034   -5.0783   -4.1368 N   0  0  0  0  0  0  0  0  0  0  0  0
    0.0448   -7.1880    0.9605 N   0  0  0  0  0  0  0  0  0  0  0  0
    5.9725   -4.1585   -4.7294 C   0  0  0  0  0  0  0  0  0  0  0  0
   -0.5884   -7.4399    2.2513 C   0  0  0  0  0  0  0  0  0  0  0  0
    6.6631   -3.3958   -3.5874 C   0  0  0  0  0  0  0  0  0  0  0  0
    0.0781   -6.5214    3.2924 C   0  0  0  0  0  0  0  0  0  0  0  0
    7.2830   -4.3680   -2.5742 C   0  0  0  0  0  0  0  0  0  0  0  0
   -0.6897   -6.4804    4.6261 C   0  0  0  0  0  0  0  0  0  0  0  0
    7.8601   -3.5856   -1.4224 N   0  0  0  0  0  0  0  0  0  0  0  0
    0.1234   -5.8234    5.7128 N   0  0  0  0  0  0  0  0  0  0  0  0
    9.1563   -4.2070   -0.9781 C   0  0  0  0  0  0  0  0  0  0  0  0
    1.0482   -6.8475    6.3140 C   0  0  0  0  0  0  0  0  0  0  0  0
    6.8954   -3.5444   -0.2632 C   0  0  0  0  0  0  0  0  0  0  0  0
   -0.7409   -5.2482    6.8000 C   0  0  0  0  0  0  0  0  0  0  0  0
  1  6  2  0  0  0  0
  2  3  2  0  0  0  0
  2  1  1  0  0  0  0
  3  4  1  0  0  0  0
  4 10  1  0  0  0  0
  4  5  2  0  0  0  0
  6  5  1  0  0  0  0
  7  1  1  0  0  0  0
  7 11  1  0  0  0  0
  8  7  2  0  0  0  0
  9 10  2  0  0  0  0
 10 12  1  0  0  0  0
 12 14  1  0  0  0  0
 13 11  1  0  0  0  0
 13 15  1  0  0  0  0
 14 16  1  0  0  0  0
 16 18  1  0  0  0  0
 17 15  1  0  0  0  0
 17 19  1  0  0  0  0
 18 20  1  0  0  0  0
 19 23  1  0  0  0  0
 20 22  1  0  0  0  0
 20 24  1  0  0  0  0
 21 19  1  0  0  0  0
M  END
>  <CHROM.1>
-23.90961020,-146.09656061,56.78033737,82.64796988,55.04234257,168.18531607
167.79939861,-175.88540582,-141.23048665,-83.68136001,3.09996616,-5.55403761
-0.04183026,0.85266261,-0.36557217,-1.56980697

>  <Name>
lig.pdb

>  <RI>
2.41306e+07

>  <Rbt.Current_Directory>
/home/itssahil/PROJECTS/Mol_Feturizer/New_Systems/rnas/2l94

>  <Rbt.Executable>
rbdock ($Id: //depot/dev/client3/rdock/2013.1/src/exe/rbdock.cxx#4 $)

>  <Rbt.Library>
libRbt.so (2013.1, Build901 2013/11/27)

>  <Rbt.Parameter_File>
/export/apps/rDock/src/rDock_2013.1_src/data/scripts/dock_solv.prm

>  <Rbt.Receptor>
prm/blind_docking_40.prm

>  <SCORE>
-1.49516

>  <SCORE.INTER>
-3.1697

>  <SCORE.INTER.CONST>
1

>  <SCORE.INTER.POLAR>
-0.692929

>  <SCORE.INTER.ROT>
10

>  <SCORE.INTER.SOLV>
18.4675

>  <SCORE.INTER.VDW>
-16.2259

>  <SCORE.INTER.norm>
-0.132071

>  <SCORE.INTRA>
1.00679

>  <SCORE.INTRA.DIHEDRAL>
8.36799

>  <SCORE.INTRA.DIHEDRAL.0>
7.52971

>  <SCORE.INTRA.POLAR>
0

>  <SCORE.INTRA.POLAR.0>
0

>  <SCORE.INTRA.REPUL>
0

>  <SCORE.INTRA.REPUL.0>
0

>  <SCORE.INTRA.SOLV>
0.376919

>  <SCORE.INTRA.SOLV.lig_0>
-22.1084

>  <SCORE.INTRA.VDW>
-3.36567

>  <SCORE.INTRA.VDW.0>
2.4256

>  <SCORE.INTRA.norm>
0.0419495

>  <SCORE.RESTR>
0.667757

>  <SCORE.RESTR.CAVITY>
0.667757

>  <SCORE.RESTR.norm>
0.0278232

>  <SCORE.SYSTEM>
0

>  <SCORE.SYSTEM.CONST>
0

>  <SCORE.SYSTEM.DIHEDRAL>
0

>  <SCORE.SYSTEM.SOLV>
0

>  <SCORE.SYSTEM.norm>
0

>  <SCORE.heavy>
24

>  <SCORE.norm>
-0.0622983

>  <RMSD>
7.640

$$$$
lig.pdb
 OpenBabel11021811453D
libRbt.so/2013.1/901 2013/11/27
 24 24  0  0  0  0  0  0  0  0999 V2000
    1.8261   -6.3479    0.4416 C   0  0  0  0  0  0  0  0  0  0  0  0
    1.0119   -6.0827   -0.7107 C   0  0  0  0  0  0  0  0  0  0  0  0
    1.5598   -5.6907   -1.9090 C   0  0  0  0  0  0  0  0  0  0  0  0
    2.9731   -5.5351   -2.0755 C   0  0  0  0  0  0  0  0  0  0  0  0
    3.7822   -5.7676   -0.9149 C   0  0  0  0  0  0  0  0  0  0  0  0
    3.2356   -6.1512    0.2842 C   0  0  0  0  0  0  0  0  0  0  0  0
    1.2950   -6.7685    1.6273 C   0  0  0  0  0  0  0  0  0  0  0  0
    1.2450   -8.0695    1.9852 N   0  0  0  0  0  0  0  0  0  0  0  0
    2.8454   -4.5644   -4.2549 N   0  0  0  0  0  0  0  0  0  0  0  0
    3.5302   -5.1821   -3.2691 C   0  0  0  0  0  0  0  0  0  0  0  0
    0.7796   -5.9073    2.5392 N   0  0  0  0  0  0  0  0  0  0  0  0
    4.8284   -5.4256   -3.5680 N   0  0  0  0  0  0  0  0  0  0  0  0
    0.8499   -6.0303    3.9939 C   0  0  0  0  0  0  0  0  0  0  0  0
    5.6252   -4.7312   -4.5747 C   0  0  0  0  0  0  0  0  0  0  0  0
   -0.5497   -5.7467    4.5627 C   0  0  0  0  0  0  0  0  0  0  0  0
    6.4888   -3.6804   -3.8523 C   0  0  0  0  0  0  0  0  0  0  0  0
   -0.8074   -6.5784    5.8268 C   0  0  0  0  0  0  0  0  0  0  0  0
    7.0743   -4.2020   -2.5275 C   0  0  0  0  0  0  0  0  0  0  0  0
   -0.1123   -5.9325    6.9980 N   0  0  0  0  0  0  0  0  0  0  0  0
    8.4434   -3.6281   -2.2635 N   0  0  0  0  0  0  0  0  0  0  0  0
    0.1711   -6.9619    8.0579 C   0  0  0  0  0  0  0  0  0  0  0  0
    9.0460   -4.3343   -1.0788 C   0  0  0  0  0  0  0  0  0  0  0  0
   -0.9558   -4.8256    7.5804 C   0  0  0  0  0  0  0  0  0  0  0  0
    8.3958   -2.1526   -1.9799 C   0  0  0  0  0  0  0  0  0  0  0  0
  1  6  2  0  0  0  0
  2  3  2  0  0  0  0
  2  1  1  0  0  0  0
  3  4  1  0  0  0  0
  4 10  1  0  0  0  0
  4  5  2  0  0  0  0
  6  5  1  0  0  0  0
  7  1  1  0  0  0  0
  7 11  1  0  0  0  0
  8  7  2  0  0  0  0
  9 10  2  0  0  0  0
 10 12  1  0  0  0  0
 12 14  1  0  0  0  0
 13 11  1  0  0  0  0
 13 15  1  0  0  0  0
 14 16  1  0  0  0  0
 16 18  1  0  0  0  0
 17 15  1  0  0  0  0
 17 19  1  0  0  0  0
 18 20  1  0  0  0  0
 19 23  1  0  0  0  0
 20 22  1  0  0  0  0
 20 24  1  0  0  0  0
 21 19  1  0  0  0  0
M  END
>  <CHROM.1>
20.93318945,96.54857529,99.74573070,-133.75888448,147.21843373,40.70983670
145.74882786,78.78338829,-155.39129052,-171.23648770,3.05681795,-5.40884480
0.51513056,2.24747929,0.37016644,1.51181644

>  <Name>
lig.pdb

>  <RI>
3.30914e+07

>  <Rbt.Current_Directory>
/home/itssahil/PROJECTS/Mol_Feturizer/New_Systems/rnas/2l94

>  <Rbt.Executable>
rbdock ($Id: //depot/dev/client3/rdock/2013.1/src/exe/rbdock.cxx#4 $)

>  <Rbt.Library>
libRbt.so (2013.1, Build901 2013/11/27)

>  <Rbt.Parameter_File>
/export/apps/rDock/src/rDock_2013.1_src/data/scripts/dock_solv.prm

>  <Rbt.Receptor>
prm/blind_docking_80.prm

>  <SCORE>
-7.10872

>  <SCORE.INTER>
-16.267

>  <SCORE.INTER.CONST>
1

>  <SCORE.INTER.POLAR>
-2.98917

>  <SCORE.INTER.ROT>
10

>  <SCORE.INTER.SOLV>
19.9544

>  <SCORE.INTER.VDW>
-17.7989

>  <SCORE.INTER.norm>
-0.677793

>  <SCORE.INTRA>
8.29079

>  <SCORE.INTRA.DIHEDRAL>
22.0225

>  <SCORE.INTRA.DIHEDRAL.0>
7.52971

>  <SCORE.INTRA.POLAR>
0

>  <SCORE.INTRA.POLAR.0>
0

>  <SCORE.INTRA.REPUL>
0

>  <SCORE.INTRA.REPUL.0>
0

>  <SCORE.INTRA.SOLV>
0.0728251

>  <SCORE.INTRA.SOLV.lig_0>
-22.1084

>  <SCORE.INTRA.VDW>
-2.75687

>  <SCORE.INTRA.VDW.0>
2.4256

>  <SCORE.INTRA.norm>
0.345449

>  <SCORE.RESTR>
0.867523

>  <SCORE.RESTR.CAVITY>
0.867523

>  <SCORE.RESTR.norm>
0.0361468

>  <SCORE.SYSTEM>
0

>  <SCORE.SYSTEM.CONST>
0

>  <SCORE.SYSTEM.DIHEDRAL>
0

>  <SCORE.SYSTEM.SOLV>
0

>  <SCORE.SYSTEM.norm>
0

>  <SCORE.heavy>
24

>  <SCORE.norm>
-0.296197

>  <RMSD>
7.666

$$$$
lig.pdb
 OpenBabel11021811453D
libRbt.so/2013.1/901 2013/11/27
 24 24  0  0  0  0  0  0  0  0999 V2000
    1.4762   -6.8732    0.8992 C   0  0  0  0  0  0  0  0  0  0  0  0
    2.4307   -7.4626    0.0034 C   0  0  0  0  0  0  0  0  0  0  0  0
    2.9508   -6.7649   -1.0610 C   0  0  0  0  0  0  0  0  0  0  0  0
    2.5761   -5.4092   -1.3277 C   0  0  0  0  0  0  0  0  0  0  0  0
    1.5977   -4.8331   -0.4523 C   0  0  0  0  0  0  0  0  0  0  0  0
    1.0717   -5.5314    0.6058 C   0  0  0  0  0  0  0  0  0  0  0  0
    0.9775   -7.5464    1.9776 C   0  0  0  0  0  0  0  0  0  0  0  0
    1.3834   -8.7892    2.3150 N   0  0  0  0  0  0  0  0  0  0  0  0
    2.8515   -3.3891   -2.5734 N   0  0  0  0  0  0  0  0  0  0  0  0
    3.1128   -4.6959   -2.3587 C   0  0  0  0  0  0  0  0  0  0  0  0
    0.0365   -7.0133    2.7958 N   0  0  0  0  0  0  0  0  0  0  0  0
    3.9591   -5.2450   -3.2621 N   0  0  0  0  0  0  0  0  0  0  0  0
   -0.0717   -7.2011    4.2412 C   0  0  0  0  0  0  0  0  0  0  0  0
    4.9105   -4.5226   -4.1009 C   0  0  0  0  0  0  0  0  0  0  0  0
    0.5790   -5.9894    4.9277 C   0  0  0  0  0  0  0  0  0  0  0  0
    6.3195   -4.7509   -3.5227 C   0  0  0  0  0  0  0  0  0  0  0  0
   -0.2897   -4.7344    4.7649 C   0  0  0  0  0  0  0  0  0  0  0  0
    6.5542   -3.9827   -2.2095 C   0  0  0  0  0  0  0  0  0  0  0  0
   -1.5254   -4.8703    5.6172 N   0  0  0  0  0  0  0  0  0  0  0  0
    8.0247   -3.8243   -1.9162 N   0  0  0  0  0  0  0  0  0  0  0  0
   -2.5557   -3.8597    5.1921 C   0  0  0  0  0  0  0  0  0  0  0  0
    8.5326   -5.0910   -1.2814 C   0  0  0  0  0  0  0  0  0  0  0  0
   -1.1966   -4.6744    7.0764 C   0  0  0  0  0  0  0  0  0  0  0  0
    8.2985   -2.6711   -0.9915 C   0  0  0  0  0  0  0  0  0  0  0  0
  1  6  2  0  0  0  0
  2  3  2  0  0  0  0
  2  1  1  0  0  0  0
  3  4  1  0  0  0  0
  4 10  1  0  0  0  0
  4  5  2  0  0  0  0
  6  5  1  0  0  0  0
  7  1  1  0  0  0  0
  7 11  1  0  0  0  0
  8  7  2  0  0  0  0
  9 10  2  0  0  0  0
 10 12  1  0  0  0  0
 12 14  1  0  0  0  0
 13 11  1  0  0  0  0
 13 15  1  0  0  0  0
 14 16  1  0  0  0  0
 16 18  1  0  0  0  0
 17 15  1  0  0  0  0
 17 19  1  0  0  0  0
 18 20  1  0  0  0  0
 19 23  1  0  0  0  0
 20 22  1  0  0  0  0
 20 24  1  0  0  0  0
 21 19  1  0  0  0  0
M  END
>  <CHROM.1>
-174.98336803,2.88396855,105.10304073,97.60862282,71.72713456,-72.61431102
-160.33418286,71.22105808,-164.27333182,-81.69115978,2.60517892,-5.37255425
0.68125254,2.51469145,0.55779908,1.12171488

>  <Name>
lig.pdb

>  <RI>
3.93418e+07

>  <Rbt.Current_Directory>
/home/itssahil/PROJECTS/Mol_Feturizer/New_Systems/rnas/2l94

>  <Rbt.Executable>
rbdock ($Id: //depot/dev/client3/rdock/2013.1/src/exe/rbdock.cxx#4 $)

>  <Rbt.Library>
libRbt.so (2013.1, Build901 2013/11/27)

>  <Rbt.Parameter_File>
/export/apps/rDock/src/rDock_2013.1_src/data/scripts/dock_solv.prm

>  <Rbt.Receptor>
prm/blind_docking_20.prm

>  <SCORE>
-11.6767

>  <SCORE.INTER>
-11.1607

>  <SCORE.INTER.CONST>
1

>  <SCORE.INTER.POLAR>
-1.72109

>  <SCORE.INTER.ROT>
10

>  <SCORE.INTER.SOLV>
19.1098

>  <SCORE.INTER.VDW>
-18.3401

>  <SCORE.INTER.norm>
-0.465028

>  <SCORE.INTRA>
-1.39524

>  <SCORE.INTRA.DIHEDRAL>
1.95017

>  <SCORE.INTRA.DIHEDRAL.0>
7.52971

>  <SCORE.INTRA.POLAR>
0

>  <SCORE.INTRA.POLAR.0>
0

>  <SCORE.INTRA.REPUL>
0

>  <SCORE.INTRA.REPUL.0>
0

>  <SCORE.INTRA.SOLV>
0.608776

>  <SCORE.INTRA.SOLV.lig_0>
-22.1084

>  <SCORE.INTRA.VDW>
-2.67472

>  <SCORE.INTRA.VDW.0>
2.4256

>  <SCORE.INTRA.norm>
-0.0581351

>  <SCORE.RESTR>
0.879212

>  <SCORE.RESTR.CAVITY>
0.879212

>  <SCORE.RESTR.norm>
0.0366338

>  <SCORE.SYSTEM>
0

>  <SCORE.SYSTEM.CONST>
0

>  <SCORE.SYSTEM.DIHEDRAL>
0

>  <SCORE.SYSTEM.SOLV>
0

>  <SCORE.SYSTEM.norm>
0

>  <SCORE.heavy>
24

>  <SCORE.norm>
-0.486529

>  <RMSD>
7.683

$$$$
lig.pdb
 OpenBabel11021811453D
libRbt.so/2013.1/901 2013/11/27
 24 24  0  0  0  0  0  0  0  0999 V2000
    1.4214   -6.9271   -0.0812 C   0  0  0  0  0  0  0  0  0  0  0  0
    0.7775   -6.3839   -1.2437 C   0  0  0  0  0  0  0  0  0  0  0  0
    1.4949   -5.8096   -2.2662 C   0  0  0  0  0  0  0  0  0  0  0  0
    2.9239   -5.7311   -2.2316 C   0  0  0  0  0  0  0  0  0  0  0  0
    3.5632   -6.2435   -1.0550 C   0  0  0  0  0  0  0  0  0  0  0  0
    2.8474   -6.8097   -0.0299 C   0  0  0  0  0  0  0  0  0  0  0  0
    0.7208   -7.5281    0.9251 C   0  0  0  0  0  0  0  0  0  0  0  0
    0.5147   -8.8615    0.9771 N   0  0  0  0  0  0  0  0  0  0  0  0
    3.0985   -4.4783   -4.2585 N   0  0  0  0  0  0  0  0  0  0  0  0
    3.6478   -5.1965   -3.2563 C   0  0  0  0  0  0  0  0  0  0  0  0
    0.1809   -6.8284    1.9537 N   0  0  0  0  0  0  0  0  0  0  0  0
    4.9903   -5.3448   -3.3552 N   0  0  0  0  0  0  0  0  0  0  0  0
    0.0703   -7.2649    3.3442 C   0  0  0  0  0  0  0  0  0  0  0  0
    5.8978   -4.4882   -4.1123 C   0  0  0  0  0  0  0  0  0  0  0  0
    0.0136   -6.0115    4.2324 C   0  0  0  0  0  0  0  0  0  0  0  0
    6.2575   -3.2806   -3.2270 C   0  0  0  0  0  0  0  0  0  0  0  0
   -0.6656   -6.3198    5.5739 C   0  0  0  0  0  0  0  0  0  0  0  0
    6.5778   -3.6825   -1.7759 C   0  0  0  0  0  0  0  0  0  0  0  0
   -0.4136   -5.1840    6.5321 N   0  0  0  0  0  0  0  0  0  0  0  0
    8.0619   -3.6614   -1.5105 N   0  0  0  0  0  0  0  0  0  0  0  0
   -0.7467   -5.6128    7.9352 C   0  0  0  0  0  0  0  0  0  0  0  0
    8.6348   -5.0119   -1.8475 C   0  0  0  0  0  0  0  0  0  0  0  0
   -1.2385   -3.9759    6.1631 C   0  0  0  0  0  0  0  0  0  0  0  0
    8.3780   -3.3413   -0.0761 C   0  0  0  0  0  0  0  0  0  0  0  0
  1  6  2  0  0  0  0
  2  3  2  0  0  0  0
  2  1  1  0  0  0  0
  3  4  1  0  0  0  0
  4 10  1  0  0  0  0
  4  5  2  0  0  0  0
  6  5  1  0  0  0  0
  7  1  1  0  0  0  0
  7 11  1  0  0  0  0
  8  7  2  0  0  0  0
  9 10  2  0  0  0  0
 10 12  1  0  0  0  0
 12 14  1  0  0  0  0
 13 11  1  0  0  0  0
 13 15  1  0  0  0  0
 14 16  1  0  0  0  0
 16 18  1  0  0  0  0
 17 15  1  0  0  0  0
 17 19  1  0  0  0  0
 18 20  1  0  0  0  0
 19 23  1  0  0  0  0
 20 22  1  0  0  0  0
 20 24  1  0  0  0  0
 21 19  1  0  0  0  0
M  END
>  <CHROM.1>
12.89999532,93.85091521,84.21082547,154.62931978,156.48790869,44.02149486
103.50854733,166.59839955,-165.14578649,-88.95173504,2.82169683,-5.54934879
0.37062160,2.36800335,0.46608026,1.34318066

>  <Name>
lig.pdb

>  <RI>
3.30914e+07

>  <Rbt.Current_Directory>
/home/itssahil/PROJECTS/Mol_Feturizer/New_Systems/rnas/2l94

>  <Rbt.Executable>
rbdock ($Id: //depot/dev/client3/rdock/2013.1/src/exe/rbdock.cxx#4 $)

>  <Rbt.Library>
libRbt.so (2013.1, Build901 2013/11/27)

>  <Rbt.Parameter_File>
/export/apps/rDock/src/rDock_2013.1_src/data/scripts/dock_solv.prm

>  <Rbt.Receptor>
prm/blind_docking_80.prm

>  <SCORE>
-6.30258

>  <SCORE.INTER>
-14.3874

>  <SCORE.INTER.CONST>
1

>  <SCORE.INTER.POLAR>
-2.7679

>  <SCORE.INTER.ROT>
10

>  <SCORE.INTER.SOLV>
16.135

>  <SCORE.INTER.VDW>
-16.0102

>  <SCORE.INTER.norm>
-0.599474

>  <SCORE.INTRA>
7.7286

>  <SCORE.INTRA.DIHEDRAL>
20.8283

>  <SCORE.INTRA.DIHEDRAL.0>
7.52971

>  <SCORE.INTRA.POLAR>
0

>  <SCORE.INTRA.POLAR.0>
0

>  <SCORE.INTRA.REPUL>
0

>  <SCORE.INTRA.REPUL.0>
0

>  <SCORE.INTRA.SOLV>
0.2127

>  <SCORE.INTRA.SOLV.lig_0>
-22.1084

>  <SCORE.INTRA.VDW>
-2.79188

>  <SCORE.INTRA.VDW.0>
2.4256

>  <SCORE.INTRA.norm>
0.322025

>  <SCORE.RESTR>
0.356201

>  <SCORE.RESTR.CAVITY>
0.356201

>  <SCORE.RESTR.norm>
0.0148417

>  <SCORE.SYSTEM>
0

>  <SCORE.SYSTEM.CONST>
0

>  <SCORE.SYSTEM.DIHEDRAL>
0

>  <SCORE.SYSTEM.SOLV>
0

>  <SCORE.SYSTEM.norm>
0

>  <SCORE.heavy>
24

>  <SCORE.norm>
-0.262608

>  <RMSD>
7.684

$$$$
lig.pdb
 OpenBabel11021811453D
libRbt.so/2013.1/901 2013/11/27
 24 24  0  0  0  0  0  0  0  0999 V2000
    1.1595   -7.0346    0.2550 C   0  0  0  0  0  0  0  0  0  0  0  0
    0.5754   -6.0689   -0.6322 C   0  0  0  0  0  0  0  0  0  0  0  0
    1.3240   -5.4098   -1.5784 C   0  0  0  0  0  0  0  0  0  0  0  0
    2.7249   -5.6582   -1.7368 C   0  0  0  0  0  0  0  0  0  0  0  0
    3.3136   -6.5979   -0.8278 C   0  0  0  0  0  0  0  0  0  0  0  0
    2.5688   -7.2505    0.1225 C   0  0  0  0  0  0  0  0  0  0  0  0
    0.4191   -7.7180    1.1768 C   0  0  0  0  0  0  0  0  0  0  0  0
    0.5019   -9.0565    1.3337 N   0  0  0  0  0  0  0  0  0  0  0  0
    2.9492   -4.1874   -3.6062 N   0  0  0  0  0  0  0  0  0  0  0  0
    3.4697   -5.0372   -2.6957 C   0  0  0  0  0  0  0  0  0  0  0  0
   -0.4551   -7.1004    2.0094 N   0  0  0  0  0  0  0  0  0  0  0  0
    4.8054   -5.2247   -2.8161 N   0  0  0  0  0  0  0  0  0  0  0  0
   -0.7448   -7.4617    3.3957 C   0  0  0  0  0  0  0  0  0  0  0  0
    5.7459   -4.3221   -3.4729 C   0  0  0  0  0  0  0  0  0  0  0  0
   -0.0034   -6.4723    4.3092 C   0  0  0  0  0  0  0  0  0  0  0  0
    6.4248   -3.4715   -2.3832 C   0  0  0  0  0  0  0  0  0  0  0  0
   -0.6795   -6.3826    5.6843 C   0  0  0  0  0  0  0  0  0  0  0  0
    7.9305   -3.2746   -2.6357 C   0  0  0  0  0  0  0  0  0  0  0  0
   -0.3610   -5.0486    6.3095 N   0  0  0  0  0  0  0  0  0  0  0  0
    8.7455   -3.6113   -1.4126 N   0  0  0  0  0  0  0  0  0  0  0  0
   -0.8284   -5.0274    7.7394 C   0  0  0  0  0  0  0  0  0  0  0  0
   10.1878   -3.2758   -1.6824 C   0  0  0  0  0  0  0  0  0  0  0  0
   -1.0184   -3.9259    5.5457 C   0  0  0  0  0  0  0  0  0  0  0  0
    8.6431   -5.0651   -1.0443 C   0  0  0  0  0  0  0  0  0  0  0  0
  1  6  2  0  0  0  0
  2  3  2  0  0  0  0
  2  1  1  0  0  0  0
  3  4  1  0  0  0  0
  4 10  1  0  0  0  0
  4  5  2  0  0  0  0
  6  5  1  0  0  0  0
  7  1  1  0  0  0  0
  7 11  1  0  0  0  0
  8  7  2  0  0  0  0
  9 10  2  0  0  0  0
 10 12  1  0  0  0  0
 12 14  1  0  0  0  0
 13 11  1  0  0  0  0
 13 15  1  0  0  0  0
 14 16  1  0  0  0  0
 16 18  1  0  0  0  0
 17 15  1  0  0  0  0
 17 19  1  0  0  0  0
 18 20  1  0  0  0  0
 19 23  1  0  0  0  0
 20 22  1  0  0  0  0
 20 24  1  0  0  0  0
 21 19  1  0  0  0  0
M  END
>  <CHROM.1>
-2.90344675,131.89379953,98.54114775,102.30017087,156.10569428,139.20223858
-129.62074360,-155.16388977,-171.03658507,-174.74221504,2.84888703,-5.53489527
0.53095527,2.49635164,0.44767653,1.33205641

>  <Name>
lig.pdb

>  <RI>
3.93418e+07

>  <Rbt.Current_Directory>
/home/itssahil/PROJECTS/Mol_Feturizer/New_Systems/rnas/2l94

>  <Rbt.Executable>
rbdock ($Id: //depot/dev/client3/rdock/2013.1/src/exe/rbdock.cxx#4 $)

>  <Rbt.Library>
libRbt.so (2013.1, Build901 2013/11/27)

>  <Rbt.Parameter_File>
/export/apps/rDock/src/rDock_2013.1_src/data/scripts/dock_solv.prm

>  <Rbt.Receptor>
prm/blind_docking_20.prm

>  <SCORE>
-3.34526

>  <SCORE.INTER>
-10.9015

>  <SCORE.INTER.CONST>
1

>  <SCORE.INTER.POLAR>
-2.43197

>  <SCORE.INTER.ROT>
10

>  <SCORE.INTER.SOLV>
17.2095

>  <SCORE.INTER.VDW>
-15.1643

>  <SCORE.INTER.norm>
-0.454231

>  <SCORE.INTRA>
6.60089

>  <SCORE.INTRA.DIHEDRAL>
17.982

>  <SCORE.INTRA.DIHEDRAL.0>
7.52971

>  <SCORE.INTRA.POLAR>
0

>  <SCORE.INTRA.POLAR.0>
0

>  <SCORE.INTRA.REPUL>
0

>  <SCORE.INTRA.REPUL.0>
0

>  <SCORE.INTRA.SOLV>
-0.155587

>  <SCORE.INTRA.SOLV.lig_0>
-22.1084

>  <SCORE.INTRA.VDW>
-2.31232

>  <SCORE.INTRA.VDW.0>
2.4256

>  <SCORE.INTRA.norm>
0.275037

>  <SCORE.RESTR>
0.955388

>  <SCORE.RESTR.CAVITY>
0.955388

>  <SCORE.RESTR.norm>
0.0398078

>  <SCORE.SYSTEM>
0

>  <SCORE.SYSTEM.CONST>
0

>  <SCORE.SYSTEM.DIHEDRAL>
0

>  <SCORE.SYSTEM.SOLV>
0

>  <SCORE.SYSTEM.norm>
0

>  <SCORE.heavy>
24

>  <SCORE.norm>
-0.139386

>  <RMSD>
7.688

$$$$
lig.pdb
 OpenBabel11021811453D
libRbt.so/2013.1/901 2013/11/27
 24 24  0  0  0  0  0  0  0  0999 V2000
   12.5164   -1.8300   -1.9975 C   0  0  0  0  0  0  0  0  0  0  0  0
   11.6617   -2.1544   -3.1044 C   0  0  0  0  0  0  0  0  0  0  0  0
   10.4406   -2.7595   -2.9226 C   0  0  0  0  0  0  0  0  0  0  0  0
    9.9509   -3.0899   -1.6186 C   0  0  0  0  0  0  0  0  0  0  0  0
   10.8201   -2.7960   -0.5168 C   0  0  0  0  0  0  0  0  0  0  0  0
   12.0428   -2.1993   -0.6977 C   0  0  0  0  0  0  0  0  0  0  0  0
   13.7165   -1.2003   -2.1645 C   0  0  0  0  0  0  0  0  0  0  0  0
   14.0546   -0.5621   -3.3053 N   0  0  0  0  0  0  0  0  0  0  0  0
    8.2930   -4.0962   -0.2233 N   0  0  0  0  0  0  0  0  0  0  0  0
    8.7261   -3.6569   -1.4240 C   0  0  0  0  0  0  0  0  0  0  0  0
   14.6607   -1.1653   -1.1916 N   0  0  0  0  0  0  0  0  0  0  0  0
    7.8349   -3.8295   -2.4289 N   0  0  0  0  0  0  0  0  0  0  0  0
   15.5710   -0.0603   -0.8973 C   0  0  0  0  0  0  0  0  0  0  0  0
    6.3924   -3.9973   -2.2814 C   0  0  0  0  0  0  0  0  0  0  0  0
   16.0316   -0.2005    0.5625 C   0  0  0  0  0  0  0  0  0  0  0  0
    5.7383   -3.6847   -3.6401 C   0  0  0  0  0  0  0  0  0  0  0  0
   14.9068    0.1864    1.5326 C   0  0  0  0  0  0  0  0  0  0  0  0
    5.9744   -2.2324   -4.0928 C   0  0  0  0  0  0  0  0  0  0  0  0
   15.5099    0.6832    2.8216 N   0  0  0  0  0  0  0  0  0  0  0  0
    5.4950   -2.0079   -5.5046 N   0  0  0  0  0  0  0  0  0  0  0  0
   15.8841   -0.4826    3.6959 C   0  0  0  0  0  0  0  0  0  0  0  0
    6.4741   -2.6410   -6.4565 C   0  0  0  0  0  0  0  0  0  0  0  0
   14.5437    1.5780    3.5577 C   0  0  0  0  0  0  0  0  0  0  0  0
    5.3674   -0.5470   -5.8356 C   0  0  0  0  0  0  0  0  0  0  0  0
  1  6  2  0  0  0  0
  2  3  2  0  0  0  0
  2  1  1  0  0  0  0
  3  4  1  0  0  0  0
  4 10  1  0  0  0  0
  4  5  2  0  0  0  0
  6  5  1  0  0  0  0
  7  1  1  0  0  0  0
  7 11  1  0  0  0  0
  8  7  2  0  0  0  0
  9 10  2  0  0  0  0
 10 12  1  0  0  0  0
 12 14  1  0  0  0  0
 13 11  1  0  0  0  0
 13 15  1  0  0  0  0
 14 16  1  0  0  0  0
 16 18  1  0  0  0  0
 17 15  1  0  0  0  0
 17 19  1  0  0  0  0
 18 20  1  0  0  0  0
 19 23  1  0  0  0  0
 20 22  1  0  0  0  0
 20 24  1  0  0  0  0
 21 19  1  0  0  0  0
M  END
>  <CHROM.1>
173.37129182,15.87835155,161.14034252,157.18916774,-73.71606234,-62.29410847
171.96934044,-152.78046088,-82.03234294,-74.88446220,10.92988629,-1.74765383
-1.58106778,-0.47373874,-0.41062333,-1.36308149

>  <Name>
lig.pdb

>  <RI>
2.48096e+07

>  <Rbt.Current_Directory>
/home/itssahil/PROJECTS/Mol_Feturizer/New_Systems/rnas/2l94

>  <Rbt.Executable>
rbdock ($Id: //depot/dev/client3/rdock/2013.1/src/exe/rbdock.cxx#4 $)

>  <Rbt.Library>
libRbt.so (2013.1, Build901 2013/11/27)

>  <Rbt.Parameter_File>
/export/apps/rDock/src/rDock_2013.1_src/data/scripts/dock_solv.prm

>  <Rbt.Receptor>
prm/pocket_docking_6.prm

>  <SCORE>
-20.6845

>  <SCORE.INTER>
-21.0725

>  <SCORE.INTER.CONST>
1

>  <SCORE.INTER.POLAR>
-3.07103

>  <SCORE.INTER.ROT>
10

>  <SCORE.INTER.SOLV>
12.7794

>  <SCORE.INTER.VDW>
-18.3381

>  <SCORE.INTER.norm>
-0.878022

>  <SCORE.INTRA>
0.388006

>  <SCORE.INTRA.DIHEDRAL>
3.36333

>  <SCORE.INTRA.DIHEDRAL.0>
7.52971

>  <SCORE.INTRA.POLAR>
0

>  <SCORE.INTRA.POLAR.0>
0

>  <SCORE.INTRA.REPUL>
0

>  <SCORE.INTRA.REPUL.0>
0

>  <SCORE.INTRA.SOLV>
0.135526

>  <SCORE.INTRA.SOLV.lig_0>
-22.1084

>  <SCORE.INTRA.VDW>
-1.36142

>  <SCORE.INTRA.VDW.0>
2.4256

>  <SCORE.INTRA.norm>
0.0161669

>  <SCORE.RESTR>
0

>  <SCORE.RESTR.CAVITY>
0

>  <SCORE.RESTR.norm>
0

>  <SCORE.SYSTEM>
0

>  <SCORE.SYSTEM.CONST>
0

>  <SCORE.SYSTEM.DIHEDRAL>
0

>  <SCORE.SYSTEM.SOLV>
0

>  <SCORE.SYSTEM.norm>
0

>  <SCORE.heavy>
24

>  <SCORE.norm>
-0.861855

>  <RMSD>
7.690

$$$$
lig.pdb
 OpenBabel11021811453D
libRbt.so/2013.1/901 2013/11/27
 24 24  0  0  0  0  0  0  0  0999 V2000
    2.9625   -5.0858   -2.8455 C   0  0  0  0  0  0  0  0  0  0  0  0
    2.7597   -6.4941   -2.6545 C   0  0  0  0  0  0  0  0  0  0  0  0
    2.0101   -6.9821   -1.6104 C   0  0  0  0  0  0  0  0  0  0  0  0
    1.3830   -6.1116   -0.6625 C   0  0  0  0  0  0  0  0  0  0  0  0
    1.6143   -4.7072   -0.8350 C   0  0  0  0  0  0  0  0  0  0  0  0
    2.3691   -4.2193   -1.8723 C   0  0  0  0  0  0  0  0  0  0  0  0
    3.6784   -4.5893   -3.8971 C   0  0  0  0  0  0  0  0  0  0  0  0
    3.2194   -3.5981   -4.6907 N   0  0  0  0  0  0  0  0  0  0  0  0
   -0.5325   -7.2786    0.1603 N   0  0  0  0  0  0  0  0  0  0  0  0
    0.6076   -6.5829    0.3555 C   0  0  0  0  0  0  0  0  0  0  0  0
    4.9104   -5.0538   -4.2216 N   0  0  0  0  0  0  0  0  0  0  0  0
    0.9193   -6.3888    1.6590 N   0  0  0  0  0  0  0  0  0  0  0  0
    6.0288   -4.2717   -4.7449 C   0  0  0  0  0  0  0  0  0  0  0  0
    0.4451   -7.1862    2.7858 C   0  0  0  0  0  0  0  0  0  0  0  0
    6.6301   -3.4660   -3.5820 C   0  0  0  0  0  0  0  0  0  0  0  0
    0.7188   -6.3915    4.0763 C   0  0  0  0  0  0  0  0  0  0  0  0
    7.1768   -4.3991   -2.4928 C   0  0  0  0  0  0  0  0  0  0  0  0
   -0.0730   -6.9273    5.2828 C   0  0  0  0  0  0  0  0  0  0  0  0
    7.6997   -3.5728   -1.3457 N   0  0  0  0  0  0  0  0  0  0  0  0
    0.4870   -6.4128    6.5849 N   0  0  0  0  0  0  0  0  0  0  0  0
    9.0911   -4.0174   -0.9854 C   0  0  0  0  0  0  0  0  0  0  0  0
    1.3958   -7.4602    7.1704 C   0  0  0  0  0  0  0  0  0  0  0  0
    6.8010   -3.6964   -0.1403 C   0  0  0  0  0  0  0  0  0  0  0  0
   -0.5928   -6.0918    7.5803 C   0  0  0  0  0  0  0  0  0  0  0  0
  1  6  2  0  0  0  0
  2  3  2  0  0  0  0
  2  1  1  0  0  0  0
  3  4  1  0  0  0  0
  4 10  1  0  0  0  0
  4  5  2  0  0  0  0
  6  5  1  0  0  0  0
  7  1  1  0  0  0  0
  7 11  1  0  0  0  0
  8  7  2  0  0  0  0
  9 10  2  0  0  0  0
 10 12  1  0  0  0  0
 12 14  1  0  0  0  0
 13 11  1  0  0  0  0
 13 15  1  0  0  0  0
 14 16  1  0  0  0  0
 16 18  1  0  0  0  0
 17 15  1  0  0  0  0
 17 19  1  0  0  0  0
 18 20  1  0  0  0  0
 19 23  1  0  0  0  0
 20 22  1  0  0  0  0
 20 24  1  0  0  0  0
 21 19  1  0  0  0  0
M  END
>  <CHROM.1>
-61.90785973,130.46991058,-164.43536793,75.58965268,61.97793114,163.95962983
163.78292596,-177.46914801,-129.66681655,-97.70496908,3.01856663,-5.44408211
0.04371827,0.97190936,-0.32892374,-1.49284869

>  <Name>
lig.pdb

>  <RI>
3.30914e+07

>  <Rbt.Current_Directory>
/home/itssahil/PROJECTS/Mol_Feturizer/New_Systems/rnas/2l94

>  <Rbt.Executable>
rbdock ($Id: //depot/dev/client3/rdock/2013.1/src/exe/rbdock.cxx#4 $)

>  <Rbt.Library>
libRbt.so (2013.1, Build901 2013/11/27)

>  <Rbt.Parameter_File>
/export/apps/rDock/src/rDock_2013.1_src/data/scripts/dock_solv.prm

>  <Rbt.Receptor>
prm/blind_docking_80.prm

>  <SCORE>
-0.377311

>  <SCORE.INTER>
-8.25895

>  <SCORE.INTER.CONST>
1

>  <SCORE.INTER.POLAR>
-1.17868

>  <SCORE.INTER.ROT>
10

>  <SCORE.INTER.SOLV>
17.5412

>  <SCORE.INTER.VDW>
-17.6908

>  <SCORE.INTER.norm>
-0.344123

>  <SCORE.INTRA>
7.43957

>  <SCORE.INTRA.DIHEDRAL>
22.448

>  <SCORE.INTRA.DIHEDRAL.0>
7.52971

>  <SCORE.INTRA.POLAR>
0

>  <SCORE.INTRA.POLAR.0>
0

>  <SCORE.INTRA.REPUL>
0

>  <SCORE.INTRA.REPUL.0>
0

>  <SCORE.INTRA.SOLV>
-0.0895533

>  <SCORE.INTRA.SOLV.lig_0>
-22.1084

>  <SCORE.INTRA.VDW>
-3.73963

>  <SCORE.INTRA.VDW.0>
2.4256

>  <SCORE.INTRA.norm>
0.309982

>  <SCORE.RESTR>
0.442067

>  <SCORE.RESTR.CAVITY>
0.442067

>  <SCORE.RESTR.norm>
0.0184194

>  <SCORE.SYSTEM>
0

>  <SCORE.SYSTEM.CONST>
0

>  <SCORE.SYSTEM.DIHEDRAL>
0

>  <SCORE.SYSTEM.SOLV>
0

>  <SCORE.SYSTEM.norm>
0

>  <SCORE.heavy>
24

>  <SCORE.norm>
-0.0157213

>  <RMSD>
7.697

$$$$
lig.pdb
 OpenBabel11021811453D
libRbt.so/2013.1/901 2013/11/27
 24 24  0  0  0  0  0  0  0  0999 V2000
    2.9411   -5.9120   -1.9466 C   0  0  0  0  0  0  0  0  0  0  0  0
    2.7881   -7.3344   -1.8263 C   0  0  0  0  0  0  0  0  0  0  0  0
    2.1784   -7.9067   -0.7350 C   0  0  0  0  0  0  0  0  0  0  0  0
    1.6542   -7.1146    0.3360 C   0  0  0  0  0  0  0  0  0  0  0  0
    1.8378   -5.6965    0.2305 C   0  0  0  0  0  0  0  0  0  0  0  0
    2.4535   -5.1245   -0.8547 C   0  0  0  0  0  0  0  0  0  0  0  0
    3.5163   -5.3316   -3.0407 C   0  0  0  0  0  0  0  0  0  0  0  0
    2.7945   -4.7982   -4.0494 N   0  0  0  0  0  0  0  0  0  0  0  0
    1.0226   -8.9928    1.6707 N   0  0  0  0  0  0  0  0  0  0  0  0
    1.0155   -7.6693    1.4056 C   0  0  0  0  0  0  0  0  0  0  0  0
    4.8608   -5.2436   -3.1945 N   0  0  0  0  0  0  0  0  0  0  0  0
    0.3131   -6.9316    2.2979 N   0  0  0  0  0  0  0  0  0  0  0  0
    5.5991   -4.1439   -3.8126 C   0  0  0  0  0  0  0  0  0  0  0  0
   -0.0201   -7.3211    3.6646 C   0  0  0  0  0  0  0  0  0  0  0  0
    5.9226   -3.1145   -2.7177 C   0  0  0  0  0  0  0  0  0  0  0  0
   -1.1071   -6.3591    4.1791 C   0  0  0  0  0  0  0  0  0  0  0  0
    7.3655   -3.2776   -2.2203 C   0  0  0  0  0  0  0  0  0  0  0  0
   -0.6874   -5.6210    5.4632 C   0  0  0  0  0  0  0  0  0  0  0  0
    7.4211   -4.3967   -1.2121 N   0  0  0  0  0  0  0  0  0  0  0  0
   -1.8338   -4.8375    6.0510 N   0  0  0  0  0  0  0  0  0  0  0  0
    6.8488   -3.9342    0.1001 C   0  0  0  0  0  0  0  0  0  0  0  0
   -2.0189   -3.5748    5.2530 C   0  0  0  0  0  0  0  0  0  0  0  0
    8.8401   -4.8664   -1.0077 C   0  0  0  0  0  0  0  0  0  0  0  0
   -1.5952   -4.4748    7.4902 C   0  0  0  0  0  0  0  0  0  0  0  0
  1  6  2  0  0  0  0
  2  3  2  0  0  0  0
  2  1  1  0  0  0  0
  3  4  1  0  0  0  0
  4 10  1  0  0  0  0
  4  5  2  0  0  0  0
  6  5  1  0  0  0  0
  7  1  1  0  0  0  0
  7 11  1  0  0  0  0
  8  7  2  0  0  0  0
  9 10  2  0  0  0  0
 10 12  1  0  0  0  0
 12 14  1  0  0  0  0
 13 11  1  0  0  0  0
 13 15  1  0  0  0  0
 14 16  1  0  0  0  0
 16 18  1  0  0  0  0
 17 15  1  0  0  0  0
 17 19  1  0  0  0  0
 18 20  1  0  0  0  0
 19 23  1  0  0  0  0
 20 22  1  0  0  0  0
 20 24  1  0  0  0  0
 21 19  1  0  0  0  0
M  END
>  <CHROM.1>
11.93399687,98.76666321,-165.91987332,89.00367232,99.55196986,-122.54774368
-172.00091647,-81.44126880,-75.62747624,-77.40433146,2.59156483,-5.55098325
0.53948296,0.61379873,-0.58128910,-2.07922155

>  <Name>
lig.pdb

>  <RI>
3.93418e+07

>  <Rbt.Current_Directory>
/home/itssahil/PROJECTS/Mol_Feturizer/New_Systems/rnas/2l94

>  <Rbt.Executable>
rbdock ($Id: //depot/dev/client3/rdock/2013.1/src/exe/rbdock.cxx#4 $)

>  <Rbt.Library>
libRbt.so (2013.1, Build901 2013/11/27)

>  <Rbt.Parameter_File>
/export/apps/rDock/src/rDock_2013.1_src/data/scripts/dock_solv.prm

>  <Rbt.Receptor>
prm/blind_docking_20.prm

>  <SCORE>
-3.73898

>  <SCORE.INTER>
-13.3221

>  <SCORE.INTER.CONST>
1

>  <SCORE.INTER.POLAR>
-2.47712

>  <SCORE.INTER.ROT>
10

>  <SCORE.INTER.SOLV>
14.6952

>  <SCORE.INTER.VDW>
-15.7894

>  <SCORE.INTER.norm>
-0.555089

>  <SCORE.INTRA>
8.65576

>  <SCORE.INTRA.DIHEDRAL>
23.1446

>  <SCORE.INTRA.DIHEDRAL.0>
7.52971

>  <SCORE.INTRA.POLAR>
0

>  <SCORE.INTRA.POLAR.0>
0

>  <SCORE.INTRA.REPUL>
0

>  <SCORE.INTRA.REPUL.0>
0

>  <SCORE.INTRA.SOLV>
0.412151

>  <SCORE.INTRA.SOLV.lig_0>
-22.1084

>  <SCORE.INTRA.VDW>
-3.12262

>  <SCORE.INTRA.VDW.0>
2.4256

>  <SCORE.INTRA.norm>
0.360657

>  <SCORE.RESTR>
0.927382

>  <SCORE.RESTR.CAVITY>
0.927382

>  <SCORE.RESTR.norm>
0.0386409

>  <SCORE.SYSTEM>
0

>  <SCORE.SYSTEM.CONST>
0

>  <SCORE.SYSTEM.DIHEDRAL>
0

>  <SCORE.SYSTEM.SOLV>
0

>  <SCORE.SYSTEM.norm>
0

>  <SCORE.heavy>
24

>  <SCORE.norm>
-0.155791

>  <RMSD>
7.699

$$$$
lig.pdb
 OpenBabel11021811453D
libRbt.so/2013.1/901 2013/11/27
 24 24  0  0  0  0  0  0  0  0999 V2000
    1.6540   -6.6650    1.2875 C   0  0  0  0  0  0  0  0  0  0  0  0
    1.9447   -5.2970    0.9629 C   0  0  0  0  0  0  0  0  0  0  0  0
    2.6626   -4.9565   -0.1591 C   0  0  0  0  0  0  0  0  0  0  0  0
    3.1505   -5.9472   -1.0700 C   0  0  0  0  0  0  0  0  0  0  0  0
    2.8885   -7.3145   -0.7268 C   0  0  0  0  0  0  0  0  0  0  0  0
    2.1789   -7.6560    0.3973 C   0  0  0  0  0  0  0  0  0  0  0  0
    0.9149   -7.0123    2.3819 C   0  0  0  0  0  0  0  0  0  0  0  0
    0.9475   -8.2487    2.9236 N   0  0  0  0  0  0  0  0  0  0  0  0
    4.1111   -6.5031   -3.1858 N   0  0  0  0  0  0  0  0  0  0  0  0
    3.8321   -5.6190   -2.2046 C   0  0  0  0  0  0  0  0  0  0  0  0
    0.0926   -6.1368    3.0115 N   0  0  0  0  0  0  0  0  0  0  0  0
    4.2913   -4.3674   -2.4427 N   0  0  0  0  0  0  0  0  0  0  0  0
   -0.1690   -6.0623    4.4476 C   0  0  0  0  0  0  0  0  0  0  0  0
    4.6199   -3.8046   -3.7487 C   0  0  0  0  0  0  0  0  0  0  0  0
   -1.6406   -6.4395    4.6824 C   0  0  0  0  0  0  0  0  0  0  0  0
    6.1040   -4.1025   -4.0324 C   0  0  0  0  0  0  0  0  0  0  0  0
   -2.1179   -5.9568    6.0591 C   0  0  0  0  0  0  0  0  0  0  0  0
    7.0500   -3.4099   -3.0347 C   0  0  0  0  0  0  0  0  0  0  0  0
   -2.0411   -4.4525    6.1134 N   0  0  0  0  0  0  0  0  0  0  0  0
    7.2625   -4.2487   -1.7999 N   0  0  0  0  0  0  0  0  0  0  0  0
   -2.0754   -3.9881    7.5440 C   0  0  0  0  0  0  0  0  0  0  0  0
    6.8520   -3.4488   -0.5928 C   0  0  0  0  0  0  0  0  0  0  0  0
   -3.1835   -3.8278    5.3512 C   0  0  0  0  0  0  0  0  0  0  0  0
    8.6962   -4.6719   -1.6405 C   0  0  0  0  0  0  0  0  0  0  0  0
  1  6  2  0  0  0  0
  2  3  2  0  0  0  0
  2  1  1  0  0  0  0
  3  4  1  0  0  0  0
  4 10  1  0  0  0  0
  4  5  2  0  0  0  0
  6  5  1  0  0  0  0
  7  1  1  0  0  0  0
  7 11  1  0  0  0  0
  8  7  2  0  0  0  0
  9 10  2  0  0  0  0
 10 12  1  0  0  0  0
 12 14  1  0  0  0  0
 13 11  1  0  0  0  0
 13 15  1  0  0  0  0
 14 16  1  0  0  0  0
 16 18  1  0  0  0  0
 17 15  1  0  0  0  0
 17 19  1  0  0  0  0
 18 20  1  0  0  0  0
 19 23  1  0  0  0  0
 20 22  1  0  0  0  0
 20 24  1  0  0  0  0
 21 19  1  0  0  0  0
M  END
>  <CHROM.1>
-168.74469006,-160.29196609,-89.93725785,-113.85092157,-161.52538810,-63.88078329
86.72822657,62.55522201,-162.10163288,-122.48056653,2.42201915,-5.39182620
0.89460918,2.74554770,0.72188806,0.67333266

>  <Name>
lig.pdb

>  <RI>
3.30914e+07

>  <Rbt.Current_Directory>
/home/itssahil/PROJECTS/Mol_Feturizer/New_Systems/rnas/2l94

>  <Rbt.Executable>
rbdock ($Id: //depot/dev/client3/rdock/2013.1/src/exe/rbdock.cxx#4 $)

>  <Rbt.Library>
libRbt.so (2013.1, Build901 2013/11/27)

>  <Rbt.Parameter_File>
/export/apps/rDock/src/rDock_2013.1_src/data/scripts/dock_solv.prm

>  <Rbt.Receptor>
prm/blind_docking_80.prm

>  <SCORE>
-7.55122

>  <SCORE.INTER>
-8.97854

>  <SCORE.INTER.CONST>
1

>  <SCORE.INTER.POLAR>
-1.48795

>  <SCORE.INTER.ROT>
10

>  <SCORE.INTER.SOLV>
17.2774

>  <SCORE.INTER.VDW>
-17.0517

>  <SCORE.INTER.norm>
-0.374106

>  <SCORE.INTRA>
1.22131

>  <SCORE.INTRA.DIHEDRAL>
6.99762

>  <SCORE.INTRA.DIHEDRAL.0>
7.52971

>  <SCORE.INTRA.POLAR>
0

>  <SCORE.INTRA.POLAR.0>
0

>  <SCORE.INTRA.REPUL>
0

>  <SCORE.INTRA.REPUL.0>
0

>  <SCORE.INTRA.SOLV>
1.49129

>  <SCORE.INTRA.SOLV.lig_0>
-22.1084

>  <SCORE.INTRA.VDW>
-3.02314

>  <SCORE.INTRA.VDW.0>
2.4256

>  <SCORE.INTRA.norm>
0.050888

>  <SCORE.RESTR>
0.20601

>  <SCORE.RESTR.CAVITY>
0.20601

>  <SCORE.RESTR.norm>
0.00858375

>  <SCORE.SYSTEM>
0

>  <SCORE.SYSTEM.CONST>
0

>  <SCORE.SYSTEM.DIHEDRAL>
0

>  <SCORE.SYSTEM.SOLV>
0

>  <SCORE.SYSTEM.norm>
0

>  <SCORE.heavy>
24

>  <SCORE.norm>
-0.314634

>  <RMSD>
7.707

$$$$
lig.pdb
 OpenBabel11021811453D
libRbt.so/2013.1/901 2013/11/27
 24 24  0  0  0  0  0  0  0  0999 V2000
    3.1074   -4.8814   -1.8321 C   0  0  0  0  0  0  0  0  0  0  0  0
    3.4607   -5.0519   -0.4511 C   0  0  0  0  0  0  0  0  0  0  0  0
    2.5659   -5.5446    0.4691 C   0  0  0  0  0  0  0  0  0  0  0  0
    1.2363   -5.9236    0.0979 C   0  0  0  0  0  0  0  0  0  0  0  0
    0.8742   -5.7212   -1.2746 C   0  0  0  0  0  0  0  0  0  0  0  0
    1.7641   -5.2219   -2.1924 C   0  0  0  0  0  0  0  0  0  0  0  0
    3.9981   -4.4231   -2.7602 C   0  0  0  0  0  0  0  0  0  0  0  0
    3.6166   -3.7756   -3.8820 N   0  0  0  0  0  0  0  0  0  0  0  0
   -0.7178   -7.1883    0.6370 N   0  0  0  0  0  0  0  0  0  0  0  0
    0.3523   -6.4473    0.9946 C   0  0  0  0  0  0  0  0  0  0  0  0
    5.3379   -4.5810   -2.6221 N   0  0  0  0  0  0  0  0  0  0  0  0
    0.4750   -6.2643    2.3308 N   0  0  0  0  0  0  0  0  0  0  0  0
    6.3756   -3.6379   -3.0343 C   0  0  0  0  0  0  0  0  0  0  0  0
   -0.1107   -7.1027    3.3722 C   0  0  0  0  0  0  0  0  0  0  0  0
    7.7225   -4.1500   -2.4991 C   0  0  0  0  0  0  0  0  0  0  0  0
    0.1830   -6.4423    4.7321 C   0  0  0  0  0  0  0  0  0  0  0  0
    7.6328   -4.4666   -0.9999 C   0  0  0  0  0  0  0  0  0  0  0  0
    0.1681   -7.4489    5.8967 C   0  0  0  0  0  0  0  0  0  0  0  0
    7.3632   -3.1946   -0.2377 N   0  0  0  0  0  0  0  0  0  0  0  0
    0.5542   -6.7944    7.1990 N   0  0  0  0  0  0  0  0  0  0  0  0
    8.6626   -2.5330    0.1328 C   0  0  0  0  0  0  0  0  0  0  0  0
    1.1455   -7.8366    8.1099 C   0  0  0  0  0  0  0  0  0  0  0  0
    6.5642   -3.4748    1.0110 C   0  0  0  0  0  0  0  0  0  0  0  0
   -0.6218   -6.1570    7.8851 C   0  0  0  0  0  0  0  0  0  0  0  0
  1  6  2  0  0  0  0
  2  3  2  0  0  0  0
  2  1  1  0  0  0  0
  3  4  1  0  0  0  0
  4 10  1  0  0  0  0
  4  5  2  0  0  0  0
  6  5  1  0  0  0  0
  7  1  1  0  0  0  0
  7 11  1  0  0  0  0
  8  7  2  0  0  0  0
  9 10  2  0  0  0  0
 10 12  1  0  0  0  0
 12 14  1  0  0  0  0
 13 11  1  0  0  0  0
 13 15  1  0  0  0  0
 14 16  1  0  0  0  0
 16 18  1  0  0  0  0
 17 15  1  0  0  0  0
 17 19  1  0  0  0  0
 18 20  1  0  0  0  0
 19 23  1  0  0  0  0
 20 22  1  0  0  0  0
 20 24  1  0  0  0  0
 21 19  1  0  0  0  0
M  END
>  <CHROM.1>
-158.43812776,-153.58367869,-174.83921005,172.08807947,-50.86556797,-155.78373498
175.95644770,-64.46574984,-89.13769049,-153.56245518,3.01539678,-5.33422765
0.95820735,0.89339533,-0.35537708,-1.46427688

>  <Name>
lig.pdb

>  <RI>
3.30914e+07

>  <Rbt.Current_Directory>
/home/itssahil/PROJECTS/Mol_Feturizer/New_Systems/rnas/2l94

>  <Rbt.Executable>
rbdock ($Id: //depot/dev/client3/rdock/2013.1/src/exe/rbdock.cxx#4 $)

>  <Rbt.Library>
libRbt.so (2013.1, Build901 2013/11/27)

>  <Rbt.Parameter_File>
/export/apps/rDock/src/rDock_2013.1_src/data/scripts/dock_solv.prm

>  <Rbt.Receptor>
prm/blind_docking_80.prm

>  <SCORE>
-6.84548

>  <SCORE.INTER>
-10.4468

>  <SCORE.INTER.CONST>
1

>  <SCORE.INTER.POLAR>
-1.7329

>  <SCORE.INTER.ROT>
10

>  <SCORE.INTER.SOLV>
16.733

>  <SCORE.INTER.VDW>
-17.0325

>  <SCORE.INTER.norm>
-0.435281

>  <SCORE.INTRA>
2.55959

>  <SCORE.INTRA.DIHEDRAL>
7.13099

>  <SCORE.INTRA.DIHEDRAL.0>
7.52971

>  <SCORE.INTRA.POLAR>
0

>  <SCORE.INTRA.POLAR.0>
0

>  <SCORE.INTRA.REPUL>
0

>  <SCORE.INTRA.REPUL.0>
0

>  <SCORE.INTRA.SOLV>
0.390867

>  <SCORE.INTRA.SOLV.lig_0>
-22.1084

>  <SCORE.INTRA.VDW>
-1.20134

>  <SCORE.INTRA.VDW.0>
2.4256

>  <SCORE.INTRA.norm>
0.106649

>  <SCORE.RESTR>
1.04168

>  <SCORE.RESTR.CAVITY>
1.04168

>  <SCORE.RESTR.norm>
0.0434035

>  <SCORE.SYSTEM>
0

>  <SCORE.SYSTEM.CONST>
0

>  <SCORE.SYSTEM.DIHEDRAL>
0

>  <SCORE.SYSTEM.SOLV>
0

>  <SCORE.SYSTEM.norm>
0

>  <SCORE.heavy>
24

>  <SCORE.norm>
-0.285228

>  <RMSD>
7.711

$$$$
lig.pdb
 OpenBabel11021811453D
libRbt.so/2013.1/901 2013/11/27
 24 24  0  0  0  0  0  0  0  0999 V2000
    9.5736   -3.1602   -1.2350 C   0  0  0  0  0  0  0  0  0  0  0  0
   10.6319   -3.1371   -2.2048 C   0  0  0  0  0  0  0  0  0  0  0  0
   11.8238   -2.4971   -1.9600 C   0  0  0  0  0  0  0  0  0  0  0  0
   12.0778   -1.8274   -0.7205 C   0  0  0  0  0  0  0  0  0  0  0  0
   11.0076   -1.8225    0.2337 C   0  0  0  0  0  0  0  0  0  0  0  0
    9.8144   -2.4541   -0.0129 C   0  0  0  0  0  0  0  0  0  0  0  0
    8.3984   -3.8198   -1.4554 C   0  0  0  0  0  0  0  0  0  0  0  0
    7.7703   -4.5341   -0.4971 N   0  0  0  0  0  0  0  0  0  0  0  0
   14.3529   -1.3264   -1.2508 N   0  0  0  0  0  0  0  0  0  0  0  0
   13.2694   -1.2206   -0.4528 C   0  0  0  0  0  0  0  0  0  0  0  0
    7.7697   -3.8033   -2.6569 N   0  0  0  0  0  0  0  0  0  0  0  0
   13.4669   -0.4557    0.6472 N   0  0  0  0  0  0  0  0  0  0  0  0
    6.3264   -3.7915   -2.8873 C   0  0  0  0  0  0  0  0  0  0  0  0
   14.4963    0.5659    0.8122 C   0  0  0  0  0  0  0  0  0  0  0  0
    6.0784   -3.2938   -4.3204 C   0  0  0  0  0  0  0  0  0  0  0  0
   13.8686    1.7522    1.5674 C   0  0  0  0  0  0  0  0  0  0  0  0
    6.5881   -1.8570   -4.4985 C   0  0  0  0  0  0  0  0  0  0  0  0
   14.8898    2.8583    1.8894 C   0  0  0  0  0  0  0  0  0  0  0  0
    6.0804   -1.3071   -5.8068 N   0  0  0  0  0  0  0  0  0  0  0  0
   15.8653    2.4187    2.9517 N   0  0  0  0  0  0  0  0  0  0  0  0
    6.9121   -0.1248   -6.2238 C   0  0  0  0  0  0  0  0  0  0  0  0
   15.1722    2.4425    4.2875 C   0  0  0  0  0  0  0  0  0  0  0  0
    4.6344   -0.8928   -5.6911 C   0  0  0  0  0  0  0  0  0  0  0  0
   17.0760    3.3076    3.0141 C   0  0  0  0  0  0  0  0  0  0  0  0
  1  6  2  0  0  0  0
  2  3  2  0  0  0  0
  2  1  1  0  0  0  0
  3  4  1  0  0  0  0
  4 10  1  0  0  0  0
  4  5  2  0  0  0  0
  6  5  1  0  0  0  0
  7  1  1  0  0  0  0
  7 11  1  0  0  0  0
  8  7  2  0  0  0  0
  9 10  2  0  0  0  0
 10 12  1  0  0  0  0
 12 14  1  0  0  0  0
 13 11  1  0  0  0  0
 13 15  1  0  0  0  0
 14 16  1  0  0  0  0
 16 18  1  0  0  0  0
 17 15  1  0  0  0  0
 17 19  1  0  0  0  0
 18 20  1  0  0  0  0
 19 23  1  0  0  0  0
 20 22  1  0  0  0  0
 20 24  1  0  0  0  0
 21 19  1  0  0  0  0
M  END
>  <CHROM.1>
-7.89915383,139.66581829,140.47959148,160.78490261,-62.32328359,175.97540810
-70.64633464,-168.43591066,-160.95332303,-75.06420846,10.75369487,-1.11370743
-1.10937197,-3.05679597,-0.71933266,-0.45885884

>  <Name>
lig.pdb

>  <RI>
1.39428e+07

>  <Rbt.Current_Directory>
/home/itssahil/PROJECTS/Mol_Feturizer/New_Systems/rnas/2l94

>  <Rbt.Executable>
rbdock ($Id: //depot/dev/client3/rdock/2013.1/src/exe/rbdock.cxx#4 $)

>  <Rbt.Library>
libRbt.so (2013.1, Build901 2013/11/27)

>  <Rbt.Parameter_File>
/export/apps/rDock/src/rDock_2013.1_src/data/scripts/dock_solv.prm

>  <Rbt.Receptor>
prm/pocket_docking_8.prm

>  <SCORE>
-20.1137

>  <SCORE.INTER>
-21.0067

>  <SCORE.INTER.CONST>
1

>  <SCORE.INTER.POLAR>
-3.56429

>  <SCORE.INTER.ROT>
10

>  <SCORE.INTER.SOLV>
10.7914

>  <SCORE.INTER.VDW>
-15.9873

>  <SCORE.INTER.norm>
-0.875281

>  <SCORE.INTRA>
0.893077

>  <SCORE.INTRA.DIHEDRAL>
5.14819

>  <SCORE.INTRA.DIHEDRAL.0>
7.52971

>  <SCORE.INTRA.POLAR>
0

>  <SCORE.INTRA.POLAR.0>
0

>  <SCORE.INTRA.REPUL>
0

>  <SCORE.INTRA.REPUL.0>
0

>  <SCORE.INTRA.SOLV>
-0.138777

>  <SCORE.INTRA.SOLV.lig_0>
-22.1084

>  <SCORE.INTRA.VDW>
-1.61163

>  <SCORE.INTRA.VDW.0>
2.4256

>  <SCORE.INTRA.norm>
0.0372115

>  <SCORE.RESTR>
0

>  <SCORE.RESTR.CAVITY>
0

>  <SCORE.RESTR.norm>
0

>  <SCORE.SYSTEM>
0

>  <SCORE.SYSTEM.CONST>
0

>  <SCORE.SYSTEM.DIHEDRAL>
0

>  <SCORE.SYSTEM.SOLV>
0

>  <SCORE.SYSTEM.norm>
0

>  <SCORE.heavy>
24

>  <SCORE.norm>
-0.838069

>  <RMSD>
7.735

$$$$
lig.pdb
 OpenBabel11021811453D
libRbt.so/2013.1/901 2013/11/27
 24 24  0  0  0  0  0  0  0  0999 V2000
    1.4059   -6.4455    1.3416 C   0  0  0  0  0  0  0  0  0  0  0  0
    2.3975   -7.2787    0.7224 C   0  0  0  0  0  0  0  0  0  0  0  0
    2.8449   -7.0428   -0.5560 C   0  0  0  0  0  0  0  0  0  0  0  0
    2.3533   -5.9472   -1.3354 C   0  0  0  0  0  0  0  0  0  0  0  0
    1.3387   -5.1362   -0.7283 C   0  0  0  0  0  0  0  0  0  0  0  0
    0.8854   -5.3757    0.5449 C   0  0  0  0  0  0  0  0  0  0  0  0
    0.9779   -6.6518    2.6218 C   0  0  0  0  0  0  0  0  0  0  0  0
    1.1093   -7.8375    3.2543 N   0  0  0  0  0  0  0  0  0  0  0  0
    2.0087   -5.4819   -3.6534 N   0  0  0  0  0  0  0  0  0  0  0  0
    2.8162   -5.6822   -2.5905 C   0  0  0  0  0  0  0  0  0  0  0  0
    0.3902   -5.6762    3.3580 N   0  0  0  0  0  0  0  0  0  0  0  0
    4.1371   -5.5989   -2.8776 N   0  0  0  0  0  0  0  0  0  0  0  0
    0.5300   -5.4641    4.7974 C   0  0  0  0  0  0  0  0  0  0  0  0
    4.7281   -4.9097   -4.0205 C   0  0  0  0  0  0  0  0  0  0  0  0
   -0.7586   -4.7983    5.3066 C   0  0  0  0  0  0  0  0  0  0  0  0
    5.1528   -3.5037   -3.5572 C   0  0  0  0  0  0  0  0  0  0  0  0
   -0.7843   -4.7542    6.8407 C   0  0  0  0  0  0  0  0  0  0  0  0
    6.6499   -3.4206   -3.2081 C   0  0  0  0  0  0  0  0  0  0  0  0
   -1.9479   -3.9107    7.2951 N   0  0  0  0  0  0  0  0  0  0  0  0
    6.9761   -4.2246   -1.9750 N   0  0  0  0  0  0  0  0  0  0  0  0
   -1.5116   -2.4802    7.4590 C   0  0  0  0  0  0  0  0  0  0  0  0
    6.4116   -3.5187   -0.7714 C   0  0  0  0  0  0  0  0  0  0  0  0
   -2.5057   -4.4221    8.6002 C   0  0  0  0  0  0  0  0  0  0  0  0
    8.4572   -4.4010   -1.7872 C   0  0  0  0  0  0  0  0  0  0  0  0
  1  6  2  0  0  0  0
  2  3  2  0  0  0  0
  2  1  1  0  0  0  0
  3  4  1  0  0  0  0
  4 10  1  0  0  0  0
  4  5  2  0  0  0  0
  6  5  1  0  0  0  0
  7  1  1  0  0  0  0
  7 11  1  0  0  0  0
  8  7  2  0  0  0  0
  9 10  2  0  0  0  0
 10 12  1  0  0  0  0
 12 14  1  0  0  0  0
 13 11  1  0  0  0  0
 13 15  1  0  0  0  0
 14 16  1  0  0  0  0
 16 18  1  0  0  0  0
 17 15  1  0  0  0  0
 17 19  1  0  0  0  0
 18 20  1  0  0  0  0
 19 23  1  0  0  0  0
 20 22  1  0  0  0  0
 20 24  1  0  0  0  0
 21 19  1  0  0  0  0
M  END
>  <CHROM.1>
130.02298567,-21.13916753,95.98738563,-151.47717416,170.62448340,98.06723438
-67.91411244,171.26111039,-91.20482070,-71.69232391,2.25990976,-5.12940282
1.09735491,2.31458913,0.54921306,1.11954986

>  <Name>
lig.pdb

>  <RI>
2.41306e+07

>  <Rbt.Current_Directory>
/home/itssahil/PROJECTS/Mol_Feturizer/New_Systems/rnas/2l94

>  <Rbt.Executable>
rbdock ($Id: //depot/dev/client3/rdock/2013.1/src/exe/rbdock.cxx#4 $)

>  <Rbt.Library>
libRbt.so (2013.1, Build901 2013/11/27)

>  <Rbt.Parameter_File>
/export/apps/rDock/src/rDock_2013.1_src/data/scripts/dock_solv.prm

>  <Rbt.Receptor>
prm/blind_docking_40.prm

>  <SCORE>
-5.97833

>  <SCORE.INTER>
-11.148

>  <SCORE.INTER.CONST>
1

>  <SCORE.INTER.POLAR>
-2.14913

>  <SCORE.INTER.ROT>
10

>  <SCORE.INTER.SOLV>
17.9726

>  <SCORE.INTER.VDW>
-16.5258

>  <SCORE.INTER.norm>
-0.464501

>  <SCORE.INTRA>
4.02844

>  <SCORE.INTRA.DIHEDRAL>
13.569

>  <SCORE.INTRA.DIHEDRAL.0>
7.52971

>  <SCORE.INTRA.POLAR>
0

>  <SCORE.INTRA.POLAR.0>
0

>  <SCORE.INTRA.REPUL>
0

>  <SCORE.INTRA.REPUL.0>
0

>  <SCORE.INTRA.SOLV>
0.514652

>  <SCORE.INTRA.SOLV.lig_0>
-22.1084

>  <SCORE.INTRA.VDW>
-3.01338

>  <SCORE.INTRA.VDW.0>
2.4256

>  <SCORE.INTRA.norm>
0.167852

>  <SCORE.RESTR>
1.14127

>  <SCORE.RESTR.CAVITY>
1.14127

>  <SCORE.RESTR.norm>
0.0475528

>  <SCORE.SYSTEM>
0

>  <SCORE.SYSTEM.CONST>
0

>  <SCORE.SYSTEM.DIHEDRAL>
0

>  <SCORE.SYSTEM.SOLV>
0

>  <SCORE.SYSTEM.norm>
0

>  <SCORE.heavy>
24

>  <SCORE.norm>
-0.249097

>  <RMSD>
7.749

$$$$
lig.pdb
 OpenBabel11021811453D
libRbt.so/2013.1/901 2013/11/27
 24 24  0  0  0  0  0  0  0  0999 V2000
    0.8825   -6.6817   -0.4672 C   0  0  0  0  0  0  0  0  0  0  0  0
    1.0672   -5.2586   -0.5088 C   0  0  0  0  0  0  0  0  0  0  0  0
    2.0033   -4.6743   -1.3288 C   0  0  0  0  0  0  0  0  0  0  0  0
    2.8378   -5.4528   -2.1930 C   0  0  0  0  0  0  0  0  0  0  0  0
    2.6755   -6.8757   -2.1256 C   0  0  0  0  0  0  0  0  0  0  0  0
    1.7469   -7.4607   -1.3014 C   0  0  0  0  0  0  0  0  0  0  0  0
   -0.0659   -7.2700    0.3198 C   0  0  0  0  0  0  0  0  0  0  0  0
   -0.9236   -8.2041   -0.1439 N   0  0  0  0  0  0  0  0  0  0  0  0
    3.4082   -3.9980   -4.0004 N   0  0  0  0  0  0  0  0  0  0  0  0
    3.7442   -4.8816   -3.0368 C   0  0  0  0  0  0  0  0  0  0  0  0
   -0.2151   -6.9618    1.6319 N   0  0  0  0  0  0  0  0  0  0  0  0
    5.0687   -5.1573   -2.9787 N   0  0  0  0  0  0  0  0  0  0  0  0
   -0.5877   -7.8785    2.7076 C   0  0  0  0  0  0  0  0  0  0  0  0
    6.1464   -4.3185   -3.4939 C   0  0  0  0  0  0  0  0  0  0  0  0
   -1.7281   -7.2311    3.5096 C   0  0  0  0  0  0  0  0  0  0  0  0
    6.5080   -3.2911   -2.4052 C   0  0  0  0  0  0  0  0  0  0  0  0
   -1.2055   -6.0712    4.3684 C   0  0  0  0  0  0  0  0  0  0  0  0
    6.6549   -3.9290   -1.0119 C   0  0  0  0  0  0  0  0  0  0  0  0
   -0.2070   -6.6006    5.3656 N   0  0  0  0  0  0  0  0  0  0  0  0
    8.0997   -4.2024   -0.6779 N   0  0  0  0  0  0  0  0  0  0  0  0
   -0.6061   -6.1926    6.7576 C   0  0  0  0  0  0  0  0  0  0  0  0
    8.8461   -2.8958   -0.6446 C   0  0  0  0  0  0  0  0  0  0  0  0
    1.1785   -6.0848    5.0649 C   0  0  0  0  0  0  0  0  0  0  0  0
    8.7524   -5.1120   -1.6812 C   0  0  0  0  0  0  0  0  0  0  0  0
  1  6  2  0  0  0  0
  2  3  2  0  0  0  0
  2  1  1  0  0  0  0
  3  4  1  0  0  0  0
  4 10  1  0  0  0  0
  4  5  2  0  0  0  0
  6  5  1  0  0  0  0
  7  1  1  0  0  0  0
  7 11  1  0  0  0  0
  8  7  2  0  0  0  0
  9 10  2  0  0  0  0
 10 12  1  0  0  0  0
 12 14  1  0  0  0  0
 13 11  1  0  0  0  0
 13 15  1  0  0  0  0
 14 16  1  0  0  0  0
 16 18  1  0  0  0  0
 17 15  1  0  0  0  0
 17 19  1  0  0  0  0
 18 20  1  0  0  0  0
 19 23  1  0  0  0  0
 20 22  1  0  0  0  0
 20 24  1  0  0  0  0
 21 19  1  0  0  0  0
M  END
>  <CHROM.1>
-59.01213168,131.24316390,85.73948351,-130.72832901,-73.01233760,46.38149472
97.97100067,-62.10747219,-125.84686324,62.18619427,2.70960129,-5.68371709
0.13506280,2.50358818,0.38824430,1.52264119

>  <Name>
lig.pdb

>  <RI>
3.93418e+07

>  <Rbt.Current_Directory>
/home/itssahil/PROJECTS/Mol_Feturizer/New_Systems/rnas/2l94

>  <Rbt.Executable>
rbdock ($Id: //depot/dev/client3/rdock/2013.1/src/exe/rbdock.cxx#4 $)

>  <Rbt.Library>
libRbt.so (2013.1, Build901 2013/11/27)

>  <Rbt.Parameter_File>
/export/apps/rDock/src/rDock_2013.1_src/data/scripts/dock_solv.prm

>  <Rbt.Receptor>
prm/blind_docking_20.prm

>  <SCORE>
-1.99817

>  <SCORE.INTER>
-14.0872

>  <SCORE.INTER.CONST>
1

>  <SCORE.INTER.POLAR>
-2.72832

>  <SCORE.INTER.ROT>
10

>  <SCORE.INTER.SOLV>
16.0577

>  <SCORE.INTER.VDW>
-15.9163

>  <SCORE.INTER.norm>
-0.586966

>  <SCORE.INTRA>
11.2297

>  <SCORE.INTRA.DIHEDRAL>
22.6077

>  <SCORE.INTRA.DIHEDRAL.0>
7.52971

>  <SCORE.INTRA.POLAR>
0

>  <SCORE.INTRA.POLAR.0>
0

>  <SCORE.INTRA.REPUL>
0

>  <SCORE.INTRA.REPUL.0>
0

>  <SCORE.INTRA.SOLV>
0.83017

>  <SCORE.INTRA.SOLV.lig_0>
-22.1084

>  <SCORE.INTRA.VDW>
-0.489278

>  <SCORE.INTRA.VDW.0>
2.4256

>  <SCORE.INTRA.norm>
0.467903

>  <SCORE.RESTR>
0.859333

>  <SCORE.RESTR.CAVITY>
0.859333

>  <SCORE.RESTR.norm>
0.0358055

>  <SCORE.SYSTEM>
0

>  <SCORE.SYSTEM.CONST>
0

>  <SCORE.SYSTEM.DIHEDRAL>
0

>  <SCORE.SYSTEM.SOLV>
0

>  <SCORE.SYSTEM.norm>
0

>  <SCORE.heavy>
24

>  <SCORE.norm>
-0.0832573

>  <RMSD>
7.753

$$$$
lig.pdb
 OpenBabel11021811453D
libRbt.so/2013.1/901 2013/11/27
 24 24  0  0  0  0  0  0  0  0999 V2000
    2.8015   -5.7283   -2.2133 C   0  0  0  0  0  0  0  0  0  0  0  0
    3.5149   -6.4660   -1.2094 C   0  0  0  0  0  0  0  0  0  0  0  0
    2.8759   -7.0093   -0.1200 C   0  0  0  0  0  0  0  0  0  0  0  0
    1.4627   -6.8774    0.0669 C   0  0  0  0  0  0  0  0  0  0  0  0
    0.7570   -6.1119   -0.9188 C   0  0  0  0  0  0  0  0  0  0  0  0
    1.3951   -5.5621   -2.0024 C   0  0  0  0  0  0  0  0  0  0  0  0
    3.4212   -5.2119   -3.3153 C   0  0  0  0  0  0  0  0  0  0  0  0
    2.7483   -4.5960   -4.3108 N   0  0  0  0  0  0  0  0  0  0  0  0
    0.9807   -8.7294    1.4974 N   0  0  0  0  0  0  0  0  0  0  0  0
    0.8132   -7.4429    1.1242 C   0  0  0  0  0  0  0  0  0  0  0  0
    4.7644   -5.2758   -3.4908 N   0  0  0  0  0  0  0  0  0  0  0  0
   -0.0633   -6.7549    1.8938 N   0  0  0  0  0  0  0  0  0  0  0  0
    5.6123   -4.2640   -4.1181 C   0  0  0  0  0  0  0  0  0  0  0  0
   -0.4615   -7.0920    3.2570 C   0  0  0  0  0  0  0  0  0  0  0  0
    6.8534   -4.0689   -3.2324 C   0  0  0  0  0  0  0  0  0  0  0  0
    0.3101   -6.1680    4.2174 C   0  0  0  0  0  0  0  0  0  0  0  0
    6.4609   -3.5371   -1.8471 C   0  0  0  0  0  0  0  0  0  0  0  0
    0.0457   -6.4964    5.6980 C   0  0  0  0  0  0  0  0  0  0  0  0
    7.2777   -4.2409   -0.7938 N   0  0  0  0  0  0  0  0  0  0  0  0
   -0.3074   -5.2596    6.4848 N   0  0  0  0  0  0  0  0  0  0  0  0
    6.6920   -3.9823    0.5676 C   0  0  0  0  0  0  0  0  0  0  0  0
   -0.7370   -5.6699    7.8678 C   0  0  0  0  0  0  0  0  0  0  0  0
    8.7120   -3.7741   -0.8245 C   0  0  0  0  0  0  0  0  0  0  0  0
   -1.4165   -4.4747    5.8418 C   0  0  0  0  0  0  0  0  0  0  0  0
  1  6  2  0  0  0  0
  2  3  2  0  0  0  0
  2  1  1  0  0  0  0
  3  4  1  0  0  0  0
  4 10  1  0  0  0  0
  4  5  2  0  0  0  0
  6  5  1  0  0  0  0
  7  1  1  0  0  0  0
  7 11  1  0  0  0  0
  8  7  2  0  0  0  0
  9 10  2  0  0  0  0
 10 12  1  0  0  0  0
 12 14  1  0  0  0  0
 13 11  1  0  0  0  0
 13 15  1  0  0  0  0
 14 16  1  0  0  0  0
 16 18  1  0  0  0  0
 17 15  1  0  0  0  0
 17 19  1  0  0  0  0
 18 20  1  0  0  0  0
 19 23  1  0  0  0  0
 20 22  1  0  0  0  0
 20 24  1  0  0  0  0
 21 19  1  0  0  0  0
M  END
>  <CHROM.1>
-48.52612844,175.35418780,101.53969881,134.50012133,-62.77306797,-175.99305798
-130.61703012,138.75599996,-166.61634311,172.25519265,2.70996284,-5.59041192
0.49426218,0.83553661,-0.42516173,-1.72234882

>  <Name>
lig.pdb

>  <RI>
3.30914e+07

>  <Rbt.Current_Directory>
/home/itssahil/PROJECTS/Mol_Feturizer/New_Systems/rnas/2l94

>  <Rbt.Executable>
rbdock ($Id: //depot/dev/client3/rdock/2013.1/src/exe/rbdock.cxx#4 $)

>  <Rbt.Library>
libRbt.so (2013.1, Build901 2013/11/27)

>  <Rbt.Parameter_File>
/export/apps/rDock/src/rDock_2013.1_src/data/scripts/dock_solv.prm

>  <Rbt.Receptor>
prm/blind_docking_80.prm

>  <SCORE>
-11.5861

>  <SCORE.INTER>
-17.4032

>  <SCORE.INTER.CONST>
1

>  <SCORE.INTER.POLAR>
-3.19335

>  <SCORE.INTER.ROT>
10

>  <SCORE.INTER.SOLV>
17.4123

>  <SCORE.INTER.VDW>
-17.0284

>  <SCORE.INTER.norm>
-0.725132

>  <SCORE.INTRA>
5.72293

>  <SCORE.INTRA.DIHEDRAL>
14.5355

>  <SCORE.INTRA.DIHEDRAL.0>
7.52971

>  <SCORE.INTRA.POLAR>
0

>  <SCORE.INTRA.POLAR.0>
0

>  <SCORE.INTRA.REPUL>
0

>  <SCORE.INTRA.REPUL.0>
0

>  <SCORE.INTRA.SOLV>
0.128709

>  <SCORE.INTRA.SOLV.lig_0>
-22.1084

>  <SCORE.INTRA.VDW>
-1.60915

>  <SCORE.INTRA.VDW.0>
2.4256

>  <SCORE.INTRA.norm>
0.238456

>  <SCORE.RESTR>
0.0941668

>  <SCORE.RESTR.CAVITY>
0.0941668

>  <SCORE.RESTR.norm>
0.00392362

>  <SCORE.SYSTEM>
0

>  <SCORE.SYSTEM.CONST>
0

>  <SCORE.SYSTEM.DIHEDRAL>
0

>  <SCORE.SYSTEM.SOLV>
0

>  <SCORE.SYSTEM.norm>
0

>  <SCORE.heavy>
24

>  <SCORE.norm>
-0.482753

>  <RMSD>
7.783

$$$$
lig.pdb
 OpenBabel11021811453D
libRbt.so/2013.1/901 2013/11/27
 24 24  0  0  0  0  0  0  0  0999 V2000
    1.7902   -5.0578    2.0891 C   0  0  0  0  0  0  0  0  0  0  0  0
    0.7650   -5.5411    1.2080 C   0  0  0  0  0  0  0  0  0  0  0  0
    1.0230   -5.8341   -0.1103 C   0  0  0  0  0  0  0  0  0  0  0  0
    2.3305   -5.6826   -0.6731 C   0  0  0  0  0  0  0  0  0  0  0  0
    3.3455   -5.1679    0.1991 C   0  0  0  0  0  0  0  0  0  0  0  0
    3.0872   -4.8674    1.5132 C   0  0  0  0  0  0  0  0  0  0  0  0
    1.5521   -4.7942    3.4077 C   0  0  0  0  0  0  0  0  0  0  0  0
    2.5123   -4.8728    4.3537 N   0  0  0  0  0  0  0  0  0  0  0  0
    1.6700   -6.4290   -2.8445 N   0  0  0  0  0  0  0  0  0  0  0  0
    2.6060   -6.0046   -1.9693 C   0  0  0  0  0  0  0  0  0  0  0  0
    0.3297   -4.4282    3.8667 N   0  0  0  0  0  0  0  0  0  0  0  0
    3.8534   -5.9260   -2.4905 N   0  0  0  0  0  0  0  0  0  0  0  0
    0.0488   -3.4836    4.9461 C   0  0  0  0  0  0  0  0  0  0  0  0
    4.1896   -5.8110   -3.9063 C   0  0  0  0  0  0  0  0  0  0  0  0
   -1.0852   -4.0668    5.8045 C   0  0  0  0  0  0  0  0  0  0  0  0
    5.0973   -4.5789   -4.0784 C   0  0  0  0  0  0  0  0  0  0  0  0
   -0.5423   -5.0969    6.8047 C   0  0  0  0  0  0  0  0  0  0  0  0
    6.5160   -4.8046   -3.5248 C   0  0  0  0  0  0  0  0  0  0  0  0
   -0.1366   -6.3449    6.0632 N   0  0  0  0  0  0  0  0  0  0  0  0
    6.8235   -3.8612   -2.3895 N   0  0  0  0  0  0  0  0  0  0  0  0
   -1.3483   -6.9973    5.4552 C   0  0  0  0  0  0  0  0  0  0  0  0
    7.0427   -2.4816   -2.9501 C   0  0  0  0  0  0  0  0  0  0  0  0
    0.5527   -7.3188    6.9864 C   0  0  0  0  0  0  0  0  0  0  0  0
    8.0475   -4.2762   -1.6217 C   0  0  0  0  0  0  0  0  0  0  0  0
  1  6  2  0  0  0  0
  2  3  2  0  0  0  0
  2  1  1  0  0  0  0
  3  4  1  0  0  0  0
  4 10  1  0  0  0  0
  4  5  2  0  0  0  0
  6  5  1  0  0  0  0
  7  1  1  0  0  0  0
  7 11  1  0  0  0  0
  8  7  2  0  0  0  0
  9 10  2  0  0  0  0
 10 12  1  0  0  0  0
 12 14  1  0  0  0  0
 13 11  1  0  0  0  0
 13 15  1  0  0  0  0
 14 16  1  0  0  0  0
 16 18  1  0  0  0  0
 17 15  1  0  0  0  0
 17 19  1  0  0  0  0
 18 20  1  0  0  0  0
 19 23  1  0  0  0  0
 20 22  1  0  0  0  0
 20 24  1  0  0  0  0
 21 19  1  0  0  0  0
M  END
>  <CHROM.1>
3.22869922,152.26889510,125.95492472,-138.03344350,81.52503061,72.32043779
-117.40695912,-71.67113049,-65.36646862,-73.33195529,2.52866040,-5.15609453
1.11173362,-2.23283435,-0.46452255,-1.80981589

>  <Name>
lig.pdb

>  <RI>
2.41306e+07

>  <Rbt.Current_Directory>
/home/itssahil/PROJECTS/Mol_Feturizer/New_Systems/rnas/2l94

>  <Rbt.Executable>
rbdock ($Id: //depot/dev/client3/rdock/2013.1/src/exe/rbdock.cxx#4 $)

>  <Rbt.Library>
libRbt.so (2013.1, Build901 2013/11/27)

>  <Rbt.Parameter_File>
/export/apps/rDock/src/rDock_2013.1_src/data/scripts/dock_solv.prm

>  <Rbt.Receptor>
prm/blind_docking_40.prm

>  <SCORE>
-6.48944

>  <SCORE.INTER>
-10.8344

>  <SCORE.INTER.CONST>
1

>  <SCORE.INTER.POLAR>
-2.09485

>  <SCORE.INTER.ROT>
10

>  <SCORE.INTER.SOLV>
16.2268

>  <SCORE.INTER.VDW>
-15.9157

>  <SCORE.INTER.norm>
-0.451435

>  <SCORE.INTRA>
3.21809

>  <SCORE.INTRA.DIHEDRAL>
8.79641

>  <SCORE.INTRA.DIHEDRAL.0>
7.52971

>  <SCORE.INTRA.POLAR>
0

>  <SCORE.INTRA.POLAR.0>
0

>  <SCORE.INTRA.REPUL>
0

>  <SCORE.INTRA.REPUL.0>
0

>  <SCORE.INTRA.SOLV>
2.12205

>  <SCORE.INTRA.SOLV.lig_0>
-22.1084

>  <SCORE.INTRA.VDW>
-2.24114

>  <SCORE.INTRA.VDW.0>
2.4256

>  <SCORE.INTRA.norm>
0.134087

>  <SCORE.RESTR>
1.12691

>  <SCORE.RESTR.CAVITY>
1.12691

>  <SCORE.RESTR.norm>
0.0469545

>  <SCORE.SYSTEM>
0

>  <SCORE.SYSTEM.CONST>
0

>  <SCORE.SYSTEM.DIHEDRAL>
0

>  <SCORE.SYSTEM.SOLV>
0

>  <SCORE.SYSTEM.norm>
0

>  <SCORE.heavy>
24

>  <SCORE.norm>
-0.270393

>  <RMSD>
7.812

$$$$
lig.pdb
 OpenBabel11021811453D
libRbt.so/2013.1/901 2013/11/27
 24 24  0  0  0  0  0  0  0  0999 V2000
   11.1089   -2.2967   -2.2112 C   0  0  0  0  0  0  0  0  0  0  0  0
   12.0052   -2.5470   -1.1181 C   0  0  0  0  0  0  0  0  0  0  0  0
   13.2740   -2.0183   -1.0872 C   0  0  0  0  0  0  0  0  0  0  0  0
   13.7665   -1.1813   -2.1389 C   0  0  0  0  0  0  0  0  0  0  0  0
   12.8824   -0.9598   -3.2458 C   0  0  0  0  0  0  0  0  0  0  0  0
   11.6186   -1.4937   -3.2815 C   0  0  0  0  0  0  0  0  0  0  0  0
    9.8360   -2.7906   -2.2367 C   0  0  0  0  0  0  0  0  0  0  0  0
    9.4682   -3.8986   -1.5585 N   0  0  0  0  0  0  0  0  0  0  0  0
   15.4024    0.3721   -2.9257 N   0  0  0  0  0  0  0  0  0  0  0  0
   15.0097   -0.6221   -2.1014 C   0  0  0  0  0  0  0  0  0  0  0  0
    8.8413   -2.2003   -2.9446 N   0  0  0  0  0  0  0  0  0  0  0  0
   15.9630   -1.0227   -1.2270 N   0  0  0  0  0  0  0  0  0  0  0  0
    7.4328   -2.1112   -2.5644 C   0  0  0  0  0  0  0  0  0  0  0  0
   17.1203   -0.2435   -0.7981 C   0  0  0  0  0  0  0  0  0  0  0  0
    6.6680   -3.2140   -3.3140 C   0  0  0  0  0  0  0  0  0  0  0  0
   16.6024    1.0312   -0.1063 C   0  0  0  0  0  0  0  0  0  0  0  0
    5.1951   -3.2501   -2.8836 C   0  0  0  0  0  0  0  0  0  0  0  0
   15.7399    0.7263    1.1318 C   0  0  0  0  0  0  0  0  0  0  0  0
    5.0735   -4.0111   -1.5882 N   0  0  0  0  0  0  0  0  0  0  0  0
   16.5898    0.3547    2.3205 N   0  0  0  0  0  0  0  0  0  0  0  0
    3.7045   -4.6259   -1.4807 C   0  0  0  0  0  0  0  0  0  0  0  0
   16.9078   -1.1148    2.2500 C   0  0  0  0  0  0  0  0  0  0  0  0
    5.3149   -3.1043   -0.4069 C   0  0  0  0  0  0  0  0  0  0  0  0
   15.8996    0.6427    3.6246 C   0  0  0  0  0  0  0  0  0  0  0  0
  1  6  2  0  0  0  0
  2  3  2  0  0  0  0
  2  1  1  0  0  0  0
  3  4  1  0  0  0  0
  4 10  1  0  0  0  0
  4  5  2  0  0  0  0
  6  5  1  0  0  0  0
  7  1  1  0  0  0  0
  7 11  1  0  0  0  0
  8  7  2  0  0  0  0
  9 10  2  0  0  0  0
 10 12  1  0  0  0  0
 12 14  1  0  0  0  0
 13 11  1  0  0  0  0
 13 15  1  0  0  0  0
 14 16  1  0  0  0  0
 16 18  1  0  0  0  0
 17 15  1  0  0  0  0
 17 19  1  0  0  0  0
 18 20  1  0  0  0  0
 19 23  1  0  0  0  0
 20 22  1  0  0  0  0
 20 24  1  0  0  0  0
 21 19  1  0  0  0  0
M  END
>  <CHROM.1>
-166.18711726,-25.12186439,60.97702807,-99.25683896,175.74362566,60.51371048
77.82414947,-81.20069520,-152.93470525,-84.71165836,11.69778548,-1.65549440
-1.19433588,-2.90949111,0.32629074,1.56056053

>  <Name>
lig.pdb

>  <RI>
1.39428e+07

>  <Rbt.Current_Directory>
/home/itssahil/PROJECTS/Mol_Feturizer/New_Systems/rnas/2l94

>  <Rbt.Executable>
rbdock ($Id: //depot/dev/client3/rdock/2013.1/src/exe/rbdock.cxx#4 $)

>  <Rbt.Library>
libRbt.so (2013.1, Build901 2013/11/27)

>  <Rbt.Parameter_File>
/export/apps/rDock/src/rDock_2013.1_src/data/scripts/dock_solv.prm

>  <Rbt.Receptor>
prm/pocket_docking_8.prm

>  <SCORE>
-16.9863

>  <SCORE.INTER>
-17.9839

>  <SCORE.INTER.CONST>
1

>  <SCORE.INTER.POLAR>
-2.80938

>  <SCORE.INTER.ROT>
10

>  <SCORE.INTER.SOLV>
11.785

>  <SCORE.INTER.VDW>
-16.8196

>  <SCORE.INTER.norm>
-0.749328

>  <SCORE.INTRA>
0.9976

>  <SCORE.INTRA.DIHEDRAL>
5.82289

>  <SCORE.INTRA.DIHEDRAL.0>
7.52971

>  <SCORE.INTRA.POLAR>
0

>  <SCORE.INTRA.POLAR.0>
0

>  <SCORE.INTRA.REPUL>
0

>  <SCORE.INTRA.REPUL.0>
0

>  <SCORE.INTRA.SOLV>
0.942097

>  <SCORE.INTRA.SOLV.lig_0>
-22.1084

>  <SCORE.INTRA.VDW>
-2.3849

>  <SCORE.INTRA.VDW.0>
2.4256

>  <SCORE.INTRA.norm>
0.0415666

>  <SCORE.RESTR>
0

>  <SCORE.RESTR.CAVITY>
0

>  <SCORE.RESTR.norm>
0

>  <SCORE.SYSTEM>
0

>  <SCORE.SYSTEM.CONST>
0

>  <SCORE.SYSTEM.DIHEDRAL>
0

>  <SCORE.SYSTEM.SOLV>
0

>  <SCORE.SYSTEM.norm>
0

>  <SCORE.heavy>
24

>  <SCORE.norm>
-0.707762

>  <RMSD>
7.825

$$$$
lig.pdb
 OpenBabel11021811453D
libRbt.so/2013.1/901 2013/11/27
 24 24  0  0  0  0  0  0  0  0999 V2000
    1.3422   -7.1015    0.5305 C   0  0  0  0  0  0  0  0  0  0  0  0
    2.5534   -7.5319   -0.1087 C   0  0  0  0  0  0  0  0  0  0  0  0
    3.1821   -6.7635   -1.0597 C   0  0  0  0  0  0  0  0  0  0  0  0
    2.6681   -5.4878   -1.4570 C   0  0  0  0  0  0  0  0  0  0  0  0
    1.4404   -5.0745   -0.8423 C   0  0  0  0  0  0  0  0  0  0  0  0
    0.8076   -5.8445    0.1013 C   0  0  0  0  0  0  0  0  0  0  0  0
    0.7272   -7.8422    1.4990 C   0  0  0  0  0  0  0  0  0  0  0  0
    1.1112   -9.0980    1.8131 N   0  0  0  0  0  0  0  0  0  0  0  0
    2.9401   -3.4280   -2.6367 N   0  0  0  0  0  0  0  0  0  0  0  0
    3.3027   -4.7012   -2.3725 C   0  0  0  0  0  0  0  0  0  0  0  0
   -0.3168   -7.3685    2.2234 N   0  0  0  0  0  0  0  0  0  0  0  0
    4.3582   -5.1366   -3.1006 N   0  0  0  0  0  0  0  0  0  0  0  0
   -0.5984   -7.6418    3.6313 C   0  0  0  0  0  0  0  0  0  0  0  0
    5.3610   -4.2981   -3.7501 C   0  0  0  0  0  0  0  0  0  0  0  0
   -1.2999   -6.4088    4.2234 C   0  0  0  0  0  0  0  0  0  0  0  0
    6.7040   -4.5236   -3.0310 C   0  0  0  0  0  0  0  0  0  0  0  0
   -1.0484   -6.3069    5.7341 C   0  0  0  0  0  0  0  0  0  0  0  0
    7.3207   -3.2163   -2.5013 C   0  0  0  0  0  0  0  0  0  0  0  0
   -1.4226   -4.9262    6.2091 N   0  0  0  0  0  0  0  0  0  0  0  0
    7.9210   -3.4031   -1.1307 N   0  0  0  0  0  0  0  0  0  0  0  0
   -0.4156   -3.9233    5.7156 C   0  0  0  0  0  0  0  0  0  0  0  0
    9.0206   -4.4271   -1.2175 C   0  0  0  0  0  0  0  0  0  0  0  0
   -1.4906   -4.8756    7.7154 C   0  0  0  0  0  0  0  0  0  0  0  0
    6.9044   -3.8626   -0.1231 C   0  0  0  0  0  0  0  0  0  0  0  0
  1  6  2  0  0  0  0
  2  3  2  0  0  0  0
  2  1  1  0  0  0  0
  3  4  1  0  0  0  0
  4 10  1  0  0  0  0
  4  5  2  0  0  0  0
  6  5  1  0  0  0  0
  7  1  1  0  0  0  0
  7 11  1  0  0  0  0
  8  7  2  0  0  0  0
  9 10  2  0  0  0  0
 10 12  1  0  0  0  0
 12 14  1  0  0  0  0
 13 11  1  0  0  0  0
 13 15  1  0  0  0  0
 14 16  1  0  0  0  0
 16 18  1  0  0  0  0
 17 15  1  0  0  0  0
 17 19  1  0  0  0  0
 18 20  1  0  0  0  0
 19 23  1  0  0  0  0
 20 22  1  0  0  0  0
 20 24  1  0  0  0  0
 21 19  1  0  0  0  0
M  END
>  <CHROM.1>
-171.06325283,-8.32563541,112.53668582,148.84660238,-153.32482789,-124.03790880
139.04704092,164.96657101,-71.49483661,61.25880344,2.56737349,-5.50985864
0.72793997,2.55540231,0.58918183,1.12743421

>  <Name>
lig.pdb

>  <RI>
3.93418e+07

>  <Rbt.Current_Directory>
/home/itssahil/PROJECTS/Mol_Feturizer/New_Systems/rnas/2l94

>  <Rbt.Executable>
rbdock ($Id: //depot/dev/client3/rdock/2013.1/src/exe/rbdock.cxx#4 $)

>  <Rbt.Library>
libRbt.so (2013.1, Build901 2013/11/27)

>  <Rbt.Parameter_File>
/export/apps/rDock/src/rDock_2013.1_src/data/scripts/dock_solv.prm

>  <Rbt.Receptor>
prm/blind_docking_20.prm

>  <SCORE>
0.759574

>  <SCORE.INTER>
-5.70573

>  <SCORE.INTER.CONST>
1

>  <SCORE.INTER.POLAR>
-1.01752

>  <SCORE.INTER.ROT>
10

>  <SCORE.INTER.SOLV>
15.1694

>  <SCORE.INTER.VDW>
-15.7352

>  <SCORE.INTER.norm>
-0.237739

>  <SCORE.INTRA>
6.21003

>  <SCORE.INTRA.DIHEDRAL>
11.0092

>  <SCORE.INTRA.DIHEDRAL.0>
7.52971

>  <SCORE.INTRA.POLAR>
0

>  <SCORE.INTRA.POLAR.0>
0

>  <SCORE.INTRA.REPUL>
0

>  <SCORE.INTRA.REPUL.0>
0

>  <SCORE.INTRA.SOLV>
-0.0630996

>  <SCORE.INTRA.SOLV.lig_0>
-22.1084

>  <SCORE.INTRA.VDW>
0.736994

>  <SCORE.INTRA.VDW.0>
2.4256

>  <SCORE.INTRA.norm>
0.258751

>  <SCORE.RESTR>
0.255274

>  <SCORE.RESTR.CAVITY>
0.255274

>  <SCORE.RESTR.norm>
0.0106364

>  <SCORE.SYSTEM>
0

>  <SCORE.SYSTEM.CONST>
0

>  <SCORE.SYSTEM.DIHEDRAL>
0

>  <SCORE.SYSTEM.SOLV>
0

>  <SCORE.SYSTEM.norm>
0

>  <SCORE.heavy>
24

>  <SCORE.norm>
0.0316489

>  <RMSD>
7.837

$$$$
lig.pdb
 OpenBabel11021811453D
libRbt.so/2013.1/901 2013/11/27
 24 24  0  0  0  0  0  0  0  0999 V2000
    2.8927   -5.2419   -2.3835 C   0  0  0  0  0  0  0  0  0  0  0  0
    3.0961   -5.4794   -0.9824 C   0  0  0  0  0  0  0  0  0  0  0  0
    2.1059   -6.0049   -0.1864 C   0  0  0  0  0  0  0  0  0  0  0  0
    0.8214   -6.3528   -0.7138 C   0  0  0  0  0  0  0  0  0  0  0  0
    0.6085   -6.0837   -2.1060 C   0  0  0  0  0  0  0  0  0  0  0  0
    1.5936   -5.5516   -2.8998 C   0  0  0  0  0  0  0  0  0  0  0  0
    3.8794   -4.7503   -3.1894 C   0  0  0  0  0  0  0  0  0  0  0  0
    3.6246   -3.9943   -4.2788 N   0  0  0  0  0  0  0  0  0  0  0  0
   -1.2710   -7.4752   -0.4481 N   0  0  0  0  0  0  0  0  0  0  0  0
   -0.1557   -6.9082    0.0585 C   0  0  0  0  0  0  0  0  0  0  0  0
    5.1944   -4.9823   -2.9527 N   0  0  0  0  0  0  0  0  0  0  0  0
   -0.0882   -6.9359    1.4108 N   0  0  0  0  0  0  0  0  0  0  0  0
    6.3012   -4.0582   -3.1919 C   0  0  0  0  0  0  0  0  0  0  0  0
   -0.8067   -7.8528    2.2903 C   0  0  0  0  0  0  0  0  0  0  0  0
    7.1822   -4.0363   -1.9324 C   0  0  0  0  0  0  0  0  0  0  0  0
    0.2306   -8.5752    3.1699 C   0  0  0  0  0  0  0  0  0  0  0  0
    6.3437   -3.7409   -0.6811 C   0  0  0  0  0  0  0  0  0  0  0  0
    0.0184   -8.3164    4.6725 C   0  0  0  0  0  0  0  0  0  0  0  0
    7.2412   -3.7354    0.5298 N   0  0  0  0  0  0  0  0  0  0  0  0
    0.3970   -6.9065    5.0502 N   0  0  0  0  0  0  0  0  0  0  0  0
    6.4106   -3.7171    1.7841 C   0  0  0  0  0  0  0  0  0  0  0  0
    0.9382   -6.9086    6.4547 C   0  0  0  0  0  0  0  0  0  0  0  0
    8.1592   -2.5383    0.5135 C   0  0  0  0  0  0  0  0  0  0  0  0
   -0.7734   -5.9657    4.9795 C   0  0  0  0  0  0  0  0  0  0  0  0
  1  6  2  0  0  0  0
  2  3  2  0  0  0  0
  2  1  1  0  0  0  0
  3  4  1  0  0  0  0
  4 10  1  0  0  0  0
  4  5  2  0  0  0  0
  6  5  1  0  0  0  0
  7  1  1  0  0  0  0
  7 11  1  0  0  0  0
  8  7  2  0  0  0  0
  9 10  2  0  0  0  0
 10 12  1  0  0  0  0
 12 14  1  0  0  0  0
 13 11  1  0  0  0  0
 13 15  1  0  0  0  0
 14 16  1  0  0  0  0
 16 18  1  0  0  0  0
 17 15  1  0  0  0  0
 17 19  1  0  0  0  0
 18 20  1  0  0  0  0
 19 23  1  0  0  0  0
 20 22  1  0  0  0  0
 20 24  1  0  0  0  0
 21 19  1  0  0  0  0
M  END
>  <CHROM.1>
-167.04244940,-150.34908459,124.23059696,132.14777265,-52.88825467,119.46849611
-71.80424428,179.70268886,-168.97610158,-147.49662219,2.69733457,-5.65819676
0.28470440,0.69736736,-0.44113544,-1.48688559

>  <Name>
lig.pdb

>  <RI>
3.93418e+07

>  <Rbt.Current_Directory>
/home/itssahil/PROJECTS/Mol_Feturizer/New_Systems/rnas/2l94

>  <Rbt.Executable>
rbdock ($Id: //depot/dev/client3/rdock/2013.1/src/exe/rbdock.cxx#4 $)

>  <Rbt.Library>
libRbt.so (2013.1, Build901 2013/11/27)

>  <Rbt.Parameter_File>
/export/apps/rDock/src/rDock_2013.1_src/data/scripts/dock_solv.prm

>  <Rbt.Receptor>
prm/blind_docking_20.prm

>  <SCORE>
-9.38289

>  <SCORE.INTER>
-12.8274

>  <SCORE.INTER.CONST>
1

>  <SCORE.INTER.POLAR>
-2.06308

>  <SCORE.INTER.ROT>
10

>  <SCORE.INTER.SOLV>
15.5023

>  <SCORE.INTER.VDW>
-17.1088

>  <SCORE.INTER.norm>
-0.534476

>  <SCORE.INTRA>
2.3605

>  <SCORE.INTRA.DIHEDRAL>
9.467

>  <SCORE.INTRA.DIHEDRAL.0>
7.52971

>  <SCORE.INTRA.POLAR>
0

>  <SCORE.INTRA.POLAR.0>
0

>  <SCORE.INTRA.REPUL>
0

>  <SCORE.INTRA.REPUL.0>
0

>  <SCORE.INTRA.SOLV>
0.51759

>  <SCORE.INTRA.SOLV.lig_0>
-22.1084

>  <SCORE.INTRA.VDW>
-2.63179

>  <SCORE.INTRA.VDW.0>
2.4256

>  <SCORE.INTRA.norm>
0.0983542

>  <SCORE.RESTR>
1.08403

>  <SCORE.RESTR.CAVITY>
1.08403

>  <SCORE.RESTR.norm>
0.0451678

>  <SCORE.SYSTEM>
0

>  <SCORE.SYSTEM.CONST>
0

>  <SCORE.SYSTEM.DIHEDRAL>
0

>  <SCORE.SYSTEM.SOLV>
0

>  <SCORE.SYSTEM.norm>
0

>  <SCORE.heavy>
24

>  <SCORE.norm>
-0.390954

>  <RMSD>
7.859

$$$$
lig.pdb
 OpenBabel11021811453D
libRbt.so/2013.1/901 2013/11/27
 24 24  0  0  0  0  0  0  0  0999 V2000
    0.7993   -6.1968   -0.3023 C   0  0  0  0  0  0  0  0  0  0  0  0
    0.3705   -6.2531   -1.6712 C   0  0  0  0  0  0  0  0  0  0  0  0
    1.1908   -5.8623   -2.7030 C   0  0  0  0  0  0  0  0  0  0  0  0
    2.5208   -5.3872   -2.4688 C   0  0  0  0  0  0  0  0  0  0  0  0
    2.9356   -5.2997   -1.0991 C   0  0  0  0  0  0  0  0  0  0  0  0
    2.1147   -5.6820   -0.0677 C   0  0  0  0  0  0  0  0  0  0  0  0
    0.0044   -6.6124    0.7274 C   0  0  0  0  0  0  0  0  0  0  0  0
   -1.1303   -7.3186    0.5356 N   0  0  0  0  0  0  0  0  0  0  0  0
    2.9228   -4.5167   -4.6571 N   0  0  0  0  0  0  0  0  0  0  0  0
    3.3556   -5.0314   -3.4867 C   0  0  0  0  0  0  0  0  0  0  0  0
    0.2986   -6.3494    2.0248 N   0  0  0  0  0  0  0  0  0  0  0  0
    4.7006   -5.1677   -3.4077 N   0  0  0  0  0  0  0  0  0  0  0  0
    0.0515   -7.2223    3.1707 C   0  0  0  0  0  0  0  0  0  0  0  0
    5.6878   -4.4433   -4.2022 C   0  0  0  0  0  0  0  0  0  0  0  0
    0.2555   -6.3953    4.4504 C   0  0  0  0  0  0  0  0  0  0  0  0
    6.9493   -4.2611   -3.3378 C   0  0  0  0  0  0  0  0  0  0  0  0
    0.0282   -7.2550    5.7015 C   0  0  0  0  0  0  0  0  0  0  0  0
    6.6520   -3.5805   -1.9894 C   0  0  0  0  0  0  0  0  0  0  0  0
    0.1936   -6.3987    6.9308 N   0  0  0  0  0  0  0  0  0  0  0  0
    7.4422   -4.2058   -0.8677 N   0  0  0  0  0  0  0  0  0  0  0  0
    0.4395   -7.2689    8.1332 C   0  0  0  0  0  0  0  0  0  0  0  0
    6.9316   -3.6708    0.4432 C   0  0  0  0  0  0  0  0  0  0  0  0
   -1.0312   -5.5490    7.1632 C   0  0  0  0  0  0  0  0  0  0  0  0
    8.9124   -3.9113   -0.9757 C   0  0  0  0  0  0  0  0  0  0  0  0
  1  6  2  0  0  0  0
  2  3  2  0  0  0  0
  2  1  1  0  0  0  0
  3  4  1  0  0  0  0
  4 10  1  0  0  0  0
  4  5  2  0  0  0  0
  6  5  1  0  0  0  0
  7  1  1  0  0  0  0
  7 11  1  0  0  0  0
  8  7  2  0  0  0  0
  9 10  2  0  0  0  0
 10 12  1  0  0  0  0
 12 14  1  0  0  0  0
 13 11  1  0  0  0  0
 13 15  1  0  0  0  0
 14 16  1  0  0  0  0
 16 18  1  0  0  0  0
 17 15  1  0  0  0  0
 17 19  1  0  0  0  0
 18 20  1  0  0  0  0
 19 23  1  0  0  0  0
 20 22  1  0  0  0  0
 20 24  1  0  0  0  0
 21 19  1  0  0  0  0
M  END
>  <CHROM.1>
30.79944235,12.09229808,148.22065016,-167.65340018,-179.31802296,-54.77029389
139.86958248,-178.18882617,-160.91978095,-170.01802793,2.64352589,-5.56754917
0.41753795,2.20787728,0.31715046,1.61213835

>  <Name>
lig.pdb

>  <RI>
3.30914e+07

>  <Rbt.Current_Directory>
/home/itssahil/PROJECTS/Mol_Feturizer/New_Systems/rnas/2l94

>  <Rbt.Executable>
rbdock ($Id: //depot/dev/client3/rdock/2013.1/src/exe/rbdock.cxx#4 $)

>  <Rbt.Library>
libRbt.so (2013.1, Build901 2013/11/27)

>  <Rbt.Parameter_File>
/export/apps/rDock/src/rDock_2013.1_src/data/scripts/dock_solv.prm

>  <Rbt.Receptor>
prm/blind_docking_80.prm

>  <SCORE>
-15.2264

>  <SCORE.INTER>
-16.7594

>  <SCORE.INTER.CONST>
1

>  <SCORE.INTER.POLAR>
-2.75213

>  <SCORE.INTER.ROT>
10

>  <SCORE.INTER.SOLV>
17.6633

>  <SCORE.INTER.VDW>
-18.1536

>  <SCORE.INTER.norm>
-0.698307

>  <SCORE.INTRA>
1.39541

>  <SCORE.INTRA.DIHEDRAL>
6.45099

>  <SCORE.INTRA.DIHEDRAL.0>
7.52971

>  <SCORE.INTRA.POLAR>
0

>  <SCORE.INTRA.POLAR.0>
0

>  <SCORE.INTRA.REPUL>
0

>  <SCORE.INTRA.REPUL.0>
0

>  <SCORE.INTRA.SOLV>
0.0305819

>  <SCORE.INTRA.SOLV.lig_0>
-22.1084

>  <SCORE.INTRA.VDW>
-1.84538

>  <SCORE.INTRA.VDW.0>
2.4256

>  <SCORE.INTRA.norm>
0.058142

>  <SCORE.RESTR>
0.137508

>  <SCORE.RESTR.CAVITY>
0.137508

>  <SCORE.RESTR.norm>
0.0057295

>  <SCORE.SYSTEM>
0

>  <SCORE.SYSTEM.CONST>
0

>  <SCORE.SYSTEM.DIHEDRAL>
0

>  <SCORE.SYSTEM.SOLV>
0

>  <SCORE.SYSTEM.norm>
0

>  <SCORE.heavy>
24

>  <SCORE.norm>
-0.634435

>  <RMSD>
7.862

$$$$
lig.pdb
 OpenBabel11021811453D
libRbt.so/2013.1/901 2013/11/27
 24 24  0  0  0  0  0  0  0  0999 V2000
    2.1822   -5.6853   -0.8752 C   0  0  0  0  0  0  0  0  0  0  0  0
    2.7857   -5.1498    0.3123 C   0  0  0  0  0  0  0  0  0  0  0  0
    2.3082   -5.4515    1.5657 C   0  0  0  0  0  0  0  0  0  0  0  0
    1.1893   -6.3242    1.7551 C   0  0  0  0  0  0  0  0  0  0  0  0
    0.5668   -6.8312    0.5672 C   0  0  0  0  0  0  0  0  0  0  0  0
    1.0376   -6.5242   -0.6849 C   0  0  0  0  0  0  0  0  0  0  0  0
    2.6679   -5.4176   -2.1230 C   0  0  0  0  0  0  0  0  0  0  0  0
    1.9038   -5.4825   -3.2343 N   0  0  0  0  0  0  0  0  0  0  0  0
    1.2337   -6.1463    4.1373 N   0  0  0  0  0  0  0  0  0  0  0  0
    0.7300   -6.6591    2.9947 C   0  0  0  0  0  0  0  0  0  0  0  0
    3.9583   -5.0612   -2.3398 N   0  0  0  0  0  0  0  0  0  0  0  0
   -0.2778   -7.5436    3.1841 N   0  0  0  0  0  0  0  0  0  0  0  0
    4.4466   -4.1142   -3.3402 C   0  0  0  0  0  0  0  0  0  0  0  0
   -1.1250   -7.6432    4.3685 C   0  0  0  0  0  0  0  0  0  0  0  0
    5.9020   -4.4818   -3.6716 C   0  0  0  0  0  0  0  0  0  0  0  0
   -2.1639   -6.5082    4.3039 C   0  0  0  0  0  0  0  0  0  0  0  0
    6.8831   -3.5994   -2.8876 C   0  0  0  0  0  0  0  0  0  0  0  0
   -1.5729   -5.1396    4.6878 C   0  0  0  0  0  0  0  0  0  0  0  0
    7.2144   -4.2662   -1.5770 N   0  0  0  0  0  0  0  0  0  0  0  0
   -1.6203   -4.9146    6.1780 N   0  0  0  0  0  0  0  0  0  0  0  0
    6.6345   -3.4739   -0.4371 C   0  0  0  0  0  0  0  0  0  0  0  0
   -3.0084   -4.4749    6.5590 C   0  0  0  0  0  0  0  0  0  0  0  0
    8.7073   -4.3903   -1.3989 C   0  0  0  0  0  0  0  0  0  0  0  0
   -0.6370   -3.8696    6.6263 C   0  0  0  0  0  0  0  0  0  0  0  0
  1  6  2  0  0  0  0
  2  3  2  0  0  0  0
  2  1  1  0  0  0  0
  3  4  1  0  0  0  0
  4 10  1  0  0  0  0
  4  5  2  0  0  0  0
  6  5  1  0  0  0  0
  7  1  1  0  0  0  0
  7 11  1  0  0  0  0
  8  7  2  0  0  0  0
  9 10  2  0  0  0  0
 10 12  1  0  0  0  0
 12 14  1  0  0  0  0
 13 11  1  0  0  0  0
 13 15  1  0  0  0  0
 14 16  1  0  0  0  0
 16 18  1  0  0  0  0
 17 15  1  0  0  0  0
 17 19  1  0  0  0  0
 18 20  1  0  0  0  0
 19 23  1  0  0  0  0
 20 22  1  0  0  0  0
 20 24  1  0  0  0  0
 21 19  1  0  0  0  0
M  END
>  <CHROM.1>
3.82423491,-155.63490506,77.49338291,-154.42382094,-98.15003436,-76.86058125
-86.53027981,90.53850450,-111.88674682,-80.21111326,2.10236097,-5.35639508
1.06898819,0.72506567,-0.40864225,-1.82474387

>  <Name>
lig.pdb

>  <RI>
3.93418e+07

>  <Rbt.Current_Directory>
/home/itssahil/PROJECTS/Mol_Feturizer/New_Systems/rnas/2l94

>  <Rbt.Executable>
rbdock ($Id: //depot/dev/client3/rdock/2013.1/src/exe/rbdock.cxx#4 $)

>  <Rbt.Library>
libRbt.so (2013.1, Build901 2013/11/27)

>  <Rbt.Parameter_File>
/export/apps/rDock/src/rDock_2013.1_src/data/scripts/dock_solv.prm

>  <Rbt.Receptor>
prm/blind_docking_20.prm

>  <SCORE>
-5.6162

>  <SCORE.INTER>
-9.64209

>  <SCORE.INTER.CONST>
1

>  <SCORE.INTER.POLAR>
-1.64589

>  <SCORE.INTER.ROT>
10

>  <SCORE.INTER.SOLV>
15.8825

>  <SCORE.INTER.VDW>
-16.5026

>  <SCORE.INTER.norm>
-0.401754

>  <SCORE.INTRA>
4.00092

>  <SCORE.INTRA.DIHEDRAL>
14.0098

>  <SCORE.INTRA.DIHEDRAL.0>
7.52971

>  <SCORE.INTRA.POLAR>
0

>  <SCORE.INTRA.POLAR.0>
0

>  <SCORE.INTRA.REPUL>
0.0112852

>  <SCORE.INTRA.REPUL.0>
0

>  <SCORE.INTRA.SOLV>
1.43593

>  <SCORE.INTRA.SOLV.lig_0>
-22.1084

>  <SCORE.INTRA.VDW>
-3.77836

>  <SCORE.INTRA.VDW.0>
2.4256

>  <SCORE.INTRA.norm>
0.166705

>  <SCORE.RESTR>
0.0249792

>  <SCORE.RESTR.CAVITY>
0.0249792

>  <SCORE.RESTR.norm>
0.0010408

>  <SCORE.SYSTEM>
0

>  <SCORE.SYSTEM.CONST>
0

>  <SCORE.SYSTEM.DIHEDRAL>
0

>  <SCORE.SYSTEM.SOLV>
0

>  <SCORE.SYSTEM.norm>
0

>  <SCORE.heavy>
24

>  <SCORE.norm>
-0.234008

>  <RMSD>
7.872

$$$$
lig.pdb
 OpenBabel11021811453D
libRbt.so/2013.1/901 2013/11/27
 24 24  0  0  0  0  0  0  0  0999 V2000
    2.3769   -6.0916   -1.4413 C   0  0  0  0  0  0  0  0  0  0  0  0
    1.5900   -7.2867   -1.3250 C   0  0  0  0  0  0  0  0  0  0  0  0
    1.1219   -7.7294   -0.1105 C   0  0  0  0  0  0  0  0  0  0  0  0
    1.3856   -7.0170    1.1029 C   0  0  0  0  0  0  0  0  0  0  0  0
    2.1997   -5.8423    0.9897 C   0  0  0  0  0  0  0  0  0  0  0  0
    2.6743   -5.4038   -0.2212 C   0  0  0  0  0  0  0  0  0  0  0  0
    2.8197   -5.6258   -2.6462 C   0  0  0  0  0  0  0  0  0  0  0  0
    2.0040   -5.4554   -3.7085 N   0  0  0  0  0  0  0  0  0  0  0  0
    0.9899   -8.6973    2.7548 N   0  0  0  0  0  0  0  0  0  0  0  0
    0.8959   -7.4270    2.3078 C   0  0  0  0  0  0  0  0  0  0  0  0
    4.1164   -5.2945   -2.8655 N   0  0  0  0  0  0  0  0  0  0  0  0
    0.2673   -6.5862    3.1634 N   0  0  0  0  0  0  0  0  0  0  0  0
    4.6094   -4.2058   -3.7069 C   0  0  0  0  0  0  0  0  0  0  0  0
    0.1074   -6.7815    4.6010 C   0  0  0  0  0  0  0  0  0  0  0  0
    5.7251   -3.4796   -2.9383 C   0  0  0  0  0  0  0  0  0  0  0  0
    0.1842   -5.4002    5.2775 C   0  0  0  0  0  0  0  0  0  0  0  0
    6.9732   -4.3646   -2.8162 C   0  0  0  0  0  0  0  0  0  0  0  0
   -1.1335   -5.0025    5.9670 C   0  0  0  0  0  0  0  0  0  0  0  0
    7.8335   -3.8589   -1.6866 N   0  0  0  0  0  0  0  0  0  0  0  0
   -2.2870   -4.9989    4.9961 N   0  0  0  0  0  0  0  0  0  0  0  0
    8.6937   -2.7215   -2.1660 C   0  0  0  0  0  0  0  0  0  0  0  0
   -3.1750   -3.8225    5.3012 C   0  0  0  0  0  0  0  0  0  0  0  0
    8.7088   -4.9606   -1.1423 C   0  0  0  0  0  0  0  0  0  0  0  0
   -3.1019   -6.2596    5.0773 C   0  0  0  0  0  0  0  0  0  0  0  0
  1  6  2  0  0  0  0
  2  3  2  0  0  0  0
  2  1  1  0  0  0  0
  3  4  1  0  0  0  0
  4 10  1  0  0  0  0
  4  5  2  0  0  0  0
  6  5  1  0  0  0  0
  7  1  1  0  0  0  0
  7 11  1  0  0  0  0
  8  7  2  0  0  0  0
  9 10  2  0  0  0  0
 10 12  1  0  0  0  0
 12 14  1  0  0  0  0
 13 11  1  0  0  0  0
 13 15  1  0  0  0  0
 14 16  1  0  0  0  0
 16 18  1  0  0  0  0
 17 15  1  0  0  0  0
 17 19  1  0  0  0  0
 18 20  1  0  0  0  0
 19 23  1  0  0  0  0
 20 22  1  0  0  0  0
 20 24  1  0  0  0  0
 21 19  1  0  0  0  0
M  END
>  <CHROM.1>
48.46723364,50.65888044,145.07510048,135.50238420,69.47124032,115.78194845
-57.54999077,-160.20276061,-82.94288321,-140.48472145,2.32784233,-5.56135454
0.64577937,0.65409562,-0.43020984,-1.86036685

>  <Name>
lig.pdb

>  <RI>
3.93418e+07

>  <Rbt.Current_Directory>
/home/itssahil/PROJECTS/Mol_Feturizer/New_Systems/rnas/2l94

>  <Rbt.Executable>
rbdock ($Id: //depot/dev/client3/rdock/2013.1/src/exe/rbdock.cxx#4 $)

>  <Rbt.Library>
libRbt.so (2013.1, Build901 2013/11/27)

>  <Rbt.Parameter_File>
/export/apps/rDock/src/rDock_2013.1_src/data/scripts/dock_solv.prm

>  <Rbt.Receptor>
prm/blind_docking_20.prm

>  <SCORE>
-1.84487

>  <SCORE.INTER>
-11.399

>  <SCORE.INTER.CONST>
1

>  <SCORE.INTER.POLAR>
-1.72781

>  <SCORE.INTER.ROT>
10

>  <SCORE.INTER.SOLV>
17.8917

>  <SCORE.INTER.VDW>
-18.0705

>  <SCORE.INTER.norm>
-0.474957

>  <SCORE.INTRA>
8.27478

>  <SCORE.INTRA.DIHEDRAL>
23.0762

>  <SCORE.INTRA.DIHEDRAL.0>
7.52971

>  <SCORE.INTRA.POLAR>
0

>  <SCORE.INTRA.POLAR.0>
0

>  <SCORE.INTRA.REPUL>
0

>  <SCORE.INTRA.REPUL.0>
0

>  <SCORE.INTRA.SOLV>
0.349127

>  <SCORE.INTRA.SOLV.lig_0>
-22.1084

>  <SCORE.INTRA.VDW>
-3.43788

>  <SCORE.INTRA.VDW.0>
2.4256

>  <SCORE.INTRA.norm>
0.344783

>  <SCORE.RESTR>
1.27932

>  <SCORE.RESTR.CAVITY>
1.27932

>  <SCORE.RESTR.norm>
0.0533051

>  <SCORE.SYSTEM>
0

>  <SCORE.SYSTEM.CONST>
0

>  <SCORE.SYSTEM.DIHEDRAL>
0

>  <SCORE.SYSTEM.SOLV>
0

>  <SCORE.SYSTEM.norm>
0

>  <SCORE.heavy>
24

>  <SCORE.norm>
-0.0768696

>  <RMSD>
7.882

$$$$
lig.pdb
 OpenBabel11021811453D
libRbt.so/2013.1/901 2013/11/27
 24 24  0  0  0  0  0  0  0  0999 V2000
    3.1120   -5.4495   -2.3509 C   0  0  0  0  0  0  0  0  0  0  0  0
    3.6796   -5.7026   -1.0567 C   0  0  0  0  0  0  0  0  0  0  0  0
    2.9008   -6.0657    0.0165 C   0  0  0  0  0  0  0  0  0  0  0  0
    1.4826   -6.2208   -0.1009 C   0  0  0  0  0  0  0  0  0  0  0  0
    0.9131   -5.9350   -1.3853 C   0  0  0  0  0  0  0  0  0  0  0  0
    1.6886   -5.5646   -2.4554 C   0  0  0  0  0  0  0  0  0  0  0  0
    3.8798   -5.1195   -3.4308 C   0  0  0  0  0  0  0  0  0  0  0  0
    3.3623   -4.5976   -4.5635 N   0  0  0  0  0  0  0  0  0  0  0  0
   -0.6122   -6.8879    0.8346 N   0  0  0  0  0  0  0  0  0  0  0  0
    0.7051   -6.6157    0.9476 C   0  0  0  0  0  0  0  0  0  0  0  0
    5.2253   -5.2882   -3.4450 N   0  0  0  0  0  0  0  0  0  0  0  0
    1.1943   -6.7675    2.2012 N   0  0  0  0  0  0  0  0  0  0  0  0
    6.2076   -4.4205   -4.0918 C   0  0  0  0  0  0  0  0  0  0  0  0
    0.6061   -7.5783    3.2629 C   0  0  0  0  0  0  0  0  0  0  0  0
    6.3953   -3.1756   -3.2098 C   0  0  0  0  0  0  0  0  0  0  0  0
    0.5931   -6.7340    4.5508 C   0  0  0  0  0  0  0  0  0  0  0  0
    7.7092   -3.2554   -2.4202 C   0  0  0  0  0  0  0  0  0  0  0  0
    0.3744   -7.5838    5.8157 C   0  0  0  0  0  0  0  0  0  0  0  0
    7.5637   -4.2671   -1.3125 N   0  0  0  0  0  0  0  0  0  0  0  0
    0.5523   -6.7656    7.0697 N   0  0  0  0  0  0  0  0  0  0  0  0
    6.8905   -3.6346   -0.1249 C   0  0  0  0  0  0  0  0  0  0  0  0
    0.9866   -7.6765    8.1864 C   0  0  0  0  0  0  0  0  0  0  0  0
    8.9093   -4.8112   -0.9009 C   0  0  0  0  0  0  0  0  0  0  0  0
   -0.7145   -6.0654    7.4756 C   0  0  0  0  0  0  0  0  0  0  0  0
  1  6  2  0  0  0  0
  2  3  2  0  0  0  0
  2  1  1  0  0  0  0
  3  4  1  0  0  0  0
  4 10  1  0  0  0  0
  4  5  2  0  0  0  0
  6  5  1  0  0  0  0
  7  1  1  0  0  0  0
  7 11  1  0  0  0  0
  8  7  2  0  0  0  0
  9 10  2  0  0  0  0
 10 12  1  0  0  0  0
 12 14  1  0  0  0  0
 13 11  1  0  0  0  0
 13 15  1  0  0  0  0
 14 16  1  0  0  0  0
 16 18  1  0  0  0  0
 17 15  1  0  0  0  0
 17 19  1  0  0  0  0
 18 20  1  0  0  0  0
 19 23  1  0  0  0  0
 20 22  1  0  0  0  0
 20 24  1  0  0  0  0
 21 19  1  0  0  0  0
M  END
>  <CHROM.1>
-173.71219229,-165.04618388,-133.45099322,77.10773220,103.43010707,-163.77328711
172.25966894,-73.40188239,-82.77954003,-152.96658923,3.09242152,-5.66932700
0.47345147,0.97295871,-0.30085237,-1.46940771

>  <Name>
lig.pdb

>  <RI>
3.93418e+07

>  <Rbt.Current_Directory>
/home/itssahil/PROJECTS/Mol_Feturizer/New_Systems/rnas/2l94

>  <Rbt.Executable>
rbdock ($Id: //depot/dev/client3/rdock/2013.1/src/exe/rbdock.cxx#4 $)

>  <Rbt.Library>
libRbt.so (2013.1, Build901 2013/11/27)

>  <Rbt.Parameter_File>
/export/apps/rDock/src/rDock_2013.1_src/data/scripts/dock_solv.prm

>  <Rbt.Receptor>
prm/blind_docking_20.prm

>  <SCORE>
-17.0982

>  <SCORE.INTER>
-18.155

>  <SCORE.INTER.CONST>
1

>  <SCORE.INTER.POLAR>
-3.05364

>  <SCORE.INTER.ROT>
10

>  <SCORE.INTER.SOLV>
20.1117

>  <SCORE.INTER.VDW>
-18.8951

>  <SCORE.INTER.norm>
-0.75646

>  <SCORE.INTRA>
0.548702

>  <SCORE.INTRA.DIHEDRAL>
7.3517

>  <SCORE.INTRA.DIHEDRAL.0>
7.52971

>  <SCORE.INTRA.POLAR>
0

>  <SCORE.INTRA.POLAR.0>
0

>  <SCORE.INTRA.REPUL>
0

>  <SCORE.INTRA.REPUL.0>
0

>  <SCORE.INTRA.SOLV>
0.648366

>  <SCORE.INTRA.SOLV.lig_0>
-22.1084

>  <SCORE.INTRA.VDW>
-3.45133

>  <SCORE.INTRA.VDW.0>
2.4256

>  <SCORE.INTRA.norm>
0.0228626

>  <SCORE.RESTR>
0.508138

>  <SCORE.RESTR.CAVITY>
0.508138

>  <SCORE.RESTR.norm>
0.0211724

>  <SCORE.SYSTEM>
0

>  <SCORE.SYSTEM.CONST>
0

>  <SCORE.SYSTEM.DIHEDRAL>
0

>  <SCORE.SYSTEM.SOLV>
0

>  <SCORE.SYSTEM.norm>
0

>  <SCORE.heavy>
24

>  <SCORE.norm>
-0.712425

>  <RMSD>
7.884

$$$$
lig.pdb
 OpenBabel11021811453D
libRbt.so/2013.1/901 2013/11/27
 24 24  0  0  0  0  0  0  0  0999 V2000
    2.0188   -4.9178   -1.8359 C   0  0  0  0  0  0  0  0  0  0  0  0
    1.1416   -5.9590   -2.2913 C   0  0  0  0  0  0  0  0  0  0  0  0
    0.3690   -6.6876   -1.4181 C   0  0  0  0  0  0  0  0  0  0  0  0
    0.3901   -6.4405   -0.0081 C   0  0  0  0  0  0  0  0  0  0  0  0
    1.2915   -5.4234    0.4485 C   0  0  0  0  0  0  0  0  0  0  0  0
    2.0693   -4.7009   -0.4215 C   0  0  0  0  0  0  0  0  0  0  0  0
    2.7663   -4.1670   -2.6975 C   0  0  0  0  0  0  0  0  0  0  0  0
    3.0165   -2.8555   -2.4960 N   0  0  0  0  0  0  0  0  0  0  0  0
   -1.4651   -7.8651    0.4787 N   0  0  0  0  0  0  0  0  0  0  0  0
   -0.3987   -7.1322    0.8631 C   0  0  0  0  0  0  0  0  0  0  0  0
    3.3189   -4.6854   -3.8222 N   0  0  0  0  0  0  0  0  0  0  0  0
   -0.1766   -7.1398    2.1990 N   0  0  0  0  0  0  0  0  0  0  0  0
    4.6086   -4.3251   -4.4077 C   0  0  0  0  0  0  0  0  0  0  0  0
   -0.6448   -8.1488    3.1441 C   0  0  0  0  0  0  0  0  0  0  0  0
    5.7144   -4.9497   -3.5416 C   0  0  0  0  0  0  0  0  0  0  0  0
   -0.1290   -7.7624    4.5428 C   0  0  0  0  0  0  0  0  0  0  0  0
    6.7099   -3.8815   -3.0682 C   0  0  0  0  0  0  0  0  0  0  0  0
   -1.0941   -6.8275    5.2942 C   0  0  0  0  0  0  0  0  0  0  0  0
    7.3427   -4.3288   -1.7754 N   0  0  0  0  0  0  0  0  0  0  0  0
   -1.1199   -5.4501    4.6814 N   0  0  0  0  0  0  0  0  0  0  0  0
    6.5888   -3.7519   -0.6083 C   0  0  0  0  0  0  0  0  0  0  0  0
    0.1895   -4.7659    4.9689 C   0  0  0  0  0  0  0  0  0  0  0  0
    8.7872   -3.8991   -1.7068 C   0  0  0  0  0  0  0  0  0  0  0  0
   -2.2404   -4.6077    5.2243 C   0  0  0  0  0  0  0  0  0  0  0  0
  1  6  2  0  0  0  0
  2  3  2  0  0  0  0
  2  1  1  0  0  0  0
  3  4  1  0  0  0  0
  4 10  1  0  0  0  0
  4  5  2  0  0  0  0
  6  5  1  0  0  0  0
  7  1  1  0  0  0  0
  7 11  1  0  0  0  0
  8  7  2  0  0  0  0
  9 10  2  0  0  0  0
 10 12  1  0  0  0  0
 12 14  1  0  0  0  0
 13 11  1  0  0  0  0
 13 15  1  0  0  0  0
 14 16  1  0  0  0  0
 16 18  1  0  0  0  0
 17 15  1  0  0  0  0
 17 19  1  0  0  0  0
 18 20  1  0  0  0  0
 19 23  1  0  0  0  0
 20 22  1  0  0  0  0
 20 24  1  0  0  0  0
 21 19  1  0  0  0  0
M  END
>  <CHROM.1>
-15.90557134,144.12629071,178.77143540,74.52435901,-125.02444514,88.62330624
-70.44430346,153.34085848,-94.42736942,-70.45378991,2.07572608,-5.42260302
0.11764041,0.72072425,-0.38789860,-1.63402723

>  <Name>
lig.pdb

>  <RI>
3.93418e+07

>  <Rbt.Current_Directory>
/home/itssahil/PROJECTS/Mol_Feturizer/New_Systems/rnas/2l94

>  <Rbt.Executable>
rbdock ($Id: //depot/dev/client3/rdock/2013.1/src/exe/rbdock.cxx#4 $)

>  <Rbt.Library>
libRbt.so (2013.1, Build901 2013/11/27)

>  <Rbt.Parameter_File>
/export/apps/rDock/src/rDock_2013.1_src/data/scripts/dock_solv.prm

>  <Rbt.Receptor>
prm/blind_docking_20.prm

>  <SCORE>
-4.95617

>  <SCORE.INTER>
-10.9579

>  <SCORE.INTER.CONST>
1

>  <SCORE.INTER.POLAR>
-1.47425

>  <SCORE.INTER.ROT>
10

>  <SCORE.INTER.SOLV>
15.3785

>  <SCORE.INTER.VDW>
-17.784

>  <SCORE.INTER.norm>
-0.45658

>  <SCORE.INTRA>
5.44982

>  <SCORE.INTRA.DIHEDRAL>
15.9039

>  <SCORE.INTRA.DIHEDRAL.0>
7.52971

>  <SCORE.INTRA.POLAR>
0

>  <SCORE.INTRA.POLAR.0>
0

>  <SCORE.INTRA.REPUL>
0

>  <SCORE.INTRA.REPUL.0>
0

>  <SCORE.INTRA.SOLV>
1.07217

>  <SCORE.INTRA.SOLV.lig_0>
-22.1084

>  <SCORE.INTRA.VDW>
-3.03822

>  <SCORE.INTRA.VDW.0>
2.4256

>  <SCORE.INTRA.norm>
0.227076

>  <SCORE.RESTR>
0.551945

>  <SCORE.RESTR.CAVITY>
0.551945

>  <SCORE.RESTR.norm>
0.0229977

>  <SCORE.SYSTEM>
0

>  <SCORE.SYSTEM.CONST>
0

>  <SCORE.SYSTEM.DIHEDRAL>
0

>  <SCORE.SYSTEM.SOLV>
0

>  <SCORE.SYSTEM.norm>
0

>  <SCORE.heavy>
24

>  <SCORE.norm>
-0.206507

>  <RMSD>
7.890

$$$$
lig.pdb
 OpenBabel11021811453D
libRbt.so/2013.1/901 2013/11/27
 24 24  0  0  0  0  0  0  0  0999 V2000
    2.5808   -5.4063   -2.5772 C   0  0  0  0  0  0  0  0  0  0  0  0
    3.0335   -5.5449   -1.2219 C   0  0  0  0  0  0  0  0  0  0  0  0
    2.1850   -5.9318   -0.2117 C   0  0  0  0  0  0  0  0  0  0  0  0
    0.8061   -6.2269   -0.4584 C   0  0  0  0  0  0  0  0  0  0  0  0
    0.3476   -6.0554   -1.8061 C   0  0  0  0  0  0  0  0  0  0  0  0
    1.1920   -5.6615   -2.8139 C   0  0  0  0  0  0  0  0  0  0  0  0
    3.4222   -5.0537   -3.5934 C   0  0  0  0  0  0  0  0  0  0  0  0
    2.9815   -4.5459   -4.7643 N   0  0  0  0  0  0  0  0  0  0  0  0
   -1.1862   -7.3113    0.2919 N   0  0  0  0  0  0  0  0  0  0  0  0
   -0.0357   -6.6464    0.5290 C   0  0  0  0  0  0  0  0  0  0  0  0
    4.7688   -5.1839   -3.5005 N   0  0  0  0  0  0  0  0  0  0  0  0
    0.2143   -6.4271    1.8418 N   0  0  0  0  0  0  0  0  0  0  0  0
    5.7742   -4.2880   -4.0688 C   0  0  0  0  0  0  0  0  0  0  0  0
   -0.3431   -7.1789    2.9619 C   0  0  0  0  0  0  0  0  0  0  0  0
    7.0024   -4.3053   -3.1446 C   0  0  0  0  0  0  0  0  0  0  0  0
    0.6993   -7.1813    4.0955 C   0  0  0  0  0  0  0  0  0  0  0  0
    6.7194   -3.5455   -1.8413 C   0  0  0  0  0  0  0  0  0  0  0  0
    0.1595   -7.8008    5.3973 C   0  0  0  0  0  0  0  0  0  0  0  0
    7.5018   -4.1755   -0.7176 N   0  0  0  0  0  0  0  0  0  0  0  0
   -0.5317   -6.7713    6.2551 N   0  0  0  0  0  0  0  0  0  0  0  0
    7.0469   -3.6145    0.6021 C   0  0  0  0  0  0  0  0  0  0  0  0
   -0.4735   -7.2175    7.6914 C   0  0  0  0  0  0  0  0  0  0  0  0
    8.9806   -3.9308   -0.8886 C   0  0  0  0  0  0  0  0  0  0  0  0
   -1.9697   -6.5772    5.8621 C   0  0  0  0  0  0  0  0  0  0  0  0
  1  6  2  0  0  0  0
  2  3  2  0  0  0  0
  2  1  1  0  0  0  0
  3  4  1  0  0  0  0
  4 10  1  0  0  0  0
  4  5  2  0  0  0  0
  6  5  1  0  0  0  0
  7  1  1  0  0  0  0
  7 11  1  0  0  0  0
  8  7  2  0  0  0  0
  9 10  2  0  0  0  0
 10 12  1  0  0  0  0
 12 14  1  0  0  0  0
 13 11  1  0  0  0  0
 13 15  1  0  0  0  0
 14 16  1  0  0  0  0
 16 18  1  0  0  0  0
 17 15  1  0  0  0  0
 17 19  1  0  0  0  0
 18 20  1  0  0  0  0
 19 23  1  0  0  0  0
 20 22  1  0  0  0  0
 20 24  1  0  0  0  0
 21 19  1  0  0  0  0
M  END
>  <CHROM.1>
-158.98742553,-160.20968523,148.77099608,148.62153497,-72.71090075,173.08341009
-87.72010642,148.25240487,-169.53916000,-154.43792899,2.56322376,-5.68498703
0.24140386,0.84833946,-0.30777110,-1.48756901

>  <Name>
lig.pdb

>  <RI>
3.93418e+07

>  <Rbt.Current_Directory>
/home/itssahil/PROJECTS/Mol_Feturizer/New_Systems/rnas/2l94

>  <Rbt.Executable>
rbdock ($Id: //depot/dev/client3/rdock/2013.1/src/exe/rbdock.cxx#4 $)

>  <Rbt.Library>
libRbt.so (2013.1, Build901 2013/11/27)

>  <Rbt.Parameter_File>
/export/apps/rDock/src/rDock_2013.1_src/data/scripts/dock_solv.prm

>  <Rbt.Receptor>
prm/blind_docking_20.prm

>  <SCORE>
-9.69913

>  <SCORE.INTER>
-12.1536

>  <SCORE.INTER.CONST>
1

>  <SCORE.INTER.POLAR>
-2.21392

>  <SCORE.INTER.ROT>
10

>  <SCORE.INTER.SOLV>
15.9847

>  <SCORE.INTER.VDW>
-16.3176

>  <SCORE.INTER.norm>
-0.506402

>  <SCORE.INTRA>
1.9263

>  <SCORE.INTRA.DIHEDRAL>
8.10255

>  <SCORE.INTRA.DIHEDRAL.0>
7.52971

>  <SCORE.INTRA.POLAR>
0

>  <SCORE.INTRA.POLAR.0>
0

>  <SCORE.INTRA.REPUL>
0

>  <SCORE.INTRA.REPUL.0>
0

>  <SCORE.INTRA.SOLV>
-0.0397708

>  <SCORE.INTRA.SOLV.lig_0>
-22.1084

>  <SCORE.INTRA.VDW>
-2.10509

>  <SCORE.INTRA.VDW.0>
2.4256

>  <SCORE.INTRA.norm>
0.0802625

>  <SCORE.RESTR>
0.528212

>  <SCORE.RESTR.CAVITY>
0.528212

>  <SCORE.RESTR.norm>
0.0220088

>  <SCORE.SYSTEM>
0

>  <SCORE.SYSTEM.CONST>
0

>  <SCORE.SYSTEM.DIHEDRAL>
0

>  <SCORE.SYSTEM.SOLV>
0

>  <SCORE.SYSTEM.norm>
0

>  <SCORE.heavy>
24

>  <SCORE.norm>
-0.404131

>  <RMSD>
7.900

$$$$
lig.pdb
 OpenBabel11021811453D
libRbt.so/2013.1/901 2013/11/27
 24 24  0  0  0  0  0  0  0  0999 V2000
    3.1285   -5.4388   -2.1809 C   0  0  0  0  0  0  0  0  0  0  0  0
    3.2575   -6.8239   -1.8258 C   0  0  0  0  0  0  0  0  0  0  0  0
    2.6421   -7.3457   -0.7126 C   0  0  0  0  0  0  0  0  0  0  0  0
    1.8311   -6.5382    0.1474 C   0  0  0  0  0  0  0  0  0  0  0  0
    1.7307   -5.1482   -0.1896 C   0  0  0  0  0  0  0  0  0  0  0  0
    2.3512   -4.6244   -1.2962 C   0  0  0  0  0  0  0  0  0  0  0  0
    3.7091   -4.9174   -3.3015 C   0  0  0  0  0  0  0  0  0  0  0  0
    2.9984   -4.3244   -4.2845 N   0  0  0  0  0  0  0  0  0  0  0  0
    1.3592   -8.3189    1.6687 N   0  0  0  0  0  0  0  0  0  0  0  0
    1.1868   -7.0528    1.2334 C   0  0  0  0  0  0  0  0  0  0  0  0
    5.0487   -4.9527   -3.5097 N   0  0  0  0  0  0  0  0  0  0  0  0
    0.3109   -6.3302    1.9714 N   0  0  0  0  0  0  0  0  0  0  0  0
    5.8580   -3.9273   -4.1652 C   0  0  0  0  0  0  0  0  0  0  0  0
   -0.0817   -6.6010    3.3509 C   0  0  0  0  0  0  0  0  0  0  0  0
    7.0858   -3.6545   -3.2813 C   0  0  0  0  0  0  0  0  0  0  0  0
    0.7360   -5.6712    4.2667 C   0  0  0  0  0  0  0  0  0  0  0  0
    6.6643   -3.3295   -1.8416 C   0  0  0  0  0  0  0  0  0  0  0  0
    1.1371   -6.3452    5.5914 C   0  0  0  0  0  0  0  0  0  0  0  0
    7.3231   -4.3030   -0.8982 N   0  0  0  0  0  0  0  0  0  0  0  0
   -0.0389   -7.0274    6.2435 N   0  0  0  0  0  0  0  0  0  0  0  0
    6.7554   -4.1407    0.4856 C   0  0  0  0  0  0  0  0  0  0  0  0
    0.0122   -6.7720    7.7260 C   0  0  0  0  0  0  0  0  0  0  0  0
    8.8160   -4.0892   -0.8608 C   0  0  0  0  0  0  0  0  0  0  0  0
   -0.0393   -8.5115    6.0037 C   0  0  0  0  0  0  0  0  0  0  0  0
  1  6  2  0  0  0  0
  2  3  2  0  0  0  0
  2  1  1  0  0  0  0
  3  4  1  0  0  0  0
  4 10  1  0  0  0  0
  4  5  2  0  0  0  0
  6  5  1  0  0  0  0
  7  1  1  0  0  0  0
  7 11  1  0  0  0  0
  8  7  2  0  0  0  0
  9 10  2  0  0  0  0
 10 12  1  0  0  0  0
 12 14  1  0  0  0  0
 13 11  1  0  0  0  0
 13 15  1  0  0  0  0
 14 16  1  0  0  0  0
 16 18  1  0  0  0  0
 17 15  1  0  0  0  0
 17 19  1  0  0  0  0
 18 20  1  0  0  0  0
 19 23  1  0  0  0  0
 20 22  1  0  0  0  0
 20 24  1  0  0  0  0
 21 19  1  0  0  0  0
M  END
>  <CHROM.1>
6.85295932,120.63482377,99.10631369,132.11594550,-52.99464784,-143.51214771
-48.23579331,122.70143008,-171.06336855,-138.91435033,3.09166985,-5.67643597
0.49965372,0.92417973,-0.37873711,-1.50172370

>  <Name>
lig.pdb

>  <RI>
2.41306e+07

>  <Rbt.Current_Directory>
/home/itssahil/PROJECTS/Mol_Feturizer/New_Systems/rnas/2l94

>  <Rbt.Executable>
rbdock ($Id: //depot/dev/client3/rdock/2013.1/src/exe/rbdock.cxx#4 $)

>  <Rbt.Library>
libRbt.so (2013.1, Build901 2013/11/27)

>  <Rbt.Parameter_File>
/export/apps/rDock/src/rDock_2013.1_src/data/scripts/dock_solv.prm

>  <Rbt.Receptor>
prm/blind_docking_40.prm

>  <SCORE>
-5.54945

>  <SCORE.INTER>
-13.5003

>  <SCORE.INTER.CONST>
1

>  <SCORE.INTER.POLAR>
-2.58174

>  <SCORE.INTER.ROT>
10

>  <SCORE.INTER.SOLV>
18.0138

>  <SCORE.INTER.VDW>
-16.6657

>  <SCORE.INTER.norm>
-0.562511

>  <SCORE.INTRA>
7.27555

>  <SCORE.INTRA.DIHEDRAL>
19.6867

>  <SCORE.INTRA.DIHEDRAL.0>
7.52971

>  <SCORE.INTRA.POLAR>
0

>  <SCORE.INTRA.POLAR.0>
0

>  <SCORE.INTRA.REPUL>
0

>  <SCORE.INTRA.REPUL.0>
0

>  <SCORE.INTRA.SOLV>
0.559657

>  <SCORE.INTRA.SOLV.lig_0>
-22.1084

>  <SCORE.INTRA.VDW>
-2.84762

>  <SCORE.INTRA.VDW.0>
2.4256

>  <SCORE.INTRA.norm>
0.303148

>  <SCORE.RESTR>
0.675257

>  <SCORE.RESTR.CAVITY>
0.675257

>  <SCORE.RESTR.norm>
0.0281357

>  <SCORE.SYSTEM>
0

>  <SCORE.SYSTEM.CONST>
0

>  <SCORE.SYSTEM.DIHEDRAL>
0

>  <SCORE.SYSTEM.SOLV>
0

>  <SCORE.SYSTEM.norm>
0

>  <SCORE.heavy>
24

>  <SCORE.norm>
-0.231227

>  <RMSD>
7.901

$$$$
lig.pdb
 OpenBabel11021811453D
libRbt.so/2013.1/901 2013/11/27
 24 24  0  0  0  0  0  0  0  0999 V2000
    1.5106   -7.1854    0.1041 C   0  0  0  0  0  0  0  0  0  0  0  0
    0.8454   -6.5541   -1.0005 C   0  0  0  0  0  0  0  0  0  0  0  0
    1.5360   -5.8281   -1.9418 C   0  0  0  0  0  0  0  0  0  0  0  0
    2.9574   -5.6706   -1.8770 C   0  0  0  0  0  0  0  0  0  0  0  0
    3.6161   -6.2732   -0.7550 C   0  0  0  0  0  0  0  0  0  0  0  0
    2.9266   -6.9915    0.1897 C   0  0  0  0  0  0  0  0  0  0  0  0
    0.8386   -7.9352    1.0266 C   0  0  0  0  0  0  0  0  0  0  0  0
    1.4644   -8.7537    1.8992 N   0  0  0  0  0  0  0  0  0  0  0  0
    3.0711   -4.3045   -3.8337 N   0  0  0  0  0  0  0  0  0  0  0  0
    3.6568   -4.9834   -2.8247 C   0  0  0  0  0  0  0  0  0  0  0  0
   -0.5127   -7.9105    1.1384 N   0  0  0  0  0  0  0  0  0  0  0  0
    5.0098   -4.9259   -2.8333 N   0  0  0  0  0  0  0  0  0  0  0  0
   -1.2891   -8.0161    2.3722 C   0  0  0  0  0  0  0  0  0  0  0  0
    5.8243   -3.9071   -3.4883 C   0  0  0  0  0  0  0  0  0  0  0  0
   -0.8272   -6.8983    3.3211 C   0  0  0  0  0  0  0  0  0  0  0  0
    6.2568   -2.8873   -2.4184 C   0  0  0  0  0  0  0  0  0  0  0  0
    0.2415   -7.4123    4.2956 C   0  0  0  0  0  0  0  0  0  0  0  0
    7.0652   -3.5306   -1.2772 C   0  0  0  0  0  0  0  0  0  0  0  0
    0.5798   -6.3245    5.2825 N   0  0  0  0  0  0  0  0  0  0  0  0
    8.4249   -3.9814   -1.7479 N   0  0  0  0  0  0  0  0  0  0  0  0
    1.5249   -5.3370    4.6539 C   0  0  0  0  0  0  0  0  0  0  0  0
    8.7890   -5.2548   -1.0328 C   0  0  0  0  0  0  0  0  0  0  0  0
    1.2067   -6.9031    6.5268 C   0  0  0  0  0  0  0  0  0  0  0  0
    9.4878   -2.9518   -1.4831 C   0  0  0  0  0  0  0  0  0  0  0  0
  1  6  2  0  0  0  0
  2  3  2  0  0  0  0
  2  1  1  0  0  0  0
  3  4  1  0  0  0  0
  4 10  1  0  0  0  0
  4  5  2  0  0  0  0
  6  5  1  0  0  0  0
  7  1  1  0  0  0  0
  7 11  1  0  0  0  0
  8  7  2  0  0  0  0
  9 10  2  0  0  0  0
 10 12  1  0  0  0  0
 12 14  1  0  0  0  0
 13 11  1  0  0  0  0
 13 15  1  0  0  0  0
 14 16  1  0  0  0  0
 16 18  1  0  0  0  0
 17 15  1  0  0  0  0
 17 19  1  0  0  0  0
 18 20  1  0  0  0  0
 19 23  1  0  0  0  0
 20 22  1  0  0  0  0
 20 24  1  0  0  0  0
 21 19  1  0  0  0  0
M  END
>  <CHROM.1>
5.68751911,165.91550237,99.21539164,56.59521639,-95.15744202,59.17989687
69.31321677,-175.12701938,-79.58653691,-144.23006928,3.13928965,-5.84207441
0.22717416,2.44614159,0.39842898,1.64839966

>  <Name>
lig.pdb

>  <RI>
3.93418e+07

>  <Rbt.Current_Directory>
/home/itssahil/PROJECTS/Mol_Feturizer/New_Systems/rnas/2l94

>  <Rbt.Executable>
rbdock ($Id: //depot/dev/client3/rdock/2013.1/src/exe/rbdock.cxx#4 $)

>  <Rbt.Library>
libRbt.so (2013.1, Build901 2013/11/27)

>  <Rbt.Parameter_File>
/export/apps/rDock/src/rDock_2013.1_src/data/scripts/dock_solv.prm

>  <Rbt.Receptor>
prm/blind_docking_20.prm

>  <SCORE>
-10.3582

>  <SCORE.INTER>
-11.9927

>  <SCORE.INTER.CONST>
1

>  <SCORE.INTER.POLAR>
-2.19297

>  <SCORE.INTER.ROT>
10

>  <SCORE.INTER.SOLV>
18.6776

>  <SCORE.INTER.VDW>
-17.1778

>  <SCORE.INTER.norm>
-0.499697

>  <SCORE.INTRA>
0.197404

>  <SCORE.INTRA.DIHEDRAL>
5.29717

>  <SCORE.INTRA.DIHEDRAL.0>
7.52971

>  <SCORE.INTRA.POLAR>
0

>  <SCORE.INTRA.POLAR.0>
0

>  <SCORE.INTRA.REPUL>
0

>  <SCORE.INTRA.REPUL.0>
0

>  <SCORE.INTRA.SOLV>
1.11937

>  <SCORE.INTRA.SOLV.lig_0>
-22.1084

>  <SCORE.INTRA.VDW>
-3.01087

>  <SCORE.INTRA.VDW.0>
2.4256

>  <SCORE.INTRA.norm>
0.00822515

>  <SCORE.RESTR>
1.4371

>  <SCORE.RESTR.CAVITY>
1.4371

>  <SCORE.RESTR.norm>
0.0598794

>  <SCORE.SYSTEM>
0

>  <SCORE.SYSTEM.CONST>
0

>  <SCORE.SYSTEM.DIHEDRAL>
0

>  <SCORE.SYSTEM.SOLV>
0

>  <SCORE.SYSTEM.norm>
0

>  <SCORE.heavy>
24

>  <SCORE.norm>
-0.431592

>  <RMSD>
7.947

$$$$
lig.pdb
 OpenBabel11021811453D
libRbt.so/2013.1/901 2013/11/27
 24 24  0  0  0  0  0  0  0  0999 V2000
    2.8590   -5.1199   -2.0654 C   0  0  0  0  0  0  0  0  0  0  0  0
    3.1298   -6.5146   -1.8593 C   0  0  0  0  0  0  0  0  0  0  0  0
    2.6818   -7.1814   -0.7436 C   0  0  0  0  0  0  0  0  0  0  0  0
    1.9124   -6.5233    0.2684 C   0  0  0  0  0  0  0  0  0  0  0  0
    1.6715   -5.1228    0.0778 C   0  0  0  0  0  0  0  0  0  0  0  0
    2.1252   -4.4542   -1.0317 C   0  0  0  0  0  0  0  0  0  0  0  0
    3.2718   -4.4557   -3.1849 C   0  0  0  0  0  0  0  0  0  0  0  0
    2.9374   -3.1723   -3.4384 N   0  0  0  0  0  0  0  0  0  0  0  0
    1.8027   -8.4378    1.6935 N   0  0  0  0  0  0  0  0  0  0  0  0
    1.4321   -7.1831    1.3609 C   0  0  0  0  0  0  0  0  0  0  0  0
    4.0548   -5.0366   -4.1275 N   0  0  0  0  0  0  0  0  0  0  0  0
    0.5339   -6.6298    2.2100 N   0  0  0  0  0  0  0  0  0  0  0  0
    5.1066   -4.3893   -4.9092 C   0  0  0  0  0  0  0  0  0  0  0  0
    0.2949   -7.0318    3.5927 C   0  0  0  0  0  0  0  0  0  0  0  0
    6.0135   -3.6171   -3.9375 C   0  0  0  0  0  0  0  0  0  0  0  0
    1.0412   -6.0436    4.5083 C   0  0  0  0  0  0  0  0  0  0  0  0
    6.8148   -4.5808   -3.0514 C   0  0  0  0  0  0  0  0  0  0  0  0
    1.0995   -6.5182    5.9716 C   0  0  0  0  0  0  0  0  0  0  0  0
    7.5117   -3.7981   -1.9681 N   0  0  0  0  0  0  0  0  0  0  0  0
   -0.2798   -6.6497    6.5662 N   0  0  0  0  0  0  0  0  0  0  0  0
    8.6636   -4.5953   -1.4192 C   0  0  0  0  0  0  0  0  0  0  0  0
   -0.8121   -5.2745    6.8677 C   0  0  0  0  0  0  0  0  0  0  0  0
    6.5560   -3.4560   -0.8521 C   0  0  0  0  0  0  0  0  0  0  0  0
   -0.2778   -7.4606    7.8321 C   0  0  0  0  0  0  0  0  0  0  0  0
  1  6  2  0  0  0  0
  2  3  2  0  0  0  0
  2  1  1  0  0  0  0
  3  4  1  0  0  0  0
  4 10  1  0  0  0  0
  4  5  2  0  0  0  0
  6  5  1  0  0  0  0
  7  1  1  0  0  0  0
  7 11  1  0  0  0  0
  8  7  2  0  0  0  0
  9 10  2  0  0  0  0
 10 12  1  0  0  0  0
 12 14  1  0  0  0  0
 13 11  1  0  0  0  0
 13 15  1  0  0  0  0
 14 16  1  0  0  0  0
 16 18  1  0  0  0  0
 17 15  1  0  0  0  0
 17 19  1  0  0  0  0
 18 20  1  0  0  0  0
 19 23  1  0  0  0  0
 20 22  1  0  0  0  0
 20 24  1  0  0  0  0
 21 19  1  0  0  0  0
M  END
>  <CHROM.1>
10.61786001,174.83542363,99.91223632,49.17974777,68.77437596,-168.58689492
-61.73264880,-170.68919770,-159.35743986,-75.31871876,2.94052352,-5.54011152
0.41091250,0.99522004,-0.31665337,-1.49439805

>  <Name>
lig.pdb

>  <RI>
3.30914e+07

>  <Rbt.Current_Directory>
/home/itssahil/PROJECTS/Mol_Feturizer/New_Systems/rnas/2l94

>  <Rbt.Executable>
rbdock ($Id: //depot/dev/client3/rdock/2013.1/src/exe/rbdock.cxx#4 $)

>  <Rbt.Library>
libRbt.so (2013.1, Build901 2013/11/27)

>  <Rbt.Parameter_File>
/export/apps/rDock/src/rDock_2013.1_src/data/scripts/dock_solv.prm

>  <Rbt.Receptor>
prm/blind_docking_80.prm

>  <SCORE>
-7.58806

>  <SCORE.INTER>
-5.64986

>  <SCORE.INTER.CONST>
1

>  <SCORE.INTER.POLAR>
-0.779563

>  <SCORE.INTER.ROT>
10

>  <SCORE.INTER.SOLV>
19.2649

>  <SCORE.INTER.VDW>
-17.8563

>  <SCORE.INTER.norm>
-0.235411

>  <SCORE.INTRA>
-1.94074

>  <SCORE.INTRA.DIHEDRAL>
0.388453

>  <SCORE.INTRA.DIHEDRAL.0>
7.52971

>  <SCORE.INTRA.POLAR>
0

>  <SCORE.INTRA.POLAR.0>
0

>  <SCORE.INTRA.REPUL>
0

>  <SCORE.INTRA.REPUL.0>
0

>  <SCORE.INTRA.SOLV>
0.528974

>  <SCORE.INTRA.SOLV.lig_0>
-22.1084

>  <SCORE.INTRA.VDW>
-2.39946

>  <SCORE.INTRA.VDW.0>
2.4256

>  <SCORE.INTRA.norm>
-0.0808644

>  <SCORE.RESTR>
0.00253904

>  <SCORE.RESTR.CAVITY>
0.00253904

>  <SCORE.RESTR.norm>
0.000105793

>  <SCORE.SYSTEM>
0

>  <SCORE.SYSTEM.CONST>
0

>  <SCORE.SYSTEM.DIHEDRAL>
0

>  <SCORE.SYSTEM.SOLV>
0

>  <SCORE.SYSTEM.norm>
0

>  <SCORE.heavy>
24

>  <SCORE.norm>
-0.316169

>  <RMSD>
7.951

$$$$
lig.pdb
 OpenBabel11021811453D
libRbt.so/2013.1/901 2013/11/27
 24 24  0  0  0  0  0  0  0  0999 V2000
    1.4864   -7.1137    0.1401 C   0  0  0  0  0  0  0  0  0  0  0  0
    2.9209   -7.0610    0.1584 C   0  0  0  0  0  0  0  0  0  0  0  0
    3.6330   -6.3988   -0.8135 C   0  0  0  0  0  0  0  0  0  0  0  0
    2.9820   -5.7174   -1.8911 C   0  0  0  0  0  0  0  0  0  0  0  0
    1.5510   -5.7994   -1.9267 C   0  0  0  0  0  0  0  0  0  0  0  0
    0.8395   -6.4670   -0.9614 C   0  0  0  0  0  0  0  0  0  0  0  0
    0.7684   -7.7413    1.1175 C   0  0  0  0  0  0  0  0  0  0  0  0
    1.3047   -8.6730    1.9345 N   0  0  0  0  0  0  0  0  0  0  0  0
    3.0998   -4.1608   -3.6997 N   0  0  0  0  0  0  0  0  0  0  0  0
    3.6766   -5.0270   -2.8401 C   0  0  0  0  0  0  0  0  0  0  0  0
   -0.5412   -7.4718    1.3442 N   0  0  0  0  0  0  0  0  0  0  0  0
    5.0150   -5.1556   -3.0014 N   0  0  0  0  0  0  0  0  0  0  0  0
   -1.2172   -7.4516    2.6400 C   0  0  0  0  0  0  0  0  0  0  0  0
    5.9021   -4.1891   -3.6412 C   0  0  0  0  0  0  0  0  0  0  0  0
   -0.3270   -6.6807    3.6280 C   0  0  0  0  0  0  0  0  0  0  0  0
    6.4819   -3.2793   -2.5421 C   0  0  0  0  0  0  0  0  0  0  0  0
   -0.9968   -6.5781    5.0053 C   0  0  0  0  0  0  0  0  0  0  0  0
    7.1216   -4.0742   -1.3894 C   0  0  0  0  0  0  0  0  0  0  0  0
   -0.0460   -5.9223    5.9737 N   0  0  0  0  0  0  0  0  0  0  0  0
    6.7928   -3.4669   -0.0490 N   0  0  0  0  0  0  0  0  0  0  0  0
    0.9625   -6.9262    6.4621 C   0  0  0  0  0  0  0  0  0  0  0  0
    8.0463   -2.8736    0.5360 C   0  0  0  0  0  0  0  0  0  0  0  0
   -0.7917   -5.3414    7.1495 C   0  0  0  0  0  0  0  0  0  0  0  0
    6.2372   -4.4799    0.9128 C   0  0  0  0  0  0  0  0  0  0  0  0
  1  6  2  0  0  0  0
  2  3  2  0  0  0  0
  2  1  1  0  0  0  0
  3  4  1  0  0  0  0
  4 10  1  0  0  0  0
  4  5  2  0  0  0  0
  6  5  1  0  0  0  0
  7  1  1  0  0  0  0
  7 11  1  0  0  0  0
  8  7  2  0  0  0  0
  9 10  2  0  0  0  0
 10 12  1  0  0  0  0
 12 14  1  0  0  0  0
 13 11  1  0  0  0  0
 13 15  1  0  0  0  0
 14 16  1  0  0  0  0
 16 18  1  0  0  0  0
 17 15  1  0  0  0  0
 17 19  1  0  0  0  0
 18 20  1  0  0  0  0
 19 23  1  0  0  0  0
 20 22  1  0  0  0  0
 20 24  1  0  0  0  0
 21 19  1  0  0  0  0
M  END
>  <CHROM.1>
-166.12166780,-20.11850070,93.70921641,45.26937446,178.12542150,52.36645888
-139.09989624,175.17918300,-79.70571534,-110.97199620,2.72631714,-5.72070545
0.66909149,2.39621660,0.49990747,1.46405006

>  <Name>
lig.pdb

>  <RI>
3.93418e+07

>  <Rbt.Current_Directory>
/home/itssahil/PROJECTS/Mol_Feturizer/New_Systems/rnas/2l94

>  <Rbt.Executable>
rbdock ($Id: //depot/dev/client3/rdock/2013.1/src/exe/rbdock.cxx#4 $)

>  <Rbt.Library>
libRbt.so (2013.1, Build901 2013/11/27)

>  <Rbt.Parameter_File>
/export/apps/rDock/src/rDock_2013.1_src/data/scripts/dock_solv.prm

>  <Rbt.Receptor>
prm/blind_docking_20.prm

>  <SCORE>
-3.65266

>  <SCORE.INTER>
-6.0148

>  <SCORE.INTER.CONST>
1

>  <SCORE.INTER.POLAR>
-1.21565

>  <SCORE.INTER.ROT>
10

>  <SCORE.INTER.SOLV>
17.3001

>  <SCORE.INTER.VDW>
-15.9911

>  <SCORE.INTER.norm>
-0.250617

>  <SCORE.INTRA>
1.61159

>  <SCORE.INTRA.DIHEDRAL>
8.4822

>  <SCORE.INTRA.DIHEDRAL.0>
7.52971

>  <SCORE.INTRA.POLAR>
0

>  <SCORE.INTRA.POLAR.0>
0

>  <SCORE.INTRA.REPUL>
0

>  <SCORE.INTRA.REPUL.0>
0

>  <SCORE.INTRA.SOLV>
0.584676

>  <SCORE.INTRA.SOLV.lig_0>
-22.1084

>  <SCORE.INTRA.VDW>
-2.92186

>  <SCORE.INTRA.VDW.0>
2.4256

>  <SCORE.INTRA.norm>
0.0671494

>  <SCORE.RESTR>
0.750562

>  <SCORE.RESTR.CAVITY>
0.750562

>  <SCORE.RESTR.norm>
0.0312734

>  <SCORE.SYSTEM>
0

>  <SCORE.SYSTEM.CONST>
0

>  <SCORE.SYSTEM.DIHEDRAL>
0

>  <SCORE.SYSTEM.SOLV>
0

>  <SCORE.SYSTEM.norm>
0

>  <SCORE.heavy>
24

>  <SCORE.norm>
-0.152194

>  <RMSD>
7.964

$$$$
lig.pdb
 OpenBabel11021811453D
libRbt.so/2013.1/901 2013/11/27
 24 24  0  0  0  0  0  0  0  0999 V2000
    2.5128   -5.7379   -1.1305 C   0  0  0  0  0  0  0  0  0  0  0  0
    2.9530   -6.9928   -0.5897 C   0  0  0  0  0  0  0  0  0  0  0  0
    2.3623   -7.5495    0.5199 C   0  0  0  0  0  0  0  0  0  0  0  0
    1.2695   -6.9126    1.1904 C   0  0  0  0  0  0  0  0  0  0  0  0
    0.8531   -5.6434    0.6694 C   0  0  0  0  0  0  0  0  0  0  0  0
    1.4474   -5.0828   -0.4335 C   0  0  0  0  0  0  0  0  0  0  0  0
    3.0712   -5.1918   -2.2507 C   0  0  0  0  0  0  0  0  0  0  0  0
    2.6968   -3.9917   -2.7433 N   0  0  0  0  0  0  0  0  0  0  0  0
    1.0397   -8.6420    2.8228 N   0  0  0  0  0  0  0  0  0  0  0  0
    0.6525   -7.4731    2.2697 C   0  0  0  0  0  0  0  0  0  0  0  0
    4.0503   -5.8146   -2.9525 N   0  0  0  0  0  0  0  0  0  0  0  0
   -0.4109   -6.8989    2.8808 N   0  0  0  0  0  0  0  0  0  0  0  0
    5.1762   -5.1787   -3.6337 C   0  0  0  0  0  0  0  0  0  0  0  0
   -0.8565   -7.1486    4.2481 C   0  0  0  0  0  0  0  0  0  0  0  0
    5.5238   -3.8885   -2.8739 C   0  0  0  0  0  0  0  0  0  0  0  0
    0.2284   -6.6179    5.2037 C   0  0  0  0  0  0  0  0  0  0  0  0
    7.0436   -3.6864   -2.8018 C   0  0  0  0  0  0  0  0  0  0  0  0
   -0.3538   -6.0822    6.5243 C   0  0  0  0  0  0  0  0  0  0  0  0
    7.5815   -4.3855   -1.5797 N   0  0  0  0  0  0  0  0  0  0  0  0
   -1.0726   -4.7724    6.3213 N   0  0  0  0  0  0  0  0  0  0  0  0
    7.0307   -3.7421   -0.3362 C   0  0  0  0  0  0  0  0  0  0  0  0
   -0.9416   -3.9473    7.5733 C   0  0  0  0  0  0  0  0  0  0  0  0
    9.0890   -4.3343   -1.5505 C   0  0  0  0  0  0  0  0  0  0  0  0
   -2.5315   -4.9664    6.0150 C   0  0  0  0  0  0  0  0  0  0  0  0
  1  6  2  0  0  0  0
  2  3  2  0  0  0  0
  2  1  1  0  0  0  0
  3  4  1  0  0  0  0
  4 10  1  0  0  0  0
  4  5  2  0  0  0  0
  6  5  1  0  0  0  0
  7  1  1  0  0  0  0
  7 11  1  0  0  0  0
  8  7  2  0  0  0  0
  9 10  2  0  0  0  0
 10 12  1  0  0  0  0
 12 14  1  0  0  0  0
 13 11  1  0  0  0  0
 13 15  1  0  0  0  0
 14 16  1  0  0  0  0
 16 18  1  0  0  0  0
 17 15  1  0  0  0  0
 17 19  1  0  0  0  0
 18 20  1  0  0  0  0
 19 23  1  0  0  0  0
 20 22  1  0  0  0  0
 20 24  1  0  0  0  0
 21 19  1  0  0  0  0
M  END
>  <CHROM.1>
2.23689395,-177.71792496,66.34411352,29.65474177,140.74260517,147.56941064
-72.25560639,-88.31304815,-64.63449509,-148.78208812,2.45555754,-5.57879238
1.01803272,0.72462747,-0.50182538,-1.89395104

>  <Name>
lig.pdb

>  <RI>
3.93418e+07

>  <Rbt.Current_Directory>
/home/itssahil/PROJECTS/Mol_Feturizer/New_Systems/rnas/2l94

>  <Rbt.Executable>
rbdock ($Id: //depot/dev/client3/rdock/2013.1/src/exe/rbdock.cxx#4 $)

>  <Rbt.Library>
libRbt.so (2013.1, Build901 2013/11/27)

>  <Rbt.Parameter_File>
/export/apps/rDock/src/rDock_2013.1_src/data/scripts/dock_solv.prm

>  <Rbt.Receptor>
prm/blind_docking_20.prm

>  <SCORE>
-7.52879

>  <SCORE.INTER>
-12.6005

>  <SCORE.INTER.CONST>
1

>  <SCORE.INTER.POLAR>
-1.87282

>  <SCORE.INTER.ROT>
10

>  <SCORE.INTER.SOLV>
19.2043

>  <SCORE.INTER.VDW>
-18.8257

>  <SCORE.INTER.norm>
-0.525022

>  <SCORE.INTRA>
4.92963

>  <SCORE.INTRA.DIHEDRAL>
9.43257

>  <SCORE.INTRA.DIHEDRAL.0>
7.52971

>  <SCORE.INTRA.POLAR>
0

>  <SCORE.INTRA.POLAR.0>
0

>  <SCORE.INTRA.REPUL>
0

>  <SCORE.INTRA.REPUL.0>
0

>  <SCORE.INTRA.SOLV>
0.67514

>  <SCORE.INTRA.SOLV.lig_0>
-22.1084

>  <SCORE.INTRA.VDW>
-0.124223

>  <SCORE.INTRA.VDW.0>
2.4256

>  <SCORE.INTRA.norm>
0.205401

>  <SCORE.RESTR>
0.142111

>  <SCORE.RESTR.CAVITY>
0.142111

>  <SCORE.RESTR.norm>
0.00592131

>  <SCORE.SYSTEM>
0

>  <SCORE.SYSTEM.CONST>
0

>  <SCORE.SYSTEM.DIHEDRAL>
0

>  <SCORE.SYSTEM.SOLV>
0

>  <SCORE.SYSTEM.norm>
0

>  <SCORE.heavy>
24

>  <SCORE.norm>
-0.3137

>  <RMSD>
7.978

$$$$
lig.pdb
 OpenBabel11021811453D
libRbt.so/2013.1/901 2013/11/27
 24 24  0  0  0  0  0  0  0  0999 V2000
    1.5536   -6.9843    0.1018 C   0  0  0  0  0  0  0  0  0  0  0  0
    2.4706   -5.8912    0.2602 C   0  0  0  0  0  0  0  0  0  0  0  0
    3.1701   -5.3735   -0.8042 C   0  0  0  0  0  0  0  0  0  0  0  0
    3.0144   -5.8902   -2.1301 C   0  0  0  0  0  0  0  0  0  0  0  0
    2.1238   -7.0036   -2.2810 C   0  0  0  0  0  0  0  0  0  0  0  0
    1.4311   -7.5265   -1.2177 C   0  0  0  0  0  0  0  0  0  0  0  0
    0.8302   -7.4850    1.1462 C   0  0  0  0  0  0  0  0  0  0  0  0
    0.4955   -8.7894    1.2447 N   0  0  0  0  0  0  0  0  0  0  0  0
    3.0569   -4.7114   -4.2079 N   0  0  0  0  0  0  0  0  0  0  0  0
    3.6754   -5.3609   -3.1990 C   0  0  0  0  0  0  0  0  0  0  0  0
    0.3957   -6.7073    2.1686 N   0  0  0  0  0  0  0  0  0  0  0  0
    5.0197   -5.4452   -3.3392 N   0  0  0  0  0  0  0  0  0  0  0  0
    0.2878   -7.0926    3.5743 C   0  0  0  0  0  0  0  0  0  0  0  0
    5.8563   -4.5748   -4.1596 C   0  0  0  0  0  0  0  0  0  0  0  0
    0.9238   -5.9792    4.4221 C   0  0  0  0  0  0  0  0  0  0  0  0
    6.1676   -3.3085   -3.3404 C   0  0  0  0  0  0  0  0  0  0  0  0
    1.2288   -6.4766    5.8418 C   0  0  0  0  0  0  0  0  0  0  0  0
    7.5037   -3.4055   -2.5819 C   0  0  0  0  0  0  0  0  0  0  0  0
   -0.0666   -6.7412    6.5656 N   0  0  0  0  0  0  0  0  0  0  0  0
    7.4107   -4.3575   -1.4164 N   0  0  0  0  0  0  0  0  0  0  0  0
   -0.7057   -5.4395    6.9663 C   0  0  0  0  0  0  0  0  0  0  0  0
    6.7372   -3.6552   -0.2680 C   0  0  0  0  0  0  0  0  0  0  0  0
    0.1658   -7.5891    7.7916 C   0  0  0  0  0  0  0  0  0  0  0  0
    8.7618   -4.8408   -0.9682 C   0  0  0  0  0  0  0  0  0  0  0  0
  1  6  2  0  0  0  0
  2  3  2  0  0  0  0
  2  1  1  0  0  0  0
  3  4  1  0  0  0  0
  4 10  1  0  0  0  0
  4  5  2  0  0  0  0
  6  5  1  0  0  0  0
  7  1  1  0  0  0  0
  7 11  1  0  0  0  0
  8  7  2  0  0  0  0
  9 10  2  0  0  0  0
 10 12  1  0  0  0  0
 12 14  1  0  0  0  0
 13 11  1  0  0  0  0
 13 15  1  0  0  0  0
 14 16  1  0  0  0  0
 16 18  1  0  0  0  0
 17 15  1  0  0  0  0
 17 19  1  0  0  0  0
 18 20  1  0  0  0  0
 19 23  1  0  0  0  0
 20 22  1  0  0  0  0
 20 24  1  0  0  0  0
 21 19  1  0  0  0  0
M  END
>  <CHROM.1>
-112.90987875,-147.10098249,83.50948933,132.37744349,-163.11192352,94.20905735
-72.22193265,-67.59277882,-74.90051570,-79.51073494,2.99677782,-5.84790847
0.49104192,2.25168603,0.47796747,1.49081228

>  <Name>
lig.pdb

>  <RI>
3.30914e+07

>  <Rbt.Current_Directory>
/home/itssahil/PROJECTS/Mol_Feturizer/New_Systems/rnas/2l94

>  <Rbt.Executable>
rbdock ($Id: //depot/dev/client3/rdock/2013.1/src/exe/rbdock.cxx#4 $)

>  <Rbt.Library>
libRbt.so (2013.1, Build901 2013/11/27)

>  <Rbt.Parameter_File>
/export/apps/rDock/src/rDock_2013.1_src/data/scripts/dock_solv.prm

>  <Rbt.Receptor>
prm/blind_docking_80.prm

>  <SCORE>
-9.60735

>  <SCORE.INTER>
-15.6263

>  <SCORE.INTER.CONST>
1

>  <SCORE.INTER.POLAR>
-2.71124

>  <SCORE.INTER.ROT>
10

>  <SCORE.INTER.SOLV>
16.4508

>  <SCORE.INTER.VDW>
-17.1303

>  <SCORE.INTER.norm>
-0.651094

>  <SCORE.INTRA>
5.90256

>  <SCORE.INTRA.DIHEDRAL>
18.5532

>  <SCORE.INTRA.DIHEDRAL.0>
7.52971

>  <SCORE.INTRA.POLAR>
0

>  <SCORE.INTRA.POLAR.0>
0

>  <SCORE.INTRA.REPUL>
0

>  <SCORE.INTRA.REPUL.0>
0

>  <SCORE.INTRA.SOLV>
0.596028

>  <SCORE.INTRA.SOLV.lig_0>
-22.1084

>  <SCORE.INTRA.VDW>
-3.67205

>  <SCORE.INTRA.VDW.0>
2.4256

>  <SCORE.INTRA.norm>
0.24594

>  <SCORE.RESTR>
0.116356

>  <SCORE.RESTR.CAVITY>
0.116356

>  <SCORE.RESTR.norm>
0.00484818

>  <SCORE.SYSTEM>
0

>  <SCORE.SYSTEM.CONST>
0

>  <SCORE.SYSTEM.DIHEDRAL>
0

>  <SCORE.SYSTEM.SOLV>
0

>  <SCORE.SYSTEM.norm>
0

>  <SCORE.heavy>
24

>  <SCORE.norm>
-0.400306

>  <RMSD>
8.021

$$$$
lig.pdb
 OpenBabel11021811453D
libRbt.so/2013.1/901 2013/11/27
 24 24  0  0  0  0  0  0  0  0999 V2000
    1.8056   -5.4697    0.8180 C   0  0  0  0  0  0  0  0  0  0  0  0
    2.8597   -6.3599    0.4214 C   0  0  0  0  0  0  0  0  0  0  0  0
    3.4176   -6.3066   -0.8340 C   0  0  0  0  0  0  0  0  0  0  0  0
    2.9843   -5.3538   -1.8106 C   0  0  0  0  0  0  0  0  0  0  0  0
    1.9087   -4.4879   -1.4245 C   0  0  0  0  0  0  0  0  0  0  0  0
    1.3454   -4.5456   -0.1742 C   0  0  0  0  0  0  0  0  0  0  0  0
    1.2664   -5.4928    2.0724 C   0  0  0  0  0  0  0  0  0  0  0  0
    0.6595   -4.4218    2.6270 N   0  0  0  0  0  0  0  0  0  0  0  0
    2.8817   -4.8828   -4.1506 N   0  0  0  0  0  0  0  0  0  0  0  0
    3.5552   -5.2679   -3.0460 C   0  0  0  0  0  0  0  0  0  0  0  0
    1.2969   -6.5989    2.8565 N   0  0  0  0  0  0  0  0  0  0  0  0
    4.8571   -5.5662   -3.2696 N   0  0  0  0  0  0  0  0  0  0  0  0
    0.2606   -7.0370    3.7894 C   0  0  0  0  0  0  0  0  0  0  0  0
    5.6653   -5.1056   -4.3945 C   0  0  0  0  0  0  0  0  0  0  0  0
    0.7711   -6.7874    5.2177 C   0  0  0  0  0  0  0  0  0  0  0  0
    6.2924   -3.7542   -4.0045 C   0  0  0  0  0  0  0  0  0  0  0  0
   -0.0568   -7.5755    6.2421 C   0  0  0  0  0  0  0  0  0  0  0  0
    6.6702   -3.6830   -2.5138 C   0  0  0  0  0  0  0  0  0  0  0  0
    0.6274   -7.5198    7.5840 N   0  0  0  0  0  0  0  0  0  0  0  0
    8.1550   -3.8493   -2.3107 N   0  0  0  0  0  0  0  0  0  0  0  0
    1.7225   -8.5496    7.6448 C   0  0  0  0  0  0  0  0  0  0  0  0
    8.3854   -4.7682   -1.1410 C   0  0  0  0  0  0  0  0  0  0  0  0
   -0.3578   -7.7625    8.7005 C   0  0  0  0  0  0  0  0  0  0  0  0
    8.8422   -2.5390   -2.0448 C   0  0  0  0  0  0  0  0  0  0  0  0
  1  6  2  0  0  0  0
  2  3  2  0  0  0  0
  2  1  1  0  0  0  0
  3  4  1  0  0  0  0
  4 10  1  0  0  0  0
  4  5  2  0  0  0  0
  6  5  1  0  0  0  0
  7  1  1  0  0  0  0
  7 11  1  0  0  0  0
  8  7  2  0  0  0  0
  9 10  2  0  0  0  0
 10 12  1  0  0  0  0
 12 14  1  0  0  0  0
 13 11  1  0  0  0  0
 13 15  1  0  0  0  0
 14 16  1  0  0  0  0
 16 18  1  0  0  0  0
 17 15  1  0  0  0  0
 17 19  1  0  0  0  0
 18 20  1  0  0  0  0
 19 23  1  0  0  0  0
 20 22  1  0  0  0  0
 20 24  1  0  0  0  0
 21 19  1  0  0  0  0
M  END
>  <CHROM.1>
149.03599104,155.40874770,88.14072062,-107.36466553,-163.55767096,35.56243540
103.25322617,169.19765745,-81.77988749,-136.94906051,3.19791916,-5.57157325
0.76331884,2.10339233,0.16271428,1.78842509

>  <Name>
lig.pdb

>  <RI>
3.93418e+07

>  <Rbt.Current_Directory>
/home/itssahil/PROJECTS/Mol_Feturizer/New_Systems/rnas/2l94

>  <Rbt.Executable>
rbdock ($Id: //depot/dev/client3/rdock/2013.1/src/exe/rbdock.cxx#4 $)

>  <Rbt.Library>
libRbt.so (2013.1, Build901 2013/11/27)

>  <Rbt.Parameter_File>
/export/apps/rDock/src/rDock_2013.1_src/data/scripts/dock_solv.prm

>  <Rbt.Receptor>
prm/blind_docking_20.prm

>  <SCORE>
-6.13244

>  <SCORE.INTER>
-12.5995

>  <SCORE.INTER.CONST>
1

>  <SCORE.INTER.POLAR>
-2.48933

>  <SCORE.INTER.ROT>
10

>  <SCORE.INTER.SOLV>
21.7746

>  <SCORE.INTER.VDW>
-17.6268

>  <SCORE.INTER.norm>
-0.524979

>  <SCORE.INTRA>
4.58219

>  <SCORE.INTRA.DIHEDRAL>
14.7494

>  <SCORE.INTRA.DIHEDRAL.0>
7.52971

>  <SCORE.INTRA.POLAR>
0

>  <SCORE.INTRA.POLAR.0>
0

>  <SCORE.INTRA.REPUL>
0

>  <SCORE.INTRA.REPUL.0>
0

>  <SCORE.INTRA.SOLV>
0.480148

>  <SCORE.INTRA.SOLV.lig_0>
-22.1084

>  <SCORE.INTRA.VDW>
-3.03256

>  <SCORE.INTRA.VDW.0>
2.4256

>  <SCORE.INTRA.norm>
0.190925

>  <SCORE.RESTR>
1.88486

>  <SCORE.RESTR.CAVITY>
1.88486

>  <SCORE.RESTR.norm>
0.0785358

>  <SCORE.SYSTEM>
0

>  <SCORE.SYSTEM.CONST>
0

>  <SCORE.SYSTEM.DIHEDRAL>
0

>  <SCORE.SYSTEM.SOLV>
0

>  <SCORE.SYSTEM.norm>
0

>  <SCORE.heavy>
24

>  <SCORE.norm>
-0.255519

>  <RMSD>
8.027

$$$$
lig.pdb
 OpenBabel11021811453D
libRbt.so/2013.1/901 2013/11/27
 24 24  0  0  0  0  0  0  0  0999 V2000
    9.7282   -3.1402   -1.2907 C   0  0  0  0  0  0  0  0  0  0  0  0
   10.0539   -2.4489   -0.0753 C   0  0  0  0  0  0  0  0  0  0  0  0
   11.2442   -1.7785    0.0790 C   0  0  0  0  0  0  0  0  0  0  0  0
   12.2193   -1.7252   -0.9678 C   0  0  0  0  0  0  0  0  0  0  0  0
   11.9072   -2.4441   -2.1684 C   0  0  0  0  0  0  0  0  0  0  0  0
   10.7227   -3.1205   -2.3206 C   0  0  0  0  0  0  0  0  0  0  0  0
    8.5357   -3.7820   -1.4660 C   0  0  0  0  0  0  0  0  0  0  0  0
    7.9447   -4.5055   -0.4911 N   0  0  0  0  0  0  0  0  0  0  0  0
   14.4815   -1.2757   -1.5912 N   0  0  0  0  0  0  0  0  0  0  0  0
   13.3872   -1.0330   -0.8390 C   0  0  0  0  0  0  0  0  0  0  0  0
    7.8511   -3.7372   -2.6358 N   0  0  0  0  0  0  0  0  0  0  0  0
   13.5481   -0.0365    0.0638 N   0  0  0  0  0  0  0  0  0  0  0  0
    6.3988   -3.7045   -2.7972 C   0  0  0  0  0  0  0  0  0  0  0  0
   14.5411    1.0314   -0.0002 C   0  0  0  0  0  0  0  0  0  0  0  0
    6.0040   -4.8249   -3.7728 C   0  0  0  0  0  0  0  0  0  0  0  0
   14.4000    1.7274   -1.3667 C   0  0  0  0  0  0  0  0  0  0  0  0
    4.4834   -4.8634   -3.9781 C   0  0  0  0  0  0  0  0  0  0  0  0
   13.0159    2.3713   -1.5650 C   0  0  0  0  0  0  0  0  0  0  0  0
    4.1430   -5.9387   -4.9779 N   0  0  0  0  0  0  0  0  0  0  0  0
   12.9291    3.1025   -2.8808 N   0  0  0  0  0  0  0  0  0  0  0  0
    2.7281   -5.7635   -5.4583 C   0  0  0  0  0  0  0  0  0  0  0  0
   11.7668    4.0575   -2.8300 C   0  0  0  0  0  0  0  0  0  0  0  0
    4.3045   -7.3096   -4.3692 C   0  0  0  0  0  0  0  0  0  0  0  0
   12.7400    2.1648   -4.0405 C   0  0  0  0  0  0  0  0  0  0  0  0
  1  6  2  0  0  0  0
  2  3  2  0  0  0  0
  2  1  1  0  0  0  0
  3  4  1  0  0  0  0
  4 10  1  0  0  0  0
  4  5  2  0  0  0  0
  6  5  1  0  0  0  0
  7  1  1  0  0  0  0
  7 11  1  0  0  0  0
  8  7  2  0  0  0  0
  9 10  2  0  0  0  0
 10 12  1  0  0  0  0
 12 14  1  0  0  0  0
 13 11  1  0  0  0  0
 13 15  1  0  0  0  0
 14 16  1  0  0  0  0
 16 18  1  0  0  0  0
 17 15  1  0  0  0  0
 17 19  1  0  0  0  0
 18 20  1  0  0  0  0
 19 23  1  0  0  0  0
 20 22  1  0  0  0  0
 20 24  1  0  0  0  0
 21 19  1  0  0  0  0
M  END
>  <CHROM.1>
159.00767448,-40.29510041,54.04851128,-127.89870253,179.27284371,61.53336722
177.19469026,177.90831866,-165.45507977,-161.90817742,9.91665378,-1.94519206
-2.21133858,-2.72761085,-0.58370855,-0.55523850

>  <Name>
lig.pdb

>  <RI>
1.39428e+07

>  <Rbt.Current_Directory>
/home/itssahil/PROJECTS/Mol_Feturizer/New_Systems/rnas/2l94

>  <Rbt.Executable>
rbdock ($Id: //depot/dev/client3/rdock/2013.1/src/exe/rbdock.cxx#4 $)

>  <Rbt.Library>
libRbt.so (2013.1, Build901 2013/11/27)

>  <Rbt.Parameter_File>
/export/apps/rDock/src/rDock_2013.1_src/data/scripts/dock_solv.prm

>  <Rbt.Receptor>
prm/pocket_docking_8.prm

>  <SCORE>
-21.0367

>  <SCORE.INTER>
-21.3044

>  <SCORE.INTER.CONST>
1

>  <SCORE.INTER.POLAR>
-3.6486

>  <SCORE.INTER.ROT>
10

>  <SCORE.INTER.SOLV>
12.9086

>  <SCORE.INTER.VDW>
-16.6105

>  <SCORE.INTER.norm>
-0.887683

>  <SCORE.INTRA>
0.267734

>  <SCORE.INTRA.DIHEDRAL>
5.45585

>  <SCORE.INTRA.DIHEDRAL.0>
7.52971

>  <SCORE.INTRA.POLAR>
0

>  <SCORE.INTRA.POLAR.0>
0

>  <SCORE.INTRA.REPUL>
0

>  <SCORE.INTRA.REPUL.0>
0

>  <SCORE.INTRA.SOLV>
0.338046

>  <SCORE.INTRA.SOLV.lig_0>
-22.1084

>  <SCORE.INTRA.VDW>
-2.62921

>  <SCORE.INTRA.VDW.0>
2.4256

>  <SCORE.INTRA.norm>
0.0111556

>  <SCORE.RESTR>
0

>  <SCORE.RESTR.CAVITY>
0

>  <SCORE.RESTR.norm>
0

>  <SCORE.SYSTEM>
0

>  <SCORE.SYSTEM.CONST>
0

>  <SCORE.SYSTEM.DIHEDRAL>
0

>  <SCORE.SYSTEM.SOLV>
0

>  <SCORE.SYSTEM.norm>
0

>  <SCORE.heavy>
24

>  <SCORE.norm>
-0.876528

>  <RMSD>
8.053

$$$$
lig.pdb
 OpenBabel11021811453D
libRbt.so/2013.1/901 2013/11/27
 24 24  0  0  0  0  0  0  0  0999 V2000
    1.1276   -6.9568   -0.8204 C   0  0  0  0  0  0  0  0  0  0  0  0
    1.0337   -5.5309   -0.9590 C   0  0  0  0  0  0  0  0  0  0  0  0
    1.9350   -4.8163   -1.7120 C   0  0  0  0  0  0  0  0  0  0  0  0
    3.0104   -5.4566   -2.4069 C   0  0  0  0  0  0  0  0  0  0  0  0
    3.1229   -6.8762   -2.2401 C   0  0  0  0  0  0  0  0  0  0  0  0
    2.2284   -7.5897   -1.4821 C   0  0  0  0  0  0  0  0  0  0  0  0
    0.2194   -7.6798   -0.1012 C   0  0  0  0  0  0  0  0  0  0  0  0
   -0.0051   -8.9935   -0.3175 N   0  0  0  0  0  0  0  0  0  0  0  0
    3.5109   -3.8027   -4.0568 N   0  0  0  0  0  0  0  0  0  0  0  0
    3.8884   -4.7623   -3.1858 C   0  0  0  0  0  0  0  0  0  0  0  0
   -0.5249   -7.1311    0.8908 N   0  0  0  0  0  0  0  0  0  0  0  0
    5.2244   -4.9813   -3.1510 N   0  0  0  0  0  0  0  0  0  0  0  0
   -0.9393   -7.7803    2.1330 C   0  0  0  0  0  0  0  0  0  0  0  0
    6.2617   -4.0461   -3.5755 C   0  0  0  0  0  0  0  0  0  0  0  0
    0.0440   -7.3625    3.2382 C   0  0  0  0  0  0  0  0  0  0  0  0
    6.8461   -3.3834   -2.3142 C   0  0  0  0  0  0  0  0  0  0  0  0
   -0.4258   -7.8663    4.6099 C   0  0  0  0  0  0  0  0  0  0  0  0
    7.7590   -4.3305   -1.5145 C   0  0  0  0  0  0  0  0  0  0  0  0
    0.5756   -7.4581    5.6599 N   0  0  0  0  0  0  0  0  0  0  0  0
    7.8957   -3.8870   -0.0799 N   0  0  0  0  0  0  0  0  0  0  0  0
    0.3026   -8.1942    6.9432 C   0  0  0  0  0  0  0  0  0  0  0  0
    6.5598   -4.0233    0.6001 C   0  0  0  0  0  0  0  0  0  0  0  0
    0.5191   -5.9710    5.9077 C   0  0  0  0  0  0  0  0  0  0  0  0
    8.3573   -2.4607    0.0323 C   0  0  0  0  0  0  0  0  0  0  0  0
  1  6  2  0  0  0  0
  2  3  2  0  0  0  0
  2  1  1  0  0  0  0
  3  4  1  0  0  0  0
  4 10  1  0  0  0  0
  4  5  2  0  0  0  0
  6  5  1  0  0  0  0
  7  1  1  0  0  0  0
  7 11  1  0  0  0  0
  8  7  2  0  0  0  0
  9 10  2  0  0  0  0
 10 12  1  0  0  0  0
 12 14  1  0  0  0  0
 13 11  1  0  0  0  0
 13 15  1  0  0  0  0
 14 16  1  0  0  0  0
 16 18  1  0  0  0  0
 17 15  1  0  0  0  0
 17 19  1  0  0  0  0
 18 20  1  0  0  0  0
 19 23  1  0  0  0  0
 20 22  1  0  0  0  0
 20 24  1  0  0  0  0
 21 19  1  0  0  0  0
M  END
>  <CHROM.1>
-43.96141607,156.30090178,100.85017723,97.54829206,173.00656509,73.98021935
-158.52625523,178.99581413,-167.36561343,66.26076360,2.89218080,-5.87789146
0.16845080,2.42385297,0.49080338,1.61315272

>  <Name>
lig.pdb

>  <RI>
3.93418e+07

>  <Rbt.Current_Directory>
/home/itssahil/PROJECTS/Mol_Feturizer/New_Systems/rnas/2l94

>  <Rbt.Executable>
rbdock ($Id: //depot/dev/client3/rdock/2013.1/src/exe/rbdock.cxx#4 $)

>  <Rbt.Library>
libRbt.so (2013.1, Build901 2013/11/27)

>  <Rbt.Parameter_File>
/export/apps/rDock/src/rDock_2013.1_src/data/scripts/dock_solv.prm

>  <Rbt.Receptor>
prm/blind_docking_20.prm

>  <SCORE>
-14.6177

>  <SCORE.INTER>
-19.7942

>  <SCORE.INTER.CONST>
1

>  <SCORE.INTER.POLAR>
-3.66315

>  <SCORE.INTER.ROT>
10

>  <SCORE.INTER.SOLV>
15.8437

>  <SCORE.INTER.VDW>
-16.5335

>  <SCORE.INTER.norm>
-0.824759

>  <SCORE.INTRA>
3.71834

>  <SCORE.INTRA.DIHEDRAL>
8.39694

>  <SCORE.INTRA.DIHEDRAL.0>
7.52971

>  <SCORE.INTRA.POLAR>
0

>  <SCORE.INTRA.POLAR.0>
0

>  <SCORE.INTRA.REPUL>
0

>  <SCORE.INTRA.REPUL.0>
0

>  <SCORE.INTRA.SOLV>
0.0519187

>  <SCORE.INTRA.SOLV.lig_0>
-22.1084

>  <SCORE.INTRA.VDW>
-0.506089

>  <SCORE.INTRA.VDW.0>
2.4256

>  <SCORE.INTRA.norm>
0.154931

>  <SCORE.RESTR>
1.45815

>  <SCORE.RESTR.CAVITY>
1.45815

>  <SCORE.RESTR.norm>
0.0607563

>  <SCORE.SYSTEM>
0

>  <SCORE.SYSTEM.CONST>
0

>  <SCORE.SYSTEM.DIHEDRAL>
0

>  <SCORE.SYSTEM.SOLV>
0

>  <SCORE.SYSTEM.norm>
0

>  <SCORE.heavy>
24

>  <SCORE.norm>
-0.609072

>  <RMSD>
8.058

$$$$
lig.pdb
 OpenBabel11021811453D
libRbt.so/2013.1/901 2013/11/27
 24 24  0  0  0  0  0  0  0  0999 V2000
    4.1866   -4.7635    1.1892 C   0  0  0  0  0  0  0  0  0  0  0  0
    3.8419   -4.2973    2.5026 C   0  0  0  0  0  0  0  0  0  0  0  0
    2.6452   -4.6240    3.0953 C   0  0  0  0  0  0  0  0  0  0  0  0
    1.6821   -5.4551    2.4389 C   0  0  0  0  0  0  0  0  0  0  0  0
    2.0132   -5.8922    1.1141 C   0  0  0  0  0  0  0  0  0  0  0  0
    3.2041   -5.5600    0.5181 C   0  0  0  0  0  0  0  0  0  0  0  0
    5.3855   -4.4714    0.6043 C   0  0  0  0  0  0  0  0  0  0  0  0
    6.5628   -4.9262    1.0839 N   0  0  0  0  0  0  0  0  0  0  0  0
   -0.2889   -6.7995    2.5646 N   0  0  0  0  0  0  0  0  0  0  0  0
    0.5081   -5.8153    3.0318 C   0  0  0  0  0  0  0  0  0  0  0  0
    5.4832   -3.7029   -0.5088 N   0  0  0  0  0  0  0  0  0  0  0  0
    0.0390   -5.2085    4.1479 N   0  0  0  0  0  0  0  0  0  0  0  0
    6.4405   -3.8656   -1.6012 C   0  0  0  0  0  0  0  0  0  0  0  0
   -0.9225   -5.7681    5.0929 C   0  0  0  0  0  0  0  0  0  0  0  0
    5.6689   -4.3446   -2.8414 C   0  0  0  0  0  0  0  0  0  0  0  0
   -0.2258   -5.8886    6.4611 C   0  0  0  0  0  0  0  0  0  0  0  0
    4.4424   -3.4589   -3.1008 C   0  0  0  0  0  0  0  0  0  0  0  0
   -0.9340   -5.0777    7.5615 C   0  0  0  0  0  0  0  0  0  0  0  0
    3.4655   -4.2044   -3.9735 N   0  0  0  0  0  0  0  0  0  0  0  0
   -0.6297   -3.6054    7.4467 N   0  0  0  0  0  0  0  0  0  0  0  0
    2.9986   -5.4509   -3.2723 C   0  0  0  0  0  0  0  0  0  0  0  0
   -0.7506   -2.9767    8.8089 C   0  0  0  0  0  0  0  0  0  0  0  0
    4.0960   -4.5727   -5.2937 C   0  0  0  0  0  0  0  0  0  0  0  0
   -1.5643   -2.9042    6.5008 C   0  0  0  0  0  0  0  0  0  0  0  0
  1  6  2  0  0  0  0
  2  3  2  0  0  0  0
  2  1  1  0  0  0  0
  3  4  1  0  0  0  0
  4 10  1  0  0  0  0
  4  5  2  0  0  0  0
  6  5  1  0  0  0  0
  7  1  1  0  0  0  0
  7 11  1  0  0  0  0
  8  7  2  0  0  0  0
  9 10  2  0  0  0  0
 10 12  1  0  0  0  0
 12 14  1  0  0  0  0
 13 11  1  0  0  0  0
 13 15  1  0  0  0  0
 14 16  1  0  0  0  0
 16 18  1  0  0  0  0
 17 15  1  0  0  0  0
 17 19  1  0  0  0  0
 18 20  1  0  0  0  0
 19 23  1  0  0  0  0
 20 22  1  0  0  0  0
 20 24  1  0  0  0  0
 21 19  1  0  0  0  0
M  END
>  <CHROM.1>
-166.14774096,65.51699719,117.87471911,110.32186381,49.93015539,120.48220396
-76.90982897,-160.03877926,61.63284003,-153.13879760,2.36126393,-4.71496183
1.81249300,-1.00649176,0.30190667,1.39610059

>  <Name>
lig.pdb

>  <RI>
2.41306e+07

>  <Rbt.Current_Directory>
/home/itssahil/PROJECTS/Mol_Feturizer/New_Systems/rnas/2l94

>  <Rbt.Executable>
rbdock ($Id: //depot/dev/client3/rdock/2013.1/src/exe/rbdock.cxx#4 $)

>  <Rbt.Library>
libRbt.so (2013.1, Build901 2013/11/27)

>  <Rbt.Parameter_File>
/export/apps/rDock/src/rDock_2013.1_src/data/scripts/dock_solv.prm

>  <Rbt.Receptor>
prm/blind_docking_40.prm

>  <SCORE>
7.12672

>  <SCORE.INTER>
-4.28362

>  <SCORE.INTER.CONST>
1

>  <SCORE.INTER.POLAR>
-1.34749

>  <SCORE.INTER.ROT>
10

>  <SCORE.INTER.SOLV>
15.5988

>  <SCORE.INTER.VDW>
-13.8304

>  <SCORE.INTER.norm>
-0.178484

>  <SCORE.INTRA>
9.5658

>  <SCORE.INTRA.DIHEDRAL>
18.3593

>  <SCORE.INTRA.DIHEDRAL.0>
7.52971

>  <SCORE.INTRA.POLAR>
0

>  <SCORE.INTRA.POLAR.0>
0

>  <SCORE.INTRA.REPUL>
0

>  <SCORE.INTRA.REPUL.0>
0

>  <SCORE.INTRA.SOLV>
0.575707

>  <SCORE.INTRA.SOLV.lig_0>
-22.1084

>  <SCORE.INTRA.VDW>
0.0982716

>  <SCORE.INTRA.VDW.0>
2.4256

>  <SCORE.INTRA.norm>
0.398575

>  <SCORE.RESTR>
1.84455

>  <SCORE.RESTR.CAVITY>
1.84455

>  <SCORE.RESTR.norm>
0.0768563

>  <SCORE.SYSTEM>
0

>  <SCORE.SYSTEM.CONST>
0

>  <SCORE.SYSTEM.DIHEDRAL>
0

>  <SCORE.SYSTEM.SOLV>
0

>  <SCORE.SYSTEM.norm>
0

>  <SCORE.heavy>
24

>  <SCORE.norm>
0.296947

>  <RMSD>
8.092

$$$$
lig.pdb
 OpenBabel11021811453D
libRbt.so/2013.1/901 2013/11/27
 24 24  0  0  0  0  0  0  0  0999 V2000
    0.5869   -6.6847   -0.0388 C   0  0  0  0  0  0  0  0  0  0  0  0
    1.9957   -6.8345    0.1931 C   0  0  0  0  0  0  0  0  0  0  0  0
    2.9305   -6.2730   -0.6441 C   0  0  0  0  0  0  0  0  0  0  0  0
    2.5495   -5.5001   -1.7873 C   0  0  0  0  0  0  0  0  0  0  0  0
    1.1427   -5.3796   -2.0366 C   0  0  0  0  0  0  0  0  0  0  0  0
    0.2087   -5.9465   -1.2060 C   0  0  0  0  0  0  0  0  0  0  0  0
   -0.3498   -7.2111    0.8040 C   0  0  0  0  0  0  0  0  0  0  0  0
   -1.5360   -7.6893    0.3712 N   0  0  0  0  0  0  0  0  0  0  0  0
    3.1375   -4.2192   -3.7165 N   0  0  0  0  0  0  0  0  0  0  0  0
    3.4676   -4.9084   -2.6037 C   0  0  0  0  0  0  0  0  0  0  0  0
   -0.1561   -7.2971    2.1435 N   0  0  0  0  0  0  0  0  0  0  0  0
    4.7994   -4.9650   -2.3646 N   0  0  0  0  0  0  0  0  0  0  0  0
   -0.6175   -8.3670    3.0258 C   0  0  0  0  0  0  0  0  0  0  0  0
    5.8066   -4.0422   -2.8788 C   0  0  0  0  0  0  0  0  0  0  0  0
   -1.6408   -7.7677    4.0039 C   0  0  0  0  0  0  0  0  0  0  0  0
    6.9943   -4.0439   -1.8983 C   0  0  0  0  0  0  0  0  0  0  0  0
   -0.9883   -6.7038    4.8974 C   0  0  0  0  0  0  0  0  0  0  0  0
    6.6476   -3.3983   -0.5445 C   0  0  0  0  0  0  0  0  0  0  0  0
   -2.0191   -6.1522    5.8487 N   0  0  0  0  0  0  0  0  0  0  0  0
    5.9179   -4.3615    0.3573 N   0  0  0  0  0  0  0  0  0  0  0  0
   -2.9165   -5.1836    5.1277 C   0  0  0  0  0  0  0  0  0  0  0  0
    4.4707   -3.9547    0.4330 C   0  0  0  0  0  0  0  0  0  0  0  0
   -1.3586   -5.4584    7.0142 C   0  0  0  0  0  0  0  0  0  0  0  0
    6.4916   -4.3847    1.7466 C   0  0  0  0  0  0  0  0  0  0  0  0
  1  6  2  0  0  0  0
  2  3  2  0  0  0  0
  2  1  1  0  0  0  0
  3  4  1  0  0  0  0
  4 10  1  0  0  0  0
  4  5  2  0  0  0  0
  6  5  1  0  0  0  0
  7  1  1  0  0  0  0
  7 11  1  0  0  0  0
  8  7  2  0  0  0  0
  9 10  2  0  0  0  0
 10 12  1  0  0  0  0
 12 14  1  0  0  0  0
 13 11  1  0  0  0  0
 13 15  1  0  0  0  0
 14 16  1  0  0  0  0
 16 18  1  0  0  0  0
 17 15  1  0  0  0  0
 17 19  1  0  0  0  0
 18 20  1  0  0  0  0
 19 23  1  0  0  0  0
 20 22  1  0  0  0  0
 20 24  1  0  0  0  0
 21 19  1  0  0  0  0
M  END
>  <CHROM.1>
177.29444326,-145.80497298,153.82544735,-115.14882939,-63.18424102,-68.72716489
81.06538213,-179.44377329,-77.03823664,-106.87941341,1.89504761,-5.67925222
0.74995312,2.48028474,0.41403489,1.45336762

>  <Name>
lig.pdb

>  <RI>
3.93418e+07

>  <Rbt.Current_Directory>
/home/itssahil/PROJECTS/Mol_Feturizer/New_Systems/rnas/2l94

>  <Rbt.Executable>
rbdock ($Id: //depot/dev/client3/rdock/2013.1/src/exe/rbdock.cxx#4 $)

>  <Rbt.Library>
libRbt.so (2013.1, Build901 2013/11/27)

>  <Rbt.Parameter_File>
/export/apps/rDock/src/rDock_2013.1_src/data/scripts/dock_solv.prm

>  <Rbt.Receptor>
prm/blind_docking_20.prm

>  <SCORE>
-9.31971

>  <SCORE.INTER>
-11.7425

>  <SCORE.INTER.CONST>
1

>  <SCORE.INTER.POLAR>
-2.2069

>  <SCORE.INTER.ROT>
10

>  <SCORE.INTER.SOLV>
13.9301

>  <SCORE.INTER.VDW>
-15.382

>  <SCORE.INTER.norm>
-0.489269

>  <SCORE.INTRA>
2.28161

>  <SCORE.INTRA.DIHEDRAL>
7.11727

>  <SCORE.INTRA.DIHEDRAL.0>
7.52971

>  <SCORE.INTRA.POLAR>
0

>  <SCORE.INTRA.POLAR.0>
0

>  <SCORE.INTRA.REPUL>
0.000269518

>  <SCORE.INTRA.REPUL.0>
0

>  <SCORE.INTRA.SOLV>
1.36519

>  <SCORE.INTRA.SOLV.lig_0>
-22.1084

>  <SCORE.INTRA.VDW>
-1.96097

>  <SCORE.INTRA.VDW.0>
2.4256

>  <SCORE.INTRA.norm>
0.0950671

>  <SCORE.RESTR>
0.141144

>  <SCORE.RESTR.CAVITY>
0.141144

>  <SCORE.RESTR.norm>
0.00588101

>  <SCORE.SYSTEM>
0

>  <SCORE.SYSTEM.CONST>
0

>  <SCORE.SYSTEM.DIHEDRAL>
0

>  <SCORE.SYSTEM.SOLV>
0

>  <SCORE.SYSTEM.norm>
0

>  <SCORE.heavy>
24

>  <SCORE.norm>
-0.388321

>  <RMSD>
8.103

$$$$
lig.pdb
 OpenBabel11021811453D
libRbt.so/2013.1/901 2013/11/27
 24 24  0  0  0  0  0  0  0  0999 V2000
    2.0806   -5.0734    3.5907 C   0  0  0  0  0  0  0  0  0  0  0  0
    3.2811   -4.6087    4.2263 C   0  0  0  0  0  0  0  0  0  0  0  0
    4.3879   -4.2389    3.4995 C   0  0  0  0  0  0  0  0  0  0  0  0
    4.3998   -4.2877    2.0688 C   0  0  0  0  0  0  0  0  0  0  0  0
    3.2122   -4.7838    1.4369 C   0  0  0  0  0  0  0  0  0  0  0  0
    2.1094   -5.1609    2.1619 C   0  0  0  0  0  0  0  0  0  0  0  0
    0.9650   -5.4128    4.3014 C   0  0  0  0  0  0  0  0  0  0  0  0
   -0.2794   -5.3537    3.7808 N   0  0  0  0  0  0  0  0  0  0  0  0
    6.6400   -3.4771    1.8883 N   0  0  0  0  0  0  0  0  0  0  0  0
    5.4789   -3.8890    1.3366 C   0  0  0  0  0  0  0  0  0  0  0  0
    1.0242   -5.8403    5.5871 N   0  0  0  0  0  0  0  0  0  0  0  0
    5.4747   -3.8715   -0.0175 N   0  0  0  0  0  0  0  0  0  0  0  0
    0.1704   -6.8483    6.2126 C   0  0  0  0  0  0  0  0  0  0  0  0
    6.6498   -3.8994   -0.8828 C   0  0  0  0  0  0  0  0  0  0  0  0
   -1.1496   -6.1701    6.6132 C   0  0  0  0  0  0  0  0  0  0  0  0
    6.1953   -3.5403   -2.3098 C   0  0  0  0  0  0  0  0  0  0  0  0
   -0.8870   -4.8957    7.4275 C   0  0  0  0  0  0  0  0  0  0  0  0
    5.2735   -4.6083   -2.9258 C   0  0  0  0  0  0  0  0  0  0  0  0
   -2.1502   -4.0758    7.4903 N   0  0  0  0  0  0  0  0  0  0  0  0
    4.9493   -4.2962   -4.3649 N   0  0  0  0  0  0  0  0  0  0  0  0
   -2.4168   -3.4407    6.1527 C   0  0  0  0  0  0  0  0  0  0  0  0
    3.7590   -3.3759   -4.4061 C   0  0  0  0  0  0  0  0  0  0  0  0
   -2.0439   -3.0043    8.5469 C   0  0  0  0  0  0  0  0  0  0  0  0
    4.6368   -5.5343   -5.1582 C   0  0  0  0  0  0  0  0  0  0  0  0
  1  6  2  0  0  0  0
  2  3  2  0  0  0  0
  2  1  1  0  0  0  0
  3  4  1  0  0  0  0
  4 10  1  0  0  0  0
  4  5  2  0  0  0  0
  6  5  1  0  0  0  0
  7  1  1  0  0  0  0
  7 11  1  0  0  0  0
  8  7  2  0  0  0  0
  9 10  2  0  0  0  0
 10 12  1  0  0  0  0
 12 14  1  0  0  0  0
 13 11  1  0  0  0  0
 13 15  1  0  0  0  0
 14 16  1  0  0  0  0
 16 18  1  0  0  0  0
 17 15  1  0  0  0  0
 17 19  1  0  0  0  0
 18 20  1  0  0  0  0
 19 23  1  0  0  0  0
 20 22  1  0  0  0  0
 20 24  1  0  0  0  0
 21 19  1  0  0  0  0
M  END
>  <CHROM.1>
3.17560160,153.86055570,-167.16911294,-81.39492263,-51.24833970,-66.50244265
-174.64889616,165.25023969,-72.67984624,-86.21237832,2.53408110,-4.55331093
2.31759970,-2.17504309,-0.14164383,-1.60598479

>  <Name>
lig.pdb

>  <RI>
2.41306e+07

>  <Rbt.Current_Directory>
/home/itssahil/PROJECTS/Mol_Feturizer/New_Systems/rnas/2l94

>  <Rbt.Executable>
rbdock ($Id: //depot/dev/client3/rdock/2013.1/src/exe/rbdock.cxx#4 $)

>  <Rbt.Library>
libRbt.so (2013.1, Build901 2013/11/27)

>  <Rbt.Parameter_File>
/export/apps/rDock/src/rDock_2013.1_src/data/scripts/dock_solv.prm

>  <Rbt.Receptor>
prm/blind_docking_40.prm

>  <SCORE>
-6.10842

>  <SCORE.INTER>
-9.23656

>  <SCORE.INTER.CONST>
1

>  <SCORE.INTER.POLAR>
-2.22356

>  <SCORE.INTER.ROT>
10

>  <SCORE.INTER.SOLV>
15.5536

>  <SCORE.INTER.VDW>
-14.197

>  <SCORE.INTER.norm>
-0.384857

>  <SCORE.INTRA>
1.42812

>  <SCORE.INTRA.DIHEDRAL>
3.06218

>  <SCORE.INTRA.DIHEDRAL.0>
7.52971

>  <SCORE.INTRA.POLAR>
0

>  <SCORE.INTRA.POLAR.0>
0

>  <SCORE.INTRA.REPUL>
0

>  <SCORE.INTRA.REPUL.0>
0

>  <SCORE.INTRA.SOLV>
0.860461

>  <SCORE.INTRA.SOLV.lig_0>
-22.1084

>  <SCORE.INTRA.VDW>
-0.533203

>  <SCORE.INTRA.VDW.0>
2.4256

>  <SCORE.INTRA.norm>
0.0595048

>  <SCORE.RESTR>
1.70002

>  <SCORE.RESTR.CAVITY>
1.70002

>  <SCORE.RESTR.norm>
0.0708342

>  <SCORE.SYSTEM>
0

>  <SCORE.SYSTEM.CONST>
0

>  <SCORE.SYSTEM.DIHEDRAL>
0

>  <SCORE.SYSTEM.SOLV>
0

>  <SCORE.SYSTEM.norm>
0

>  <SCORE.heavy>
24

>  <SCORE.norm>
-0.254517

>  <RMSD>
8.176

$$$$
lig.pdb
 OpenBabel11021811453D
libRbt.so/2013.1/901 2013/11/27
 24 24  0  0  0  0  0  0  0  0999 V2000
    2.5126   -5.5998   -1.7587 C   0  0  0  0  0  0  0  0  0  0  0  0
    1.1215   -5.9502   -1.8163 C   0  0  0  0  0  0  0  0  0  0  0  0
    0.4269   -6.3410   -0.6961 C   0  0  0  0  0  0  0  0  0  0  0  0
    1.0507   -6.4101    0.5905 C   0  0  0  0  0  0  0  0  0  0  0  0
    2.4480   -6.0925    0.6406 C   0  0  0  0  0  0  0  0  0  0  0  0
    3.1444   -5.7100   -0.4785 C   0  0  0  0  0  0  0  0  0  0  0  0
    3.2038   -5.1799   -2.8589 C   0  0  0  0  0  0  0  0  0  0  0  0
    2.6062   -4.9151   -4.0404 N   0  0  0  0  0  0  0  0  0  0  0  0
   -0.8576   -7.3379    1.6887 N   0  0  0  0  0  0  0  0  0  0  0  0
    0.3626   -6.7613    1.7143 C   0  0  0  0  0  0  0  0  0  0  0  0
    4.5469   -4.9927   -2.8460 N   0  0  0  0  0  0  0  0  0  0  0  0
    0.8503   -6.5572    2.9611 N   0  0  0  0  0  0  0  0  0  0  0  0
    5.2919   -3.9609   -3.5648 C   0  0  0  0  0  0  0  0  0  0  0  0
    0.4398   -7.2608    4.1723 C   0  0  0  0  0  0  0  0  0  0  0  0
    6.7892   -4.1825   -3.2966 C   0  0  0  0  0  0  0  0  0  0  0  0
   -0.2670   -6.2474    5.0916 C   0  0  0  0  0  0  0  0  0  0  0  0
    7.1952   -3.5995   -1.9360 C   0  0  0  0  0  0  0  0  0  0  0  0
   -0.7895   -6.8877    6.3904 C   0  0  0  0  0  0  0  0  0  0  0  0
    8.6429   -3.9223   -1.6680 N   0  0  0  0  0  0  0  0  0  0  0  0
    0.3380   -7.2285    7.3319 N   0  0  0  0  0  0  0  0  0  0  0  0
    8.7604   -5.3010   -1.0774 C   0  0  0  0  0  0  0  0  0  0  0  0
    0.8563   -8.6003    6.9925 C   0  0  0  0  0  0  0  0  0  0  0  0
    9.2532   -2.9146   -0.7256 C   0  0  0  0  0  0  0  0  0  0  0  0
   -0.0989   -7.2139    8.7702 C   0  0  0  0  0  0  0  0  0  0  0  0
  1  6  2  0  0  0  0
  2  3  2  0  0  0  0
  2  1  1  0  0  0  0
  3  4  1  0  0  0  0
  4 10  1  0  0  0  0
  4  5  2  0  0  0  0
  6  5  1  0  0  0  0
  7  1  1  0  0  0  0
  7 11  1  0  0  0  0
  8  7  2  0  0  0  0
  9 10  2  0  0  0  0
 10 12  1  0  0  0  0
 12 14  1  0  0  0  0
 13 11  1  0  0  0  0
 13 15  1  0  0  0  0
 14 16  1  0  0  0  0
 16 18  1  0  0  0  0
 17 15  1  0  0  0  0
 17 19  1  0  0  0  0
 18 20  1  0  0  0  0
 19 23  1  0  0  0  0
 20 22  1  0  0  0  0
 20 24  1  0  0  0  0
 21 19  1  0  0  0  0
M  END
>  <CHROM.1>
14.46971327,7.83013176,-113.16323335,-177.45254592,-80.70898144,178.12761154
72.30919507,176.01654177,-84.03906395,-86.97163934,2.87528511,-5.79474929
0.87806865,0.91036232,-0.26970907,-1.43338535

>  <Name>
lig.pdb

>  <RI>
3.93418e+07

>  <Rbt.Current_Directory>
/home/itssahil/PROJECTS/Mol_Feturizer/New_Systems/rnas/2l94

>  <Rbt.Executable>
rbdock ($Id: //depot/dev/client3/rdock/2013.1/src/exe/rbdock.cxx#4 $)

>  <Rbt.Library>
libRbt.so (2013.1, Build901 2013/11/27)

>  <Rbt.Parameter_File>
/export/apps/rDock/src/rDock_2013.1_src/data/scripts/dock_solv.prm

>  <Rbt.Receptor>
prm/blind_docking_20.prm

>  <SCORE>
-9.11501

>  <SCORE.INTER>
-10.2943

>  <SCORE.INTER.CONST>
1

>  <SCORE.INTER.POLAR>
-1.81307

>  <SCORE.INTER.ROT>
10

>  <SCORE.INTER.SOLV>
18.0159

>  <SCORE.INTER.VDW>
-17.0913

>  <SCORE.INTER.norm>
-0.428931

>  <SCORE.INTRA>
0.0473639

>  <SCORE.INTRA.DIHEDRAL>
3.32441

>  <SCORE.INTRA.DIHEDRAL.0>
7.52971

>  <SCORE.INTRA.POLAR>
0

>  <SCORE.INTRA.POLAR.0>
0

>  <SCORE.INTRA.REPUL>
0

>  <SCORE.INTRA.REPUL.0>
0

>  <SCORE.INTRA.SOLV>
0.0193175

>  <SCORE.INTRA.SOLV.lig_0>
-22.1084

>  <SCORE.INTRA.VDW>
-1.6245

>  <SCORE.INTRA.VDW.0>
2.4256

>  <SCORE.INTRA.norm>
0.0019735

>  <SCORE.RESTR>
1.13197

>  <SCORE.RESTR.CAVITY>
1.13197

>  <SCORE.RESTR.norm>
0.0471655

>  <SCORE.SYSTEM>
0

>  <SCORE.SYSTEM.CONST>
0

>  <SCORE.SYSTEM.DIHEDRAL>
0

>  <SCORE.SYSTEM.SOLV>
0

>  <SCORE.SYSTEM.norm>
0

>  <SCORE.heavy>
24

>  <SCORE.norm>
-0.379792

>  <RMSD>
8.178

$$$$
lig.pdb
 OpenBabel11021811453D
libRbt.so/2013.1/901 2013/11/27
 24 24  0  0  0  0  0  0  0  0999 V2000
    1.4950   -7.1838    0.4811 C   0  0  0  0  0  0  0  0  0  0  0  0
    2.7928   -7.4385   -0.0774 C   0  0  0  0  0  0  0  0  0  0  0  0
    3.3530   -6.6044   -1.0158 C   0  0  0  0  0  0  0  0  0  0  0  0
    2.6766   -5.4311   -1.4796 C   0  0  0  0  0  0  0  0  0  0  0  0
    1.3667   -5.1963   -0.9461 C   0  0  0  0  0  0  0  0  0  0  0  0
    0.8030   -6.0327   -0.0152 C   0  0  0  0  0  0  0  0  0  0  0  0
    0.9430   -7.9880    1.4368 C   0  0  0  0  0  0  0  0  0  0  0  0
    1.6489   -8.9334    2.0932 N   0  0  0  0  0  0  0  0  0  0  0  0
    2.8340   -3.3000   -2.5483 N   0  0  0  0  0  0  0  0  0  0  0  0
    3.2379   -4.5774   -2.3828 C   0  0  0  0  0  0  0  0  0  0  0  0
   -0.3595   -7.8940    1.8023 N   0  0  0  0  0  0  0  0  0  0  0  0
    4.2556   -4.9442   -3.1975 N   0  0  0  0  0  0  0  0  0  0  0  0
   -0.9062   -8.0868    3.1440 C   0  0  0  0  0  0  0  0  0  0  0  0
    5.1995   -4.0454   -3.8546 C   0  0  0  0  0  0  0  0  0  0  0  0
   -0.1124   -7.1957    4.1129 C   0  0  0  0  0  0  0  0  0  0  0  0
    6.6159   -4.4143   -3.3756 C   0  0  0  0  0  0  0  0  0  0  0  0
   -0.7676   -7.1744    5.5008 C   0  0  0  0  0  0  0  0  0  0  0  0
    7.0031   -3.7051   -2.0653 C   0  0  0  0  0  0  0  0  0  0  0  0
    0.1341   -6.4482    6.4659 N   0  0  0  0  0  0  0  0  0  0  0  0
    8.4646   -3.8928   -1.7454 N   0  0  0  0  0  0  0  0  0  0  0  0
    1.1617   -7.3967    7.0210 C   0  0  0  0  0  0  0  0  0  0  0  0
    8.6535   -5.2453   -1.1125 C   0  0  0  0  0  0  0  0  0  0  0  0
   -0.6622   -5.8465    7.5972 C   0  0  0  0  0  0  0  0  0  0  0  0
    8.9807   -2.8382   -0.8066 C   0  0  0  0  0  0  0  0  0  0  0  0
  1  6  2  0  0  0  0
  2  3  2  0  0  0  0
  2  1  1  0  0  0  0
  3  4  1  0  0  0  0
  4 10  1  0  0  0  0
  4  5  2  0  0  0  0
  6  5  1  0  0  0  0
  7  1  1  0  0  0  0
  7 11  1  0  0  0  0
  8  7  2  0  0  0  0
  9 10  2  0  0  0  0
 10 12  1  0  0  0  0
 12 14  1  0  0  0  0
 13 11  1  0  0  0  0
 13 15  1  0  0  0  0
 14 16  1  0  0  0  0
 16 18  1  0  0  0  0
 17 15  1  0  0  0  0
 17 19  1  0  0  0  0
 18 20  1  0  0  0  0
 19 23  1  0  0  0  0
 20 22  1  0  0  0  0
 20 24  1  0  0  0  0
 21 19  1  0  0  0  0
M  END
>  <CHROM.1>
-159.87981128,11.80223061,120.30069148,51.90106546,171.06070637,-86.38936777
-170.19673898,172.38493150,-84.86923364,-80.65515223,2.91305517,-5.88802506
0.68375730,2.32358486,0.36957454,1.64322218

>  <Name>
lig.pdb

>  <RI>
3.93418e+07

>  <Rbt.Current_Directory>
/home/itssahil/PROJECTS/Mol_Feturizer/New_Systems/rnas/2l94

>  <Rbt.Executable>
rbdock ($Id: //depot/dev/client3/rdock/2013.1/src/exe/rbdock.cxx#4 $)

>  <Rbt.Library>
libRbt.so (2013.1, Build901 2013/11/27)

>  <Rbt.Parameter_File>
/export/apps/rDock/src/rDock_2013.1_src/data/scripts/dock_solv.prm

>  <Rbt.Receptor>
prm/blind_docking_20.prm

>  <SCORE>
-7.77403

>  <SCORE.INTER>
-8.54549

>  <SCORE.INTER.CONST>
1

>  <SCORE.INTER.POLAR>
-1.25292

>  <SCORE.INTER.ROT>
10

>  <SCORE.INTER.SOLV>
18.9889

>  <SCORE.INTER.VDW>
-18.1169

>  <SCORE.INTER.norm>
-0.356062

>  <SCORE.INTRA>
-0.215544

>  <SCORE.INTRA.DIHEDRAL>
4.85081

>  <SCORE.INTRA.DIHEDRAL.0>
7.52971

>  <SCORE.INTRA.POLAR>
0

>  <SCORE.INTRA.POLAR.0>
0

>  <SCORE.INTRA.REPUL>
0

>  <SCORE.INTRA.REPUL.0>
0

>  <SCORE.INTRA.SOLV>
0.180242

>  <SCORE.INTRA.SOLV.lig_0>
-22.1084

>  <SCORE.INTRA.VDW>
-2.73107

>  <SCORE.INTRA.VDW.0>
2.4256

>  <SCORE.INTRA.norm>
-0.00898101

>  <SCORE.RESTR>
0.987001

>  <SCORE.RESTR.CAVITY>
0.987001

>  <SCORE.RESTR.norm>
0.041125

>  <SCORE.SYSTEM>
0

>  <SCORE.SYSTEM.CONST>
0

>  <SCORE.SYSTEM.DIHEDRAL>
0

>  <SCORE.SYSTEM.SOLV>
0

>  <SCORE.SYSTEM.norm>
0

>  <SCORE.heavy>
24

>  <SCORE.norm>
-0.323918

>  <RMSD>
8.230

$$$$
lig.pdb
 OpenBabel11021811453D
libRbt.so/2013.1/901 2013/11/27
 24 24  0  0  0  0  0  0  0  0999 V2000
   13.6781   -0.7934   -2.9411 C   0  0  0  0  0  0  0  0  0  0  0  0
   12.5736   -1.3416   -3.6764 C   0  0  0  0  0  0  0  0  0  0  0  0
   11.6145   -2.1177   -3.0697 C   0  0  0  0  0  0  0  0  0  0  0  0
   11.6599   -2.4129   -1.6696 C   0  0  0  0  0  0  0  0  0  0  0  0
   12.7815   -1.8928   -0.9435 C   0  0  0  0  0  0  0  0  0  0  0  0
   13.7439   -1.1247   -1.5497 C   0  0  0  0  0  0  0  0  0  0  0  0
   14.6185    0.0047   -3.5272 C   0  0  0  0  0  0  0  0  0  0  0  0
   14.5241    0.4273   -4.8061 N   0  0  0  0  0  0  0  0  0  0  0  0
   10.6374   -3.3271    0.2866 N   0  0  0  0  0  0  0  0  0  0  0  0
   10.6948   -3.1510   -1.0505 C   0  0  0  0  0  0  0  0  0  0  0  0
   15.7197    0.4375   -2.8647 N   0  0  0  0  0  0  0  0  0  0  0  0
    9.7055   -3.7758   -1.7323 N   0  0  0  0  0  0  0  0  0  0  0  0
   16.3746    1.7357   -3.0135 C   0  0  0  0  0  0  0  0  0  0  0  0
    8.4185   -4.1982   -1.1883 C   0  0  0  0  0  0  0  0  0  0  0  0
   16.0125    2.5933   -1.7903 C   0  0  0  0  0  0  0  0  0  0  0  0
    7.3300   -3.2884   -1.7877 C   0  0  0  0  0  0  0  0  0  0  0  0
   14.4981    2.8328   -1.7169 C   0  0  0  0  0  0  0  0  0  0  0  0
    5.9100   -3.6991   -1.3580 C   0  0  0  0  0  0  0  0  0  0  0  0
   14.0633    3.6410   -2.9126 N   0  0  0  0  0  0  0  0  0  0  0  0
    5.6712   -3.4183    0.1041 N   0  0  0  0  0  0  0  0  0  0  0  0
   13.5997    5.0024   -2.4707 C   0  0  0  0  0  0  0  0  0  0  0  0
    6.0401   -4.6412    0.9002 C   0  0  0  0  0  0  0  0  0  0  0  0
   12.9509    2.9447   -3.6567 C   0  0  0  0  0  0  0  0  0  0  0  0
    4.2379   -3.0650    0.3880 C   0  0  0  0  0  0  0  0  0  0  0  0
  1  6  2  0  0  0  0
  2  3  2  0  0  0  0
  2  1  1  0  0  0  0
  3  4  1  0  0  0  0
  4 10  1  0  0  0  0
  4  5  2  0  0  0  0
  6  5  1  0  0  0  0
  7  1  1  0  0  0  0
  7 11  1  0  0  0  0
  8  7  2  0  0  0  0
  9 10  2  0  0  0  0
 10 12  1  0  0  0  0
 12 14  1  0  0  0  0
 13 11  1  0  0  0  0
 13 15  1  0  0  0  0
 14 16  1  0  0  0  0
 16 18  1  0  0  0  0
 17 15  1  0  0  0  0
 17 19  1  0  0  0  0
 18 20  1  0  0  0  0
 19 23  1  0  0  0  0
 20 22  1  0  0  0  0
 20 24  1  0  0  0  0
 21 19  1  0  0  0  0
M  END
>  <CHROM.1>
-172.85128071,5.59256719,109.65942878,104.49653966,-61.86658873,176.17667284
69.74958795,-64.30142792,-112.99261833,-91.29470116,11.49059249,-0.91050629
-1.90139191,-0.61706283,-0.28012682,3.10440217

>  <Name>
lig.pdb

>  <RI>
9.7521e+06

>  <Rbt.Current_Directory>
/home/itssahil/PROJECTS/Mol_Feturizer/New_Systems/rnas/2l94

>  <Rbt.Executable>
rbdock ($Id: //depot/dev/client3/rdock/2013.1/src/exe/rbdock.cxx#4 $)

>  <Rbt.Library>
libRbt.so (2013.1, Build901 2013/11/27)

>  <Rbt.Parameter_File>
/export/apps/rDock/src/rDock_2013.1_src/data/scripts/dock_solv.prm

>  <Rbt.Receptor>
prm/pocket_docking_7.prm

>  <SCORE>
-29.2985

>  <SCORE.INTER>
-28.596

>  <SCORE.INTER.CONST>
1

>  <SCORE.INTER.POLAR>
-4.23374

>  <SCORE.INTER.ROT>
10

>  <SCORE.INTER.SOLV>
19.0299

>  <SCORE.INTER.VDW>
-21.5615

>  <SCORE.INTER.norm>
-1.1915

>  <SCORE.INTRA>
-0.704136

>  <SCORE.INTRA.DIHEDRAL>
3.61374

>  <SCORE.INTRA.DIHEDRAL.0>
7.52971

>  <SCORE.INTRA.POLAR>
0

>  <SCORE.INTRA.POLAR.0>
0

>  <SCORE.INTRA.REPUL>
0

>  <SCORE.INTRA.REPUL.0>
0

>  <SCORE.INTRA.SOLV>
1.22024

>  <SCORE.INTRA.SOLV.lig_0>
-22.1084

>  <SCORE.INTRA.VDW>
-3.12113

>  <SCORE.INTRA.VDW.0>
2.4256

>  <SCORE.INTRA.norm>
-0.029339

>  <SCORE.RESTR>
0.00161913

>  <SCORE.RESTR.CAVITY>
0.00161913

>  <SCORE.RESTR.norm>
6.74636e-05

>  <SCORE.SYSTEM>
0

>  <SCORE.SYSTEM.CONST>
0

>  <SCORE.SYSTEM.DIHEDRAL>
0

>  <SCORE.SYSTEM.SOLV>
0

>  <SCORE.SYSTEM.norm>
0

>  <SCORE.heavy>
24

>  <SCORE.norm>
-1.22077

>  <RMSD>
8.257

$$$$
lig.pdb
 OpenBabel11021811453D
libRbt.so/2013.1/901 2013/11/27
 24 24  0  0  0  0  0  0  0  0999 V2000
    1.8715   -5.7817    1.4287 C   0  0  0  0  0  0  0  0  0  0  0  0
    2.6701   -6.5838    0.5456 C   0  0  0  0  0  0  0  0  0  0  0  0
    3.9371   -6.2042    0.1703 C   0  0  0  0  0  0  0  0  0  0  0  0
    4.5324   -4.9930    0.6477 C   0  0  0  0  0  0  0  0  0  0  0  0
    3.7211   -4.1764    1.5025 C   0  0  0  0  0  0  0  0  0  0  0  0
    2.4531   -4.5505    1.8714 C   0  0  0  0  0  0  0  0  0  0  0  0
    0.6247   -6.1649    1.8330 C   0  0  0  0  0  0  0  0  0  0  0  0
   -0.1633   -6.9796    1.0993 N   0  0  0  0  0  0  0  0  0  0  0  0
    6.8748   -5.4282    0.4685 N   0  0  0  0  0  0  0  0  0  0  0  0
    5.8016   -4.6248    0.3111 C   0  0  0  0  0  0  0  0  0  0  0  0
    0.0844   -5.7576    3.0082 N   0  0  0  0  0  0  0  0  0  0  0  0
    6.0934   -3.4104   -0.2125 N   0  0  0  0  0  0  0  0  0  0  0  0
   -0.7862   -6.5372    3.8859 C   0  0  0  0  0  0  0  0  0  0  0  0
    7.2770   -3.0729   -0.9972 C   0  0  0  0  0  0  0  0  0  0  0  0
    0.0476   -7.6787    4.4899 C   0  0  0  0  0  0  0  0  0  0  0  0
    7.2246   -3.8840   -2.3052 C   0  0  0  0  0  0  0  0  0  0  0  0
   -0.3632   -7.9484    5.9440 C   0  0  0  0  0  0  0  0  0  0  0  0
    5.9164   -3.6663   -3.0869 C   0  0  0  0  0  0  0  0  0  0  0  0
    0.2722   -6.9166    6.8404 N   0  0  0  0  0  0  0  0  0  0  0  0
    4.9820   -4.8405   -2.9401 N   0  0  0  0  0  0  0  0  0  0  0  0
    0.4999   -7.4967    8.2098 C   0  0  0  0  0  0  0  0  0  0  0  0
    5.0129   -5.6477   -4.2101 C   0  0  0  0  0  0  0  0  0  0  0  0
   -0.5986   -5.6894    6.9493 C   0  0  0  0  0  0  0  0  0  0  0  0
    3.5672   -4.4103   -2.6695 C   0  0  0  0  0  0  0  0  0  0  0  0
  1  6  2  0  0  0  0
  2  3  2  0  0  0  0
  2  1  1  0  0  0  0
  3  4  1  0  0  0  0
  4 10  1  0  0  0  0
  4  5  2  0  0  0  0
  6  5  1  0  0  0  0
  7  1  1  0  0  0  0
  7 11  1  0  0  0  0
  8  7  2  0  0  0  0
  9 10  2  0  0  0  0
 10 12  1  0  0  0  0
 12 14  1  0  0  0  0
 13 11  1  0  0  0  0
 13 15  1  0  0  0  0
 14 16  1  0  0  0  0
 16 18  1  0  0  0  0
 17 15  1  0  0  0  0
 17 19  1  0  0  0  0
 18 20  1  0  0  0  0
 19 23  1  0  0  0  0
 20 22  1  0  0  0  0
 20 24  1  0  0  0  0
 21 19  1  0  0  0  0
M  END
>  <CHROM.1>
-52.75629144,-26.72491931,64.36336411,68.18860862,143.24350659,55.13357631
-103.95354173,-79.26434797,-151.11356428,-104.24953247,2.96917100,-5.53118338
1.38393489,2.26947927,0.38995422,1.58480206

>  <Name>
lig.pdb

>  <RI>
2.41306e+07

>  <Rbt.Current_Directory>
/home/itssahil/PROJECTS/Mol_Feturizer/New_Systems/rnas/2l94

>  <Rbt.Executable>
rbdock ($Id: //depot/dev/client3/rdock/2013.1/src/exe/rbdock.cxx#4 $)

>  <Rbt.Library>
libRbt.so (2013.1, Build901 2013/11/27)

>  <Rbt.Parameter_File>
/export/apps/rDock/src/rDock_2013.1_src/data/scripts/dock_solv.prm

>  <Rbt.Receptor>
prm/blind_docking_40.prm

>  <SCORE>
3.11766

>  <SCORE.INTER>
-5.58257

>  <SCORE.INTER.CONST>
1

>  <SCORE.INTER.POLAR>
-2.01213

>  <SCORE.INTER.ROT>
10

>  <SCORE.INTER.SOLV>
18.0766

>  <SCORE.INTER.VDW>
-13.3068

>  <SCORE.INTER.norm>
-0.232607

>  <SCORE.INTRA>
7.07727

>  <SCORE.INTRA.DIHEDRAL>
22.3398

>  <SCORE.INTRA.DIHEDRAL.0>
7.52971

>  <SCORE.INTRA.POLAR>
0

>  <SCORE.INTRA.POLAR.0>
0

>  <SCORE.INTRA.REPUL>
0

>  <SCORE.INTRA.REPUL.0>
0

>  <SCORE.INTRA.SOLV>
1.6643

>  <SCORE.INTRA.SOLV.lig_0>
-22.1084

>  <SCORE.INTRA.VDW>
-4.92478

>  <SCORE.INTRA.VDW.0>
2.4256

>  <SCORE.INTRA.norm>
0.294886

>  <SCORE.RESTR>
1.62296

>  <SCORE.RESTR.CAVITY>
1.62296

>  <SCORE.RESTR.norm>
0.0676232

>  <SCORE.SYSTEM>
0

>  <SCORE.SYSTEM.CONST>
0

>  <SCORE.SYSTEM.DIHEDRAL>
0

>  <SCORE.SYSTEM.SOLV>
0

>  <SCORE.SYSTEM.norm>
0

>  <SCORE.heavy>
24

>  <SCORE.norm>
0.129902

>  <RMSD>
8.262

$$$$
lig.pdb
 OpenBabel11021811453D
libRbt.so/2013.1/901 2013/11/27
 24 24  0  0  0  0  0  0  0  0999 V2000
   11.5916   -2.3140   -1.6284 C   0  0  0  0  0  0  0  0  0  0  0  0
   11.5555   -1.9902   -3.0266 C   0  0  0  0  0  0  0  0  0  0  0  0
   12.5141   -1.1962   -3.6103 C   0  0  0  0  0  0  0  0  0  0  0  0
   13.6059   -0.6574   -2.8574 C   0  0  0  0  0  0  0  0  0  0  0  0
   13.6221   -0.9537   -1.4546 C   0  0  0  0  0  0  0  0  0  0  0  0
   12.6611   -1.7396   -0.8692 C   0  0  0  0  0  0  0  0  0  0  0  0
   10.6626   -3.1274   -1.0452 C   0  0  0  0  0  0  0  0  0  0  0  0
   10.6390   -3.3761    0.2817 N   0  0  0  0  0  0  0  0  0  0  0  0
   14.5503    0.4991   -4.7226 N   0  0  0  0  0  0  0  0  0  0  0  0
   14.5821    0.1011   -3.4331 C   0  0  0  0  0  0  0  0  0  0  0  0
    9.6881   -3.7455   -1.7575 N   0  0  0  0  0  0  0  0  0  0  0  0
   15.6754    0.5206   -2.7531 N   0  0  0  0  0  0  0  0  0  0  0  0
    8.3178   -4.0052   -1.3202 C   0  0  0  0  0  0  0  0  0  0  0  0
   16.5242    1.6555   -3.1028 C   0  0  0  0  0  0  0  0  0  0  0  0
    7.6045   -2.6524   -1.1648 C   0  0  0  0  0  0  0  0  0  0  0  0
   16.4653    2.6657   -1.9420 C   0  0  0  0  0  0  0  0  0  0  0  0
    6.3485   -2.7911   -0.2934 C   0  0  0  0  0  0  0  0  0  0  0  0
   15.0322    3.1390   -1.6387 C   0  0  0  0  0  0  0  0  0  0  0  0
    6.7585   -2.9704    1.1459 N   0  0  0  0  0  0  0  0  0  0  0  0
   14.4846    3.9949   -2.7528 N   0  0  0  0  0  0  0  0  0  0  0  0
    6.0486   -4.1576    1.7376 C   0  0  0  0  0  0  0  0  0  0  0  0
   15.0303    5.3900   -2.6066 C   0  0  0  0  0  0  0  0  0  0  0  0
    6.4403   -1.7365    1.9536 C   0  0  0  0  0  0  0  0  0  0  0  0
   12.9826    4.0543   -2.7378 C   0  0  0  0  0  0  0  0  0  0  0  0
  1  6  2  0  0  0  0
  2  3  2  0  0  0  0
  2  1  1  0  0  0  0
  3  4  1  0  0  0  0
  4 10  1  0  0  0  0
  4  5  2  0  0  0  0
  6  5  1  0  0  0  0
  7  1  1  0  0  0  0
  7 11  1  0  0  0  0
  8  7  2  0  0  0  0
  9 10  2  0  0  0  0
 10 12  1  0  0  0  0
 12 14  1  0  0  0  0
 13 11  1  0  0  0  0
 13 15  1  0  0  0  0
 14 16  1  0  0  0  0
 16 18  1  0  0  0  0
 17 15  1  0  0  0  0
 17 19  1  0  0  0  0
 18 20  1  0  0  0  0
 19 23  1  0  0  0  0
 20 22  1  0  0  0  0
 20 24  1  0  0  0  0
 21 19  1  0  0  0  0
M  END
>  <CHROM.1>
5.58223695,-175.97599315,118.75643099,66.40018298,-161.55100228,-57.79006694
-68.66215759,73.35263638,-129.80492323,-80.06510079,11.77183765,-0.60473442
-1.62207081,-2.62471207,0.51681151,0.22666202

>  <Name>
lig.pdb

>  <RI>
1.39428e+07

>  <Rbt.Current_Directory>
/home/itssahil/PROJECTS/Mol_Feturizer/New_Systems/rnas/2l94

>  <Rbt.Executable>
rbdock ($Id: //depot/dev/client3/rdock/2013.1/src/exe/rbdock.cxx#4 $)

>  <Rbt.Library>
libRbt.so (2013.1, Build901 2013/11/27)

>  <Rbt.Parameter_File>
/export/apps/rDock/src/rDock_2013.1_src/data/scripts/dock_solv.prm

>  <Rbt.Receptor>
prm/pocket_docking_8.prm

>  <SCORE>
-30.106

>  <SCORE.INTER>
-29.3494

>  <SCORE.INTER.CONST>
1

>  <SCORE.INTER.POLAR>
-4.03382

>  <SCORE.INTER.ROT>
10

>  <SCORE.INTER.SOLV>
17.998

>  <SCORE.INTER.VDW>
-22.3862

>  <SCORE.INTER.norm>
-1.22289

>  <SCORE.INTRA>
-0.758453

>  <SCORE.INTRA.DIHEDRAL>
3.89243

>  <SCORE.INTRA.DIHEDRAL.0>
7.52971

>  <SCORE.INTRA.POLAR>
0

>  <SCORE.INTRA.POLAR.0>
0

>  <SCORE.INTRA.REPUL>
0.011995

>  <SCORE.INTRA.REPUL.0>
0

>  <SCORE.INTRA.SOLV>
1.26512

>  <SCORE.INTRA.SOLV.lig_0>
-22.1084

>  <SCORE.INTRA.VDW>
-3.39721

>  <SCORE.INTRA.VDW.0>
2.4256

>  <SCORE.INTRA.norm>
-0.0316022

>  <SCORE.RESTR>
0.00181132

>  <SCORE.RESTR.CAVITY>
0.00181132

>  <SCORE.RESTR.norm>
7.54717e-05

>  <SCORE.SYSTEM>
0

>  <SCORE.SYSTEM.CONST>
0

>  <SCORE.SYSTEM.DIHEDRAL>
0

>  <SCORE.SYSTEM.SOLV>
0

>  <SCORE.SYSTEM.norm>
0

>  <SCORE.heavy>
24

>  <SCORE.norm>
-1.25442

>  <RMSD>
8.279

$$$$
lig.pdb
 OpenBabel11021811453D
libRbt.so/2013.1/901 2013/11/27
 24 24  0  0  0  0  0  0  0  0999 V2000
   13.6279   -0.7570   -2.9046 C   0  0  0  0  0  0  0  0  0  0  0  0
   12.5597   -1.3714   -3.6413 C   0  0  0  0  0  0  0  0  0  0  0  0
   11.6084   -2.1484   -3.0238 C   0  0  0  0  0  0  0  0  0  0  0  0
   11.6258   -2.3789   -1.6110 C   0  0  0  0  0  0  0  0  0  0  0  0
   12.7121   -1.7925   -0.8817 C   0  0  0  0  0  0  0  0  0  0  0  0
   13.6670   -1.0233   -1.4983 C   0  0  0  0  0  0  0  0  0  0  0  0
   14.5593    0.0425   -3.5031 C   0  0  0  0  0  0  0  0  0  0  0  0
   14.4800    0.4134   -4.7989 N   0  0  0  0  0  0  0  0  0  0  0  0
   10.6505   -3.3353    0.3492 N   0  0  0  0  0  0  0  0  0  0  0  0
   10.6670   -3.1177   -0.9829 C   0  0  0  0  0  0  0  0  0  0  0  0
   15.6357    0.5289   -2.8368 N   0  0  0  0  0  0  0  0  0  0  0  0
    9.6432   -3.7014   -1.6501 N   0  0  0  0  0  0  0  0  0  0  0  0
   16.2603    1.8371   -3.0232 C   0  0  0  0  0  0  0  0  0  0  0  0
    8.3667   -4.1162   -1.0763 C   0  0  0  0  0  0  0  0  0  0  0  0
   17.7600    1.6953   -2.7168 C   0  0  0  0  0  0  0  0  0  0  0  0
    7.9166   -3.0259   -0.0862 C   0  0  0  0  0  0  0  0  0  0  0  0
   18.0533    2.0244   -1.2466 C   0  0  0  0  0  0  0  0  0  0  0  0
    6.5326   -3.3127    0.5240 C   0  0  0  0  0  0  0  0  0  0  0  0
   19.3174    1.3220   -0.8218 N   0  0  0  0  0  0  0  0  0  0  0  0
    6.3137   -2.5277    1.7926 N   0  0  0  0  0  0  0  0  0  0  0  0
   19.0515   -0.1475   -0.6393 C   0  0  0  0  0  0  0  0  0  0  0  0
    4.9362   -2.8294    2.3189 C   0  0  0  0  0  0  0  0  0  0  0  0
   19.8495    1.9034    0.4647 C   0  0  0  0  0  0  0  0  0  0  0  0
    6.4383   -1.0458    1.5724 C   0  0  0  0  0  0  0  0  0  0  0  0
  1  6  2  0  0  0  0
  2  3  2  0  0  0  0
  2  1  1  0  0  0  0
  3  4  1  0  0  0  0
  4 10  1  0  0  0  0
  4  5  2  0  0  0  0
  6  5  1  0  0  0  0
  7  1  1  0  0  0  0
  7 11  1  0  0  0  0
  8  7  2  0  0  0  0
  9 10  2  0  0  0  0
 10 12  1  0  0  0  0
 12 14  1  0  0  0  0
 13 11  1  0  0  0  0
 13 15  1  0  0  0  0
 14 16  1  0  0  0  0
 16 18  1  0  0  0  0
 17 15  1  0  0  0  0
 17 19  1  0  0  0  0
 18 20  1  0  0  0  0
 19 23  1  0  0  0  0
 20 22  1  0  0  0  0
 20 24  1  0  0  0  0
 21 19  1  0  0  0  0
M  END
>  <CHROM.1>
-179.09665546,6.17017966,40.74757482,-149.13031975,-92.64393869,176.55660985
160.77949083,155.05978267,-74.32571811,178.75652586,12.59841621,-1.10254295
-1.19258845,0.15599577,-0.39357631,-1.71129184

>  <Name>
lig.pdb

>  <RI>
1.39428e+07

>  <Rbt.Current_Directory>
/home/itssahil/PROJECTS/Mol_Feturizer/New_Systems/rnas/2l94

>  <Rbt.Executable>
rbdock ($Id: //depot/dev/client3/rdock/2013.1/src/exe/rbdock.cxx#4 $)

>  <Rbt.Library>
libRbt.so (2013.1, Build901 2013/11/27)

>  <Rbt.Parameter_File>
/export/apps/rDock/src/rDock_2013.1_src/data/scripts/dock_solv.prm

>  <Rbt.Receptor>
prm/pocket_docking_8.prm

>  <SCORE>
-35.9775

>  <SCORE.INTER>
-39.5258

>  <SCORE.INTER.CONST>
1

>  <SCORE.INTER.POLAR>
-5.44413

>  <SCORE.INTER.ROT>
10

>  <SCORE.INTER.SOLV>
18.839

>  <SCORE.INTER.VDW>
-24.7498

>  <SCORE.INTER.norm>
-1.64691

>  <SCORE.INTRA>
3.29884

>  <SCORE.INTRA.DIHEDRAL>
4.50139

>  <SCORE.INTRA.DIHEDRAL.0>
7.52971

>  <SCORE.INTRA.POLAR>
0

>  <SCORE.INTRA.POLAR.0>
0

>  <SCORE.INTRA.REPUL>
0

>  <SCORE.INTRA.REPUL.0>
0

>  <SCORE.INTRA.SOLV>
0.342758

>  <SCORE.INTRA.SOLV.lig_0>
-22.1084

>  <SCORE.INTRA.VDW>
0.876768

>  <SCORE.INTRA.VDW.0>
2.4256

>  <SCORE.INTRA.norm>
0.137452

>  <SCORE.RESTR>
0.24948

>  <SCORE.RESTR.CAVITY>
0.24948

>  <SCORE.RESTR.norm>
0.010395

>  <SCORE.SYSTEM>
0

>  <SCORE.SYSTEM.CONST>
0

>  <SCORE.SYSTEM.DIHEDRAL>
0

>  <SCORE.SYSTEM.SOLV>
0

>  <SCORE.SYSTEM.norm>
0

>  <SCORE.heavy>
24

>  <SCORE.norm>
-1.49906

>  <RMSD>
8.296

$$$$
lig.pdb
 OpenBabel11021811453D
libRbt.so/2013.1/901 2013/11/27
 24 24  0  0  0  0  0  0  0  0999 V2000
   11.0715   -1.7955   -1.0432 C   0  0  0  0  0  0  0  0  0  0  0  0
   11.2921   -1.9128   -2.4569 C   0  0  0  0  0  0  0  0  0  0  0  0
   12.3457   -1.2859   -3.0791 C   0  0  0  0  0  0  0  0  0  0  0  0
   13.2856   -0.4902   -2.3492 C   0  0  0  0  0  0  0  0  0  0  0  0
   13.0447   -0.3465   -0.9431 C   0  0  0  0  0  0  0  0  0  0  0  0
   11.9886   -0.9653   -0.3222 C   0  0  0  0  0  0  0  0  0  0  0  0
   10.0470   -2.4397   -0.4103 C   0  0  0  0  0  0  0  0  0  0  0  0
    9.4077   -1.9210    0.6599 N   0  0  0  0  0  0  0  0  0  0  0  0
   14.4456    0.2996   -4.2829 N   0  0  0  0  0  0  0  0  0  0  0  0
   14.3547    0.1062   -2.9500 C   0  0  0  0  0  0  0  0  0  0  0  0
    9.5908   -3.6514   -0.8135 N   0  0  0  0  0  0  0  0  0  0  0  0
   15.4248    0.5567   -2.2530 N   0  0  0  0  0  0  0  0  0  0  0  0
    8.2061   -4.1180   -0.7818 C   0  0  0  0  0  0  0  0  0  0  0  0
   16.3793    1.5673   -2.6982 C   0  0  0  0  0  0  0  0  0  0  0  0
    7.5288   -3.6846   -2.0919 C   0  0  0  0  0  0  0  0  0  0  0  0
   15.8664    2.9416   -2.2291 C   0  0  0  0  0  0  0  0  0  0  0  0
    6.0064   -3.8621   -2.0076 C   0  0  0  0  0  0  0  0  0  0  0  0
   14.4401    3.2436   -2.7235 C   0  0  0  0  0  0  0  0  0  0  0  0
    5.4017   -3.6266   -3.3679 N   0  0  0  0  0  0  0  0  0  0  0  0
   14.0382    4.6646   -2.4193 N   0  0  0  0  0  0  0  0  0  0  0  0
    3.9690   -3.1905   -3.2241 C   0  0  0  0  0  0  0  0  0  0  0  0
   13.6826    4.7672   -0.9603 C   0  0  0  0  0  0  0  0  0  0  0  0
    5.4678   -4.8769   -4.2096 C   0  0  0  0  0  0  0  0  0  0  0  0
   12.8609    5.1103   -3.2411 C   0  0  0  0  0  0  0  0  0  0  0  0
  1  6  2  0  0  0  0
  2  3  2  0  0  0  0
  2  1  1  0  0  0  0
  3  4  1  0  0  0  0
  4 10  1  0  0  0  0
  4  5  2  0  0  0  0
  6  5  1  0  0  0  0
  7  1  1  0  0  0  0
  7 11  1  0  0  0  0
  8  7  2  0  0  0  0
  9 10  2  0  0  0  0
 10 12  1  0  0  0  0
 12 14  1  0  0  0  0
 13 11  1  0  0  0  0
 13 15  1  0  0  0  0
 14 16  1  0  0  0  0
 16 18  1  0  0  0  0
 17 15  1  0  0  0  0
 17 19  1  0  0  0  0
 18 20  1  0  0  0  0
 19 23  1  0  0  0  0
 20 22  1  0  0  0  0
 20 24  1  0  0  0  0
 21 19  1  0  0  0  0
M  END
>  <CHROM.1>
17.63314448,-146.92258802,90.69033601,87.37552964,-167.53477616,-56.03627538
-171.90557870,-171.57035305,-154.90174488,-77.03266649,11.20722072,-0.58781941
-2.11480582,-2.49837590,-0.22168407,-0.30458342

>  <Name>
lig.pdb

>  <RI>
1.39428e+07

>  <Rbt.Current_Directory>
/home/itssahil/PROJECTS/Mol_Feturizer/New_Systems/rnas/2l94

>  <Rbt.Executable>
rbdock ($Id: //depot/dev/client3/rdock/2013.1/src/exe/rbdock.cxx#4 $)

>  <Rbt.Library>
libRbt.so (2013.1, Build901 2013/11/27)

>  <Rbt.Parameter_File>
/export/apps/rDock/src/rDock_2013.1_src/data/scripts/dock_solv.prm

>  <Rbt.Receptor>
prm/pocket_docking_8.prm

>  <SCORE>
-13.5292

>  <SCORE.INTER>
-13.0458

>  <SCORE.INTER.CONST>
1

>  <SCORE.INTER.POLAR>
-1.72707

>  <SCORE.INTER.ROT>
10

>  <SCORE.INTER.SOLV>
13.5808

>  <SCORE.INTER.VDW>
-17.7339

>  <SCORE.INTER.norm>
-0.543576

>  <SCORE.INTRA>
-0.483415

>  <SCORE.INTRA.DIHEDRAL>
5.43689

>  <SCORE.INTRA.DIHEDRAL.0>
7.52971

>  <SCORE.INTRA.POLAR>
0

>  <SCORE.INTRA.POLAR.0>
0

>  <SCORE.INTRA.REPUL>
0

>  <SCORE.INTRA.REPUL.0>
0

>  <SCORE.INTRA.SOLV>
0.384277

>  <SCORE.INTRA.SOLV.lig_0>
-22.1084

>  <SCORE.INTRA.VDW>
-3.394

>  <SCORE.INTRA.VDW.0>
2.4256

>  <SCORE.INTRA.norm>
-0.0201423

>  <SCORE.RESTR>
0

>  <SCORE.RESTR.CAVITY>
0

>  <SCORE.RESTR.norm>
0

>  <SCORE.SYSTEM>
0

>  <SCORE.SYSTEM.CONST>
0

>  <SCORE.SYSTEM.DIHEDRAL>
0

>  <SCORE.SYSTEM.SOLV>
0

>  <SCORE.SYSTEM.norm>
0

>  <SCORE.heavy>
24

>  <SCORE.norm>
-0.563718

>  <RMSD>
8.303

$$$$
lig.pdb
 OpenBabel11021811453D
libRbt.so/2013.1/901 2013/11/27
 24 24  0  0  0  0  0  0  0  0999 V2000
    1.5202   -6.3376   -0.7712 C   0  0  0  0  0  0  0  0  0  0  0  0
    1.7430   -7.3416    0.2304 C   0  0  0  0  0  0  0  0  0  0  0  0
    1.4796   -7.1086    1.5595 C   0  0  0  0  0  0  0  0  0  0  0  0
    0.9593   -5.8552    2.0153 C   0  0  0  0  0  0  0  0  0  0  0  0
    0.7691   -4.8423    1.0185 C   0  0  0  0  0  0  0  0  0  0  0  0
    1.0394   -5.0711   -0.3075 C   0  0  0  0  0  0  0  0  0  0  0  0
    1.7482   -6.5692   -2.0976 C   0  0  0  0  0  0  0  0  0  0  0  0
    0.9436   -6.0929   -3.0716 N   0  0  0  0  0  0  0  0  0  0  0  0
    0.9659   -6.4863    4.3197 N   0  0  0  0  0  0  0  0  0  0  0  0
    0.6602   -5.6255    3.3258 C   0  0  0  0  0  0  0  0  0  0  0  0
    2.8064   -7.2943   -2.5375 N   0  0  0  0  0  0  0  0  0  0  0  0
    0.0243   -4.5049    3.7427 N   0  0  0  0  0  0  0  0  0  0  0  0
    3.5783   -7.0617   -3.7567 C   0  0  0  0  0  0  0  0  0  0  0  0
    0.0475   -3.9537    5.0940 C   0  0  0  0  0  0  0  0  0  0  0  0
    4.6066   -5.9571   -3.4642 C   0  0  0  0  0  0  0  0  0  0  0  0
   -1.4082   -3.8406    5.5839 C   0  0  0  0  0  0  0  0  0  0  0  0
    3.9082   -4.6388   -3.1029 C   0  0  0  0  0  0  0  0  0  0  0  0
   -1.5398   -2.9967    6.8647 C   0  0  0  0  0  0  0  0  0  0  0  0
    4.7848   -3.4828   -3.5115 N   0  0  0  0  0  0  0  0  0  0  0  0
   -0.6983   -3.5551    7.9843 N   0  0  0  0  0  0  0  0  0  0  0  0
    5.9868   -3.4064   -2.6100 C   0  0  0  0  0  0  0  0  0  0  0  0
   -1.3782   -4.7776    8.5399 C   0  0  0  0  0  0  0  0  0  0  0  0
    4.0228   -2.1821   -3.4500 C   0  0  0  0  0  0  0  0  0  0  0  0
   -0.4977   -2.5613    9.0942 C   0  0  0  0  0  0  0  0  0  0  0  0
  1  6  2  0  0  0  0
  2  3  2  0  0  0  0
  2  1  1  0  0  0  0
  3  4  1  0  0  0  0
  4 10  1  0  0  0  0
  4  5  2  0  0  0  0
  6  5  1  0  0  0  0
  7  1  1  0  0  0  0
  7 11  1  0  0  0  0
  8  7  2  0  0  0  0
  9 10  2  0  0  0  0
 10 12  1  0  0  0  0
 12 14  1  0  0  0  0
 13 11  1  0  0  0  0
 13 15  1  0  0  0  0
 14 16  1  0  0  0  0
 16 18  1  0  0  0  0
 17 15  1  0  0  0  0
 17 19  1  0  0  0  0
 18 20  1  0  0  0  0
 19 23  1  0  0  0  0
 20 22  1  0  0  0  0
 20 24  1  0  0  0  0
 21 19  1  0  0  0  0
M  END
>  <CHROM.1>
7.85339126,141.14274456,-123.25125943,81.81258634,-62.47969436,-167.57184277
-57.57978420,-150.93513105,-70.81696393,-75.66800809,1.51705455,-5.01865797
1.31144410,0.77940061,-0.97873420,-2.39352386

>  <Name>
lig.pdb

>  <RI>
2.41306e+07

>  <Rbt.Current_Directory>
/home/itssahil/PROJECTS/Mol_Feturizer/New_Systems/rnas/2l94

>  <Rbt.Executable>
rbdock ($Id: //depot/dev/client3/rdock/2013.1/src/exe/rbdock.cxx#4 $)

>  <Rbt.Library>
libRbt.so (2013.1, Build901 2013/11/27)

>  <Rbt.Parameter_File>
/export/apps/rDock/src/rDock_2013.1_src/data/scripts/dock_solv.prm

>  <Rbt.Receptor>
prm/blind_docking_40.prm

>  <SCORE>
-1.74482

>  <SCORE.INTER>
-5.95499

>  <SCORE.INTER.CONST>
1

>  <SCORE.INTER.POLAR>
-1.60242

>  <SCORE.INTER.ROT>
10

>  <SCORE.INTER.SOLV>
17.7189

>  <SCORE.INTER.VDW>
-14.8016

>  <SCORE.INTER.norm>
-0.248124

>  <SCORE.INTRA>
1.54664

>  <SCORE.INTRA.DIHEDRAL>
6.77876

>  <SCORE.INTRA.DIHEDRAL.0>
7.52971

>  <SCORE.INTRA.POLAR>
0

>  <SCORE.INTRA.POLAR.0>
0

>  <SCORE.INTRA.REPUL>
0

>  <SCORE.INTRA.REPUL.0>
0

>  <SCORE.INTRA.SOLV>
0.413497

>  <SCORE.INTRA.SOLV.lig_0>
-22.1084

>  <SCORE.INTRA.VDW>
-2.04949

>  <SCORE.INTRA.VDW.0>
2.4256

>  <SCORE.INTRA.norm>
0.0644434

>  <SCORE.RESTR>
2.66352

>  <SCORE.RESTR.CAVITY>
2.66352

>  <SCORE.RESTR.norm>
0.11098

>  <SCORE.SYSTEM>
0

>  <SCORE.SYSTEM.CONST>
0

>  <SCORE.SYSTEM.DIHEDRAL>
0

>  <SCORE.SYSTEM.SOLV>
0

>  <SCORE.SYSTEM.norm>
0

>  <SCORE.heavy>
24

>  <SCORE.norm>
-0.072701

>  <RMSD>
8.329

$$$$
lig.pdb
 OpenBabel11021811453D
libRbt.so/2013.1/901 2013/11/27
 24 24  0  0  0  0  0  0  0  0999 V2000
    1.0665   -6.2111    1.5394 C   0  0  0  0  0  0  0  0  0  0  0  0
    1.5521   -7.4465    0.9924 C   0  0  0  0  0  0  0  0  0  0  0  0
    1.9568   -7.5481   -0.3175 C   0  0  0  0  0  0  0  0  0  0  0  0
    1.9254   -6.4249   -1.2045 C   0  0  0  0  0  0  0  0  0  0  0  0
    1.4086   -5.2005   -0.6662 C   0  0  0  0  0  0  0  0  0  0  0  0
    0.9967   -5.1000    0.6391 C   0  0  0  0  0  0  0  0  0  0  0  0
    0.6921   -6.0912    2.8472 C   0  0  0  0  0  0  0  0  0  0  0  0
    0.2413   -7.1340    3.5769 N   0  0  0  0  0  0  0  0  0  0  0  0
    3.1515   -7.4971   -2.9524 N   0  0  0  0  0  0  0  0  0  0  0  0
    2.3584   -6.5052   -2.4951 C   0  0  0  0  0  0  0  0  0  0  0  0
    0.7492   -4.9121    3.5145 N   0  0  0  0  0  0  0  0  0  0  0  0
    2.0268   -5.5868   -3.4336 N   0  0  0  0  0  0  0  0  0  0  0  0
    1.0872   -4.7215    4.9236 C   0  0  0  0  0  0  0  0  0  0  0  0
    2.0469   -5.7870   -4.8793 C   0  0  0  0  0  0  0  0  0  0  0  0
   -0.0141   -3.8612    5.5640 C   0  0  0  0  0  0  0  0  0  0  0  0
    3.4394   -5.3777   -5.3943 C   0  0  0  0  0  0  0  0  0  0  0  0
   -1.1982   -4.7294    6.0115 C   0  0  0  0  0  0  0  0  0  0  0  0
    3.9805   -4.1135   -4.7022 C   0  0  0  0  0  0  0  0  0  0  0  0
   -2.2315   -4.7656    4.9148 N   0  0  0  0  0  0  0  0  0  0  0  0
    4.9595   -4.4575   -3.6082 N   0  0  0  0  0  0  0  0  0  0  0  0
   -3.1818   -3.6091    5.0666 C   0  0  0  0  0  0  0  0  0  0  0  0
    4.4047   -3.9814   -2.2925 C   0  0  0  0  0  0  0  0  0  0  0  0
   -3.0031   -6.0617    4.9454 C   0  0  0  0  0  0  0  0  0  0  0  0
    6.3043   -3.8229   -3.8292 C   0  0  0  0  0  0  0  0  0  0  0  0
  1  6  2  0  0  0  0
  2  3  2  0  0  0  0
  2  1  1  0  0  0  0
  3  4  1  0  0  0  0
  4 10  1  0  0  0  0
  4  5  2  0  0  0  0
  6  5  1  0  0  0  0
  7  1  1  0  0  0  0
  7 11  1  0  0  0  0
  8  7  2  0  0  0  0
  9 10  2  0  0  0  0
 10 12  1  0  0  0  0
 12 14  1  0  0  0  0
 13 11  1  0  0  0  0
 13 15  1  0  0  0  0
 14 16  1  0  0  0  0
 16 18  1  0  0  0  0
 17 15  1  0  0  0  0
 17 19  1  0  0  0  0
 18 20  1  0  0  0  0
 19 23  1  0  0  0  0
 20 22  1  0  0  0  0
 20 24  1  0  0  0  0
 21 19  1  0  0  0  0
M  END
>  <CHROM.1>
-17.62952401,-26.91587464,-90.69811654,-128.70191574,84.73438849,-40.10597314
99.54075386,-93.67658094,-88.00710327,-117.36354641,1.44418533,-5.43043445
0.37590683,2.34553361,0.77919632,0.94731072

>  <Name>
lig.pdb

>  <RI>
3.30914e+07

>  <Rbt.Current_Directory>
/home/itssahil/PROJECTS/Mol_Feturizer/New_Systems/rnas/2l94

>  <Rbt.Executable>
rbdock ($Id: //depot/dev/client3/rdock/2013.1/src/exe/rbdock.cxx#4 $)

>  <Rbt.Library>
libRbt.so (2013.1, Build901 2013/11/27)

>  <Rbt.Parameter_File>
/export/apps/rDock/src/rDock_2013.1_src/data/scripts/dock_solv.prm

>  <Rbt.Receptor>
prm/blind_docking_80.prm

>  <SCORE>
0.949636

>  <SCORE.INTER>
-4.7152

>  <SCORE.INTER.CONST>
1

>  <SCORE.INTER.POLAR>
-0.878085

>  <SCORE.INTER.ROT>
10

>  <SCORE.INTER.SOLV>
16.1486

>  <SCORE.INTER.VDW>
-15.8661

>  <SCORE.INTER.norm>
-0.196467

>  <SCORE.INTRA>
5.55602

>  <SCORE.INTRA.DIHEDRAL>
17.0868

>  <SCORE.INTRA.DIHEDRAL.0>
7.52971

>  <SCORE.INTRA.POLAR>
0

>  <SCORE.INTRA.POLAR.0>
0

>  <SCORE.INTRA.REPUL>
0

>  <SCORE.INTRA.REPUL.0>
0

>  <SCORE.INTRA.SOLV>
3.12597

>  <SCORE.INTRA.SOLV.lig_0>
-22.1084

>  <SCORE.INTRA.VDW>
-4.55035

>  <SCORE.INTRA.VDW.0>
2.4256

>  <SCORE.INTRA.norm>
0.231501

>  <SCORE.RESTR>
0.108817

>  <SCORE.RESTR.CAVITY>
0.108817

>  <SCORE.RESTR.norm>
0.00453402

>  <SCORE.SYSTEM>
0

>  <SCORE.SYSTEM.CONST>
0

>  <SCORE.SYSTEM.DIHEDRAL>
0

>  <SCORE.SYSTEM.SOLV>
0

>  <SCORE.SYSTEM.norm>
0

>  <SCORE.heavy>
24

>  <SCORE.norm>
0.0395682

>  <RMSD>
8.388

$$$$
lig.pdb
 OpenBabel11021811453D
libRbt.so/2013.1/901 2013/11/27
 24 24  0  0  0  0  0  0  0  0999 V2000
    1.5075   -7.2668    0.5954 C   0  0  0  0  0  0  0  0  0  0  0  0
    0.8075   -6.1161    0.0985 C   0  0  0  0  0  0  0  0  0  0  0  0
    1.3635   -5.2814   -0.8419 C   0  0  0  0  0  0  0  0  0  0  0  0
    2.6668   -5.5201   -1.3839 C   0  0  0  0  0  0  0  0  0  0  0  0
    3.3781   -6.6504   -0.8621 C   0  0  0  0  0  0  0  0  0  0  0  0
    2.8273   -7.4798    0.0827 C   0  0  0  0  0  0  0  0  0  0  0  0
    0.9520   -8.1201    1.5055 C   0  0  0  0  0  0  0  0  0  0  0  0
    1.6248   -9.1651    2.0331 N   0  0  0  0  0  0  0  0  0  0  0  0
    2.8411   -3.4372   -2.5412 N   0  0  0  0  0  0  0  0  0  0  0  0
    3.2131   -4.7196   -2.3433 C   0  0  0  0  0  0  0  0  0  0  0  0
   -0.3206   -7.9786    1.9522 N   0  0  0  0  0  0  0  0  0  0  0  0
    4.1821   -5.1494   -3.1860 N   0  0  0  0  0  0  0  0  0  0  0  0
   -0.8094   -8.2606    3.3004 C   0  0  0  0  0  0  0  0  0  0  0  0
    5.1227   -4.3069   -3.9180 C   0  0  0  0  0  0  0  0  0  0  0  0
    0.0045   -7.4095    4.2884 C   0  0  0  0  0  0  0  0  0  0  0  0
    6.4823   -4.3797   -3.1982 C   0  0  0  0  0  0  0  0  0  0  0  0
   -0.2348   -7.8671    5.7338 C   0  0  0  0  0  0  0  0  0  0  0  0
    6.4902   -3.6103   -1.8648 C   0  0  0  0  0  0  0  0  0  0  0  0
    0.4820   -6.9346    6.6764 N   0  0  0  0  0  0  0  0  0  0  0  0
    7.4336   -4.2373   -0.8697 N   0  0  0  0  0  0  0  0  0  0  0  0
    0.7544   -7.6331    7.9808 C   0  0  0  0  0  0  0  0  0  0  0  0
    7.1620   -3.6542    0.4911 C   0  0  0  0  0  0  0  0  0  0  0  0
   -0.3355   -5.6921    6.9290 C   0  0  0  0  0  0  0  0  0  0  0  0
    8.8747   -3.9980   -1.2244 C   0  0  0  0  0  0  0  0  0  0  0  0
  1  6  2  0  0  0  0
  2  3  2  0  0  0  0
  2  1  1  0  0  0  0
  3  4  1  0  0  0  0
  4 10  1  0  0  0  0
  4  5  2  0  0  0  0
  6  5  1  0  0  0  0
  7  1  1  0  0  0  0
  7 11  1  0  0  0  0
  8  7  2  0  0  0  0
  9 10  2  0  0  0  0
 10 12  1  0  0  0  0
 12 14  1  0  0  0  0
 13 11  1  0  0  0  0
 13 15  1  0  0  0  0
 14 16  1  0  0  0  0
 16 18  1  0  0  0  0
 17 15  1  0  0  0  0
 17 19  1  0  0  0  0
 18 20  1  0  0  0  0
 19 23  1  0  0  0  0
 20 22  1  0  0  0  0
 20 24  1  0  0  0  0
 21 19  1  0  0  0  0
M  END
>  <CHROM.1>
23.58757527,-176.42239989,103.13183553,57.29772811,-167.72098820,-72.70409905
149.42911151,-175.04757847,-156.54968001,-166.83377627,2.80701610,-6.02091274
0.87441171,2.27043277,0.44786363,1.63353379

>  <Name>
lig.pdb

>  <RI>
3.93418e+07

>  <Rbt.Current_Directory>
/home/itssahil/PROJECTS/Mol_Feturizer/New_Systems/rnas/2l94

>  <Rbt.Executable>
rbdock ($Id: //depot/dev/client3/rdock/2013.1/src/exe/rbdock.cxx#4 $)

>  <Rbt.Library>
libRbt.so (2013.1, Build901 2013/11/27)

>  <Rbt.Parameter_File>
/export/apps/rDock/src/rDock_2013.1_src/data/scripts/dock_solv.prm

>  <Rbt.Receptor>
prm/blind_docking_20.prm

>  <SCORE>
-10.3261

>  <SCORE.INTER>
-9.98494

>  <SCORE.INTER.CONST>
1

>  <SCORE.INTER.POLAR>
-1.23219

>  <SCORE.INTER.ROT>
10

>  <SCORE.INTER.SOLV>
17.6924

>  <SCORE.INTER.VDW>
-18.7135

>  <SCORE.INTER.norm>
-0.416039

>  <SCORE.INTRA>
-0.491684

>  <SCORE.INTRA.DIHEDRAL>
4.95827

>  <SCORE.INTRA.DIHEDRAL.0>
7.52971

>  <SCORE.INTRA.POLAR>
0

>  <SCORE.INTRA.POLAR.0>
0

>  <SCORE.INTRA.REPUL>
0

>  <SCORE.INTRA.REPUL.0>
0

>  <SCORE.INTRA.SOLV>
0.450211

>  <SCORE.INTRA.SOLV.lig_0>
-22.1084

>  <SCORE.INTRA.VDW>
-3.19592

>  <SCORE.INTRA.VDW.0>
2.4256

>  <SCORE.INTRA.norm>
-0.0204868

>  <SCORE.RESTR>
0.150525

>  <SCORE.RESTR.CAVITY>
0.150525

>  <SCORE.RESTR.norm>
0.00627188

>  <SCORE.SYSTEM>
0

>  <SCORE.SYSTEM.CONST>
0

>  <SCORE.SYSTEM.DIHEDRAL>
0

>  <SCORE.SYSTEM.SOLV>
0

>  <SCORE.SYSTEM.norm>
0

>  <SCORE.heavy>
24

>  <SCORE.norm>
-0.430254

>  <RMSD>
8.434

$$$$
lig.pdb
 OpenBabel11021811453D
libRbt.so/2013.1/901 2013/11/27
 24 24  0  0  0  0  0  0  0  0999 V2000
   13.6296   -0.6065   -2.8641 C   0  0  0  0  0  0  0  0  0  0  0  0
   13.6545   -0.9307   -1.4658 C   0  0  0  0  0  0  0  0  0  0  0  0
   12.6965   -1.7326   -0.8919 C   0  0  0  0  0  0  0  0  0  0  0  0
   11.6277   -2.2960   -1.6598 C   0  0  0  0  0  0  0  0  0  0  0  0
   11.5852   -1.9441   -3.0491 C   0  0  0  0  0  0  0  0  0  0  0  0
   12.5364   -1.1370   -3.6214 C   0  0  0  0  0  0  0  0  0  0  0  0
   14.5937    0.1627   -3.4504 C   0  0  0  0  0  0  0  0  0  0  0  0
   14.5679    0.4954   -4.7587 N   0  0  0  0  0  0  0  0  0  0  0  0
   10.6521   -3.4248    0.2063 N   0  0  0  0  0  0  0  0  0  0  0  0
   10.6931   -3.1219   -1.1085 C   0  0  0  0  0  0  0  0  0  0  0  0
   15.6510    0.6553   -2.7587 N   0  0  0  0  0  0  0  0  0  0  0  0
    9.7202   -3.7136   -1.8416 N   0  0  0  0  0  0  0  0  0  0  0  0
   16.3001    1.9493   -2.9601 C   0  0  0  0  0  0  0  0  0  0  0  0
    8.4526   -4.2293   -1.3339 C   0  0  0  0  0  0  0  0  0  0  0  0
   17.7944    1.7862   -2.6382 C   0  0  0  0  0  0  0  0  0  0  0  0
    7.5013   -3.0346   -1.1353 C   0  0  0  0  0  0  0  0  0  0  0  0
   18.0325    1.7871   -1.1218 C   0  0  0  0  0  0  0  0  0  0  0  0
    6.0227   -3.4578   -1.0671 C   0  0  0  0  0  0  0  0  0  0  0  0
   19.3187    1.0619   -0.8194 N   0  0  0  0  0  0  0  0  0  0  0  0
    5.5436   -3.5673    0.3584 N   0  0  0  0  0  0  0  0  0  0  0  0
   19.0864   -0.4245   -0.8384 C   0  0  0  0  0  0  0  0  0  0  0  0
    5.7089   -2.2307    1.0305 C   0  0  0  0  0  0  0  0  0  0  0  0
   19.8635    1.4715    0.5265 C   0  0  0  0  0  0  0  0  0  0  0  0
    6.3071   -4.6026    1.1364 C   0  0  0  0  0  0  0  0  0  0  0  0
  1  6  2  0  0  0  0
  2  3  2  0  0  0  0
  2  1  1  0  0  0  0
  3  4  1  0  0  0  0
  4 10  1  0  0  0  0
  4  5  2  0  0  0  0
  6  5  1  0  0  0  0
  7  1  1  0  0  0  0
  7 11  1  0  0  0  0
  8  7  2  0  0  0  0
  9 10  2  0  0  0  0
 10 12  1  0  0  0  0
 12 14  1  0  0  0  0
 13 11  1  0  0  0  0
 13 15  1  0  0  0  0
 14 16  1  0  0  0  0
 16 18  1  0  0  0  0
 17 15  1  0  0  0  0
 17 19  1  0  0  0  0
 18 20  1  0  0  0  0
 19 23  1  0  0  0  0
 20 22  1  0  0  0  0
 20 24  1  0  0  0  0
 21 19  1  0  0  0  0
M  END
>  <CHROM.1>
3.41618499,-178.71343477,79.02987131,-147.27715082,-78.49463808,160.59983927
98.05248865,155.87013481,-80.28467776,59.39348334,12.56488471,-1.29638610
-1.46358461,0.22200790,-0.36214015,-1.31091375

>  <Name>
lig.pdb

>  <RI>
1.39428e+07

>  <Rbt.Current_Directory>
/home/itssahil/PROJECTS/Mol_Feturizer/New_Systems/rnas/2l94

>  <Rbt.Executable>
rbdock ($Id: //depot/dev/client3/rdock/2013.1/src/exe/rbdock.cxx#4 $)

>  <Rbt.Library>
libRbt.so (2013.1, Build901 2013/11/27)

>  <Rbt.Parameter_File>
/export/apps/rDock/src/rDock_2013.1_src/data/scripts/dock_solv.prm

>  <Rbt.Receptor>
prm/pocket_docking_8.prm

>  <SCORE>
-27.9035

>  <SCORE.INTER>
-32.2815

>  <SCORE.INTER.CONST>
1

>  <SCORE.INTER.POLAR>
-4.43244

>  <SCORE.INTER.ROT>
10

>  <SCORE.INTER.SOLV>
18.9319

>  <SCORE.INTER.VDW>
-23.3235

>  <SCORE.INTER.norm>
-1.34506

>  <SCORE.INTRA>
4.1534

>  <SCORE.INTRA.DIHEDRAL>
6.69561

>  <SCORE.INTRA.DIHEDRAL.0>
7.52971

>  <SCORE.INTRA.POLAR>
0

>  <SCORE.INTRA.POLAR.0>
0

>  <SCORE.INTRA.REPUL>
0

>  <SCORE.INTRA.REPUL.0>
0

>  <SCORE.INTRA.SOLV>
0.228452

>  <SCORE.INTRA.SOLV.lig_0>
-22.1084

>  <SCORE.INTRA.VDW>
0.691372

>  <SCORE.INTRA.VDW.0>
2.4256

>  <SCORE.INTRA.norm>
0.173058

>  <SCORE.RESTR>
0.224611

>  <SCORE.RESTR.CAVITY>
0.224611

>  <SCORE.RESTR.norm>
0.00935879

>  <SCORE.SYSTEM>
0

>  <SCORE.SYSTEM.CONST>
0

>  <SCORE.SYSTEM.DIHEDRAL>
0

>  <SCORE.SYSTEM.SOLV>
0

>  <SCORE.SYSTEM.norm>
0

>  <SCORE.heavy>
24

>  <SCORE.norm>
-1.16264

>  <RMSD>
8.434

$$$$
lig.pdb
 OpenBabel11021811453D
libRbt.so/2013.1/901 2013/11/27
 24 24  0  0  0  0  0  0  0  0999 V2000
    2.2601   -7.1543   -0.8292 C   0  0  0  0  0  0  0  0  0  0  0  0
    2.3288   -6.4185    0.4016 C   0  0  0  0  0  0  0  0  0  0  0  0
    1.5621   -6.7578    1.4912 C   0  0  0  0  0  0  0  0  0  0  0  0
    0.6608   -7.8696    1.4606 C   0  0  0  0  0  0  0  0  0  0  0  0
    0.5685   -8.5828    0.2202 C   0  0  0  0  0  0  0  0  0  0  0  0
    1.3275   -8.2400   -0.8708 C   0  0  0  0  0  0  0  0  0  0  0  0
    3.0403   -6.8456   -1.9066 C   0  0  0  0  0  0  0  0  0  0  0  0
    2.9074   -7.4552   -3.1039 N   0  0  0  0  0  0  0  0  0  0  0  0
    0.4577   -8.7875    3.6571 N   0  0  0  0  0  0  0  0  0  0  0  0
   -0.0774   -8.2373    2.5466 C   0  0  0  0  0  0  0  0  0  0  0  0
    4.0080   -5.8968   -1.8554 N   0  0  0  0  0  0  0  0  0  0  0  0
   -1.4215   -8.0811    2.6010 N   0  0  0  0  0  0  0  0  0  0  0  0
    4.3927   -4.9828   -2.9290 C   0  0  0  0  0  0  0  0  0  0  0  0
   -2.2325   -8.0154    3.8128 C   0  0  0  0  0  0  0  0  0  0  0  0
    4.8684   -3.6696   -2.2871 C   0  0  0  0  0  0  0  0  0  0  0  0
   -2.1111   -6.5914    4.3867 C   0  0  0  0  0  0  0  0  0  0  0  0
    6.4003   -3.5749   -2.3018 C   0  0  0  0  0  0  0  0  0  0  0  0
   -0.6653   -6.2268    4.7698 C   0  0  0  0  0  0  0  0  0  0  0  0
    6.9546   -4.2837   -1.0926 N   0  0  0  0  0  0  0  0  0  0  0  0
   -0.3805   -4.7659    4.5286 N   0  0  0  0  0  0  0  0  0  0  0  0
    6.6530   -3.4910    0.1500 C   0  0  0  0  0  0  0  0  0  0  0  0
    1.1101   -4.5642    4.4736 C   0  0  0  0  0  0  0  0  0  0  0  0
    8.4453   -4.4780   -1.2193 C   0  0  0  0  0  0  0  0  0  0  0  0
   -0.9521   -3.8899    5.6083 C   0  0  0  0  0  0  0  0  0  0  0  0
  1  6  2  0  0  0  0
  2  3  2  0  0  0  0
  2  1  1  0  0  0  0
  3  4  1  0  0  0  0
  4 10  1  0  0  0  0
  4  5  2  0  0  0  0
  6  5  1  0  0  0  0
  7  1  1  0  0  0  0
  7 11  1  0  0  0  0
  8  7  2  0  0  0  0
  9 10  2  0  0  0  0
 10 12  1  0  0  0  0
 12 14  1  0  0  0  0
 13 11  1  0  0  0  0
 13 15  1  0  0  0  0
 14 16  1  0  0  0  0
 16 18  1  0  0  0  0
 17 15  1  0  0  0  0
 17 19  1  0  0  0  0
 18 20  1  0  0  0  0
 19 23  1  0  0  0  0
 20 22  1  0  0  0  0
 20 24  1  0  0  0  0
 21 19  1  0  0  0  0
M  END
>  <CHROM.1>
-69.78305339,-174.28860021,79.66697101,148.41597067,102.87019964,-61.19688557
145.76863416,-85.37730186,-71.04926983,-161.35395472,2.12678704,-6.15172633
0.93352925,0.38616100,-0.64862948,-2.21291800

>  <Name>
lig.pdb

>  <RI>
3.93418e+07

>  <Rbt.Current_Directory>
/home/itssahil/PROJECTS/Mol_Feturizer/New_Systems/rnas/2l94

>  <Rbt.Executable>
rbdock ($Id: //depot/dev/client3/rdock/2013.1/src/exe/rbdock.cxx#4 $)

>  <Rbt.Library>
libRbt.so (2013.1, Build901 2013/11/27)

>  <Rbt.Parameter_File>
/export/apps/rDock/src/rDock_2013.1_src/data/scripts/dock_solv.prm

>  <Rbt.Receptor>
prm/blind_docking_20.prm

>  <SCORE>
-3.36255

>  <SCORE.INTER>
-10.6899

>  <SCORE.INTER.CONST>
1

>  <SCORE.INTER.POLAR>
-2.15737

>  <SCORE.INTER.ROT>
10

>  <SCORE.INTER.SOLV>
14.6932

>  <SCORE.INTER.VDW>
-15.0998

>  <SCORE.INTER.norm>
-0.445412

>  <SCORE.INTRA>
6.93255

>  <SCORE.INTRA.DIHEDRAL>
19.6666

>  <SCORE.INTRA.DIHEDRAL.0>
7.52971

>  <SCORE.INTRA.POLAR>
0

>  <SCORE.INTRA.POLAR.0>
0

>  <SCORE.INTRA.REPUL>
0.0061855

>  <SCORE.INTRA.REPUL.0>
0

>  <SCORE.INTRA.SOLV>
1.21042

>  <SCORE.INTRA.SOLV.lig_0>
-22.1084

>  <SCORE.INTRA.VDW>
-3.53688

>  <SCORE.INTRA.VDW.0>
2.4256

>  <SCORE.INTRA.norm>
0.288856

>  <SCORE.RESTR>
0.394794

>  <SCORE.RESTR.CAVITY>
0.394794

>  <SCORE.RESTR.norm>
0.0164497

>  <SCORE.SYSTEM>
0

>  <SCORE.SYSTEM.CONST>
0

>  <SCORE.SYSTEM.DIHEDRAL>
0

>  <SCORE.SYSTEM.SOLV>
0

>  <SCORE.SYSTEM.norm>
0

>  <SCORE.heavy>
24

>  <SCORE.norm>
-0.140106

>  <RMSD>
8.467

$$$$
lig.pdb
 OpenBabel11021811453D
libRbt.so/2013.1/901 2013/11/27
 24 24  0  0  0  0  0  0  0  0999 V2000
    1.4536   -6.9852    0.9688 C   0  0  0  0  0  0  0  0  0  0  0  0
    1.5520   -5.8066    0.1551 C   0  0  0  0  0  0  0  0  0  0  0  0
    1.8894   -5.8725   -1.1761 C   0  0  0  0  0  0  0  0  0  0  0  0
    2.1512   -7.1212   -1.8254 C   0  0  0  0  0  0  0  0  0  0  0  0
    2.0855   -8.2943   -1.0036 C   0  0  0  0  0  0  0  0  0  0  0  0
    1.7567   -8.2289    0.3273 C   0  0  0  0  0  0  0  0  0  0  0  0
    1.0882   -6.9339    2.2835 C   0  0  0  0  0  0  0  0  0  0  0  0
    1.0496   -8.0273    3.0747 N   0  0  0  0  0  0  0  0  0  0  0  0
    1.8224   -6.4759   -4.1021 N   0  0  0  0  0  0  0  0  0  0  0  0
    2.4511   -7.2015   -3.1532 C   0  0  0  0  0  0  0  0  0  0  0  0
    0.7393   -5.7755    2.8964 N   0  0  0  0  0  0  0  0  0  0  0  0
    3.4124   -8.0248   -3.6349 N   0  0  0  0  0  0  0  0  0  0  0  0
    1.0174   -5.4022    4.2818 C   0  0  0  0  0  0  0  0  0  0  0  0
    4.1082   -7.8829   -4.9101 C   0  0  0  0  0  0  0  0  0  0  0  0
   -0.2985   -5.4926    5.0713 C   0  0  0  0  0  0  0  0  0  0  0  0
    5.0863   -6.6998   -4.7862 C   0  0  0  0  0  0  0  0  0  0  0  0
   -1.1490   -4.2313    4.8670 C   0  0  0  0  0  0  0  0  0  0  0  0
    4.3760   -5.3738   -4.4591 C   0  0  0  0  0  0  0  0  0  0  0  0
   -2.3730   -4.3088    5.7431 N   0  0  0  0  0  0  0  0  0  0  0  0
    5.3013   -4.1948   -4.6246 N   0  0  0  0  0  0  0  0  0  0  0  0
   -3.4109   -3.3315    5.2624 C   0  0  0  0  0  0  0  0  0  0  0  0
    6.2555   -4.1591   -3.4611 C   0  0  0  0  0  0  0  0  0  0  0  0
   -2.0251   -4.0110    7.1806 C   0  0  0  0  0  0  0  0  0  0  0  0
    4.5552   -2.8911   -4.6840 C   0  0  0  0  0  0  0  0  0  0  0  0
  1  6  2  0  0  0  0
  2  3  2  0  0  0  0
  2  1  1  0  0  0  0
  3  4  1  0  0  0  0
  4 10  1  0  0  0  0
  4  5  2  0  0  0  0
  6  5  1  0  0  0  0
  7  1  1  0  0  0  0
  7 11  1  0  0  0  0
  8  7  2  0  0  0  0
  9 10  2  0  0  0  0
 10 12  1  0  0  0  0
 12 14  1  0  0  0  0
 13 11  1  0  0  0  0
 13 15  1  0  0  0  0
 14 16  1  0  0  0  0
 16 18  1  0  0  0  0
 17 15  1  0  0  0  0
 17 19  1  0  0  0  0
 18 20  1  0  0  0  0
 19 23  1  0  0  0  0
 20 22  1  0  0  0  0
 20 24  1  0  0  0  0
 21 19  1  0  0  0  0
M  END
>  <CHROM.1>
-41.53103306,-176.96269302,72.89165882,-106.56899360,-81.43922748,-59.89881164
-168.17603143,-175.38007219,-162.43943672,-75.10320402,1.77545661,-5.89438961
0.03232833,2.92767029,1.02665709,0.13607468

>  <Name>
lig.pdb

>  <RI>
3.30914e+07

>  <Rbt.Current_Directory>
/home/itssahil/PROJECTS/Mol_Feturizer/New_Systems/rnas/2l94

>  <Rbt.Executable>
rbdock ($Id: //depot/dev/client3/rdock/2013.1/src/exe/rbdock.cxx#4 $)

>  <Rbt.Library>
libRbt.so (2013.1, Build901 2013/11/27)

>  <Rbt.Parameter_File>
/export/apps/rDock/src/rDock_2013.1_src/data/scripts/dock_solv.prm

>  <Rbt.Receptor>
prm/blind_docking_80.prm

>  <SCORE>
-3.15395

>  <SCORE.INTER>
-4.91309

>  <SCORE.INTER.CONST>
1

>  <SCORE.INTER.POLAR>
-0.863031

>  <SCORE.INTER.ROT>
10

>  <SCORE.INTER.SOLV>
16.3531

>  <SCORE.INTER.VDW>
-16.1163

>  <SCORE.INTER.norm>
-0.204712

>  <SCORE.INTRA>
1.51032

>  <SCORE.INTRA.DIHEDRAL>
6.27451

>  <SCORE.INTRA.DIHEDRAL.0>
7.52971

>  <SCORE.INTRA.POLAR>
0

>  <SCORE.INTRA.POLAR.0>
0

>  <SCORE.INTRA.REPUL>
0

>  <SCORE.INTRA.REPUL.0>
0

>  <SCORE.INTRA.SOLV>
0.817584

>  <SCORE.INTRA.SOLV.lig_0>
-22.1084

>  <SCORE.INTRA.VDW>
-2.03573

>  <SCORE.INTRA.VDW.0>
2.4256

>  <SCORE.INTRA.norm>
0.06293

>  <SCORE.RESTR>
0.248813

>  <SCORE.RESTR.CAVITY>
0.248813

>  <SCORE.RESTR.norm>
0.0103672

>  <SCORE.SYSTEM>
0

>  <SCORE.SYSTEM.CONST>
0

>  <SCORE.SYSTEM.DIHEDRAL>
0

>  <SCORE.SYSTEM.SOLV>
0

>  <SCORE.SYSTEM.norm>
0

>  <SCORE.heavy>
24

>  <SCORE.norm>
-0.131415

>  <RMSD>
8.480

$$$$
lig.pdb
 OpenBabel11021811453D
libRbt.so/2013.1/901 2013/11/27
 24 24  0  0  0  0  0  0  0  0999 V2000
    4.1569   -5.4626    0.8572 C   0  0  0  0  0  0  0  0  0  0  0  0
    4.0436   -6.8291    0.4319 C   0  0  0  0  0  0  0  0  0  0  0  0
    2.8847   -7.5477    0.6072 C   0  0  0  0  0  0  0  0  0  0  0  0
    1.7247   -6.9690    1.2145 C   0  0  0  0  0  0  0  0  0  0  0  0
    1.8502   -5.6150    1.6692 C   0  0  0  0  0  0  0  0  0  0  0  0
    3.0093   -4.8992    1.5020 C   0  0  0  0  0  0  0  0  0  0  0  0
    5.2923   -4.7302    0.6591 C   0  0  0  0  0  0  0  0  0  0  0  0
    6.4226   -4.9271    1.3710 N   0  0  0  0  0  0  0  0  0  0  0  0
    0.4284   -8.9698    1.0576 N   0  0  0  0  0  0  0  0  0  0  0  0
    0.5586   -7.6608    1.3605 C   0  0  0  0  0  0  0  0  0  0  0  0
    5.3710   -3.7492   -0.2739 N   0  0  0  0  0  0  0  0  0  0  0  0
   -0.5766   -7.0862    1.8243 N   0  0  0  0  0  0  0  0  0  0  0  0
    6.5391   -3.4038   -1.0817 C   0  0  0  0  0  0  0  0  0  0  0  0
   -1.7100   -7.7817    2.4262 C   0  0  0  0  0  0  0  0  0  0  0  0
    6.4208   -4.1393   -2.4264 C   0  0  0  0  0  0  0  0  0  0  0  0
   -1.3793   -8.0295    3.9097 C   0  0  0  0  0  0  0  0  0  0  0  0
    5.0462   -3.8974   -3.0651 C   0  0  0  0  0  0  0  0  0  0  0  0
   -1.9736   -6.9548    4.8381 C   0  0  0  0  0  0  0  0  0  0  0  0
    4.1861   -5.1203   -2.8736 N   0  0  0  0  0  0  0  0  0  0  0  0
   -1.3593   -5.6017    4.5828 N   0  0  0  0  0  0  0  0  0  0  0  0
    4.0801   -5.8809   -4.1673 C   0  0  0  0  0  0  0  0  0  0  0  0
    0.0476   -5.5982    5.1178 C   0  0  0  0  0  0  0  0  0  0  0  0
    2.8066   -4.7384   -2.3968 C   0  0  0  0  0  0  0  0  0  0  0  0
   -2.1339   -4.4931    5.2392 C   0  0  0  0  0  0  0  0  0  0  0  0
  1  6  2  0  0  0  0
  2  3  2  0  0  0  0
  2  1  1  0  0  0  0
  3  4  1  0  0  0  0
  4 10  1  0  0  0  0
  4  5  2  0  0  0  0
  6  5  1  0  0  0  0
  7  1  1  0  0  0  0
  7 11  1  0  0  0  0
  8  7  2  0  0  0  0
  9 10  2  0  0  0  0
 10 12  1  0  0  0  0
 12 14  1  0  0  0  0
 13 11  1  0  0  0  0
 13 15  1  0  0  0  0
 14 16  1  0  0  0  0
 16 18  1  0  0  0  0
 17 15  1  0  0  0  0
 17 19  1  0  0  0  0
 18 20  1  0  0  0  0
 19 23  1  0  0  0  0
 20 22  1  0  0  0  0
 20 24  1  0  0  0  0
 21 19  1  0  0  0  0
M  END
>  <CHROM.1>
5.92214641,-73.23428820,82.55286893,95.01385458,51.00129999,96.36511548,-65.07595113
-103.30210557,-104.93141147,-72.60209006,2.29597086,-5.82362877,0.93048189
-0.50149141,0.58363472,1.14101230

>  <Name>
lig.pdb

>  <RI>
3.93418e+07

>  <Rbt.Current_Directory>
/home/itssahil/PROJECTS/Mol_Feturizer/New_Systems/rnas/2l94

>  <Rbt.Executable>
rbdock ($Id: //depot/dev/client3/rdock/2013.1/src/exe/rbdock.cxx#4 $)

>  <Rbt.Library>
libRbt.so (2013.1, Build901 2013/11/27)

>  <Rbt.Parameter_File>
/export/apps/rDock/src/rDock_2013.1_src/data/scripts/dock_solv.prm

>  <Rbt.Receptor>
prm/blind_docking_20.prm

>  <SCORE>
-2.6719

>  <SCORE.INTER>
-10.2006

>  <SCORE.INTER.CONST>
1

>  <SCORE.INTER.POLAR>
-2.291

>  <SCORE.INTER.ROT>
10

>  <SCORE.INTER.SOLV>
16.6931

>  <SCORE.INTER.VDW>
-14.9948

>  <SCORE.INTER.norm>
-0.425026

>  <SCORE.INTRA>
6.26199

>  <SCORE.INTRA.DIHEDRAL>
21.3363

>  <SCORE.INTRA.DIHEDRAL.0>
7.52971

>  <SCORE.INTRA.POLAR>
0

>  <SCORE.INTRA.POLAR.0>
0

>  <SCORE.INTRA.REPUL>
0

>  <SCORE.INTRA.REPUL.0>
0

>  <SCORE.INTRA.SOLV>
1.90572

>  <SCORE.INTRA.SOLV.lig_0>
-22.1084

>  <SCORE.INTRA.VDW>
-5.35903

>  <SCORE.INTRA.VDW.0>
2.4256

>  <SCORE.INTRA.norm>
0.260916

>  <SCORE.RESTR>
1.26674

>  <SCORE.RESTR.CAVITY>
1.26674

>  <SCORE.RESTR.norm>
0.0527807

>  <SCORE.SYSTEM>
0

>  <SCORE.SYSTEM.CONST>
0

>  <SCORE.SYSTEM.DIHEDRAL>
0

>  <SCORE.SYSTEM.SOLV>
0

>  <SCORE.SYSTEM.norm>
0

>  <SCORE.heavy>
24

>  <SCORE.norm>
-0.111329

>  <RMSD>
8.493

$$$$
lig.pdb
 OpenBabel11021811453D
libRbt.so/2013.1/901 2013/11/27
 24 24  0  0  0  0  0  0  0  0999 V2000
    3.4688   -4.6238   -1.7160 C   0  0  0  0  0  0  0  0  0  0  0  0
    4.1784   -5.2362   -0.6286 C   0  0  0  0  0  0  0  0  0  0  0  0
    3.5343   -5.9961    0.3189 C   0  0  0  0  0  0  0  0  0  0  0  0
    2.1223   -6.2261    0.2669 C   0  0  0  0  0  0  0  0  0  0  0  0
    1.4100   -5.5863   -0.8004 C   0  0  0  0  0  0  0  0  0  0  0  0
    2.0508   -4.8208   -1.7423 C   0  0  0  0  0  0  0  0  0  0  0  0
    4.1032   -3.8938   -2.6801 C   0  0  0  0  0  0  0  0  0  0  0  0
    5.3972   -3.5212   -2.5817 N   0  0  0  0  0  0  0  0  0  0  0  0
    1.8918   -8.2471    1.5202 N   0  0  0  0  0  0  0  0  0  0  0  0
    1.4787   -7.0077    1.1804 C   0  0  0  0  0  0  0  0  0  0  0  0
    3.4796   -3.4904   -3.8147 N   0  0  0  0  0  0  0  0  0  0  0  0
    0.3602   -6.6022    1.8274 N   0  0  0  0  0  0  0  0  0  0  0  0
    4.0728   -3.3818   -5.1461 C   0  0  0  0  0  0  0  0  0  0  0  0
   -0.1414   -7.1290    3.0928 C   0  0  0  0  0  0  0  0  0  0  0  0
    4.0608   -4.7790   -5.7868 C   0  0  0  0  0  0  0  0  0  0  0  0
    0.1746   -6.0985    4.1928 C   0  0  0  0  0  0  0  0  0  0  0  0
    4.9901   -5.7380   -5.0299 C   0  0  0  0  0  0  0  0  0  0  0  0
   -0.4966   -6.4387    5.5358 C   0  0  0  0  0  0  0  0  0  0  0  0
    4.4785   -7.1479   -5.1784 N   0  0  0  0  0  0  0  0  0  0  0  0
   -0.2804   -5.3482    6.5544 N   0  0  0  0  0  0  0  0  0  0  0  0
    3.3027   -7.3660   -4.2655 C   0  0  0  0  0  0  0  0  0  0  0  0
   -0.6529   -5.8735    7.9148 C   0  0  0  0  0  0  0  0  0  0  0  0
    5.5604   -8.1493   -4.8578 C   0  0  0  0  0  0  0  0  0  0  0  0
   -1.1042   -4.1254    6.2610 C   0  0  0  0  0  0  0  0  0  0  0  0
  1  6  2  0  0  0  0
  2  3  2  0  0  0  0
  2  1  1  0  0  0  0
  3  4  1  0  0  0  0
  4 10  1  0  0  0  0
  4  5  2  0  0  0  0
  6  5  1  0  0  0  0
  7  1  1  0  0  0  0
  7 11  1  0  0  0  0
  8  7  2  0  0  0  0
  9 10  2  0  0  0  0
 10 12  1  0  0  0  0
 12 14  1  0  0  0  0
 13 11  1  0  0  0  0
 13 15  1  0  0  0  0
 14 16  1  0  0  0  0
 16 18  1  0  0  0  0
 17 15  1  0  0  0  0
 17 19  1  0  0  0  0
 18 20  1  0  0  0  0
 19 23  1  0  0  0  0
 20 22  1  0  0  0  0
 20 24  1  0  0  0  0
 21 19  1  0  0  0  0
M  END
>  <CHROM.1>
-49.67912498,-10.33518778,104.37869942,82.26414688,-66.06835990,171.10721306
-174.51927685,151.67230500,-77.23284394,-166.21976257,2.38335209,-5.71928175
-0.20156201,-0.08566608,1.12810732,0.14533007

>  <Name>
lig.pdb

>  <RI>
3.30914e+07

>  <Rbt.Current_Directory>
/home/itssahil/PROJECTS/Mol_Feturizer/New_Systems/rnas/2l94

>  <Rbt.Executable>
rbdock ($Id: //depot/dev/client3/rdock/2013.1/src/exe/rbdock.cxx#4 $)

>  <Rbt.Library>
libRbt.so (2013.1, Build901 2013/11/27)

>  <Rbt.Parameter_File>
/export/apps/rDock/src/rDock_2013.1_src/data/scripts/dock_solv.prm

>  <Rbt.Receptor>
prm/blind_docking_80.prm

>  <SCORE>
-6.64385

>  <SCORE.INTER>
-7.77332

>  <SCORE.INTER.CONST>
1

>  <SCORE.INTER.POLAR>
-1.66296

>  <SCORE.INTER.ROT>
10

>  <SCORE.INTER.SOLV>
15.5992

>  <SCORE.INTER.VDW>
-15.1054

>  <SCORE.INTER.norm>
-0.323888

>  <SCORE.INTRA>
0.954685

>  <SCORE.INTRA.DIHEDRAL>
9.36772

>  <SCORE.INTRA.DIHEDRAL.0>
7.52971

>  <SCORE.INTRA.POLAR>
0

>  <SCORE.INTRA.POLAR.0>
0

>  <SCORE.INTRA.REPUL>
0

>  <SCORE.INTRA.REPUL.0>
0

>  <SCORE.INTRA.SOLV>
0.60899

>  <SCORE.INTRA.SOLV.lig_0>
-22.1084

>  <SCORE.INTRA.VDW>
-4.03367

>  <SCORE.INTRA.VDW.0>
2.4256

>  <SCORE.INTRA.norm>
0.0397785

>  <SCORE.RESTR>
0.174793

>  <SCORE.RESTR.CAVITY>
0.174793

>  <SCORE.RESTR.norm>
0.00728304

>  <SCORE.SYSTEM>
0

>  <SCORE.SYSTEM.CONST>
0

>  <SCORE.SYSTEM.DIHEDRAL>
0

>  <SCORE.SYSTEM.SOLV>
0

>  <SCORE.SYSTEM.norm>
0

>  <SCORE.heavy>
24

>  <SCORE.norm>
-0.276827

>  <RMSD>
8.508

$$$$
lig.pdb
 OpenBabel11021811453D
libRbt.so/2013.1/901 2013/11/27
 24 24  0  0  0  0  0  0  0  0999 V2000
    1.3366   -6.1525   -0.2217 C   0  0  0  0  0  0  0  0  0  0  0  0
    2.0698   -5.1487    0.4965 C   0  0  0  0  0  0  0  0  0  0  0  0
    2.0516   -5.0832    1.8696 C   0  0  0  0  0  0  0  0  0  0  0  0
    1.3084   -6.0188    2.6581 C   0  0  0  0  0  0  0  0  0  0  0  0
    0.5499   -6.9998    1.9385 C   0  0  0  0  0  0  0  0  0  0  0  0
    0.5608   -7.0611    0.5674 C   0  0  0  0  0  0  0  0  0  0  0  0
    1.3733   -6.2462   -1.5836 C   0  0  0  0  0  0  0  0  0  0  0  0
    0.2725   -6.4787   -2.3301 N   0  0  0  0  0  0  0  0  0  0  0  0
    2.0067   -5.0785    4.7405 N   0  0  0  0  0  0  0  0  0  0  0  0
    1.3124   -5.9856    4.0214 C   0  0  0  0  0  0  0  0  0  0  0  0
    2.5219   -6.1080   -2.2911 N   0  0  0  0  0  0  0  0  0  0  0  0
    0.6148   -6.8693    4.7740 N   0  0  0  0  0  0  0  0  0  0  0  0
    2.6681   -5.4884   -3.6068 C   0  0  0  0  0  0  0  0  0  0  0  0
    0.1910   -6.6763    6.1574 C   0  0  0  0  0  0  0  0  0  0  0  0
    3.6190   -4.2891   -3.4640 C   0  0  0  0  0  0  0  0  0  0  0  0
   -1.2226   -6.0654    6.1382 C   0  0  0  0  0  0  0  0  0  0  0  0
    4.9691   -4.7258   -2.8788 C   0  0  0  0  0  0  0  0  0  0  0  0
   -1.5434   -5.2707    7.4171 C   0  0  0  0  0  0  0  0  0  0  0  0
    5.8851   -3.5317   -2.7952 N   0  0  0  0  0  0  0  0  0  0  0  0
   -0.8228   -3.9464    7.4412 N   0  0  0  0  0  0  0  0  0  0  0  0
    6.5812   -3.3256   -4.1130 C   0  0  0  0  0  0  0  0  0  0  0  0
   -0.9054   -3.3737    8.8306 C   0  0  0  0  0  0  0  0  0  0  0  0
    6.9111   -3.7162   -1.7046 C   0  0  0  0  0  0  0  0  0  0  0  0
   -1.4126   -2.9610    6.4712 C   0  0  0  0  0  0  0  0  0  0  0  0
  1  6  2  0  0  0  0
  2  3  2  0  0  0  0
  2  1  1  0  0  0  0
  3  4  1  0  0  0  0
  4 10  1  0  0  0  0
  4  5  2  0  0  0  0
  6  5  1  0  0  0  0
  7  1  1  0  0  0  0
  7 11  1  0  0  0  0
  8  7  2  0  0  0  0
  9 10  2  0  0  0  0
 10 12  1  0  0  0  0
 12 14  1  0  0  0  0
 13 11  1  0  0  0  0
 13 15  1  0  0  0  0
 14 16  1  0  0  0  0
 16 18  1  0  0  0  0
 17 15  1  0  0  0  0
 17 19  1  0  0  0  0
 18 20  1  0  0  0  0
 19 23  1  0  0  0  0
 20 22  1  0  0  0  0
 20 24  1  0  0  0  0
 21 19  1  0  0  0  0
M  END
>  <CHROM.1>
0.09272536,-137.53749720,91.92548438,119.05633185,56.80563670,-155.28508416
74.31121167,178.24730786,-84.91495051,-166.54865687,1.73018278,-5.22665410
1.62577818,0.96786345,-0.62996571,-1.92717823

>  <Name>
lig.pdb

>  <RI>
2.41306e+07

>  <Rbt.Current_Directory>
/home/itssahil/PROJECTS/Mol_Feturizer/New_Systems/rnas/2l94

>  <Rbt.Executable>
rbdock ($Id: //depot/dev/client3/rdock/2013.1/src/exe/rbdock.cxx#4 $)

>  <Rbt.Library>
libRbt.so (2013.1, Build901 2013/11/27)

>  <Rbt.Parameter_File>
/export/apps/rDock/src/rDock_2013.1_src/data/scripts/dock_solv.prm

>  <Rbt.Receptor>
prm/blind_docking_40.prm

>  <SCORE>
-4.61909

>  <SCORE.INTER>
-6.27214

>  <SCORE.INTER.CONST>
1

>  <SCORE.INTER.POLAR>
-1.25496

>  <SCORE.INTER.ROT>
10

>  <SCORE.INTER.SOLV>
15.4993

>  <SCORE.INTER.VDW>
-15.4313

>  <SCORE.INTER.norm>
-0.261339

>  <SCORE.INTRA>
1.05257

>  <SCORE.INTRA.DIHEDRAL>
7.71294

>  <SCORE.INTRA.DIHEDRAL.0>
7.52971

>  <SCORE.INTRA.POLAR>
0

>  <SCORE.INTRA.POLAR.0>
0

>  <SCORE.INTRA.REPUL>
0.0062457

>  <SCORE.INTRA.REPUL.0>
0

>  <SCORE.INTRA.SOLV>
0.391807

>  <SCORE.INTRA.SOLV.lig_0>
-22.1084

>  <SCORE.INTRA.VDW>
-3.03104

>  <SCORE.INTRA.VDW.0>
2.4256

>  <SCORE.INTRA.norm>
0.0438569

>  <SCORE.RESTR>
0.600479

>  <SCORE.RESTR.CAVITY>
0.600479

>  <SCORE.RESTR.norm>
0.02502

>  <SCORE.SYSTEM>
0

>  <SCORE.SYSTEM.CONST>
0

>  <SCORE.SYSTEM.DIHEDRAL>
0

>  <SCORE.SYSTEM.SOLV>
0

>  <SCORE.SYSTEM.norm>
0

>  <SCORE.heavy>
24

>  <SCORE.norm>
-0.192462

>  <RMSD>
8.510

$$$$
lig.pdb
 OpenBabel11021811453D
libRbt.so/2013.1/901 2013/11/27
 24 24  0  0  0  0  0  0  0  0999 V2000
    3.5078   -4.7270   -1.6705 C   0  0  0  0  0  0  0  0  0  0  0  0
    2.1264   -5.0986   -1.7917 C   0  0  0  0  0  0  0  0  0  0  0  0
    1.4847   -5.8258   -0.8173 C   0  0  0  0  0  0  0  0  0  0  0  0
    2.1566   -6.2433    0.3758 C   0  0  0  0  0  0  0  0  0  0  0  0
    3.5449   -5.9005    0.4800 C   0  0  0  0  0  0  0  0  0  0  0  0
    4.1888   -5.1816   -0.4959 C   0  0  0  0  0  0  0  0  0  0  0  0
    4.1461   -3.9779   -2.6173 C   0  0  0  0  0  0  0  0  0  0  0  0
    5.4040   -3.5145   -2.4568 N   0  0  0  0  0  0  0  0  0  0  0  0
    1.8720   -8.1797    1.7461 N   0  0  0  0  0  0  0  0  0  0  0  0
    1.5204   -6.9333    1.3651 C   0  0  0  0  0  0  0  0  0  0  0  0
    3.5632   -3.6456   -3.7958 N   0  0  0  0  0  0  0  0  0  0  0  0
    0.4721   -6.4213    2.0527 N   0  0  0  0  0  0  0  0  0  0  0  0
    4.2238   -3.5278   -5.0943 C   0  0  0  0  0  0  0  0  0  0  0  0
    0.0152   -6.8497    3.3711 C   0  0  0  0  0  0  0  0  0  0  0  0
    5.3555   -4.5667   -5.1474 C   0  0  0  0  0  0  0  0  0  0  0  0
    0.4077   -5.7592    4.3852 C   0  0  0  0  0  0  0  0  0  0  0  0
    4.8939   -5.9112   -4.5683 C   0  0  0  0  0  0  0  0  0  0  0  0
   -0.3962   -5.8493    5.6950 C   0  0  0  0  0  0  0  0  0  0  0  0
    3.8787   -6.5301   -5.4947 N   0  0  0  0  0  0  0  0  0  0  0  0
   -1.7285   -5.1535    5.5757 N   0  0  0  0  0  0  0  0  0  0  0  0
    2.4878   -6.2263   -5.0083 C   0  0  0  0  0  0  0  0  0  0  0  0
   -2.1961   -4.7602    6.9513 C   0  0  0  0  0  0  0  0  0  0  0  0
    4.0694   -8.0241   -5.5808 C   0  0  0  0  0  0  0  0  0  0  0  0
   -2.7711   -6.0283    4.9373 C   0  0  0  0  0  0  0  0  0  0  0  0
  1  6  2  0  0  0  0
  2  3  2  0  0  0  0
  2  1  1  0  0  0  0
  3  4  1  0  0  0  0
  4 10  1  0  0  0  0
  4  5  2  0  0  0  0
  6  5  1  0  0  0  0
  7  1  1  0  0  0  0
  7 11  1  0  0  0  0
  8  7  2  0  0  0  0
  9 10  2  0  0  0  0
 10 12  1  0  0  0  0
 12 14  1  0  0  0  0
 13 11  1  0  0  0  0
 13 15  1  0  0  0  0
 14 16  1  0  0  0  0
 16 18  1  0  0  0  0
 17 15  1  0  0  0  0
 17 19  1  0  0  0  0
 18 20  1  0  0  0  0
 19 23  1  0  0  0  0
 20 22  1  0  0  0  0
 20 24  1  0  0  0  0
 21 19  1  0  0  0  0
M  END
>  <CHROM.1>
118.16026537,173.49759684,106.91424400,33.40240224,42.76039895,161.10002200
-83.83669936,69.03815922,-97.14901827,-156.27871273,2.14100811,-5.62659871
-0.30355455,-0.51779515,0.97662620,0.66640696

>  <Name>
lig.pdb

>  <RI>
3.30914e+07

>  <Rbt.Current_Directory>
/home/itssahil/PROJECTS/Mol_Feturizer/New_Systems/rnas/2l94

>  <Rbt.Executable>
rbdock ($Id: //depot/dev/client3/rdock/2013.1/src/exe/rbdock.cxx#4 $)

>  <Rbt.Library>
libRbt.so (2013.1, Build901 2013/11/27)

>  <Rbt.Parameter_File>
/export/apps/rDock/src/rDock_2013.1_src/data/scripts/dock_solv.prm

>  <Rbt.Receptor>
prm/blind_docking_80.prm

>  <SCORE>
2.65279

>  <SCORE.INTER>
-4.93126

>  <SCORE.INTER.CONST>
1

>  <SCORE.INTER.POLAR>
-1.01553

>  <SCORE.INTER.ROT>
10

>  <SCORE.INTER.SOLV>
13.7115

>  <SCORE.INTER.VDW>
-14.7396

>  <SCORE.INTER.norm>
-0.205469

>  <SCORE.INTRA>
7.52899

>  <SCORE.INTRA.DIHEDRAL>
15.5189

>  <SCORE.INTRA.DIHEDRAL.0>
7.52971

>  <SCORE.INTRA.POLAR>
0

>  <SCORE.INTRA.POLAR.0>
0

>  <SCORE.INTRA.REPUL>
0

>  <SCORE.INTRA.REPUL.0>
0

>  <SCORE.INTRA.SOLV>
1.34928

>  <SCORE.INTRA.SOLV.lig_0>
-22.1084

>  <SCORE.INTRA.VDW>
-0.905089

>  <SCORE.INTRA.VDW.0>
2.4256

>  <SCORE.INTRA.norm>
0.313708

>  <SCORE.RESTR>
0.0550677

>  <SCORE.RESTR.CAVITY>
0.0550677

>  <SCORE.RESTR.norm>
0.00229449

>  <SCORE.SYSTEM>
0

>  <SCORE.SYSTEM.CONST>
0

>  <SCORE.SYSTEM.DIHEDRAL>
0

>  <SCORE.SYSTEM.SOLV>
0

>  <SCORE.SYSTEM.norm>
0

>  <SCORE.heavy>
24

>  <SCORE.norm>
0.110533

>  <RMSD>
8.510

$$$$
lig.pdb
 OpenBabel11021811453D
libRbt.so/2013.1/901 2013/11/27
 24 24  0  0  0  0  0  0  0  0999 V2000
    2.2586   -5.9581    0.9208 C   0  0  0  0  0  0  0  0  0  0  0  0
    1.8006   -4.9249    1.8061 C   0  0  0  0  0  0  0  0  0  0  0  0
    0.9704   -5.1971    2.8676 C   0  0  0  0  0  0  0  0  0  0  0  0
    0.5256   -6.5274    3.1536 C   0  0  0  0  0  0  0  0  0  0  0  0
    0.9564   -7.5530    2.2490 C   0  0  0  0  0  0  0  0  0  0  0  0
    1.7787   -7.2812    1.1842 C   0  0  0  0  0  0  0  0  0  0  0  0
    3.1086   -5.7036   -0.1172 C   0  0  0  0  0  0  0  0  0  0  0  0
    4.4481   -5.6305    0.0361 N   0  0  0  0  0  0  0  0  0  0  0  0
    0.0791   -7.6866    5.1944 N   0  0  0  0  0  0  0  0  0  0  0  0
   -0.2682   -6.8142    4.2247 C   0  0  0  0  0  0  0  0  0  0  0  0
    2.6695   -5.5086   -1.3853 N   0  0  0  0  0  0  0  0  0  0  0  0
   -1.4829   -6.2435    4.4052 N   0  0  0  0  0  0  0  0  0  0  0  0
    3.3387   -5.9272   -2.6154 C   0  0  0  0  0  0  0  0  0  0  0  0
   -2.1989   -6.1244    5.6716 C   0  0  0  0  0  0  0  0  0  0  0  0
    3.5134   -4.6870   -3.5067 C   0  0  0  0  0  0  0  0  0  0  0  0
   -2.3114   -4.6268    6.0125 C   0  0  0  0  0  0  0  0  0  0  0  0
    4.4519   -3.6661   -2.8487 C   0  0  0  0  0  0  0  0  0  0  0  0
   -1.0185   -4.0585    6.6252 C   0  0  0  0  0  0  0  0  0  0  0  0
    5.8769   -4.1367   -2.9896 N   0  0  0  0  0  0  0  0  0  0  0  0
   -1.2985   -2.8566    7.4916 N   0  0  0  0  0  0  0  0  0  0  0  0
    6.7593   -3.3987   -2.0201 C   0  0  0  0  0  0  0  0  0  0  0  0
   -0.0036   -2.3781    8.0915 C   0  0  0  0  0  0  0  0  0  0  0  0
    6.3783   -3.9201   -4.3959 C   0  0  0  0  0  0  0  0  0  0  0  0
   -2.2645   -3.1682    8.6004 C   0  0  0  0  0  0  0  0  0  0  0  0
  1  6  2  0  0  0  0
  2  3  2  0  0  0  0
  2  1  1  0  0  0  0
  3  4  1  0  0  0  0
  4 10  1  0  0  0  0
  4  5  2  0  0  0  0
  6  5  1  0  0  0  0
  7  1  1  0  0  0  0
  7 11  1  0  0  0  0
  8  7  2  0  0  0  0
  9 10  2  0  0  0  0
 10 12  1  0  0  0  0
 12 14  1  0  0  0  0
 13 11  1  0  0  0  0
 13 15  1  0  0  0  0
 14 16  1  0  0  0  0
 16 18  1  0  0  0  0
 17 15  1  0  0  0  0
 17 19  1  0  0  0  0
 18 20  1  0  0  0  0
 19 23  1  0  0  0  0
 20 22  1  0  0  0  0
 20 24  1  0  0  0  0
 21 19  1  0  0  0  0
M  END
>  <CHROM.1>
-121.65345027,83.44906693,114.90995273,-124.94586365,64.54224124,-79.83386619
-154.45416470,76.32698307,-163.00342797,178.25527255,1.61166921,-5.11562474
2.03739233,0.52920703,-0.86870900,-2.49189719

>  <Name>
lig.pdb

>  <RI>
2.41306e+07

>  <Rbt.Current_Directory>
/home/itssahil/PROJECTS/Mol_Feturizer/New_Systems/rnas/2l94

>  <Rbt.Executable>
rbdock ($Id: //depot/dev/client3/rdock/2013.1/src/exe/rbdock.cxx#4 $)

>  <Rbt.Library>
libRbt.so (2013.1, Build901 2013/11/27)

>  <Rbt.Parameter_File>
/export/apps/rDock/src/rDock_2013.1_src/data/scripts/dock_solv.prm

>  <Rbt.Receptor>
prm/blind_docking_40.prm

>  <SCORE>
-1.4764

>  <SCORE.INTER>
-10.922

>  <SCORE.INTER.CONST>
1

>  <SCORE.INTER.POLAR>
-2.3071

>  <SCORE.INTER.ROT>
10

>  <SCORE.INTER.SOLV>
15.6081

>  <SCORE.INTER.VDW>
-15.0604

>  <SCORE.INTER.norm>
-0.455083

>  <SCORE.INTRA>
9.04089

>  <SCORE.INTRA.DIHEDRAL>
24.339

>  <SCORE.INTRA.DIHEDRAL.0>
7.52971

>  <SCORE.INTRA.POLAR>
0

>  <SCORE.INTRA.POLAR.0>
0

>  <SCORE.INTRA.REPUL>
0

>  <SCORE.INTRA.REPUL.0>
0

>  <SCORE.INTRA.SOLV>
0.978798

>  <SCORE.INTRA.SOLV.lig_0>
-22.1084

>  <SCORE.INTRA.VDW>
-3.61799

>  <SCORE.INTRA.VDW.0>
2.4256

>  <SCORE.INTRA.norm>
0.376704

>  <SCORE.RESTR>
0.404716

>  <SCORE.RESTR.CAVITY>
0.404716

>  <SCORE.RESTR.norm>
0.0168632

>  <SCORE.SYSTEM>
0

>  <SCORE.SYSTEM.CONST>
0

>  <SCORE.SYSTEM.DIHEDRAL>
0

>  <SCORE.SYSTEM.SOLV>
0

>  <SCORE.SYSTEM.norm>
0

>  <SCORE.heavy>
24

>  <SCORE.norm>
-0.0615165

>  <RMSD>
8.536

$$$$
lig.pdb
 OpenBabel11021811453D
libRbt.so/2013.1/901 2013/11/27
 24 24  0  0  0  0  0  0  0  0999 V2000
    2.3306   -5.4597   -1.1028 C   0  0  0  0  0  0  0  0  0  0  0  0
    2.9560   -5.0545    0.1243 C   0  0  0  0  0  0  0  0  0  0  0  0
    2.3994   -5.3400    1.3486 C   0  0  0  0  0  0  0  0  0  0  0  0
    1.1711   -6.0657    1.4664 C   0  0  0  0  0  0  0  0  0  0  0  0
    0.5306   -6.4402    0.2395 C   0  0  0  0  0  0  0  0  0  0  0  0
    1.0811   -6.1487   -0.9835 C   0  0  0  0  0  0  0  0  0  0  0  0
    2.8908   -5.2092   -2.3227 C   0  0  0  0  0  0  0  0  0  0  0  0
    2.1726   -5.1858   -3.4658 N   0  0  0  0  0  0  0  0  0  0  0  0
   -0.5222   -7.0775    2.8145 N   0  0  0  0  0  0  0  0  0  0  0  0
    0.6288   -6.3860    2.6759 C   0  0  0  0  0  0  0  0  0  0  0  0
    4.2149   -4.9603   -2.4774 N   0  0  0  0  0  0  0  0  0  0  0  0
    1.2045   -6.0321    3.8495 N   0  0  0  0  0  0  0  0  0  0  0  0
    4.8244   -4.0383   -3.4338 C   0  0  0  0  0  0  0  0  0  0  0  0
    0.9818   -6.6680    5.1443 C   0  0  0  0  0  0  0  0  0  0  0  0
    5.8571   -4.8236   -4.2584 C   0  0  0  0  0  0  0  0  0  0  0  0
    0.2295   -5.6662    6.0401 C   0  0  0  0  0  0  0  0  0  0  0  0
    5.1700   -5.6535   -5.3517 C   0  0  0  0  0  0  0  0  0  0  0  0
   -1.2917   -5.6850    5.8045 C   0  0  0  0  0  0  0  0  0  0  0  0
    4.6064   -6.9113   -4.7417 N   0  0  0  0  0  0  0  0  0  0  0  0
   -1.9028   -4.3244    6.0258 N   0  0  0  0  0  0  0  0  0  0  0  0
    5.6509   -7.9941   -4.7411 C   0  0  0  0  0  0  0  0  0  0  0  0
   -2.1575   -4.1399    7.4977 C   0  0  0  0  0  0  0  0  0  0  0  0
    3.3915   -7.3807   -5.5031 C   0  0  0  0  0  0  0  0  0  0  0  0
   -3.1978   -4.1554    5.2814 C   0  0  0  0  0  0  0  0  0  0  0  0
  1  6  2  0  0  0  0
  2  3  2  0  0  0  0
  2  1  1  0  0  0  0
  3  4  1  0  0  0  0
  4 10  1  0  0  0  0
  4  5  2  0  0  0  0
  6  5  1  0  0  0  0
  7  1  1  0  0  0  0
  7 11  1  0  0  0  0
  8  7  2  0  0  0  0
  9 10  2  0  0  0  0
 10 12  1  0  0  0  0
 12 14  1  0  0  0  0
 13 11  1  0  0  0  0
 13 15  1  0  0  0  0
 14 16  1  0  0  0  0
 16 18  1  0  0  0  0
 17 15  1  0  0  0  0
 17 19  1  0  0  0  0
 18 20  1  0  0  0  0
 19 23  1  0  0  0  0
 20 22  1  0  0  0  0
 20 24  1  0  0  0  0
 21 19  1  0  0  0  0
M  END
>  <CHROM.1>
-179.49325159,-158.49790487,-111.78284324,-125.11929877,78.82922698,83.58397635
-148.10744803,-79.53379054,-87.76927255,-83.32360080,1.78392222,-5.70150562
0.42043894,0.96561252,-0.51717216,-1.97891032

>  <Name>
lig.pdb

>  <RI>
3.30914e+07

>  <Rbt.Current_Directory>
/home/itssahil/PROJECTS/Mol_Feturizer/New_Systems/rnas/2l94

>  <Rbt.Executable>
rbdock ($Id: //depot/dev/client3/rdock/2013.1/src/exe/rbdock.cxx#4 $)

>  <Rbt.Library>
libRbt.so (2013.1, Build901 2013/11/27)

>  <Rbt.Parameter_File>
/export/apps/rDock/src/rDock_2013.1_src/data/scripts/dock_solv.prm

>  <Rbt.Receptor>
prm/blind_docking_80.prm

>  <SCORE>
-2.18187

>  <SCORE.INTER>
-4.48806

>  <SCORE.INTER.CONST>
1

>  <SCORE.INTER.POLAR>
-0.824621

>  <SCORE.INTER.ROT>
10

>  <SCORE.INTER.SOLV>
16.526

>  <SCORE.INTER.VDW>
-16.0187

>  <SCORE.INTER.norm>
-0.187002

>  <SCORE.INTRA>
2.23119

>  <SCORE.INTRA.DIHEDRAL>
9.35232

>  <SCORE.INTRA.DIHEDRAL.0>
7.52971

>  <SCORE.INTRA.POLAR>
0

>  <SCORE.INTRA.POLAR.0>
0

>  <SCORE.INTRA.REPUL>
0

>  <SCORE.INTRA.REPUL.0>
0

>  <SCORE.INTRA.SOLV>
2.36204

>  <SCORE.INTRA.SOLV.lig_0>
-22.1084

>  <SCORE.INTRA.VDW>
-3.62599

>  <SCORE.INTRA.VDW.0>
2.4256

>  <SCORE.INTRA.norm>
0.0929661

>  <SCORE.RESTR>
0.0749972

>  <SCORE.RESTR.CAVITY>
0.0749972

>  <SCORE.RESTR.norm>
0.00312489

>  <SCORE.SYSTEM>
0

>  <SCORE.SYSTEM.CONST>
0

>  <SCORE.SYSTEM.DIHEDRAL>
0

>  <SCORE.SYSTEM.SOLV>
0

>  <SCORE.SYSTEM.norm>
0

>  <SCORE.heavy>
24

>  <SCORE.norm>
-0.0909114

>  <RMSD>
8.544

$$$$
lig.pdb
 OpenBabel11021811453D
libRbt.so/2013.1/901 2013/11/27
 24 24  0  0  0  0  0  0  0  0999 V2000
    0.3057   -6.9301    1.8291 C   0  0  0  0  0  0  0  0  0  0  0  0
   -0.6010   -7.1794    0.7443 C   0  0  0  0  0  0  0  0  0  0  0  0
   -0.2069   -7.0685   -0.5681 C   0  0  0  0  0  0  0  0  0  0  0  0
    1.1320   -6.7081   -0.9242 C   0  0  0  0  0  0  0  0  0  0  0  0
    2.0272   -6.4266    0.1599 C   0  0  0  0  0  0  0  0  0  0  0  0
    1.6327   -6.5291    1.4704 C   0  0  0  0  0  0  0  0  0  0  0  0
   -0.0666   -7.0683    3.1356 C   0  0  0  0  0  0  0  0  0  0  0  0
    0.6733   -7.7467    4.0386 N   0  0  0  0  0  0  0  0  0  0  0  0
    0.9130   -7.2539   -3.2398 N   0  0  0  0  0  0  0  0  0  0  0  0
    1.5435   -6.6306   -2.2220 C   0  0  0  0  0  0  0  0  0  0  0  0
   -1.2098   -6.5290    3.6267 N   0  0  0  0  0  0  0  0  0  0  0  0
    2.6301   -5.9165   -2.6007 N   0  0  0  0  0  0  0  0  0  0  0  0
   -1.4072   -5.9663    4.9611 C   0  0  0  0  0  0  0  0  0  0  0  0
    2.9009   -5.4062   -3.9411 C   0  0  0  0  0  0  0  0  0  0  0  0
   -0.3398   -4.8823    5.1820 C   0  0  0  0  0  0  0  0  0  0  0  0
    4.2680   -5.9557   -4.3893 C   0  0  0  0  0  0  0  0  0  0  0  0
   -0.5312   -4.1922    6.5397 C   0  0  0  0  0  0  0  0  0  0  0  0
    5.4386   -5.3661   -3.5818 C   0  0  0  0  0  0  0  0  0  0  0  0
   -1.5044   -3.0517    6.3856 N   0  0  0  0  0  0  0  0  0  0  0  0
    5.4019   -3.8588   -3.5741 N   0  0  0  0  0  0  0  0  0  0  0  0
   -1.4904   -2.1945    7.6220 C   0  0  0  0  0  0  0  0  0  0  0  0
    6.7964   -3.3400   -3.3469 C   0  0  0  0  0  0  0  0  0  0  0  0
   -2.9017   -3.5660    6.1424 C   0  0  0  0  0  0  0  0  0  0  0  0
    4.4990   -3.3180   -2.5006 C   0  0  0  0  0  0  0  0  0  0  0  0
  1  6  2  0  0  0  0
  2  3  2  0  0  0  0
  2  1  1  0  0  0  0
  3  4  1  0  0  0  0
  4 10  1  0  0  0  0
  4  5  2  0  0  0  0
  6  5  1  0  0  0  0
  7  1  1  0  0  0  0
  7 11  1  0  0  0  0
  8  7  2  0  0  0  0
  9 10  2  0  0  0  0
 10 12  1  0  0  0  0
 12 14  1  0  0  0  0
 13 11  1  0  0  0  0
 13 15  1  0  0  0  0
 14 16  1  0  0  0  0
 16 18  1  0  0  0  0
 17 15  1  0  0  0  0
 17 19  1  0  0  0  0
 18 20  1  0  0  0  0
 19 23  1  0  0  0  0
 20 22  1  0  0  0  0
 20 24  1  0  0  0  0
 21 19  1  0  0  0  0
M  END
>  <CHROM.1>
-21.05941852,131.95665855,-123.51501499,54.99177360,177.00274343,-68.26111665
-52.58780120,-86.90694433,-168.41183329,-154.89353506,1.26593498,-5.48448429
0.89139719,2.37248221,0.78199135,0.87574535

>  <Name>
lig.pdb

>  <RI>
2.41306e+07

>  <Rbt.Current_Directory>
/home/itssahil/PROJECTS/Mol_Feturizer/New_Systems/rnas/2l94

>  <Rbt.Executable>
rbdock ($Id: //depot/dev/client3/rdock/2013.1/src/exe/rbdock.cxx#4 $)

>  <Rbt.Library>
libRbt.so (2013.1, Build901 2013/11/27)

>  <Rbt.Parameter_File>
/export/apps/rDock/src/rDock_2013.1_src/data/scripts/dock_solv.prm

>  <Rbt.Receptor>
prm/blind_docking_40.prm

>  <SCORE>
10.1548

>  <SCORE.INTER>
2.66919

>  <SCORE.INTER.CONST>
1

>  <SCORE.INTER.POLAR>
-0.334745

>  <SCORE.INTER.ROT>
10

>  <SCORE.INTER.SOLV>
13.0417

>  <SCORE.INTER.VDW>
-11.7186

>  <SCORE.INTER.norm>
0.111216

>  <SCORE.INTRA>
5.34428

>  <SCORE.INTRA.DIHEDRAL>
10.3477

>  <SCORE.INTRA.DIHEDRAL.0>
7.52971

>  <SCORE.INTRA.POLAR>
0

>  <SCORE.INTRA.POLAR.0>
0

>  <SCORE.INTRA.REPUL>
0

>  <SCORE.INTRA.REPUL.0>
0

>  <SCORE.INTRA.SOLV>
0.757122

>  <SCORE.INTRA.SOLV.lig_0>
-22.1084

>  <SCORE.INTRA.VDW>
-0.208147

>  <SCORE.INTRA.VDW.0>
2.4256

>  <SCORE.INTRA.norm>
0.222678

>  <SCORE.RESTR>
2.14134

>  <SCORE.RESTR.CAVITY>
2.14134

>  <SCORE.RESTR.norm>
0.0892223

>  <SCORE.SYSTEM>
0

>  <SCORE.SYSTEM.CONST>
0

>  <SCORE.SYSTEM.DIHEDRAL>
0

>  <SCORE.SYSTEM.SOLV>
0

>  <SCORE.SYSTEM.norm>
0

>  <SCORE.heavy>
24

>  <SCORE.norm>
0.423117

>  <RMSD>
8.580

$$$$
lig.pdb
 OpenBabel11021811453D
libRbt.so/2013.1/901 2013/11/27
 24 24  0  0  0  0  0  0  0  0999 V2000
    3.1740   -4.9844   -1.6914 C   0  0  0  0  0  0  0  0  0  0  0  0
    1.9661   -4.5013   -1.0843 C   0  0  0  0  0  0  0  0  0  0  0  0
    1.2344   -5.2743   -0.2142 C   0  0  0  0  0  0  0  0  0  0  0  0
    1.6428   -6.5995    0.1414 C   0  0  0  0  0  0  0  0  0  0  0  0
    2.8309   -7.0929   -0.4916 C   0  0  0  0  0  0  0  0  0  0  0  0
    3.5578   -6.3251   -1.3667 C   0  0  0  0  0  0  0  0  0  0  0  0
    3.9252   -4.2136   -2.5319 C   0  0  0  0  0  0  0  0  0  0  0  0
    5.2725   -4.2866   -2.5823 N   0  0  0  0  0  0  0  0  0  0  0  0
    1.1499   -8.6852    1.1973 N   0  0  0  0  0  0  0  0  0  0  0  0
    0.9446   -7.3615    1.0311 C   0  0  0  0  0  0  0  0  0  0  0  0
    3.3716   -3.3166   -3.3851 N   0  0  0  0  0  0  0  0  0  0  0  0
   -0.0229   -6.8488    1.8280 N   0  0  0  0  0  0  0  0  0  0  0  0
    3.8421   -2.9833   -4.7282 C   0  0  0  0  0  0  0  0  0  0  0  0
   -0.5062   -7.4283    3.0775 C   0  0  0  0  0  0  0  0  0  0  0  0
    3.6399   -4.2174   -5.6221 C   0  0  0  0  0  0  0  0  0  0  0  0
    0.4590   -7.0042    4.2001 C   0  0  0  0  0  0  0  0  0  0  0  0
    4.6640   -5.3109   -5.2880 C   0  0  0  0  0  0  0  0  0  0  0  0
   -0.2454   -6.2260    5.3262 C   0  0  0  0  0  0  0  0  0  0  0  0
    4.0632   -6.6619   -5.5807 N   0  0  0  0  0  0  0  0  0  0  0  0
   -0.7266   -4.8785    4.8507 N   0  0  0  0  0  0  0  0  0  0  0  0
    2.9878   -6.9739   -4.5759 C   0  0  0  0  0  0  0  0  0  0  0  0
    0.3928   -3.8831    4.9982 C   0  0  0  0  0  0  0  0  0  0  0  0
    5.1185   -7.7393   -5.5433 C   0  0  0  0  0  0  0  0  0  0  0  0
   -1.9172   -4.3930    5.6296 C   0  0  0  0  0  0  0  0  0  0  0  0
  1  6  2  0  0  0  0
  2  3  2  0  0  0  0
  2  1  1  0  0  0  0
  3  4  1  0  0  0  0
  4 10  1  0  0  0  0
  4  5  2  0  0  0  0
  6  5  1  0  0  0  0
  7  1  1  0  0  0  0
  7 11  1  0  0  0  0
  8  7  2  0  0  0  0
  9 10  2  0  0  0  0
 10 12  1  0  0  0  0
 12 14  1  0  0  0  0
 13 11  1  0  0  0  0
 13 15  1  0  0  0  0
 14 16  1  0  0  0  0
 16 18  1  0  0  0  0
 17 15  1  0  0  0  0
 17 19  1  0  0  0  0
 18 20  1  0  0  0  0
 19 23  1  0  0  0  0
 20 22  1  0  0  0  0
 20 24  1  0  0  0  0
 21 19  1  0  0  0  0
M  END
>  <CHROM.1>
167.03262528,145.31293522,82.84241335,67.15302726,-73.10363430,121.48101236
-67.71976265,150.45570423,-70.48068809,-86.56558807,2.10664285,-5.71891540
-0.50823501,-0.08037902,1.09902210,0.14893094

>  <Name>
lig.pdb

>  <RI>
3.30914e+07

>  <Rbt.Current_Directory>
/home/itssahil/PROJECTS/Mol_Feturizer/New_Systems/rnas/2l94

>  <Rbt.Executable>
rbdock ($Id: //depot/dev/client3/rdock/2013.1/src/exe/rbdock.cxx#4 $)

>  <Rbt.Library>
libRbt.so (2013.1, Build901 2013/11/27)

>  <Rbt.Parameter_File>
/export/apps/rDock/src/rDock_2013.1_src/data/scripts/dock_solv.prm

>  <Rbt.Receptor>
prm/blind_docking_80.prm

>  <SCORE>
-4.80736

>  <SCORE.INTER>
-8.85008

>  <SCORE.INTER.CONST>
1

>  <SCORE.INTER.POLAR>
-2.10423

>  <SCORE.INTER.ROT>
10

>  <SCORE.INTER.SOLV>
13.2672

>  <SCORE.INTER.VDW>
-13.575

>  <SCORE.INTER.norm>
-0.368754

>  <SCORE.INTRA>
3.67805

>  <SCORE.INTRA.DIHEDRAL>
12.9891

>  <SCORE.INTRA.DIHEDRAL.0>
7.52971

>  <SCORE.INTRA.POLAR>
0

>  <SCORE.INTRA.POLAR.0>
0

>  <SCORE.INTRA.REPUL>
0

>  <SCORE.INTRA.REPUL.0>
0

>  <SCORE.INTRA.SOLV>
1.52351

>  <SCORE.INTRA.SOLV.lig_0>
-22.1084

>  <SCORE.INTRA.VDW>
-3.57828

>  <SCORE.INTRA.VDW.0>
2.4256

>  <SCORE.INTRA.norm>
0.153252

>  <SCORE.RESTR>
0.36467

>  <SCORE.RESTR.CAVITY>
0.36467

>  <SCORE.RESTR.norm>
0.0151946

>  <SCORE.SYSTEM>
0

>  <SCORE.SYSTEM.CONST>
0

>  <SCORE.SYSTEM.DIHEDRAL>
0

>  <SCORE.SYSTEM.SOLV>
0

>  <SCORE.SYSTEM.norm>
0

>  <SCORE.heavy>
24

>  <SCORE.norm>
-0.200307

>  <RMSD>
8.582

$$$$
lig.pdb
 OpenBabel11021811453D
libRbt.so/2013.1/901 2013/11/27
 24 24  0  0  0  0  0  0  0  0999 V2000
    3.3050   -4.4000   -1.7623 C   0  0  0  0  0  0  0  0  0  0  0  0
    3.6628   -4.1415   -0.3962 C   0  0  0  0  0  0  0  0  0  0  0  0
    2.8840   -4.5756    0.6503 C   0  0  0  0  0  0  0  0  0  0  0  0
    1.6789   -5.3177    0.4346 C   0  0  0  0  0  0  0  0  0  0  0  0
    1.3053   -5.5459   -0.9307 C   0  0  0  0  0  0  0  0  0  0  0  0
    2.0778   -5.1059   -1.9764 C   0  0  0  0  0  0  0  0  0  0  0  0
    4.0876   -4.0011   -2.8078 C   0  0  0  0  0  0  0  0  0  0  0  0
    5.3916   -3.6817   -2.6646 N   0  0  0  0  0  0  0  0  0  0  0  0
   -0.0221   -6.7423    1.3208 N   0  0  0  0  0  0  0  0  0  0  0  0
    0.9180   -5.7845    1.4655 C   0  0  0  0  0  0  0  0  0  0  0  0
    3.6126   -3.8995   -4.0740 N   0  0  0  0  0  0  0  0  0  0  0  0
    1.0425   -5.3204    2.7316 N   0  0  0  0  0  0  0  0  0  0  0  0
    4.3402   -4.1970   -5.3062 C   0  0  0  0  0  0  0  0  0  0  0  0
    0.6318   -6.0151    3.9478 C   0  0  0  0  0  0  0  0  0  0  0  0
    3.5066   -5.2004   -6.1195 C   0  0  0  0  0  0  0  0  0  0  0  0
    0.0394   -4.9707    4.9122 C   0  0  0  0  0  0  0  0  0  0  0  0
    2.8322   -6.2270   -5.1990 C   0  0  0  0  0  0  0  0  0  0  0  0
   -0.1410   -5.5162    6.3404 C   0  0  0  0  0  0  0  0  0  0  0  0
    3.8904   -7.0645   -4.5277 N   0  0  0  0  0  0  0  0  0  0  0  0
   -1.1549   -6.6315    6.3829 N   0  0  0  0  0  0  0  0  0  0  0  0
    4.5768   -7.9357   -5.5442 C   0  0  0  0  0  0  0  0  0  0  0  0
   -2.5358   -6.0326    6.3874 C   0  0  0  0  0  0  0  0  0  0  0  0
    3.2878   -7.9273   -3.4466 C   0  0  0  0  0  0  0  0  0  0  0  0
   -0.9949   -7.4986    7.6004 C   0  0  0  0  0  0  0  0  0  0  0  0
  1  6  2  0  0  0  0
  2  3  2  0  0  0  0
  2  1  1  0  0  0  0
  3  4  1  0  0  0  0
  4 10  1  0  0  0  0
  4  5  2  0  0  0  0
  6  5  1  0  0  0  0
  7  1  1  0  0  0  0
  7 11  1  0  0  0  0
  8  7  2  0  0  0  0
  9 10  2  0  0  0  0
 10 12  1  0  0  0  0
 12 14  1  0  0  0  0
 13 11  1  0  0  0  0
 13 15  1  0  0  0  0
 14 16  1  0  0  0  0
 16 18  1  0  0  0  0
 17 15  1  0  0  0  0
 17 19  1  0  0  0  0
 18 20  1  0  0  0  0
 19 23  1  0  0  0  0
 20 22  1  0  0  0  0
 20 24  1  0  0  0  0
 21 19  1  0  0  0  0
M  END
>  <CHROM.1>
-163.36500893,18.91996109,-141.49904412,126.19508275,-38.13323722,-167.19457246
-64.69021801,-65.05910349,-68.08937525,-80.24759201,1.98859057,-5.61420264
-0.07637484,-0.73225415,0.97960817,0.88989386

>  <Name>
lig.pdb

>  <RI>
3.30914e+07

>  <Rbt.Current_Directory>
/home/itssahil/PROJECTS/Mol_Feturizer/New_Systems/rnas/2l94

>  <Rbt.Executable>
rbdock ($Id: //depot/dev/client3/rdock/2013.1/src/exe/rbdock.cxx#4 $)

>  <Rbt.Library>
libRbt.so (2013.1, Build901 2013/11/27)

>  <Rbt.Parameter_File>
/export/apps/rDock/src/rDock_2013.1_src/data/scripts/dock_solv.prm

>  <Rbt.Receptor>
prm/blind_docking_80.prm

>  <SCORE>
0.652678

>  <SCORE.INTER>
-0.0401605

>  <SCORE.INTER.CONST>
1

>  <SCORE.INTER.POLAR>
-0.663325

>  <SCORE.INTER.ROT>
10

>  <SCORE.INTER.SOLV>
9.95111

>  <SCORE.INTER.VDW>
-11.3994

>  <SCORE.INTER.norm>
-0.00167336

>  <SCORE.INTRA>
0.475613

>  <SCORE.INTRA.DIHEDRAL>
3.25319

>  <SCORE.INTRA.DIHEDRAL.0>
7.52971

>  <SCORE.INTRA.POLAR>
0

>  <SCORE.INTRA.POLAR.0>
0

>  <SCORE.INTRA.REPUL>
0

>  <SCORE.INTRA.REPUL.0>
0

>  <SCORE.INTRA.SOLV>
1.08592

>  <SCORE.INTRA.SOLV.lig_0>
-22.1084

>  <SCORE.INTRA.VDW>
-1.69394

>  <SCORE.INTRA.VDW.0>
2.4256

>  <SCORE.INTRA.norm>
0.0198172

>  <SCORE.RESTR>
0.217225

>  <SCORE.RESTR.CAVITY>
0.217225

>  <SCORE.RESTR.norm>
0.00905105

>  <SCORE.SYSTEM>
0

>  <SCORE.SYSTEM.CONST>
0

>  <SCORE.SYSTEM.DIHEDRAL>
0

>  <SCORE.SYSTEM.SOLV>
0

>  <SCORE.SYSTEM.norm>
0

>  <SCORE.heavy>
24

>  <SCORE.norm>
0.0271949

>  <RMSD>
8.606

$$$$
lig.pdb
 OpenBabel11021811453D
libRbt.so/2013.1/901 2013/11/27
 24 24  0  0  0  0  0  0  0  0999 V2000
    1.0609   -6.3806   -1.1356 C   0  0  0  0  0  0  0  0  0  0  0  0
   -0.2549   -6.9032   -0.8977 C   0  0  0  0  0  0  0  0  0  0  0  0
   -0.6801   -7.2456    0.3640 C   0  0  0  0  0  0  0  0  0  0  0  0
    0.1628   -7.0901    1.5106 C   0  0  0  0  0  0  0  0  0  0  0  0
    1.4880   -6.5998    1.2670 C   0  0  0  0  0  0  0  0  0  0  0  0
    1.9164   -6.2653    0.0067 C   0  0  0  0  0  0  0  0  0  0  0  0
    1.4822   -6.0076   -2.3799 C   0  0  0  0  0  0  0  0  0  0  0  0
    0.6286   -5.6624   -3.3675 N   0  0  0  0  0  0  0  0  0  0  0  0
   -1.4175   -8.0378    3.0313 N   0  0  0  0  0  0  0  0  0  0  0  0
   -0.2610   -7.3922    2.7711 C   0  0  0  0  0  0  0  0  0  0  0  0
    2.7946   -5.9518   -2.7167 N   0  0  0  0  0  0  0  0  0  0  0  0
    0.4492   -7.0650    3.8768 N   0  0  0  0  0  0  0  0  0  0  0  0
    3.4267   -4.9829   -3.6099 C   0  0  0  0  0  0  0  0  0  0  0  0
    0.3392   -7.6954    5.1887 C   0  0  0  0  0  0  0  0  0  0  0  0
    4.2714   -4.0269   -2.7523 C   0  0  0  0  0  0  0  0  0  0  0  0
   -0.2131   -6.6471    6.1724 C   0  0  0  0  0  0  0  0  0  0  0  0
    5.7587   -4.4009   -2.8165 C   0  0  0  0  0  0  0  0  0  0  0  0
   -1.7112   -6.3638    5.9591 C   0  0  0  0  0  0  0  0  0  0  0  0
    6.5416   -3.4860   -1.9100 N   0  0  0  0  0  0  0  0  0  0  0  0
   -2.0341   -4.9060    6.1689 N   0  0  0  0  0  0  0  0  0  0  0  0
    7.9995   -3.5218   -2.2798 C   0  0  0  0  0  0  0  0  0  0  0  0
   -1.4259   -4.1075    5.0473 C   0  0  0  0  0  0  0  0  0  0  0  0
    6.3760   -3.8892   -0.4657 C   0  0  0  0  0  0  0  0  0  0  0  0
   -1.5056   -4.3898    7.4781 C   0  0  0  0  0  0  0  0  0  0  0  0
  1  6  2  0  0  0  0
  2  3  2  0  0  0  0
  2  1  1  0  0  0  0
  3  4  1  0  0  0  0
  4 10  1  0  0  0  0
  4  5  2  0  0  0  0
  6  5  1  0  0  0  0
  7  1  1  0  0  0  0
  7 11  1  0  0  0  0
  8  7  2  0  0  0  0
  9 10  2  0  0  0  0
 10 12  1  0  0  0  0
 12 14  1  0  0  0  0
 13 11  1  0  0  0  0
 13 15  1  0  0  0  0
 14 16  1  0  0  0  0
 16 18  1  0  0  0  0
 17 15  1  0  0  0  0
 17 19  1  0  0  0  0
 18 20  1  0  0  0  0
 19 23  1  0  0  0  0
 20 22  1  0  0  0  0
 20 24  1  0  0  0  0
 21 19  1  0  0  0  0
M  END
>  <CHROM.1>
10.00308791,23.22598006,-114.34236926,107.88481377,101.20715106,73.51115608
-142.64682642,-177.15396652,-161.69417013,69.32815161,1.49223094,-5.74162897
1.05691713,0.82454674,-0.48960153,-1.78029255

>  <Name>
lig.pdb

>  <RI>
3.93418e+07

>  <Rbt.Current_Directory>
/home/itssahil/PROJECTS/Mol_Feturizer/New_Systems/rnas/2l94

>  <Rbt.Executable>
rbdock ($Id: //depot/dev/client3/rdock/2013.1/src/exe/rbdock.cxx#4 $)

>  <Rbt.Library>
libRbt.so (2013.1, Build901 2013/11/27)

>  <Rbt.Parameter_File>
/export/apps/rDock/src/rDock_2013.1_src/data/scripts/dock_solv.prm

>  <Rbt.Receptor>
prm/blind_docking_20.prm

>  <SCORE>
4.81773

>  <SCORE.INTER>
0.211239

>  <SCORE.INTER.CONST>
1

>  <SCORE.INTER.POLAR>
-0.420077

>  <SCORE.INTER.ROT>
10

>  <SCORE.INTER.SOLV>
13.923

>  <SCORE.INTER.VDW>
-13.3666

>  <SCORE.INTER.norm>
0.00880162

>  <SCORE.INTRA>
4.30465

>  <SCORE.INTRA.DIHEDRAL>
9.32372

>  <SCORE.INTRA.DIHEDRAL.0>
7.52971

>  <SCORE.INTRA.POLAR>
0

>  <SCORE.INTRA.POLAR.0>
0

>  <SCORE.INTRA.REPUL>
0

>  <SCORE.INTRA.REPUL.0>
0

>  <SCORE.INTRA.SOLV>
0.687624

>  <SCORE.INTRA.SOLV.lig_0>
-22.1084

>  <SCORE.INTRA.VDW>
-0.701022

>  <SCORE.INTRA.VDW.0>
2.4256

>  <SCORE.INTRA.norm>
0.179361

>  <SCORE.RESTR>
0.301835

>  <SCORE.RESTR.CAVITY>
0.301835

>  <SCORE.RESTR.norm>
0.0125764

>  <SCORE.SYSTEM>
0

>  <SCORE.SYSTEM.CONST>
0

>  <SCORE.SYSTEM.DIHEDRAL>
0

>  <SCORE.SYSTEM.SOLV>
0

>  <SCORE.SYSTEM.norm>
0

>  <SCORE.heavy>
24

>  <SCORE.norm>
0.200739

>  <RMSD>
8.624

$$$$
lig.pdb
 OpenBabel11021811453D
libRbt.so/2013.1/901 2013/11/27
 24 24  0  0  0  0  0  0  0  0999 V2000
    1.0314   -6.9940    1.5538 C   0  0  0  0  0  0  0  0  0  0  0  0
    1.4182   -5.6312    1.3205 C   0  0  0  0  0  0  0  0  0  0  0  0
    2.2283   -5.2793    0.2670 C   0  0  0  0  0  0  0  0  0  0  0  0
    2.7221   -6.2516   -0.6604 C   0  0  0  0  0  0  0  0  0  0  0  0
    2.3627   -7.6162   -0.4067 C   0  0  0  0  0  0  0  0  0  0  0  0
    1.5606   -7.9698    0.6494 C   0  0  0  0  0  0  0  0  0  0  0  0
    0.2015   -7.3501    2.5781 C   0  0  0  0  0  0  0  0  0  0  0  0
   -0.0579   -8.6367    2.8949 N   0  0  0  0  0  0  0  0  0  0  0  0
    3.8200   -6.7693   -2.7183 N   0  0  0  0  0  0  0  0  0  0  0  0
    3.4963   -5.9092   -1.7296 C   0  0  0  0  0  0  0  0  0  0  0  0
   -0.4233   -6.4346    3.3594 N   0  0  0  0  0  0  0  0  0  0  0  0
    4.0107   -4.6667   -1.8888 N   0  0  0  0  0  0  0  0  0  0  0  0
   -0.7039   -6.5523    4.7890 C   0  0  0  0  0  0  0  0  0  0  0  0
    4.4533   -4.0724   -3.1464 C   0  0  0  0  0  0  0  0  0  0  0  0
    0.5499   -6.1046    5.5575 C   0  0  0  0  0  0  0  0  0  0  0  0
    5.9884   -4.1792   -3.2057 C   0  0  0  0  0  0  0  0  0  0  0  0
    0.3291   -6.2038    7.0732 C   0  0  0  0  0  0  0  0  0  0  0  0
    6.6819   -3.4059   -2.0694 C   0  0  0  0  0  0  0  0  0  0  0  0
    0.3388   -7.6540    7.4840 N   0  0  0  0  0  0  0  0  0  0  0  0
    7.1744   -4.3344   -0.9883 N   0  0  0  0  0  0  0  0  0  0  0  0
   -0.1983   -7.7950    8.8822 C   0  0  0  0  0  0  0  0  0  0  0  0
    7.0133   -3.6557    0.3454 C   0  0  0  0  0  0  0  0  0  0  0  0
    1.7349   -8.2221    7.4186 C   0  0  0  0  0  0  0  0  0  0  0  0
    8.6185   -4.7079   -1.1747 C   0  0  0  0  0  0  0  0  0  0  0  0
  1  6  2  0  0  0  0
  2  3  2  0  0  0  0
  2  1  1  0  0  0  0
  3  4  1  0  0  0  0
  4 10  1  0  0  0  0
  4  5  2  0  0  0  0
  6  5  1  0  0  0  0
  7  1  1  0  0  0  0
  7 11  1  0  0  0  0
  8  7  2  0  0  0  0
  9 10  2  0  0  0  0
 10 12  1  0  0  0  0
 12 14  1  0  0  0  0
 13 11  1  0  0  0  0
 13 15  1  0  0  0  0
 14 16  1  0  0  0  0
 16 18  1  0  0  0  0
 17 15  1  0  0  0  0
 17 19  1  0  0  0  0
 18 20  1  0  0  0  0
 19 23  1  0  0  0  0
 20 22  1  0  0  0  0
 20 24  1  0  0  0  0
 21 19  1  0  0  0  0
M  END
>  <CHROM.1>
-170.45834203,-172.84140071,-100.37327318,84.29802600,-179.91535220,-61.91283958
103.41399591,73.06310858,-166.43021771,-144.18085910,2.71723182,-6.10092604
1.56071857,2.22411676,0.45148466,1.56994419

>  <Name>
lig.pdb

>  <RI>
3.93418e+07

>  <Rbt.Current_Directory>
/home/itssahil/PROJECTS/Mol_Feturizer/New_Systems/rnas/2l94

>  <Rbt.Executable>
rbdock ($Id: //depot/dev/client3/rdock/2013.1/src/exe/rbdock.cxx#4 $)

>  <Rbt.Library>
libRbt.so (2013.1, Build901 2013/11/27)

>  <Rbt.Parameter_File>
/export/apps/rDock/src/rDock_2013.1_src/data/scripts/dock_solv.prm

>  <Rbt.Receptor>
prm/blind_docking_20.prm

>  <SCORE>
-9.14933

>  <SCORE.INTER>
-9.23442

>  <SCORE.INTER.CONST>
1

>  <SCORE.INTER.POLAR>
-1.47139

>  <SCORE.INTER.ROT>
10

>  <SCORE.INTER.SOLV>
16.6054

>  <SCORE.INTER.VDW>
-17.0535

>  <SCORE.INTER.norm>
-0.384768

>  <SCORE.INTRA>
-0.0601368

>  <SCORE.INTRA.DIHEDRAL>
5.68308

>  <SCORE.INTRA.DIHEDRAL.0>
7.52971

>  <SCORE.INTRA.POLAR>
0

>  <SCORE.INTRA.POLAR.0>
0

>  <SCORE.INTRA.REPUL>
0

>  <SCORE.INTRA.REPUL.0>
0

>  <SCORE.INTRA.SOLV>
0.920628

>  <SCORE.INTRA.SOLV.lig_0>
-22.1084

>  <SCORE.INTRA.VDW>
-3.36199

>  <SCORE.INTRA.VDW.0>
2.4256

>  <SCORE.INTRA.norm>
-0.0025057

>  <SCORE.RESTR>
0.145234

>  <SCORE.RESTR.CAVITY>
0.145234

>  <SCORE.RESTR.norm>
0.00605143

>  <SCORE.SYSTEM>
0

>  <SCORE.SYSTEM.CONST>
0

>  <SCORE.SYSTEM.DIHEDRAL>
0

>  <SCORE.SYSTEM.SOLV>
0

>  <SCORE.SYSTEM.norm>
0

>  <SCORE.heavy>
24

>  <SCORE.norm>
-0.381222

>  <RMSD>
8.643

$$$$
lig.pdb
 OpenBabel11021811453D
libRbt.so/2013.1/901 2013/11/27
 24 24  0  0  0  0  0  0  0  0999 V2000
    1.3039   -6.7597    0.9892 C   0  0  0  0  0  0  0  0  0  0  0  0
    1.0173   -5.6473    0.1281 C   0  0  0  0  0  0  0  0  0  0  0  0
    1.3830   -5.6452   -1.1972 C   0  0  0  0  0  0  0  0  0  0  0  0
    2.0607   -6.7566   -1.7928 C   0  0  0  0  0  0  0  0  0  0  0  0
    2.3761   -7.8525   -0.9237 C   0  0  0  0  0  0  0  0  0  0  0  0
    2.0187   -7.8523    0.4014 C   0  0  0  0  0  0  0  0  0  0  0  0
    0.9170   -6.7855    2.2986 C   0  0  0  0  0  0  0  0  0  0  0  0
    1.0312   -7.8856    3.0729 N   0  0  0  0  0  0  0  0  0  0  0  0
    1.7070   -6.1179   -4.0677 N   0  0  0  0  0  0  0  0  0  0  0  0
    2.3958   -6.7806   -3.1145 C   0  0  0  0  0  0  0  0  0  0  0  0
    0.3909   -5.7025    2.9226 N   0  0  0  0  0  0  0  0  0  0  0  0
    3.4563   -7.4790   -3.5850 N   0  0  0  0  0  0  0  0  0  0  0  0
    0.5914   -5.3153    4.3176 C   0  0  0  0  0  0  0  0  0  0  0  0
    4.1576   -7.2371   -4.8421 C   0  0  0  0  0  0  0  0  0  0  0  0
   -0.3484   -4.1379    4.6234 C   0  0  0  0  0  0  0  0  0  0  0  0
    5.4336   -6.4351   -4.5252 C   0  0  0  0  0  0  0  0  0  0  0  0
   -0.8800   -4.2190    6.0611 C   0  0  0  0  0  0  0  0  0  0  0  0
    5.1519   -5.1820   -3.6766 C   0  0  0  0  0  0  0  0  0  0  0  0
   -1.7689   -5.4288    6.1957 N   0  0  0  0  0  0  0  0  0  0  0  0
    4.0978   -4.3098   -4.3103 N   0  0  0  0  0  0  0  0  0  0  0  0
   -3.0969   -5.1655    5.5395 C   0  0  0  0  0  0  0  0  0  0  0  0
    4.6633   -3.6969   -5.5633 C   0  0  0  0  0  0  0  0  0  0  0  0
   -1.9828   -5.7803    7.6471 C   0  0  0  0  0  0  0  0  0  0  0  0
    3.6426   -3.2104   -3.3916 C   0  0  0  0  0  0  0  0  0  0  0  0
  1  6  2  0  0  0  0
  2  3  2  0  0  0  0
  2  1  1  0  0  0  0
  3  4  1  0  0  0  0
  4 10  1  0  0  0  0
  4  5  2  0  0  0  0
  6  5  1  0  0  0  0
  7  1  1  0  0  0  0
  7 11  1  0  0  0  0
  8  7  2  0  0  0  0
  9 10  2  0  0  0  0
 10 12  1  0  0  0  0
 12 14  1  0  0  0  0
 13 11  1  0  0  0  0
 13 15  1  0  0  0  0
 14 16  1  0  0  0  0
 16 18  1  0  0  0  0
 17 15  1  0  0  0  0
 17 19  1  0  0  0  0
 18 20  1  0  0  0  0
 19 23  1  0  0  0  0
 20 22  1  0  0  0  0
 20 24  1  0  0  0  0
 21 19  1  0  0  0  0
M  END
>  <CHROM.1>
-28.22491179,171.55441032,99.55704352,-172.33170646,144.38073977,-51.52440621
-53.86421411,-66.27994598,-75.32774394,-69.05892639,1.63609307,-5.85937267
0.15592298,-3.11864450,1.08721993,-0.04672109

>  <Name>
lig.pdb

>  <RI>
3.30914e+07

>  <Rbt.Current_Directory>
/home/itssahil/PROJECTS/Mol_Feturizer/New_Systems/rnas/2l94

>  <Rbt.Executable>
rbdock ($Id: //depot/dev/client3/rdock/2013.1/src/exe/rbdock.cxx#4 $)

>  <Rbt.Library>
libRbt.so (2013.1, Build901 2013/11/27)

>  <Rbt.Parameter_File>
/export/apps/rDock/src/rDock_2013.1_src/data/scripts/dock_solv.prm

>  <Rbt.Receptor>
prm/blind_docking_80.prm

>  <SCORE>
-3.17093

>  <SCORE.INTER>
-5.66457

>  <SCORE.INTER.CONST>
1

>  <SCORE.INTER.POLAR>
-1.22362

>  <SCORE.INTER.ROT>
10

>  <SCORE.INTER.SOLV>
16.223

>  <SCORE.INTER.VDW>
-15.372

>  <SCORE.INTER.norm>
-0.236024

>  <SCORE.INTRA>
2.13402

>  <SCORE.INTRA.DIHEDRAL>
5.37808

>  <SCORE.INTRA.DIHEDRAL.0>
7.52971

>  <SCORE.INTRA.POLAR>
0

>  <SCORE.INTRA.POLAR.0>
0

>  <SCORE.INTRA.REPUL>
0

>  <SCORE.INTRA.REPUL.0>
0

>  <SCORE.INTRA.SOLV>
2.04033

>  <SCORE.INTRA.SOLV.lig_0>
-22.1084

>  <SCORE.INTRA.VDW>
-1.57519

>  <SCORE.INTRA.VDW.0>
2.4256

>  <SCORE.INTRA.norm>
0.0889173

>  <SCORE.RESTR>
0.359621

>  <SCORE.RESTR.CAVITY>
0.359621

>  <SCORE.RESTR.norm>
0.0149842

>  <SCORE.SYSTEM>
0

>  <SCORE.SYSTEM.CONST>
0

>  <SCORE.SYSTEM.DIHEDRAL>
0

>  <SCORE.SYSTEM.SOLV>
0

>  <SCORE.SYSTEM.norm>
0

>  <SCORE.heavy>
24

>  <SCORE.norm>
-0.132122

>  <RMSD>
8.645

$$$$
lig.pdb
 OpenBabel11021811453D
libRbt.so/2013.1/901 2013/11/27
 24 24  0  0  0  0  0  0  0  0999 V2000
    1.2991   -6.8872   -1.8367 C   0  0  0  0  0  0  0  0  0  0  0  0
    0.4963   -5.9967   -1.0471 C   0  0  0  0  0  0  0  0  0  0  0  0
    0.3330   -6.1773    0.3060 C   0  0  0  0  0  0  0  0  0  0  0  0
    0.9630   -7.2577    1.0027 C   0  0  0  0  0  0  0  0  0  0  0  0
    1.7369   -8.1654    0.2072 C   0  0  0  0  0  0  0  0  0  0  0  0
    1.8940   -7.9907   -1.1451 C   0  0  0  0  0  0  0  0  0  0  0  0
    1.4936   -6.6987   -3.1752 C   0  0  0  0  0  0  0  0  0  0  0  0
    0.7088   -5.8923   -3.9214 N   0  0  0  0  0  0  0  0  0  0  0  0
    1.2081   -8.5511    2.9965 N   0  0  0  0  0  0  0  0  0  0  0  0
    0.8376   -7.4254    2.3502 C   0  0  0  0  0  0  0  0  0  0  0  0
    2.4961   -7.3066   -3.8568 N   0  0  0  0  0  0  0  0  0  0  0  0
    0.3247   -6.4681    3.1592 N   0  0  0  0  0  0  0  0  0  0  0  0
    3.2651   -6.7442   -4.9652 C   0  0  0  0  0  0  0  0  0  0  0  0
    0.5429   -6.3483    4.5974 C   0  0  0  0  0  0  0  0  0  0  0  0
    4.5832   -6.1936   -4.3975 C   0  0  0  0  0  0  0  0  0  0  0  0
   -0.0575   -5.0067    5.0569 C   0  0  0  0  0  0  0  0  0  0  0  0
    4.4021   -4.7593   -3.8817 C   0  0  0  0  0  0  0  0  0  0  0  0
   -1.5954   -4.9905    4.9903 C   0  0  0  0  0  0  0  0  0  0  0  0
    5.2002   -4.5810   -2.6155 N   0  0  0  0  0  0  0  0  0  0  0  0
   -2.1685   -3.8012    5.7188 N   0  0  0  0  0  0  0  0  0  0  0  0
    4.2723   -4.4296   -1.4410 C   0  0  0  0  0  0  0  0  0  0  0  0
   -2.2838   -4.1369    7.1815 C   0  0  0  0  0  0  0  0  0  0  0  0
    6.0971   -3.3716   -2.7109 C   0  0  0  0  0  0  0  0  0  0  0  0
   -3.5250   -3.4156    5.1981 C   0  0  0  0  0  0  0  0  0  0  0  0
  1  6  2  0  0  0  0
  2  3  2  0  0  0  0
  2  1  1  0  0  0  0
  3  4  1  0  0  0  0
  4 10  1  0  0  0  0
  4  5  2  0  0  0  0
  6  5  1  0  0  0  0
  7  1  1  0  0  0  0
  7 11  1  0  0  0  0
  8  7  2  0  0  0  0
  9 10  2  0  0  0  0
 10 12  1  0  0  0  0
 12 14  1  0  0  0  0
 13 11  1  0  0  0  0
 13 15  1  0  0  0  0
 14 16  1  0  0  0  0
 16 18  1  0  0  0  0
 17 15  1  0  0  0  0
 17 19  1  0  0  0  0
 18 20  1  0  0  0  0
 19 23  1  0  0  0  0
 20 22  1  0  0  0  0
 20 24  1  0  0  0  0
 21 19  1  0  0  0  0
M  END
>  <CHROM.1>
167.52577654,-17.04069181,171.78978957,97.77033217,-85.62318467,69.34877187
167.50646673,141.36312679,-110.89838469,-84.37027165,1.35868567,-5.88764554
0.36459430,0.70568927,-0.85080006,-2.38820425

>  <Name>
lig.pdb

>  <RI>
3.30914e+07

>  <Rbt.Current_Directory>
/home/itssahil/PROJECTS/Mol_Feturizer/New_Systems/rnas/2l94

>  <Rbt.Executable>
rbdock ($Id: //depot/dev/client3/rdock/2013.1/src/exe/rbdock.cxx#4 $)

>  <Rbt.Library>
libRbt.so (2013.1, Build901 2013/11/27)

>  <Rbt.Parameter_File>
/export/apps/rDock/src/rDock_2013.1_src/data/scripts/dock_solv.prm

>  <Rbt.Receptor>
prm/blind_docking_80.prm

>  <SCORE>
-7.03573

>  <SCORE.INTER>
-11.0001

>  <SCORE.INTER.CONST>
1

>  <SCORE.INTER.POLAR>
-2.34424

>  <SCORE.INTER.ROT>
10

>  <SCORE.INTER.SOLV>
16.4743

>  <SCORE.INTER.VDW>
-15.2774

>  <SCORE.INTER.norm>
-0.458339

>  <SCORE.INTRA>
2.61296

>  <SCORE.INTRA.DIHEDRAL>
10.7505

>  <SCORE.INTRA.DIHEDRAL.0>
7.52971

>  <SCORE.INTRA.POLAR>
0

>  <SCORE.INTRA.POLAR.0>
0

>  <SCORE.INTRA.REPUL>
0

>  <SCORE.INTRA.REPUL.0>
0

>  <SCORE.INTRA.SOLV>
0.513341

>  <SCORE.INTRA.SOLV.lig_0>
-22.1084

>  <SCORE.INTRA.VDW>
-3.01897

>  <SCORE.INTRA.VDW.0>
2.4256

>  <SCORE.INTRA.norm>
0.108873

>  <SCORE.RESTR>
1.35144

>  <SCORE.RESTR.CAVITY>
1.35144

>  <SCORE.RESTR.norm>
0.05631

>  <SCORE.SYSTEM>
0

>  <SCORE.SYSTEM.CONST>
0

>  <SCORE.SYSTEM.DIHEDRAL>
0

>  <SCORE.SYSTEM.SOLV>
0

>  <SCORE.SYSTEM.norm>
0

>  <SCORE.heavy>
24

>  <SCORE.norm>
-0.293156

>  <RMSD>
8.654

$$$$
lig.pdb
 OpenBabel11021811453D
libRbt.so/2013.1/901 2013/11/27
 24 24  0  0  0  0  0  0  0  0999 V2000
    1.5707   -5.8641    1.9991 C   0  0  0  0  0  0  0  0  0  0  0  0
    0.4734   -6.7511    2.2641 C   0  0  0  0  0  0  0  0  0  0  0  0
   -0.2983   -6.6294    3.3954 C   0  0  0  0  0  0  0  0  0  0  0  0
   -0.0556   -5.6052    4.3657 C   0  0  0  0  0  0  0  0  0  0  0  0
    1.0613   -4.7414    4.1165 C   0  0  0  0  0  0  0  0  0  0  0  0
    1.8374   -4.8670    2.9915 C   0  0  0  0  0  0  0  0  0  0  0  0
    2.3233   -5.9560    0.8634 C   0  0  0  0  0  0  0  0  0  0  0  0
    1.8135   -6.3570   -0.3208 N   0  0  0  0  0  0  0  0  0  0  0  0
   -1.5262   -6.4647    6.0410 N   0  0  0  0  0  0  0  0  0  0  0  0
   -0.8369   -5.4527    5.4729 C   0  0  0  0  0  0  0  0  0  0  0  0
    3.6434   -5.6464    0.8391 N   0  0  0  0  0  0  0  0  0  0  0  0
   -0.9888   -4.2617    6.0992 N   0  0  0  0  0  0  0  0  0  0  0  0
    4.3727   -5.0167   -0.2600 C   0  0  0  0  0  0  0  0  0  0  0  0
   -1.4090   -4.0638    7.4830 C   0  0  0  0  0  0  0  0  0  0  0  0
    5.7539   -4.5948    0.2667 C   0  0  0  0  0  0  0  0  0  0  0  0
   -0.6833   -2.8179    8.0242 C   0  0  0  0  0  0  0  0  0  0  0  0
    6.6294   -4.0451   -0.8678 C   0  0  0  0  0  0  0  0  0  0  0  0
   -1.1103   -2.4584    9.4589 C   0  0  0  0  0  0  0  0  0  0  0  0
    8.0256   -3.8108   -0.3504 N   0  0  0  0  0  0  0  0  0  0  0  0
   -0.5907   -3.4606   10.4585 N   0  0  0  0  0  0  0  0  0  0  0  0
    8.1141   -2.4528    0.2910 C   0  0  0  0  0  0  0  0  0  0  0  0
   -1.7161   -4.3770   10.8575 C   0  0  0  0  0  0  0  0  0  0  0  0
    9.0364   -3.9103   -1.4660 C   0  0  0  0  0  0  0  0  0  0  0  0
   -0.0390   -2.7999   11.6910 C   0  0  0  0  0  0  0  0  0  0  0  0
  1  6  2  0  0  0  0
  2  3  2  0  0  0  0
  2  1  1  0  0  0  0
  3  4  1  0  0  0  0
  4 10  1  0  0  0  0
  4  5  2  0  0  0  0
  6  5  1  0  0  0  0
  7  1  1  0  0  0  0
  7 11  1  0  0  0  0
  8  7  2  0  0  0  0
  9 10  2  0  0  0  0
 10 12  1  0  0  0  0
 12 14  1  0  0  0  0
 13 11  1  0  0  0  0
 13 15  1  0  0  0  0
 14 16  1  0  0  0  0
 16 18  1  0  0  0  0
 17 15  1  0  0  0  0
 17 19  1  0  0  0  0
 18 20  1  0  0  0  0
 19 23  1  0  0  0  0
 20 22  1  0  0  0  0
 20 24  1  0  0  0  0
 21 19  1  0  0  0  0
M  END
>  <CHROM.1>
26.66550349,32.66943146,146.38945830,168.21307433,174.59736316,176.67713161
70.68397644,-172.74809663,-85.41506386,-102.71219798,1.94492713,-4.65158636
3.94008621,0.80887919,-0.46606802,-2.02771826

>  <Name>
lig.pdb

>  <RI>
2.41306e+07

>  <Rbt.Current_Directory>
/home/itssahil/PROJECTS/Mol_Feturizer/New_Systems/rnas/2l94

>  <Rbt.Executable>
rbdock ($Id: //depot/dev/client3/rdock/2013.1/src/exe/rbdock.cxx#4 $)

>  <Rbt.Library>
libRbt.so (2013.1, Build901 2013/11/27)

>  <Rbt.Parameter_File>
/export/apps/rDock/src/rDock_2013.1_src/data/scripts/dock_solv.prm

>  <Rbt.Receptor>
prm/blind_docking_40.prm

>  <SCORE>
-8.11856

>  <SCORE.INTER>
-13.0544

>  <SCORE.INTER.CONST>
1

>  <SCORE.INTER.POLAR>
-2.22745

>  <SCORE.INTER.ROT>
10

>  <SCORE.INTER.SOLV>
14.4141

>  <SCORE.INTER.VDW>
-16.3495

>  <SCORE.INTER.norm>
-0.543933

>  <SCORE.INTRA>
1.81908

>  <SCORE.INTRA.DIHEDRAL>
8.74523

>  <SCORE.INTRA.DIHEDRAL.0>
7.52971

>  <SCORE.INTRA.POLAR>
0

>  <SCORE.INTRA.POLAR.0>
0

>  <SCORE.INTRA.REPUL>
0

>  <SCORE.INTRA.REPUL.0>
0

>  <SCORE.INTRA.SOLV>
-0.407879

>  <SCORE.INTRA.SOLV.lig_0>
-22.1084

>  <SCORE.INTRA.VDW>
-2.3496

>  <SCORE.INTRA.VDW.0>
2.4256

>  <SCORE.INTRA.norm>
0.0757949

>  <SCORE.RESTR>
3.11676

>  <SCORE.RESTR.CAVITY>
3.11676

>  <SCORE.RESTR.norm>
0.129865

>  <SCORE.SYSTEM>
0

>  <SCORE.SYSTEM.CONST>
0

>  <SCORE.SYSTEM.DIHEDRAL>
0

>  <SCORE.SYSTEM.SOLV>
0

>  <SCORE.SYSTEM.norm>
0

>  <SCORE.heavy>
24

>  <SCORE.norm>
-0.338273

>  <RMSD>
8.656

$$$$
lig.pdb
 OpenBabel11021811453D
libRbt.so/2013.1/901 2013/11/27
 24 24  0  0  0  0  0  0  0  0999 V2000
    3.4470   -5.0998   -1.2847 C   0  0  0  0  0  0  0  0  0  0  0  0
    3.0022   -6.1759   -0.4449 C   0  0  0  0  0  0  0  0  0  0  0  0
    1.8677   -6.0717    0.3245 C   0  0  0  0  0  0  0  0  0  0  0  0
    1.0627   -4.8879    0.3223 C   0  0  0  0  0  0  0  0  0  0  0  0
    1.5264   -3.8019   -0.4909 C   0  0  0  0  0  0  0  0  0  0  0  0
    2.6633   -3.9018   -1.2532 C   0  0  0  0  0  0  0  0  0  0  0  0
    4.5543   -5.2044   -2.0769 C   0  0  0  0  0  0  0  0  0  0  0  0
    5.6218   -5.9615   -1.7448 N   0  0  0  0  0  0  0  0  0  0  0  0
   -0.8512   -3.6767    1.0828 N   0  0  0  0  0  0  0  0  0  0  0  0
   -0.0841   -4.7870    1.0534 C   0  0  0  0  0  0  0  0  0  0  0  0
    4.6634   -4.5563   -3.2632 N   0  0  0  0  0  0  0  0  0  0  0  0
   -0.5519   -5.8013    1.8191 N   0  0  0  0  0  0  0  0  0  0  0  0
    5.3238   -5.0492   -4.4703 C   0  0  0  0  0  0  0  0  0  0  0  0
   -1.9295   -5.9765    2.2684 C   0  0  0  0  0  0  0  0  0  0  0  0
    4.5088   -6.2374   -5.0059 C   0  0  0  0  0  0  0  0  0  0  0  0
   -1.9902   -5.6087    3.7627 C   0  0  0  0  0  0  0  0  0  0  0  0
    4.4480   -7.3713   -3.9732 C   0  0  0  0  0  0  0  0  0  0  0  0
   -2.2876   -6.8226    4.6615 C   0  0  0  0  0  0  0  0  0  0  0  0
    4.0608   -8.6538   -4.6640 N   0  0  0  0  0  0  0  0  0  0  0  0
   -1.8142   -6.5941    6.0747 N   0  0  0  0  0  0  0  0  0  0  0  0
    2.5892   -8.6441   -4.9768 C   0  0  0  0  0  0  0  0  0  0  0  0
   -1.8270   -7.9075    6.8096 C   0  0  0  0  0  0  0  0  0  0  0  0
    4.3870   -9.8485   -3.8025 C   0  0  0  0  0  0  0  0  0  0  0  0
   -2.6820   -5.6133    6.8129 C   0  0  0  0  0  0  0  0  0  0  0  0
  1  6  2  0  0  0  0
  2  3  2  0  0  0  0
  2  1  1  0  0  0  0
  3  4  1  0  0  0  0
  4 10  1  0  0  0  0
  4  5  2  0  0  0  0
  6  5  1  0  0  0  0
  7  1  1  0  0  0  0
  7 11  1  0  0  0  0
  8  7  2  0  0  0  0
  9 10  2  0  0  0  0
 10 12  1  0  0  0  0
 12 14  1  0  0  0  0
 13 11  1  0  0  0  0
 13 15  1  0  0  0  0
 14 16  1  0  0  0  0
 16 18  1  0  0  0  0
 17 15  1  0  0  0  0
 17 19  1  0  0  0  0
 18 20  1  0  0  0  0
 19 23  1  0  0  0  0
 20 22  1  0  0  0  0
 20 24  1  0  0  0  0
 21 19  1  0  0  0  0
M  END
>  <CHROM.1>
179.08676629,-31.28061391,-105.24843208,67.49713990,-60.68272877,-112.65562007
157.28488333,-161.40980428,-75.73941387,-166.57869736,1.63440300,-6.05916634
-0.07577061,-0.15424348,0.93499353,0.12012099

>  <Name>
lig.pdb

>  <RI>
3.30914e+07

>  <Rbt.Current_Directory>
/home/itssahil/PROJECTS/Mol_Feturizer/New_Systems/rnas/2l94

>  <Rbt.Executable>
rbdock ($Id: //depot/dev/client3/rdock/2013.1/src/exe/rbdock.cxx#4 $)

>  <Rbt.Library>
libRbt.so (2013.1, Build901 2013/11/27)

>  <Rbt.Parameter_File>
/export/apps/rDock/src/rDock_2013.1_src/data/scripts/dock_solv.prm

>  <Rbt.Receptor>
prm/blind_docking_80.prm

>  <SCORE>
427.245

>  <SCORE.INTER>
415.276

>  <SCORE.INTER.CONST>
1

>  <SCORE.INTER.POLAR>
0

>  <SCORE.INTER.ROT>
10

>  <SCORE.INTER.SOLV>
21.7992

>  <SCORE.INTER.VDW>
259.318

>  <SCORE.INTER.norm>
17.3032

>  <SCORE.INTRA>
3.47379

>  <SCORE.INTRA.DIHEDRAL>
10.0184

>  <SCORE.INTRA.DIHEDRAL.0>
7.52971

>  <SCORE.INTRA.POLAR>
0

>  <SCORE.INTRA.POLAR.0>
0

>  <SCORE.INTRA.REPUL>
0

>  <SCORE.INTRA.REPUL.0>
0

>  <SCORE.INTRA.SOLV>
0.710132

>  <SCORE.INTRA.SOLV.lig_0>
-22.1084

>  <SCORE.INTRA.VDW>
-1.89045

>  <SCORE.INTRA.VDW.0>
2.4256

>  <SCORE.INTRA.norm>
0.144741

>  <SCORE.RESTR>
8.49541

>  <SCORE.RESTR.CAVITY>
8.49541

>  <SCORE.RESTR.norm>
0.353975

>  <SCORE.SYSTEM>
0

>  <SCORE.SYSTEM.CONST>
0

>  <SCORE.SYSTEM.DIHEDRAL>
0

>  <SCORE.SYSTEM.SOLV>
0

>  <SCORE.SYSTEM.norm>
0

>  <SCORE.heavy>
24

>  <SCORE.norm>
17.8019

>  <RMSD>
8.660

$$$$
lig.pdb
 OpenBabel11021811453D
libRbt.so/2013.1/901 2013/11/27
 24 24  0  0  0  0  0  0  0  0999 V2000
    3.5667   -4.6845   -1.9478 C   0  0  0  0  0  0  0  0  0  0  0  0
    2.2157   -4.9867   -2.3279 C   0  0  0  0  0  0  0  0  0  0  0  0
    1.3406   -5.5995   -1.4627 C   0  0  0  0  0  0  0  0  0  0  0  0
    1.7263   -5.9606   -0.1322 C   0  0  0  0  0  0  0  0  0  0  0  0
    3.0855   -5.6888    0.2346 C   0  0  0  0  0  0  0  0  0  0  0  0
    3.9624   -5.0843   -0.6311 C   0  0  0  0  0  0  0  0  0  0  0  0
    4.4344   -4.0474   -2.7882 C   0  0  0  0  0  0  0  0  0  0  0  0
    5.7754   -4.1514   -2.6702 N   0  0  0  0  0  0  0  0  0  0  0  0
   -0.4494   -6.7416    0.4719 N   0  0  0  0  0  0  0  0  0  0  0  0
    0.8562   -6.5357    0.7464 C   0  0  0  0  0  0  0  0  0  0  0  0
    4.0122   -3.2629   -3.8106 N   0  0  0  0  0  0  0  0  0  0  0  0
    1.2328   -6.9503    1.9793 N   0  0  0  0  0  0  0  0  0  0  0  0
    4.6434   -3.1216   -5.1213 C   0  0  0  0  0  0  0  0  0  0  0  0
    0.5454   -7.9407    2.8022 C   0  0  0  0  0  0  0  0  0  0  0  0
    4.5306   -4.4700   -5.8506 C   0  0  0  0  0  0  0  0  0  0  0  0
   -0.5521   -7.2128    3.6005 C   0  0  0  0  0  0  0  0  0  0  0  0
    5.2076   -5.5878   -5.0455 C   0  0  0  0  0  0  0  0  0  0  0  0
   -0.4867   -7.5125    5.1091 C   0  0  0  0  0  0  0  0  0  0  0  0
    4.8314   -6.9234   -5.6343 N   0  0  0  0  0  0  0  0  0  0  0  0
    0.8785   -7.2122    5.6744 N   0  0  0  0  0  0  0  0  0  0  0  0
    3.3523   -7.1530   -5.4822 C   0  0  0  0  0  0  0  0  0  0  0  0
    0.8444   -7.4228    7.1643 C   0  0  0  0  0  0  0  0  0  0  0  0
    5.5887   -8.0407   -4.9605 C   0  0  0  0  0  0  0  0  0  0  0  0
    1.3132   -5.8014    5.3906 C   0  0  0  0  0  0  0  0  0  0  0  0
  1  6  2  0  0  0  0
  2  3  2  0  0  0  0
  2  1  1  0  0  0  0
  3  4  1  0  0  0  0
  4 10  1  0  0  0  0
  4  5  2  0  0  0  0
  6  5  1  0  0  0  0
  7  1  1  0  0  0  0
  7 11  1  0  0  0  0
  8  7  2  0  0  0  0
  9 10  2  0  0  0  0
 10 12  1  0  0  0  0
 12 14  1  0  0  0  0
 13 11  1  0  0  0  0
 13 15  1  0  0  0  0
 14 16  1  0  0  0  0
 16 18  1  0  0  0  0
 17 15  1  0  0  0  0
 17 19  1  0  0  0  0
 18 20  1  0  0  0  0
 19 23  1  0  0  0  0
 20 22  1  0  0  0  0
 20 24  1  0  0  0  0
 21 19  1  0  0  0  0
M  END
>  <CHROM.1>
-3.99092708,-156.62602443,-86.10664077,65.89021927,-58.75013828,-128.45386195
54.49849605,168.19322703,-64.49306531,175.63266813,2.60788716,-5.95254568
-0.59010689,-0.82459899,0.93629814,1.12719804

>  <Name>
lig.pdb

>  <RI>
3.30914e+07

>  <Rbt.Current_Directory>
/home/itssahil/PROJECTS/Mol_Feturizer/New_Systems/rnas/2l94

>  <Rbt.Executable>
rbdock ($Id: //depot/dev/client3/rdock/2013.1/src/exe/rbdock.cxx#4 $)

>  <Rbt.Library>
libRbt.so (2013.1, Build901 2013/11/27)

>  <Rbt.Parameter_File>
/export/apps/rDock/src/rDock_2013.1_src/data/scripts/dock_solv.prm

>  <Rbt.Receptor>
prm/blind_docking_80.prm

>  <SCORE>
-4.58269

>  <SCORE.INTER>
-9.49414

>  <SCORE.INTER.CONST>
1

>  <SCORE.INTER.POLAR>
-1.89194

>  <SCORE.INTER.ROT>
10

>  <SCORE.INTER.SOLV>
16.1961

>  <SCORE.INTER.VDW>
-15.6883

>  <SCORE.INTER.norm>
-0.395589

>  <SCORE.INTRA>
3.9628

>  <SCORE.INTRA.DIHEDRAL>
5.35419

>  <SCORE.INTRA.DIHEDRAL.0>
7.52971

>  <SCORE.INTRA.POLAR>
0

>  <SCORE.INTRA.POLAR.0>
0

>  <SCORE.INTRA.REPUL>
0

>  <SCORE.INTRA.REPUL.0>
0

>  <SCORE.INTRA.SOLV>
1.46471

>  <SCORE.INTRA.SOLV.lig_0>
-22.1084

>  <SCORE.INTRA.VDW>
0.55335

>  <SCORE.INTRA.VDW.0>
2.4256

>  <SCORE.INTRA.norm>
0.165117

>  <SCORE.RESTR>
0.948653

>  <SCORE.RESTR.CAVITY>
0.948653

>  <SCORE.RESTR.norm>
0.0395272

>  <SCORE.SYSTEM>
0

>  <SCORE.SYSTEM.CONST>
0

>  <SCORE.SYSTEM.DIHEDRAL>
0

>  <SCORE.SYSTEM.SOLV>
0

>  <SCORE.SYSTEM.norm>
0

>  <SCORE.heavy>
24

>  <SCORE.norm>
-0.190945

>  <RMSD>
8.684

$$$$
lig.pdb
 OpenBabel11021811453D
libRbt.so/2013.1/901 2013/11/27
 24 24  0  0  0  0  0  0  0  0999 V2000
    1.5792   -6.8846    0.4604 C   0  0  0  0  0  0  0  0  0  0  0  0
    1.3817   -5.6867   -0.3059 C   0  0  0  0  0  0  0  0  0  0  0  0
    1.6932   -5.6238   -1.6434 C   0  0  0  0  0  0  0  0  0  0  0  0
    2.2224   -6.7527   -2.3470 C   0  0  0  0  0  0  0  0  0  0  0  0
    2.4507   -7.9378   -1.5730 C   0  0  0  0  0  0  0  0  0  0  0  0
    2.1476   -7.9993   -0.2358 C   0  0  0  0  0  0  0  0  0  0  0  0
    1.2435   -6.9675    1.7814 C   0  0  0  0  0  0  0  0  0  0  0  0
    1.3910   -8.0989    2.5034 N   0  0  0  0  0  0  0  0  0  0  0  0
    1.9389   -5.8272   -4.5314 N   0  0  0  0  0  0  0  0  0  0  0  0
    2.5008   -6.7126   -3.6814 C   0  0  0  0  0  0  0  0  0  0  0  0
    0.7385   -5.9144    2.4707 N   0  0  0  0  0  0  0  0  0  0  0  0
    3.3712   -7.5668   -4.2702 N   0  0  0  0  0  0  0  0  0  0  0  0
    0.9916   -5.5857    3.8721 C   0  0  0  0  0  0  0  0  0  0  0  0
    4.0662   -7.3516   -5.5356 C   0  0  0  0  0  0  0  0  0  0  0  0
   -0.3363   -5.1340    4.5012 C   0  0  0  0  0  0  0  0  0  0  0  0
    4.6676   -5.9341   -5.5099 C   0  0  0  0  0  0  0  0  0  0  0  0
   -0.2282   -5.0795    6.0314 C   0  0  0  0  0  0  0  0  0  0  0  0
    5.4865   -5.6595   -4.2356 C   0  0  0  0  0  0  0  0  0  0  0  0
   -0.2835   -6.4805    6.5846 N   0  0  0  0  0  0  0  0  0  0  0  0
    5.6853   -4.1815   -4.0132 N   0  0  0  0  0  0  0  0  0  0  0  0
   -0.9611   -6.4755    7.9278 C   0  0  0  0  0  0  0  0  0  0  0  0
    6.7193   -3.9869   -2.9369 C   0  0  0  0  0  0  0  0  0  0  0  0
    1.1027   -7.0605    6.7195 C   0  0  0  0  0  0  0  0  0  0  0  0
    4.4145   -3.4933   -3.5994 C   0  0  0  0  0  0  0  0  0  0  0  0
  1  6  2  0  0  0  0
  2  3  2  0  0  0  0
  2  1  1  0  0  0  0
  3  4  1  0  0  0  0
  4 10  1  0  0  0  0
  4  5  2  0  0  0  0
  6  5  1  0  0  0  0
  7  1  1  0  0  0  0
  7 11  1  0  0  0  0
  8  7  2  0  0  0  0
  9 10  2  0  0  0  0
 10 12  1  0  0  0  0
 12 14  1  0  0  0  0
 13 11  1  0  0  0  0
 13 15  1  0  0  0  0
 14 16  1  0  0  0  0
 16 18  1  0  0  0  0
 17 15  1  0  0  0  0
 17 19  1  0  0  0  0
 18 20  1  0  0  0  0
 19 23  1  0  0  0  0
 20 22  1  0  0  0  0
 20 24  1  0  0  0  0
 21 19  1  0  0  0  0
M  END
>  <CHROM.1>
-21.95414923,178.17269513,47.60151632,-138.73027240,167.04457542,50.66232841
-161.65966309,-76.26343696,-147.19443948,-168.24451022,2.26053510,-6.15825429
-0.02177248,2.21577768,0.86696115,1.10676857

>  <Name>
lig.pdb

>  <RI>
3.30914e+07

>  <Rbt.Current_Directory>
/home/itssahil/PROJECTS/Mol_Feturizer/New_Systems/rnas/2l94

>  <Rbt.Executable>
rbdock ($Id: //depot/dev/client3/rdock/2013.1/src/exe/rbdock.cxx#4 $)

>  <Rbt.Library>
libRbt.so (2013.1, Build901 2013/11/27)

>  <Rbt.Parameter_File>
/export/apps/rDock/src/rDock_2013.1_src/data/scripts/dock_solv.prm

>  <Rbt.Receptor>
prm/blind_docking_80.prm

>  <SCORE>
-4.04775

>  <SCORE.INTER>
-5.01261

>  <SCORE.INTER.CONST>
1

>  <SCORE.INTER.POLAR>
-1.09636

>  <SCORE.INTER.ROT>
10

>  <SCORE.INTER.SOLV>
17.2447

>  <SCORE.INTER.VDW>
-15.7021

>  <SCORE.INTER.norm>
-0.208859

>  <SCORE.INTRA>
0.964861

>  <SCORE.INTRA.DIHEDRAL>
4.39752

>  <SCORE.INTRA.DIHEDRAL.0>
7.52971

>  <SCORE.INTRA.POLAR>
0

>  <SCORE.INTRA.POLAR.0>
0

>  <SCORE.INTRA.REPUL>
0

>  <SCORE.INTRA.REPUL.0>
0

>  <SCORE.INTRA.SOLV>
1.09294

>  <SCORE.INTRA.SOLV.lig_0>
-22.1084

>  <SCORE.INTRA.VDW>
-1.78037

>  <SCORE.INTRA.VDW.0>
2.4256

>  <SCORE.INTRA.norm>
0.0402026

>  <SCORE.RESTR>
0

>  <SCORE.RESTR.CAVITY>
0

>  <SCORE.RESTR.norm>
0

>  <SCORE.SYSTEM>
0

>  <SCORE.SYSTEM.CONST>
0

>  <SCORE.SYSTEM.DIHEDRAL>
0

>  <SCORE.SYSTEM.SOLV>
0

>  <SCORE.SYSTEM.norm>
0

>  <SCORE.heavy>
24

>  <SCORE.norm>
-0.168656

>  <RMSD>
8.689

$$$$
lig.pdb
 OpenBabel11021811453D
libRbt.so/2013.1/901 2013/11/27
 24 24  0  0  0  0  0  0  0  0999 V2000
    1.1310   -6.2841   -0.3107 C   0  0  0  0  0  0  0  0  0  0  0  0
    0.2120   -7.0657    0.4675 C   0  0  0  0  0  0  0  0  0  0  0  0
    0.2032   -7.0165    1.8414 C   0  0  0  0  0  0  0  0  0  0  0  0
    1.1036   -6.1754    2.5702 C   0  0  0  0  0  0  0  0  0  0  0  0
    2.0432   -5.4210    1.7931 C   0  0  0  0  0  0  0  0  0  0  0  0
    2.0582   -5.4756    0.4218 C   0  0  0  0  0  0  0  0  0  0  0  0
    1.1268   -6.3014   -1.6761 C   0  0  0  0  0  0  0  0  0  0  0  0
   -0.0049   -6.4248   -2.4021 N   0  0  0  0  0  0  0  0  0  0  0  0
    1.7045   -5.1176    4.6265 N   0  0  0  0  0  0  0  0  0  0  0  0
    1.0794   -6.0912    3.9311 C   0  0  0  0  0  0  0  0  0  0  0  0
    2.2632   -6.1915   -2.4080 N   0  0  0  0  0  0  0  0  0  0  0  0
    0.4215   -6.9867    4.7052 N   0  0  0  0  0  0  0  0  0  0  0  0
    2.4131   -5.5072   -3.6908 C   0  0  0  0  0  0  0  0  0  0  0  0
   -0.0396   -6.7681    6.0727 C   0  0  0  0  0  0  0  0  0  0  0  0
    2.9594   -4.0969   -3.4158 C   0  0  0  0  0  0  0  0  0  0  0  0
   -1.5132   -6.3251    6.0101 C   0  0  0  0  0  0  0  0  0  0  0  0
    4.3061   -4.1633   -2.6824 C   0  0  0  0  0  0  0  0  0  0  0  0
   -1.6814   -4.8989    5.4556 C   0  0  0  0  0  0  0  0  0  0  0  0
    5.4163   -4.3049   -3.6920 N   0  0  0  0  0  0  0  0  0  0  0  0
   -2.9000   -4.2219    6.0302 N   0  0  0  0  0  0  0  0  0  0  0  0
    5.4994   -5.7301   -4.1668 C   0  0  0  0  0  0  0  0  0  0  0  0
   -3.2060   -2.9962    5.2119 C   0  0  0  0  0  0  0  0  0  0  0  0
    6.7399   -3.8918   -3.0974 C   0  0  0  0  0  0  0  0  0  0  0  0
   -2.7008   -3.8146    7.4635 C   0  0  0  0  0  0  0  0  0  0  0  0
  1  6  2  0  0  0  0
  2  3  2  0  0  0  0
  2  1  1  0  0  0  0
  3  4  1  0  0  0  0
  4 10  1  0  0  0  0
  4  5  2  0  0  0  0
  6  5  1  0  0  0  0
  7  1  1  0  0  0  0
  7 11  1  0  0  0  0
  8  7  2  0  0  0  0
  9 10  2  0  0  0  0
 10 12  1  0  0  0  0
 12 14  1  0  0  0  0
 13 11  1  0  0  0  0
 13 15  1  0  0  0  0
 14 16  1  0  0  0  0
 16 18  1  0  0  0  0
 17 15  1  0  0  0  0
 17 19  1  0  0  0  0
 18 20  1  0  0  0  0
 19 23  1  0  0  0  0
 20 22  1  0  0  0  0
 20 24  1  0  0  0  0
 21 19  1  0  0  0  0
M  END
>  <CHROM.1>
-165.49630270,34.89097699,95.23683554,96.85229038,58.80359955,-71.21564266
-150.29235736,85.93895473,-78.68732704,-165.92397498,1.19540921,-5.43139583
1.21090780,1.00030151,-0.21701712,-1.70335314

>  <Name>
lig.pdb

>  <RI>
2.41306e+07

>  <Rbt.Current_Directory>
/home/itssahil/PROJECTS/Mol_Feturizer/New_Systems/rnas/2l94

>  <Rbt.Executable>
rbdock ($Id: //depot/dev/client3/rdock/2013.1/src/exe/rbdock.cxx#4 $)

>  <Rbt.Library>
libRbt.so (2013.1, Build901 2013/11/27)

>  <Rbt.Parameter_File>
/export/apps/rDock/src/rDock_2013.1_src/data/scripts/dock_solv.prm

>  <Rbt.Receptor>
prm/blind_docking_40.prm

>  <SCORE>
-1.89758

>  <SCORE.INTER>
-4.42787

>  <SCORE.INTER.CONST>
1

>  <SCORE.INTER.POLAR>
-0.705785

>  <SCORE.INTER.ROT>
10

>  <SCORE.INTER.SOLV>
16.7273

>  <SCORE.INTER.VDW>
-16.4417

>  <SCORE.INTER.norm>
-0.184495

>  <SCORE.INTRA>
2.09423

>  <SCORE.INTRA.DIHEDRAL>
8.97607

>  <SCORE.INTRA.DIHEDRAL.0>
7.52971

>  <SCORE.INTRA.POLAR>
0

>  <SCORE.INTRA.POLAR.0>
0

>  <SCORE.INTRA.REPUL>
0

>  <SCORE.INTRA.REPUL.0>
0

>  <SCORE.INTRA.SOLV>
0.828006

>  <SCORE.INTRA.SOLV.lig_0>
-22.1084

>  <SCORE.INTRA.VDW>
-2.8078

>  <SCORE.INTRA.VDW.0>
2.4256

>  <SCORE.INTRA.norm>
0.0872597

>  <SCORE.RESTR>
0.436061

>  <SCORE.RESTR.CAVITY>
0.436061

>  <SCORE.RESTR.norm>
0.0181692

>  <SCORE.SYSTEM>
0

>  <SCORE.SYSTEM.CONST>
0

>  <SCORE.SYSTEM.DIHEDRAL>
0

>  <SCORE.SYSTEM.SOLV>
0

>  <SCORE.SYSTEM.norm>
0

>  <SCORE.heavy>
24

>  <SCORE.norm>
-0.0790659

>  <RMSD>
8.700

$$$$
lig.pdb
 OpenBabel11021811453D
libRbt.so/2013.1/901 2013/11/27
 24 24  0  0  0  0  0  0  0  0999 V2000
   -0.4612   -7.0864    3.0289 C   0  0  0  0  0  0  0  0  0  0  0  0
    0.5692   -6.1748    3.4391 C   0  0  0  0  0  0  0  0  0  0  0  0
    1.5669   -5.7771    2.5809 C   0  0  0  0  0  0  0  0  0  0  0  0
    1.6266   -6.2427    1.2285 C   0  0  0  0  0  0  0  0  0  0  0  0
    0.6164   -7.1790    0.8304 C   0  0  0  0  0  0  0  0  0  0  0  0
   -0.3755   -7.5831    1.6887 C   0  0  0  0  0  0  0  0  0  0  0  0
   -1.4746   -7.4630    3.8632 C   0  0  0  0  0  0  0  0  0  0  0  0
   -1.3704   -8.5048    4.7158 N   0  0  0  0  0  0  0  0  0  0  0  0
    2.3947   -5.7236   -0.9735 N   0  0  0  0  0  0  0  0  0  0  0  0
    2.5904   -5.8267    0.3581 C   0  0  0  0  0  0  0  0  0  0  0  0
   -2.6645   -6.8137    3.9009 N   0  0  0  0  0  0  0  0  0  0  0  0
    3.8362   -5.4807    0.7610 N   0  0  0  0  0  0  0  0  0  0  0  0
   -3.4959   -6.5816    5.0804 C   0  0  0  0  0  0  0  0  0  0  0  0
    4.7722   -4.6308    0.0317 C   0  0  0  0  0  0  0  0  0  0  0  0
   -3.4479   -5.0804    5.4073 C   0  0  0  0  0  0  0  0  0  0  0  0
    6.1054   -4.6250    0.8027 C   0  0  0  0  0  0  0  0  0  0  0  0
   -1.9990   -4.5997    5.5680 C   0  0  0  0  0  0  0  0  0  0  0  0
    7.1513   -3.6871    0.1731 C   0  0  0  0  0  0  0  0  0  0  0  0
   -1.4561   -5.0871    6.8870 N   0  0  0  0  0  0  0  0  0  0  0  0
    7.5896   -4.1781   -1.1835 N   0  0  0  0  0  0  0  0  0  0  0  0
   -0.7206   -3.9739    7.5821 C   0  0  0  0  0  0  0  0  0  0  0  0
    9.0458   -3.8476   -1.3725 C   0  0  0  0  0  0  0  0  0  0  0  0
   -0.5275   -6.2591    6.6863 C   0  0  0  0  0  0  0  0  0  0  0  0
    6.7982   -3.5513   -2.2974 C   0  0  0  0  0  0  0  0  0  0  0  0
  1  6  2  0  0  0  0
  2  3  2  0  0  0  0
  2  1  1  0  0  0  0
  3  4  1  0  0  0  0
  4 10  1  0  0  0  0
  4  5  2  0  0  0  0
  6  5  1  0  0  0  0
  7  1  1  0  0  0  0
  7 11  1  0  0  0  0
  8  7  2  0  0  0  0
  9 10  2  0  0  0  0
 10 12  1  0  0  0  0
 12 14  1  0  0  0  0
 13 11  1  0  0  0  0
 13 15  1  0  0  0  0
 14 16  1  0  0  0  0
 16 18  1  0  0  0  0
 17 15  1  0  0  0  0
 17 19  1  0  0  0  0
 18 20  1  0  0  0  0
 19 23  1  0  0  0  0
 20 22  1  0  0  0  0
 20 24  1  0  0  0  0
 21 19  1  0  0  0  0
M  END
>  <CHROM.1>
-149.33986983,-87.21973857,-174.63221521,110.05220090,-54.70544202,-176.43267839
-66.54283843,-74.43409049,-135.13415426,-145.31891861,1.57588842,-5.63402275
2.45894475,2.69388464,0.48540348,1.08462024

>  <Name>
lig.pdb

>  <RI>
3.93418e+07

>  <Rbt.Current_Directory>
/home/itssahil/PROJECTS/Mol_Feturizer/New_Systems/rnas/2l94

>  <Rbt.Executable>
rbdock ($Id: //depot/dev/client3/rdock/2013.1/src/exe/rbdock.cxx#4 $)

>  <Rbt.Library>
libRbt.so (2013.1, Build901 2013/11/27)

>  <Rbt.Parameter_File>
/export/apps/rDock/src/rDock_2013.1_src/data/scripts/dock_solv.prm

>  <Rbt.Receptor>
prm/blind_docking_20.prm

>  <SCORE>
-8.70609

>  <SCORE.INTER>
-15.7081

>  <SCORE.INTER.CONST>
1

>  <SCORE.INTER.POLAR>
-2.34461

>  <SCORE.INTER.ROT>
10

>  <SCORE.INTER.SOLV>
14.9623

>  <SCORE.INTER.VDW>
-17.9108

>  <SCORE.INTER.norm>
-0.654506

>  <SCORE.INTRA>
6.59207

>  <SCORE.INTRA.DIHEDRAL>
19.6532

>  <SCORE.INTRA.DIHEDRAL.0>
7.52971

>  <SCORE.INTRA.POLAR>
0

>  <SCORE.INTRA.POLAR.0>
0

>  <SCORE.INTRA.REPUL>
0

>  <SCORE.INTRA.REPUL.0>
0

>  <SCORE.INTRA.SOLV>
0.873271

>  <SCORE.INTRA.SOLV.lig_0>
-22.1084

>  <SCORE.INTRA.VDW>
-3.67116

>  <SCORE.INTRA.VDW.0>
2.4256

>  <SCORE.INTRA.norm>
0.274669

>  <SCORE.RESTR>
0.409991

>  <SCORE.RESTR.CAVITY>
0.409991

>  <SCORE.RESTR.norm>
0.0170829

>  <SCORE.SYSTEM>
0

>  <SCORE.SYSTEM.CONST>
0

>  <SCORE.SYSTEM.DIHEDRAL>
0

>  <SCORE.SYSTEM.SOLV>
0

>  <SCORE.SYSTEM.norm>
0

>  <SCORE.heavy>
24

>  <SCORE.norm>
-0.362754

>  <RMSD>
8.706

$$$$
lig.pdb
 OpenBabel11021811453D
libRbt.so/2013.1/901 2013/11/27
 24 24  0  0  0  0  0  0  0  0999 V2000
    3.4955   -4.7303   -1.6381 C   0  0  0  0  0  0  0  0  0  0  0  0
    4.2416   -5.3545   -0.5823 C   0  0  0  0  0  0  0  0  0  0  0  0
    3.6301   -6.1251    0.3781 C   0  0  0  0  0  0  0  0  0  0  0  0
    2.2171   -6.3549    0.3716 C   0  0  0  0  0  0  0  0  0  0  0  0
    1.4690   -5.7035   -0.6637 C   0  0  0  0  0  0  0  0  0  0  0  0
    2.0774   -4.9274   -1.6183 C   0  0  0  0  0  0  0  0  0  0  0  0
    4.0967   -3.9895   -2.6150 C   0  0  0  0  0  0  0  0  0  0  0  0
    5.3460   -3.4926   -2.4910 N   0  0  0  0  0  0  0  0  0  0  0  0
    2.0199   -8.3958    1.5981 N   0  0  0  0  0  0  0  0  0  0  0  0
    1.6050   -7.1468    1.2978 C   0  0  0  0  0  0  0  0  0  0  0  0
    3.4831   -3.6997   -3.7891 N   0  0  0  0  0  0  0  0  0  0  0  0
    0.5188   -6.7428    1.9985 N   0  0  0  0  0  0  0  0  0  0  0  0
    4.1150   -3.5978   -5.1031 C   0  0  0  0  0  0  0  0  0  0  0  0
    0.0658   -7.2875    3.2746 C   0  0  0  0  0  0  0  0  0  0  0  0
    4.9626   -4.8614   -5.3217 C   0  0  0  0  0  0  0  0  0  0  0  0
   -0.7306   -6.1883    4.0021 C   0  0  0  0  0  0  0  0  0  0  0  0
    4.0785   -6.0554   -5.7073 C   0  0  0  0  0  0  0  0  0  0  0  0
    0.1764   -5.1913    4.7458 C   0  0  0  0  0  0  0  0  0  0  0  0
    3.4839   -6.6579   -4.4602 N   0  0  0  0  0  0  0  0  0  0  0  0
    0.3110   -5.5475    6.2048 N   0  0  0  0  0  0  0  0  0  0  0  0
    3.8831   -8.1041   -4.3482 C   0  0  0  0  0  0  0  0  0  0  0  0
    0.9840   -6.8891    6.3173 C   0  0  0  0  0  0  0  0  0  0  0  0
    1.9793   -6.5481   -4.4744 C   0  0  0  0  0  0  0  0  0  0  0  0
   -1.0207   -5.6096    6.8995 C   0  0  0  0  0  0  0  0  0  0  0  0
  1  6  2  0  0  0  0
  2  3  2  0  0  0  0
  2  1  1  0  0  0  0
  3  4  1  0  0  0  0
  4 10  1  0  0  0  0
  4  5  2  0  0  0  0
  6  5  1  0  0  0  0
  7  1  1  0  0  0  0
  7 11  1  0  0  0  0
  8  7  2  0  0  0  0
  9 10  2  0  0  0  0
 10 12  1  0  0  0  0
 12 14  1  0  0  0  0
 13 11  1  0  0  0  0
 13 15  1  0  0  0  0
 14 16  1  0  0  0  0
 16 18  1  0  0  0  0
 17 15  1  0  0  0  0
 17 19  1  0  0  0  0
 18 20  1  0  0  0  0
 19 23  1  0  0  0  0
 20 22  1  0  0  0  0
 20 24  1  0  0  0  0
 21 19  1  0  0  0  0
M  END
>  <CHROM.1>
-50.49493029,-17.85553355,154.04848387,50.34828466,77.78247371,-82.10078508
-96.74317647,-81.86454708,-121.49798012,63.25750964,2.33807743,-5.81648873
-0.20413617,-0.66052736,1.07141812,0.83651343

>  <Name>
lig.pdb

>  <RI>
3.30914e+07

>  <Rbt.Current_Directory>
/home/itssahil/PROJECTS/Mol_Feturizer/New_Systems/rnas/2l94

>  <Rbt.Executable>
rbdock ($Id: //depot/dev/client3/rdock/2013.1/src/exe/rbdock.cxx#4 $)

>  <Rbt.Library>
libRbt.so (2013.1, Build901 2013/11/27)

>  <Rbt.Parameter_File>
/export/apps/rDock/src/rDock_2013.1_src/data/scripts/dock_solv.prm

>  <Rbt.Receptor>
prm/blind_docking_80.prm

>  <SCORE>
1.49555

>  <SCORE.INTER>
-7.40304

>  <SCORE.INTER.CONST>
1

>  <SCORE.INTER.POLAR>
-1.8321

>  <SCORE.INTER.ROT>
10

>  <SCORE.INTER.SOLV>
15.9958

>  <SCORE.INTER.VDW>
-14.427

>  <SCORE.INTER.norm>
-0.30846

>  <SCORE.INTRA>
8.65668

>  <SCORE.INTRA.DIHEDRAL>
17.7354

>  <SCORE.INTRA.DIHEDRAL.0>
7.52971

>  <SCORE.INTRA.POLAR>
0

>  <SCORE.INTRA.POLAR.0>
0

>  <SCORE.INTRA.REPUL>
0

>  <SCORE.INTRA.REPUL.0>
0

>  <SCORE.INTRA.SOLV>
1.59001

>  <SCORE.INTRA.SOLV.lig_0>
-22.1084

>  <SCORE.INTRA.VDW>
-1.00601

>  <SCORE.INTRA.VDW.0>
2.4256

>  <SCORE.INTRA.norm>
0.360695

>  <SCORE.RESTR>
0.241917

>  <SCORE.RESTR.CAVITY>
0.241917

>  <SCORE.RESTR.norm>
0.0100799

>  <SCORE.SYSTEM>
0

>  <SCORE.SYSTEM.CONST>
0

>  <SCORE.SYSTEM.DIHEDRAL>
0

>  <SCORE.SYSTEM.SOLV>
0

>  <SCORE.SYSTEM.norm>
0

>  <SCORE.heavy>
24

>  <SCORE.norm>
0.0623146

>  <RMSD>
8.717

$$$$
lig.pdb
 OpenBabel11021811453D
libRbt.so/2013.1/901 2013/11/27
 24 24  0  0  0  0  0  0  0  0999 V2000
    2.1438   -6.4410    0.2820 C   0  0  0  0  0  0  0  0  0  0  0  0
    1.4799   -6.0908   -0.9418 C   0  0  0  0  0  0  0  0  0  0  0  0
    2.1079   -5.3592   -1.9218 C   0  0  0  0  0  0  0  0  0  0  0  0
    3.4614   -4.9153   -1.7792 C   0  0  0  0  0  0  0  0  0  0  0  0
    4.1119   -5.2368   -0.5425 C   0  0  0  0  0  0  0  0  0  0  0  0
    3.4832   -5.9602    0.4399 C   0  0  0  0  0  0  0  0  0  0  0  0
    1.5403   -7.1943    1.2480 C   0  0  0  0  0  0  0  0  0  0  0  0
    1.8667   -8.4838    1.4796 N   0  0  0  0  0  0  0  0  0  0  0  0
    5.3571   -3.7320   -2.6246 N   0  0  0  0  0  0  0  0  0  0  0  0
    4.1059   -4.2204   -2.7597 C   0  0  0  0  0  0  0  0  0  0  0  0
    0.5669   -6.7003    2.0527 N   0  0  0  0  0  0  0  0  0  0  0  0
    3.5383   -3.9589   -3.9611 N   0  0  0  0  0  0  0  0  0  0  0  0
    0.3470   -7.0283    3.4599 C   0  0  0  0  0  0  0  0  0  0  0  0
    4.2463   -3.6381   -5.1965 C   0  0  0  0  0  0  0  0  0  0  0  0
    1.0011   -5.9285    4.3118 C   0  0  0  0  0  0  0  0  0  0  0  0
    5.0606   -4.8779   -5.6107 C   0  0  0  0  0  0  0  0  0  0  0  0
    1.0554   -6.3385    5.7899 C   0  0  0  0  0  0  0  0  0  0  0  0
    4.2023   -6.1536   -5.6870 C   0  0  0  0  0  0  0  0  0  0  0  0
   -0.3470   -6.4169    6.3367 N   0  0  0  0  0  0  0  0  0  0  0  0
    4.4166   -7.0375   -4.4844 N   0  0  0  0  0  0  0  0  0  0  0  0
   -0.9005   -5.0314    6.5305 C   0  0  0  0  0  0  0  0  0  0  0  0
    5.5450   -7.9899   -4.7763 C   0  0  0  0  0  0  0  0  0  0  0  0
   -0.3717   -7.1597    7.6496 C   0  0  0  0  0  0  0  0  0  0  0  0
    3.1874   -7.8295   -4.1353 C   0  0  0  0  0  0  0  0  0  0  0  0
  1  6  2  0  0  0  0
  2  3  2  0  0  0  0
  2  1  1  0  0  0  0
  3  4  1  0  0  0  0
  4 10  1  0  0  0  0
  4  5  2  0  0  0  0
  6  5  1  0  0  0  0
  7  1  1  0  0  0  0
  7 11  1  0  0  0  0
  8  7  2  0  0  0  0
  9 10  2  0  0  0  0
 10 12  1  0  0  0  0
 12 14  1  0  0  0  0
 13 11  1  0  0  0  0
 13 15  1  0  0  0  0
 14 16  1  0  0  0  0
 16 18  1  0  0  0  0
 17 15  1  0  0  0  0
 17 19  1  0  0  0  0
 18 20  1  0  0  0  0
 19 23  1  0  0  0  0
 20 22  1  0  0  0  0
 20 24  1  0  0  0  0
 21 19  1  0  0  0  0
M  END
>  <CHROM.1>
176.51823915,106.52970164,65.40879104,97.49335068,-168.82297777,52.94223674
-102.85574476,-66.59171462,-73.79226353,-89.83834414,2.53719190,-6.01315251
-0.16617985,2.91720426,1.15294265,0.34210553

>  <Name>
lig.pdb

>  <RI>
3.30914e+07

>  <Rbt.Current_Directory>
/home/itssahil/PROJECTS/Mol_Feturizer/New_Systems/rnas/2l94

>  <Rbt.Executable>
rbdock ($Id: //depot/dev/client3/rdock/2013.1/src/exe/rbdock.cxx#4 $)

>  <Rbt.Library>
libRbt.so (2013.1, Build901 2013/11/27)

>  <Rbt.Parameter_File>
/export/apps/rDock/src/rDock_2013.1_src/data/scripts/dock_solv.prm

>  <Rbt.Receptor>
prm/blind_docking_80.prm

>  <SCORE>
-2.78225

>  <SCORE.INTER>
-7.68017

>  <SCORE.INTER.CONST>
1

>  <SCORE.INTER.POLAR>
-1.32172

>  <SCORE.INTER.ROT>
10

>  <SCORE.INTER.SOLV>
15.749

>  <SCORE.INTER.VDW>
-16.2307

>  <SCORE.INTER.norm>
-0.320007

>  <SCORE.INTRA>
4.85497

>  <SCORE.INTRA.DIHEDRAL>
16.7642

>  <SCORE.INTRA.DIHEDRAL.0>
7.52971

>  <SCORE.INTRA.POLAR>
0

>  <SCORE.INTRA.POLAR.0>
0

>  <SCORE.INTRA.REPUL>
0

>  <SCORE.INTRA.REPUL.0>
0

>  <SCORE.INTRA.SOLV>
1.32444

>  <SCORE.INTRA.SOLV.lig_0>
-22.1084

>  <SCORE.INTRA.VDW>
-4.18934

>  <SCORE.INTRA.VDW.0>
2.4256

>  <SCORE.INTRA.norm>
0.202291

>  <SCORE.RESTR>
0.04295

>  <SCORE.RESTR.CAVITY>
0.04295

>  <SCORE.RESTR.norm>
0.00178958

>  <SCORE.SYSTEM>
0

>  <SCORE.SYSTEM.CONST>
0

>  <SCORE.SYSTEM.DIHEDRAL>
0

>  <SCORE.SYSTEM.SOLV>
0

>  <SCORE.SYSTEM.norm>
0

>  <SCORE.heavy>
24

>  <SCORE.norm>
-0.115927

>  <RMSD>
8.718

$$$$
lig.pdb
 OpenBabel11021811453D
libRbt.so/2013.1/901 2013/11/27
 24 24  0  0  0  0  0  0  0  0999 V2000
    0.7557   -6.1286    3.7490 C   0  0  0  0  0  0  0  0  0  0  0  0
    1.0283   -4.9028    3.0532 C   0  0  0  0  0  0  0  0  0  0  0  0
    1.4498   -4.8921    1.7446 C   0  0  0  0  0  0  0  0  0  0  0  0
    1.6303   -6.1025    1.0019 C   0  0  0  0  0  0  0  0  0  0  0  0
    1.3902   -7.3269    1.7083 C   0  0  0  0  0  0  0  0  0  0  0  0
    0.9772   -7.3391    3.0171 C   0  0  0  0  0  0  0  0  0  0  0  0
    0.3061   -6.1494    5.0383 C   0  0  0  0  0  0  0  0  0  0  0  0
    0.5964   -7.1497    5.8976 N   0  0  0  0  0  0  0  0  0  0  0  0
    2.2645   -7.2282   -1.0078 N   0  0  0  0  0  0  0  0  0  0  0  0
    2.0129   -6.1023   -0.3070 C   0  0  0  0  0  0  0  0  0  0  0  0
   -0.4653   -5.1611    5.5553 N   0  0  0  0  0  0  0  0  0  0  0  0
    2.1753   -4.9616   -1.0187 N   0  0  0  0  0  0  0  0  0  0  0  0
   -0.4301   -4.6515    6.9247 C   0  0  0  0  0  0  0  0  0  0  0  0
    2.1414   -4.8417   -2.4730 C   0  0  0  0  0  0  0  0  0  0  0  0
   -0.5518   -3.1203    6.8649 C   0  0  0  0  0  0  0  0  0  0  0  0
    3.3156   -3.9418   -2.9010 C   0  0  0  0  0  0  0  0  0  0  0  0
   -0.0279   -2.4773    8.1565 C   0  0  0  0  0  0  0  0  0  0  0  0
    4.6872   -4.5642   -2.5832 C   0  0  0  0  0  0  0  0  0  0  0  0
   -0.8697   -2.9377    9.3189 N   0  0  0  0  0  0  0  0  0  0  0  0
    5.8154   -3.7235   -3.1253 N   0  0  0  0  0  0  0  0  0  0  0  0
   -2.2183   -2.2726    9.2712 C   0  0  0  0  0  0  0  0  0  0  0  0
    5.9568   -3.9925   -4.5995 C   0  0  0  0  0  0  0  0  0  0  0  0
   -0.1952   -2.6203   10.6305 C   0  0  0  0  0  0  0  0  0  0  0  0
    7.1233   -4.0224   -2.4471 C   0  0  0  0  0  0  0  0  0  0  0  0
  1  6  2  0  0  0  0
  2  3  2  0  0  0  0
  2  1  1  0  0  0  0
  3  4  1  0  0  0  0
  4 10  1  0  0  0  0
  4  5  2  0  0  0  0
  6  5  1  0  0  0  0
  7  1  1  0  0  0  0
  7 11  1  0  0  0  0
  8  7  2  0  0  0  0
  9 10  2  0  0  0  0
 10 12  1  0  0  0  0
 12 14  1  0  0  0  0
 13 11  1  0  0  0  0
 13 15  1  0  0  0  0
 14 16  1  0  0  0  0
 16 18  1  0  0  0  0
 17 15  1  0  0  0  0
 17 19  1  0  0  0  0
 18 20  1  0  0  0  0
 19 23  1  0  0  0  0
 20 22  1  0  0  0  0
 20 24  1  0  0  0  0
 21 19  1  0  0  0  0
M  END
>  <CHROM.1>
176.05246634,-149.28399165,-135.54014707,138.54311523,-159.54004245,64.49442509
174.76195883,-62.41185242,-72.95237255,-79.21652788,1.64450784,-4.81488628
2.57603791,2.39298971,0.95465467,0.75518424

>  <Name>
lig.pdb

>  <RI>
2.41306e+07

>  <Rbt.Current_Directory>
/home/itssahil/PROJECTS/Mol_Feturizer/New_Systems/rnas/2l94

>  <Rbt.Executable>
rbdock ($Id: //depot/dev/client3/rdock/2013.1/src/exe/rbdock.cxx#4 $)

>  <Rbt.Library>
libRbt.so (2013.1, Build901 2013/11/27)

>  <Rbt.Parameter_File>
/export/apps/rDock/src/rDock_2013.1_src/data/scripts/dock_solv.prm

>  <Rbt.Receptor>
prm/blind_docking_40.prm

>  <SCORE>
-0.916459

>  <SCORE.INTER>
-2.33569

>  <SCORE.INTER.CONST>
1

>  <SCORE.INTER.POLAR>
-0.654855

>  <SCORE.INTER.ROT>
10

>  <SCORE.INTER.SOLV>
17.175

>  <SCORE.INTER.VDW>
-15.3659

>  <SCORE.INTER.norm>
-0.0973206

>  <SCORE.INTRA>
0.431501

>  <SCORE.INTRA.DIHEDRAL>
3.63397

>  <SCORE.INTRA.DIHEDRAL.0>
7.52971

>  <SCORE.INTRA.POLAR>
0

>  <SCORE.INTRA.POLAR.0>
0

>  <SCORE.INTRA.REPUL>
0

>  <SCORE.INTRA.REPUL.0>
0

>  <SCORE.INTRA.SOLV>
0.0833201

>  <SCORE.INTRA.SOLV.lig_0>
-22.1084

>  <SCORE.INTRA.VDW>
-1.42714

>  <SCORE.INTRA.VDW.0>
2.4256

>  <SCORE.INTRA.norm>
0.0179792

>  <SCORE.RESTR>
0.987735

>  <SCORE.RESTR.CAVITY>
0.987735

>  <SCORE.RESTR.norm>
0.0411556

>  <SCORE.SYSTEM>
0

>  <SCORE.SYSTEM.CONST>
0

>  <SCORE.SYSTEM.DIHEDRAL>
0

>  <SCORE.SYSTEM.SOLV>
0

>  <SCORE.SYSTEM.norm>
0

>  <SCORE.heavy>
24

>  <SCORE.norm>
-0.0381858

>  <RMSD>
8.728

$$$$
lig.pdb
 OpenBabel11021811453D
libRbt.so/2013.1/901 2013/11/27
 24 24  0  0  0  0  0  0  0  0999 V2000
    1.3723   -6.6378    0.8891 C   0  0  0  0  0  0  0  0  0  0  0  0
    1.8838   -7.8346    0.2833 C   0  0  0  0  0  0  0  0  0  0  0  0
    2.2886   -7.8645   -1.0303 C   0  0  0  0  0  0  0  0  0  0  0  0
    2.2312   -6.7011   -1.8624 C   0  0  0  0  0  0  0  0  0  0  0  0
    1.6888   -5.5155   -1.2658 C   0  0  0  0  0  0  0  0  0  0  0  0
    1.2768   -5.4865    0.0431 C   0  0  0  0  0  0  0  0  0  0  0  0
    0.9975   -6.5888    2.2013 C   0  0  0  0  0  0  0  0  0  0  0  0
    1.1443   -7.6345    3.0429 N   0  0  0  0  0  0  0  0  0  0  0  0
    3.5281   -7.6248   -3.6437 N   0  0  0  0  0  0  0  0  0  0  0  0
    2.6638   -6.7100   -3.1556 C   0  0  0  0  0  0  0  0  0  0  0  0
    0.4514   -5.4807    2.7605 N   0  0  0  0  0  0  0  0  0  0  0  0
    2.2597   -5.7921   -4.0656 N   0  0  0  0  0  0  0  0  0  0  0  0
    0.6546   -5.0008    4.1261 C   0  0  0  0  0  0  0  0  0  0  0  0
    2.2890   -5.9473   -5.5167 C   0  0  0  0  0  0  0  0  0  0  0  0
   -0.6791   -5.1319    4.8790 C   0  0  0  0  0  0  0  0  0  0  0  0
    3.7036   -5.5812   -6.0031 C   0  0  0  0  0  0  0  0  0  0  0  0
   -0.5473   -4.6243    6.3215 C   0  0  0  0  0  0  0  0  0  0  0  0
    4.1064   -4.1431   -5.6297 C   0  0  0  0  0  0  0  0  0  0  0  0
   -1.0963   -5.6622    7.2667 N   0  0  0  0  0  0  0  0  0  0  0  0
    4.5798   -4.0543   -4.2008 N   0  0  0  0  0  0  0  0  0  0  0  0
   -1.4658   -5.0197    8.5759 C   0  0  0  0  0  0  0  0  0  0  0  0
    3.8696   -2.9129   -3.5238 C   0  0  0  0  0  0  0  0  0  0  0  0
   -0.0873   -6.7576    7.5076 C   0  0  0  0  0  0  0  0  0  0  0  0
    6.0634   -3.8306   -4.1068 C   0  0  0  0  0  0  0  0  0  0  0  0
  1  6  2  0  0  0  0
  2  3  2  0  0  0  0
  2  1  1  0  0  0  0
  3  4  1  0  0  0  0
  4 10  1  0  0  0  0
  4  5  2  0  0  0  0
  6  5  1  0  0  0  0
  7  1  1  0  0  0  0
  7 11  1  0  0  0  0
  8  7  2  0  0  0  0
  9 10  2  0  0  0  0
 10 12  1  0  0  0  0
 12 14  1  0  0  0  0
 13 11  1  0  0  0  0
 13 15  1  0  0  0  0
 14 16  1  0  0  0  0
 16 18  1  0  0  0  0
 17 15  1  0  0  0  0
 17 19  1  0  0  0  0
 18 20  1  0  0  0  0
 19 23  1  0  0  0  0
 20 22  1  0  0  0  0
 20 24  1  0  0  0  0
 21 19  1  0  0  0  0
M  END
>  <CHROM.1>
-20.90814623,3.60121475,-83.87666020,-112.92691593,-179.13905954,-58.88168116
80.71356489,-129.76110366,-158.46356507,-130.83033854,1.80197913,-5.74658139
0.20695386,2.66046243,1.14889810,0.56429197

>  <Name>
lig.pdb

>  <RI>
3.30914e+07

>  <Rbt.Current_Directory>
/home/itssahil/PROJECTS/Mol_Feturizer/New_Systems/rnas/2l94

>  <Rbt.Executable>
rbdock ($Id: //depot/dev/client3/rdock/2013.1/src/exe/rbdock.cxx#4 $)

>  <Rbt.Library>
libRbt.so (2013.1, Build901 2013/11/27)

>  <Rbt.Parameter_File>
/export/apps/rDock/src/rDock_2013.1_src/data/scripts/dock_solv.prm

>  <Rbt.Receptor>
prm/blind_docking_80.prm

>  <SCORE>
-0.0255723

>  <SCORE.INTER>
-3.46196

>  <SCORE.INTER.CONST>
1

>  <SCORE.INTER.POLAR>
-1.25271

>  <SCORE.INTER.ROT>
10

>  <SCORE.INTER.SOLV>
15.6389

>  <SCORE.INTER.VDW>
-13.6119

>  <SCORE.INTER.norm>
-0.144248

>  <SCORE.INTRA>
2.51949

>  <SCORE.INTRA.DIHEDRAL>
9.78138

>  <SCORE.INTRA.DIHEDRAL.0>
7.52971

>  <SCORE.INTRA.POLAR>
0

>  <SCORE.INTRA.POLAR.0>
0

>  <SCORE.INTRA.REPUL>
0

>  <SCORE.INTRA.REPUL.0>
0

>  <SCORE.INTRA.SOLV>
1.72944

>  <SCORE.INTRA.SOLV.lig_0>
-22.1084

>  <SCORE.INTRA.VDW>
-3.23592

>  <SCORE.INTRA.VDW.0>
2.4256

>  <SCORE.INTRA.norm>
0.104979

>  <SCORE.RESTR>
0.916899

>  <SCORE.RESTR.CAVITY>
0.916899

>  <SCORE.RESTR.norm>
0.0382041

>  <SCORE.SYSTEM>
0

>  <SCORE.SYSTEM.CONST>
0

>  <SCORE.SYSTEM.DIHEDRAL>
0

>  <SCORE.SYSTEM.SOLV>
0

>  <SCORE.SYSTEM.norm>
0

>  <SCORE.heavy>
24

>  <SCORE.norm>
-0.00106551

>  <RMSD>
8.771

$$$$
lig.pdb
 OpenBabel11021811453D
libRbt.so/2013.1/901 2013/11/27
 24 24  0  0  0  0  0  0  0  0999 V2000
    0.0495   -6.1732    3.6085 C   0  0  0  0  0  0  0  0  0  0  0  0
    1.1077   -5.2842    3.9968 C   0  0  0  0  0  0  0  0  0  0  0  0
    2.1014   -4.9162    3.1209 C   0  0  0  0  0  0  0  0  0  0  0  0
    2.1292   -5.3918    1.7710 C   0  0  0  0  0  0  0  0  0  0  0  0
    1.0907   -6.3061    1.3946 C   0  0  0  0  0  0  0  0  0  0  0  0
    0.1027   -6.6805    2.2707 C   0  0  0  0  0  0  0  0  0  0  0  0
   -0.9597   -6.5199    4.4607 C   0  0  0  0  0  0  0  0  0  0  0  0
   -0.7633   -7.2932    5.5500 N   0  0  0  0  0  0  0  0  0  0  0  0
    4.4116   -5.0570    1.1493 N   0  0  0  0  0  0  0  0  0  0  0  0
    3.0893   -5.0048    0.8832 C   0  0  0  0  0  0  0  0  0  0  0  0
   -2.2389   -6.1084    4.2782 N   0  0  0  0  0  0  0  0  0  0  0  0
    2.7929   -4.5301   -0.3499 N   0  0  0  0  0  0  0  0  0  0  0  0
   -3.2014   -5.7592    5.3212 C   0  0  0  0  0  0  0  0  0  0  0  0
    3.6878   -4.5097   -1.5029 C   0  0  0  0  0  0  0  0  0  0  0  0
   -2.9845   -4.2835    5.6928 C   0  0  0  0  0  0  0  0  0  0  0  0
    3.1590   -5.5277   -2.5303 C   0  0  0  0  0  0  0  0  0  0  0  0
   -1.5990   -4.0730    6.3189 C   0  0  0  0  0  0  0  0  0  0  0  0
    4.2189   -5.9227   -3.5745 C   0  0  0  0  0  0  0  0  0  0  0  0
   -1.6838   -2.9892    7.3629 N   0  0  0  0  0  0  0  0  0  0  0  0
    4.9335   -4.7134   -4.1226 N   0  0  0  0  0  0  0  0  0  0  0  0
   -0.3010   -2.5808    7.7923 C   0  0  0  0  0  0  0  0  0  0  0  0
    5.3471   -4.9954   -5.5421 C   0  0  0  0  0  0  0  0  0  0  0  0
   -2.4682   -3.4586    8.5631 C   0  0  0  0  0  0  0  0  0  0  0  0
    6.1545   -4.3623   -3.3191 C   0  0  0  0  0  0  0  0  0  0  0  0
  1  6  2  0  0  0  0
  2  3  2  0  0  0  0
  2  1  1  0  0  0  0
  3  4  1  0  0  0  0
  4 10  1  0  0  0  0
  4  5  2  0  0  0  0
  6  5  1  0  0  0  0
  7  1  1  0  0  0  0
  7 11  1  0  0  0  0
  8  7  2  0  0  0  0
  9 10  2  0  0  0  0
 10 12  1  0  0  0  0
 12 14  1  0  0  0  0
 13 11  1  0  0  0  0
 13 15  1  0  0  0  0
 14 16  1  0  0  0  0
 16 18  1  0  0  0  0
 17 15  1  0  0  0  0
 17 19  1  0  0  0  0
 18 20  1  0  0  0  0
 19 23  1  0  0  0  0
 20 22  1  0  0  0  0
 20 24  1  0  0  0  0
 21 19  1  0  0  0  0
M  END
>  <CHROM.1>
50.67825479,-68.61653563,110.54830302,85.57086368,-64.59731062,-162.17023735
-46.38637502,-146.10862306,-168.90241973,-149.48825339,1.19082350,-5.06458766
2.17748920,2.36696979,0.67662690,0.95515213

>  <Name>
lig.pdb

>  <RI>
2.41306e+07

>  <Rbt.Current_Directory>
/home/itssahil/PROJECTS/Mol_Feturizer/New_Systems/rnas/2l94

>  <Rbt.Executable>
rbdock ($Id: //depot/dev/client3/rdock/2013.1/src/exe/rbdock.cxx#4 $)

>  <Rbt.Library>
libRbt.so (2013.1, Build901 2013/11/27)

>  <Rbt.Parameter_File>
/export/apps/rDock/src/rDock_2013.1_src/data/scripts/dock_solv.prm

>  <Rbt.Receptor>
prm/blind_docking_40.prm

>  <SCORE>
6.80296

>  <SCORE.INTER>
-2.58341

>  <SCORE.INTER.CONST>
1

>  <SCORE.INTER.POLAR>
-0.982197

>  <SCORE.INTER.ROT>
10

>  <SCORE.INTER.SOLV>
14.7222

>  <SCORE.INTER.VDW>
-13.6224

>  <SCORE.INTER.norm>
-0.107642

>  <SCORE.INTRA>
8.82772

>  <SCORE.INTRA.DIHEDRAL>
23.3219

>  <SCORE.INTRA.DIHEDRAL.0>
7.52971

>  <SCORE.INTRA.POLAR>
0

>  <SCORE.INTRA.POLAR.0>
0

>  <SCORE.INTRA.REPUL>
0

>  <SCORE.INTRA.REPUL.0>
0

>  <SCORE.INTRA.SOLV>
0.276801

>  <SCORE.INTRA.SOLV.lig_0>
-22.1084

>  <SCORE.INTRA.VDW>
-2.97165

>  <SCORE.INTRA.VDW.0>
2.4256

>  <SCORE.INTRA.norm>
0.367822

>  <SCORE.RESTR>
0.558645

>  <SCORE.RESTR.CAVITY>
0.558645

>  <SCORE.RESTR.norm>
0.0232769

>  <SCORE.SYSTEM>
0

>  <SCORE.SYSTEM.CONST>
0

>  <SCORE.SYSTEM.DIHEDRAL>
0

>  <SCORE.SYSTEM.SOLV>
0

>  <SCORE.SYSTEM.norm>
0

>  <SCORE.heavy>
24

>  <SCORE.norm>
0.283457

>  <RMSD>
8.811

$$$$
lig.pdb
 OpenBabel11021811453D
libRbt.so/2013.1/901 2013/11/27
 24 24  0  0  0  0  0  0  0  0999 V2000
    1.2376   -5.3465    0.3768 C   0  0  0  0  0  0  0  0  0  0  0  0
    0.8085   -6.5476   -0.2823 C   0  0  0  0  0  0  0  0  0  0  0  0
    1.1437   -6.8154   -1.5884 C   0  0  0  0  0  0  0  0  0  0  0  0
    1.9474   -5.9156   -2.3590 C   0  0  0  0  0  0  0  0  0  0  0  0
    2.3469   -4.7010   -1.7103 C   0  0  0  0  0  0  0  0  0  0  0  0
    2.0060   -4.4288   -0.4090 C   0  0  0  0  0  0  0  0  0  0  0  0
    0.9371   -5.0857    1.6831 C   0  0  0  0  0  0  0  0  0  0  0  0
    0.4950   -3.8817    2.1051 N   0  0  0  0  0  0  0  0  0  0  0  0
    2.1304   -5.3292   -4.6679 N   0  0  0  0  0  0  0  0  0  0  0  0
    2.3163   -6.1881   -3.6433 C   0  0  0  0  0  0  0  0  0  0  0  0
    1.0569   -6.0214    2.6574 N   0  0  0  0  0  0  0  0  0  0  0  0
    2.9036   -7.3548   -4.0010 N   0  0  0  0  0  0  0  0  0  0  0  0
    0.1891   -6.1857    3.8219 C   0  0  0  0  0  0  0  0  0  0  0  0
    3.7174   -7.5796   -5.1917 C   0  0  0  0  0  0  0  0  0  0  0  0
    0.9697   -6.9700    4.8890 C   0  0  0  0  0  0  0  0  0  0  0  0
    5.1475   -7.0971   -4.8854 C   0  0  0  0  0  0  0  0  0  0  0  0
    0.0217   -7.5452    5.9504 C   0  0  0  0  0  0  0  0  0  0  0  0
    5.1870   -6.0107   -3.7955 C   0  0  0  0  0  0  0  0  0  0  0  0
    0.8274   -8.2755    6.9942 N   0  0  0  0  0  0  0  0  0  0  0  0
    5.9659   -4.8013   -4.2476 N   0  0  0  0  0  0  0  0  0  0  0  0
    0.0751   -9.4899    7.4662 C   0  0  0  0  0  0  0  0  0  0  0  0
    6.9420   -4.4205   -3.1670 C   0  0  0  0  0  0  0  0  0  0  0  0
    1.1261   -7.3772    8.1688 C   0  0  0  0  0  0  0  0  0  0  0  0
    5.0738   -3.6262   -4.5358 C   0  0  0  0  0  0  0  0  0  0  0  0
  1  6  2  0  0  0  0
  2  3  2  0  0  0  0
  2  1  1  0  0  0  0
  3  4  1  0  0  0  0
  4 10  1  0  0  0  0
  4  5  2  0  0  0  0
  6  5  1  0  0  0  0
  7  1  1  0  0  0  0
  7 11  1  0  0  0  0
  8  7  2  0  0  0  0
  9 10  2  0  0  0  0
 10 12  1  0  0  0  0
 12 14  1  0  0  0  0
 13 11  1  0  0  0  0
 13 15  1  0  0  0  0
 14 16  1  0  0  0  0
 16 18  1  0  0  0  0
 17 15  1  0  0  0  0
 17 19  1  0  0  0  0
 18 20  1  0  0  0  0
 19 23  1  0  0  0  0
 20 22  1  0  0  0  0
 20 24  1  0  0  0  0
 21 19  1  0  0  0  0
M  END
>  <CHROM.1>
128.30202403,-135.00068362,82.45425013,-158.79335790,-162.98464354,-25.80158163
-128.11883957,-178.59240726,-143.75142302,-131.64165062,2.30862342,-6.13272188
0.02907975,1.92340016,-0.08775175,1.77609251

>  <Name>
lig.pdb

>  <RI>
3.30914e+07

>  <Rbt.Current_Directory>
/home/itssahil/PROJECTS/Mol_Feturizer/New_Systems/rnas/2l94

>  <Rbt.Executable>
rbdock ($Id: //depot/dev/client3/rdock/2013.1/src/exe/rbdock.cxx#4 $)

>  <Rbt.Library>
libRbt.so (2013.1, Build901 2013/11/27)

>  <Rbt.Parameter_File>
/export/apps/rDock/src/rDock_2013.1_src/data/scripts/dock_solv.prm

>  <Rbt.Receptor>
prm/blind_docking_80.prm

>  <SCORE>
9.67248

>  <SCORE.INTER>
-2.55825

>  <SCORE.INTER.CONST>
1

>  <SCORE.INTER.POLAR>
-2.01051

>  <SCORE.INTER.ROT>
10

>  <SCORE.INTER.SOLV>
18.2428

>  <SCORE.INTER.VDW>
-11.3514

>  <SCORE.INTER.norm>
-0.106594

>  <SCORE.INTRA>
10.9698

>  <SCORE.INTRA.DIHEDRAL>
26.7707

>  <SCORE.INTRA.DIHEDRAL.0>
7.52971

>  <SCORE.INTRA.POLAR>
0

>  <SCORE.INTRA.POLAR.0>
0

>  <SCORE.INTRA.REPUL>
0

>  <SCORE.INTRA.REPUL.0>
0

>  <SCORE.INTRA.SOLV>
0.862139

>  <SCORE.INTRA.SOLV.lig_0>
-22.1084

>  <SCORE.INTRA.VDW>
-2.84663

>  <SCORE.INTRA.VDW.0>
2.4256

>  <SCORE.INTRA.norm>
0.457074

>  <SCORE.RESTR>
1.26095

>  <SCORE.RESTR.CAVITY>
1.26095

>  <SCORE.RESTR.norm>
0.0525395

>  <SCORE.SYSTEM>
0

>  <SCORE.SYSTEM.CONST>
0

>  <SCORE.SYSTEM.DIHEDRAL>
0

>  <SCORE.SYSTEM.SOLV>
0

>  <SCORE.SYSTEM.norm>
0

>  <SCORE.heavy>
24

>  <SCORE.norm>
0.40302

>  <RMSD>
8.814

$$$$
lig.pdb
 OpenBabel11021811453D
libRbt.so/2013.1/901 2013/11/27
 24 24  0  0  0  0  0  0  0  0999 V2000
    1.5707   -6.6890    0.8019 C   0  0  0  0  0  0  0  0  0  0  0  0
    2.0767   -5.4374    1.2902 C   0  0  0  0  0  0  0  0  0  0  0  0
    1.6233   -4.8819    2.4632 C   0  0  0  0  0  0  0  0  0  0  0  0
    0.6288   -5.5265    3.2663 C   0  0  0  0  0  0  0  0  0  0  0  0
    0.1002   -6.7595    2.7604 C   0  0  0  0  0  0  0  0  0  0  0  0
    0.5463   -7.3110    1.5854 C   0  0  0  0  0  0  0  0  0  0  0  0
    2.0370   -7.2651   -0.3451 C   0  0  0  0  0  0  0  0  0  0  0  0
    1.4978   -8.3853   -0.8719 N   0  0  0  0  0  0  0  0  0  0  0  0
    0.8523   -4.0248    5.1112 N   0  0  0  0  0  0  0  0  0  0  0  0
    0.1981   -5.0027    4.4495 C   0  0  0  0  0  0  0  0  0  0  0  0
    3.0779   -6.7507   -1.0458 N   0  0  0  0  0  0  0  0  0  0  0  0
   -0.9315   -5.4253    5.0654 N   0  0  0  0  0  0  0  0  0  0  0  0
    3.2365   -6.7484   -2.4988 C   0  0  0  0  0  0  0  0  0  0  0  0
   -1.7072   -4.6770    6.0497 C   0  0  0  0  0  0  0  0  0  0  0  0
    2.9092   -5.3362   -3.0100 C   0  0  0  0  0  0  0  0  0  0  0  0
   -1.3966   -5.2614    7.4403 C   0  0  0  0  0  0  0  0  0  0  0  0
    3.8590   -4.2971   -2.3982 C   0  0  0  0  0  0  0  0  0  0  0  0
   -1.8952   -4.3632    8.5868 C   0  0  0  0  0  0  0  0  0  0  0  0
    5.2646   -4.5689   -2.8697 N   0  0  0  0  0  0  0  0  0  0  0  0
   -0.7641   -3.5896    9.2157 N   0  0  0  0  0  0  0  0  0  0  0  0
    6.2268   -3.6447   -2.1745 C   0  0  0  0  0  0  0  0  0  0  0  0
   -1.2424   -3.0003   10.5155 C   0  0  0  0  0  0  0  0  0  0  0  0
    5.3760   -4.3852   -4.3630 C   0  0  0  0  0  0  0  0  0  0  0  0
   -0.2723   -2.4801    8.3285 C   0  0  0  0  0  0  0  0  0  0  0  0
  1  6  2  0  0  0  0
  2  3  2  0  0  0  0
  2  1  1  0  0  0  0
  3  4  1  0  0  0  0
  4 10  1  0  0  0  0
  4  5  2  0  0  0  0
  6  5  1  0  0  0  0
  7  1  1  0  0  0  0
  7 11  1  0  0  0  0
  8  7  2  0  0  0  0
  9 10  2  0  0  0  0
 10 12  1  0  0  0  0
 12 14  1  0  0  0  0
 13 11  1  0  0  0  0
 13 15  1  0  0  0  0
 14 16  1  0  0  0  0
 16 18  1  0  0  0  0
 17 15  1  0  0  0  0
 17 19  1  0  0  0  0
 18 20  1  0  0  0  0
 19 23  1  0  0  0  0
 20 22  1  0  0  0  0
 20 24  1  0  0  0  0
 21 19  1  0  0  0  0
M  END
>  <CHROM.1>
-15.27290051,-174.57583407,-103.51894724,103.05056404,60.42121645,166.85403785
-102.90348031,64.58152175,-174.47228498,-166.48286924,1.39877816,-5.20470003
2.41227896,0.89447045,-0.81374936,-2.23797033

>  <Name>
lig.pdb

>  <RI>
2.41306e+07

>  <Rbt.Current_Directory>
/home/itssahil/PROJECTS/Mol_Feturizer/New_Systems/rnas/2l94

>  <Rbt.Executable>
rbdock ($Id: //depot/dev/client3/rdock/2013.1/src/exe/rbdock.cxx#4 $)

>  <Rbt.Library>
libRbt.so (2013.1, Build901 2013/11/27)

>  <Rbt.Parameter_File>
/export/apps/rDock/src/rDock_2013.1_src/data/scripts/dock_solv.prm

>  <Rbt.Receptor>
prm/blind_docking_40.prm

>  <SCORE>
-4.65468

>  <SCORE.INTER>
-5.78202

>  <SCORE.INTER.CONST>
1

>  <SCORE.INTER.POLAR>
-1.36977

>  <SCORE.INTER.ROT>
10

>  <SCORE.INTER.SOLV>
14.8176

>  <SCORE.INTER.VDW>
-14.4947

>  <SCORE.INTER.norm>
-0.240918

>  <SCORE.INTRA>
0.6687

>  <SCORE.INTRA.DIHEDRAL>
3.91028

>  <SCORE.INTRA.DIHEDRAL.0>
7.52971

>  <SCORE.INTRA.POLAR>
0

>  <SCORE.INTRA.POLAR.0>
0

>  <SCORE.INTRA.REPUL>
0

>  <SCORE.INTRA.REPUL.0>
0

>  <SCORE.INTRA.SOLV>
0.784098

>  <SCORE.INTRA.SOLV.lig_0>
-22.1084

>  <SCORE.INTRA.VDW>
-1.67849

>  <SCORE.INTRA.VDW.0>
2.4256

>  <SCORE.INTRA.norm>
0.0278625

>  <SCORE.RESTR>
0.458644

>  <SCORE.RESTR.CAVITY>
0.458644

>  <SCORE.RESTR.norm>
0.0191102

>  <SCORE.SYSTEM>
0

>  <SCORE.SYSTEM.CONST>
0

>  <SCORE.SYSTEM.DIHEDRAL>
0

>  <SCORE.SYSTEM.SOLV>
0

>  <SCORE.SYSTEM.norm>
0

>  <SCORE.heavy>
24

>  <SCORE.norm>
-0.193945

>  <RMSD>
8.832

$$$$
lig.pdb
 OpenBabel11021811453D
libRbt.so/2013.1/901 2013/11/27
 24 24  0  0  0  0  0  0  0  0999 V2000
    0.9322   -6.5540   -0.5636 C   0  0  0  0  0  0  0  0  0  0  0  0
    1.5489   -6.6137    0.7314 C   0  0  0  0  0  0  0  0  0  0  0  0
    0.8479   -6.9993    1.8495 C   0  0  0  0  0  0  0  0  0  0  0  0
   -0.5327   -7.3717    1.7811 C   0  0  0  0  0  0  0  0  0  0  0  0
   -1.1560   -7.2792    0.4932 C   0  0  0  0  0  0  0  0  0  0  0  0
   -0.4592   -6.8866   -0.6222 C   0  0  0  0  0  0  0  0  0  0  0  0
    1.6272   -6.2032   -1.6856 C   0  0  0  0  0  0  0  0  0  0  0  0
    1.0578   -5.5587   -2.7265 N   0  0  0  0  0  0  0  0  0  0  0  0
   -0.8852   -8.8743    3.6049 N   0  0  0  0  0  0  0  0  0  0  0  0
   -1.2279   -7.7905    2.8770 C   0  0  0  0  0  0  0  0  0  0  0  0
    2.9475   -6.4734   -1.8370 N   0  0  0  0  0  0  0  0  0  0  0  0
   -2.3313   -7.1486    3.3292 N   0  0  0  0  0  0  0  0  0  0  0  0
    3.9383   -5.6374   -2.5120 C   0  0  0  0  0  0  0  0  0  0  0  0
   -2.8758   -7.2204    4.6815 C   0  0  0  0  0  0  0  0  0  0  0  0
    3.9060   -4.2445   -1.8624 C   0  0  0  0  0  0  0  0  0  0  0  0
   -1.7436   -6.8741    5.6664 C   0  0  0  0  0  0  0  0  0  0  0  0
    4.1145   -4.3416   -0.3448 C   0  0  0  0  0  0  0  0  0  0  0  0
   -1.0662   -5.5299    5.3436 C   0  0  0  0  0  0  0  0  0  0  0  0
    5.5595   -4.6620   -0.0603 N   0  0  0  0  0  0  0  0  0  0  0  0
   -1.5436   -4.4346    6.2633 N   0  0  0  0  0  0  0  0  0  0  0  0
    5.7107   -5.1325    1.3607 C   0  0  0  0  0  0  0  0  0  0  0  0
   -2.7640   -3.7919    5.6608 C   0  0  0  0  0  0  0  0  0  0  0  0
    6.4334   -3.4536   -0.2887 C   0  0  0  0  0  0  0  0  0  0  0  0
   -0.4950   -3.3802    6.4834 C   0  0  0  0  0  0  0  0  0  0  0  0
  1  6  2  0  0  0  0
  2  3  2  0  0  0  0
  2  1  1  0  0  0  0
  3  4  1  0  0  0  0
  4 10  1  0  0  0  0
  4  5  2  0  0  0  0
  6  5  1  0  0  0  0
  7  1  1  0  0  0  0
  7 11  1  0  0  0  0
  8  7  2  0  0  0  0
  9 10  2  0  0  0  0
 10 12  1  0  0  0  0
 12 14  1  0  0  0  0
 13 11  1  0  0  0  0
 13 15  1  0  0  0  0
 14 16  1  0  0  0  0
 16 18  1  0  0  0  0
 17 15  1  0  0  0  0
 17 19  1  0  0  0  0
 18 20  1  0  0  0  0
 19 23  1  0  0  0  0
 20 22  1  0  0  0  0
 20 24  1  0  0  0  0
 21 19  1  0  0  0  0
M  END
>  <CHROM.1>
-59.80340330,-148.70361604,53.21082594,55.42389072,54.86325784,53.69616718
102.04043734,73.45089212,-164.40747982,-88.80199169,0.93120262,-5.89219639
1.61316720,0.65565652,-0.52804975,-2.00800850

>  <Name>
lig.pdb

>  <RI>
3.93418e+07

>  <Rbt.Current_Directory>
/home/itssahil/PROJECTS/Mol_Feturizer/New_Systems/rnas/2l94

>  <Rbt.Executable>
rbdock ($Id: //depot/dev/client3/rdock/2013.1/src/exe/rbdock.cxx#4 $)

>  <Rbt.Library>
libRbt.so (2013.1, Build901 2013/11/27)

>  <Rbt.Parameter_File>
/export/apps/rDock/src/rDock_2013.1_src/data/scripts/dock_solv.prm

>  <Rbt.Receptor>
prm/blind_docking_20.prm

>  <SCORE>
-5.36631

>  <SCORE.INTER>
-12.175

>  <SCORE.INTER.CONST>
1

>  <SCORE.INTER.POLAR>
-2.37638

>  <SCORE.INTER.ROT>
10

>  <SCORE.INTER.SOLV>
15.7393

>  <SCORE.INTER.VDW>
-15.7085

>  <SCORE.INTER.norm>
-0.507291

>  <SCORE.INTRA>
6.30078

>  <SCORE.INTRA.DIHEDRAL>
17.795

>  <SCORE.INTRA.DIHEDRAL.0>
7.52971

>  <SCORE.INTRA.POLAR>
0

>  <SCORE.INTRA.POLAR.0>
0

>  <SCORE.INTRA.REPUL>
0

>  <SCORE.INTRA.REPUL.0>
0

>  <SCORE.INTRA.SOLV>
1.37432

>  <SCORE.INTRA.SOLV.lig_0>
-22.1084

>  <SCORE.INTRA.VDW>
-3.28389

>  <SCORE.INTRA.VDW.0>
2.4256

>  <SCORE.INTRA.norm>
0.262533

>  <SCORE.RESTR>
0.507885

>  <SCORE.RESTR.CAVITY>
0.507885

>  <SCORE.RESTR.norm>
0.0211619

>  <SCORE.SYSTEM>
0

>  <SCORE.SYSTEM.CONST>
0

>  <SCORE.SYSTEM.DIHEDRAL>
0

>  <SCORE.SYSTEM.SOLV>
0

>  <SCORE.SYSTEM.norm>
0

>  <SCORE.heavy>
24

>  <SCORE.norm>
-0.223596

>  <RMSD>
8.888

$$$$
lig.pdb
 OpenBabel11021811453D
libRbt.so/2013.1/901 2013/11/27
 24 24  0  0  0  0  0  0  0  0999 V2000
    3.2622   -4.8896   -1.8276 C   0  0  0  0  0  0  0  0  0  0  0  0
    2.2119   -5.7468   -2.3003 C   0  0  0  0  0  0  0  0  0  0  0  0
    1.4269   -6.4730   -1.4363 C   0  0  0  0  0  0  0  0  0  0  0  0
    1.6077   -6.4061   -0.0178 C   0  0  0  0  0  0  0  0  0  0  0  0
    2.6786   -5.5759    0.4509 C   0  0  0  0  0  0  0  0  0  0  0  0
    3.4682   -4.8567   -0.4111 C   0  0  0  0  0  0  0  0  0  0  0  0
    4.0267   -4.1397   -2.6749 C   0  0  0  0  0  0  0  0  0  0  0  0
    5.2426   -3.6623   -2.3332 N   0  0  0  0  0  0  0  0  0  0  0  0
    0.5493   -8.4126    0.7319 N   0  0  0  0  0  0  0  0  0  0  0  0
    0.8115   -7.0937    0.8499 C   0  0  0  0  0  0  0  0  0  0  0  0
    3.6220   -3.8206   -3.9293 N   0  0  0  0  0  0  0  0  0  0  0  0
    0.2110   -6.5045    1.9111 N   0  0  0  0  0  0  0  0  0  0  0  0
    4.4667   -3.7039   -5.1164 C   0  0  0  0  0  0  0  0  0  0  0  0
   -0.2721   -7.1798    3.1116 C   0  0  0  0  0  0  0  0  0  0  0  0
    4.0107   -4.7657   -6.1300 C   0  0  0  0  0  0  0  0  0  0  0  0
    0.4444   -6.5581    4.3248 C   0  0  0  0  0  0  0  0  0  0  0  0
    4.8945   -6.0179   -6.0483 C   0  0  0  0  0  0  0  0  0  0  0  0
    0.3195   -7.4201    5.5942 C   0  0  0  0  0  0  0  0  0  0  0  0
    4.5330   -6.8027   -4.8132 N   0  0  0  0  0  0  0  0  0  0  0  0
    0.6544   -6.6307    6.8344 N   0  0  0  0  0  0  0  0  0  0  0  0
    5.6006   -7.8219   -4.5220 C   0  0  0  0  0  0  0  0  0  0  0  0
    1.1577   -7.5769    7.8913 C   0  0  0  0  0  0  0  0  0  0  0  0
    3.2047   -7.4967   -4.9866 C   0  0  0  0  0  0  0  0  0  0  0  0
   -0.5355   -5.8861    7.3725 C   0  0  0  0  0  0  0  0  0  0  0  0
  1  6  2  0  0  0  0
  2  3  2  0  0  0  0
  2  1  1  0  0  0  0
  3  4  1  0  0  0  0
  4 10  1  0  0  0  0
  4  5  2  0  0  0  0
  6  5  1  0  0  0  0
  7  1  1  0  0  0  0
  7 11  1  0  0  0  0
  8  7  2  0  0  0  0
  9 10  2  0  0  0  0
 10 12  1  0  0  0  0
 12 14  1  0  0  0  0
 13 11  1  0  0  0  0
 13 15  1  0  0  0  0
 14 16  1  0  0  0  0
 16 18  1  0  0  0  0
 17 15  1  0  0  0  0
 17 19  1  0  0  0  0
 18 20  1  0  0  0  0
 19 23  1  0  0  0  0
 20 22  1  0  0  0  0
 20 24  1  0  0  0  0
 21 19  1  0  0  0  0
M  END
>  <CHROM.1>
50.38495231,-159.10983639,121.84324212,117.43563242,-97.36472999,-164.38147872
-163.08722685,75.03128505,-165.49232441,-153.12725315,2.40327926,-6.08146755
-0.26896243,-0.80666965,1.02630588,1.02448427

>  <Name>
lig.pdb

>  <RI>
3.30914e+07

>  <Rbt.Current_Directory>
/home/itssahil/PROJECTS/Mol_Feturizer/New_Systems/rnas/2l94

>  <Rbt.Executable>
rbdock ($Id: //depot/dev/client3/rdock/2013.1/src/exe/rbdock.cxx#4 $)

>  <Rbt.Library>
libRbt.so (2013.1, Build901 2013/11/27)

>  <Rbt.Parameter_File>
/export/apps/rDock/src/rDock_2013.1_src/data/scripts/dock_solv.prm

>  <Rbt.Receptor>
prm/blind_docking_80.prm

>  <SCORE>
-2.18916

>  <SCORE.INTER>
-6.06982

>  <SCORE.INTER.CONST>
1

>  <SCORE.INTER.POLAR>
-1.25948

>  <SCORE.INTER.ROT>
10

>  <SCORE.INTER.SOLV>
13.3553

>  <SCORE.INTER.VDW>
-14.5667

>  <SCORE.INTER.norm>
-0.252909

>  <SCORE.INTRA>
3.3389

>  <SCORE.INTRA.DIHEDRAL>
14.8957

>  <SCORE.INTRA.DIHEDRAL.0>
7.52971

>  <SCORE.INTRA.POLAR>
0

>  <SCORE.INTRA.POLAR.0>
0

>  <SCORE.INTRA.REPUL>
0

>  <SCORE.INTRA.REPUL.0>
0

>  <SCORE.INTRA.SOLV>
0.933157

>  <SCORE.INTRA.SOLV.lig_0>
-22.1084

>  <SCORE.INTRA.VDW>
-4.57555

>  <SCORE.INTRA.VDW.0>
2.4256

>  <SCORE.INTRA.norm>
0.139121

>  <SCORE.RESTR>
0.541762

>  <SCORE.RESTR.CAVITY>
0.541762

>  <SCORE.RESTR.norm>
0.0225734

>  <SCORE.SYSTEM>
0

>  <SCORE.SYSTEM.CONST>
0

>  <SCORE.SYSTEM.DIHEDRAL>
0

>  <SCORE.SYSTEM.SOLV>
0

>  <SCORE.SYSTEM.norm>
0

>  <SCORE.heavy>
24

>  <SCORE.norm>
-0.0912149

>  <RMSD>
8.906

$$$$
lig.pdb
 OpenBabel11021811453D
libRbt.so/2013.1/901 2013/11/27
 24 24  0  0  0  0  0  0  0  0999 V2000
    0.1464   -6.1183    3.7315 C   0  0  0  0  0  0  0  0  0  0  0  0
    1.1098   -5.0555    3.6734 C   0  0  0  0  0  0  0  0  0  0  0  0
    1.9538   -4.9020    2.5991 C   0  0  0  0  0  0  0  0  0  0  0  0
    1.9107   -5.7879    1.4753 C   0  0  0  0  0  0  0  0  0  0  0  0
    0.9713   -6.8685    1.5498 C   0  0  0  0  0  0  0  0  0  0  0  0
    0.1338   -7.0275    2.6255 C   0  0  0  0  0  0  0  0  0  0  0  0
   -0.7180   -6.2609    4.7790 C   0  0  0  0  0  0  0  0  0  0  0  0
   -0.6500   -7.2925    5.6475 N   0  0  0  0  0  0  0  0  0  0  0  0
    3.8914   -4.9579    0.4284 N   0  0  0  0  0  0  0  0  0  0  0  0
    2.7178   -5.6235    0.3885 C   0  0  0  0  0  0  0  0  0  0  0  0
   -1.7108   -5.3714    5.0286 N   0  0  0  0  0  0  0  0  0  0  0  0
    2.4050   -6.1176   -0.8330 N   0  0  0  0  0  0  0  0  0  0  0  0
   -2.2009   -4.9552    6.3412 C   0  0  0  0  0  0  0  0  0  0  0  0
    3.3431   -6.3912   -1.9173 C   0  0  0  0  0  0  0  0  0  0  0  0
   -1.0989   -4.1242    7.0180 C   0  0  0  0  0  0  0  0  0  0  0  0
    2.9351   -5.5272   -3.1251 C   0  0  0  0  0  0  0  0  0  0  0  0
   -1.6541   -3.3557    8.2250 C   0  0  0  0  0  0  0  0  0  0  0  0
    3.2158   -4.0295   -2.9058 C   0  0  0  0  0  0  0  0  0  0  0  0
   -0.5140   -2.9468    9.1222 N   0  0  0  0  0  0  0  0  0  0  0  0
    4.4186   -3.5711   -3.6911 N   0  0  0  0  0  0  0  0  0  0  0  0
   -1.0495   -2.4369   10.4325 C   0  0  0  0  0  0  0  0  0  0  0  0
    5.6651   -4.0181   -2.9756 C   0  0  0  0  0  0  0  0  0  0  0  0
    0.3275   -1.8783    8.4695 C   0  0  0  0  0  0  0  0  0  0  0  0
    4.4568   -2.0768   -3.8510 C   0  0  0  0  0  0  0  0  0  0  0  0
  1  6  2  0  0  0  0
  2  3  2  0  0  0  0
  2  1  1  0  0  0  0
  3  4  1  0  0  0  0
  4 10  1  0  0  0  0
  4  5  2  0  0  0  0
  6  5  1  0  0  0  0
  7  1  1  0  0  0  0
  7 11  1  0  0  0  0
  8  7  2  0  0  0  0
  9 10  2  0  0  0  0
 10 12  1  0  0  0  0
 12 14  1  0  0  0  0
 13 11  1  0  0  0  0
 13 15  1  0  0  0  0
 14 16  1  0  0  0  0
 16 18  1  0  0  0  0
 17 15  1  0  0  0  0
 17 19  1  0  0  0  0
 18 20  1  0  0  0  0
 19 23  1  0  0  0  0
 20 22  1  0  0  0  0
 20 24  1  0  0  0  0
 21 19  1  0  0  0  0
M  END
>  <CHROM.1>
23.43442114,-112.23231832,-119.86564378,68.95535960,165.43140456,70.75022672
105.27790370,160.88100048,-168.89443064,-77.63027806,1.27513851,-4.81071375
2.59801988,2.39453429,0.95287234,0.79293990

>  <Name>
lig.pdb

>  <RI>
2.41306e+07

>  <Rbt.Current_Directory>
/home/itssahil/PROJECTS/Mol_Feturizer/New_Systems/rnas/2l94

>  <Rbt.Executable>
rbdock ($Id: //depot/dev/client3/rdock/2013.1/src/exe/rbdock.cxx#4 $)

>  <Rbt.Library>
libRbt.so (2013.1, Build901 2013/11/27)

>  <Rbt.Parameter_File>
/export/apps/rDock/src/rDock_2013.1_src/data/scripts/dock_solv.prm

>  <Rbt.Receptor>
prm/blind_docking_40.prm

>  <SCORE>
6.1317

>  <SCORE.INTER>
-0.981338

>  <SCORE.INTER.CONST>
1

>  <SCORE.INTER.POLAR>
-0.397633

>  <SCORE.INTER.ROT>
10

>  <SCORE.INTER.SOLV>
14.5614

>  <SCORE.INTER.VDW>
-14.4492

>  <SCORE.INTER.norm>
-0.0408891

>  <SCORE.INTRA>
6.04672

>  <SCORE.INTRA.DIHEDRAL>
18.5135

>  <SCORE.INTRA.DIHEDRAL.0>
7.52971

>  <SCORE.INTRA.POLAR>
0

>  <SCORE.INTRA.POLAR.0>
0

>  <SCORE.INTRA.REPUL>
0

>  <SCORE.INTRA.REPUL.0>
0

>  <SCORE.INTRA.SOLV>
0.449234

>  <SCORE.INTRA.SOLV.lig_0>
-22.1084

>  <SCORE.INTRA.VDW>
-3.43466

>  <SCORE.INTRA.VDW.0>
2.4256

>  <SCORE.INTRA.norm>
0.251947

>  <SCORE.RESTR>
1.06632

>  <SCORE.RESTR.CAVITY>
1.06632

>  <SCORE.RESTR.norm>
0.04443

>  <SCORE.SYSTEM>
0

>  <SCORE.SYSTEM.CONST>
0

>  <SCORE.SYSTEM.DIHEDRAL>
0

>  <SCORE.SYSTEM.SOLV>
0

>  <SCORE.SYSTEM.norm>
0

>  <SCORE.heavy>
24

>  <SCORE.norm>
0.255487

>  <RMSD>
8.949

$$$$
lig.pdb
 OpenBabel11021811453D
libRbt.so/2013.1/901 2013/11/27
 24 24  0  0  0  0  0  0  0  0999 V2000
    1.5276   -6.0378    0.9345 C   0  0  0  0  0  0  0  0  0  0  0  0
    0.7320   -7.0614    1.5511 C   0  0  0  0  0  0  0  0  0  0  0  0
    0.5049   -7.0831    2.9068 C   0  0  0  0  0  0  0  0  0  0  0  0
    1.0416   -6.0802    3.7761 C   0  0  0  0  0  0  0  0  0  0  0  0
    1.8637   -5.0778    3.1636 C   0  0  0  0  0  0  0  0  0  0  0  0
    2.0977   -5.0598    1.8113 C   0  0  0  0  0  0  0  0  0  0  0  0
    1.7329   -5.9888   -0.4146 C   0  0  0  0  0  0  0  0  0  0  0  0
    1.1033   -6.8120   -1.2801 N   0  0  0  0  0  0  0  0  0  0  0  0
    1.7578   -6.1970    6.0524 N   0  0  0  0  0  0  0  0  0  0  0  0
    0.7929   -6.0713    5.1168 C   0  0  0  0  0  0  0  0  0  0  0  0
    2.5849   -5.1036   -0.9887 N   0  0  0  0  0  0  0  0  0  0  0  0
   -0.4547   -5.9360    5.6258 N   0  0  0  0  0  0  0  0  0  0  0  0
    2.4152   -4.4393   -2.2795 C   0  0  0  0  0  0  0  0  0  0  0  0
   -0.7914   -5.4786    6.9704 C   0  0  0  0  0  0  0  0  0  0  0  0
    3.5745   -3.4459   -2.4584 C   0  0  0  0  0  0  0  0  0  0  0  0
   -1.4643   -4.0989    6.8461 C   0  0  0  0  0  0  0  0  0  0  0  0
    4.8730   -4.1780   -2.8248 C   0  0  0  0  0  0  0  0  0  0  0  0
   -1.8722   -3.5122    8.2097 C   0  0  0  0  0  0  0  0  0  0  0  0
    4.8244   -4.5816   -4.2762 N   0  0  0  0  0  0  0  0  0  0  0  0
   -0.6671   -3.1981    9.0598 N   0  0  0  0  0  0  0  0  0  0  0  0
    4.8984   -6.0796   -4.3951 C   0  0  0  0  0  0  0  0  0  0  0  0
   -1.1324   -2.8116   10.4381 C   0  0  0  0  0  0  0  0  0  0  0  0
    5.9608   -3.9563   -5.0466 C   0  0  0  0  0  0  0  0  0  0  0  0
    0.1537   -2.0754    8.4891 C   0  0  0  0  0  0  0  0  0  0  0  0
  1  6  2  0  0  0  0
  2  3  2  0  0  0  0
  2  1  1  0  0  0  0
  3  4  1  0  0  0  0
  4 10  1  0  0  0  0
  4  5  2  0  0  0  0
  6  5  1  0  0  0  0
  7  1  1  0  0  0  0
  7 11  1  0  0  0  0
  8  7  2  0  0  0  0
  9 10  2  0  0  0  0
 10 12  1  0  0  0  0
 12 14  1  0  0  0  0
 13 11  1  0  0  0  0
 13 15  1  0  0  0  0
 14 16  1  0  0  0  0
 16 18  1  0  0  0  0
 17 15  1  0  0  0  0
 17 19  1  0  0  0  0
 18 20  1  0  0  0  0
 19 23  1  0  0  0  0
 20 22  1  0  0  0  0
 20 24  1  0  0  0  0
 21 19  1  0  0  0  0
M  END
>  <CHROM.1>
117.86043674,6.68887757,111.41158325,175.59791691,76.01194702,179.79612854
65.95295093,76.66277191,-118.44726856,-172.24853915,1.52187570,-4.98026949
2.37399423,0.78597073,-0.99446234,-2.34573006

>  <Name>
lig.pdb

>  <RI>
2.41306e+07

>  <Rbt.Current_Directory>
/home/itssahil/PROJECTS/Mol_Feturizer/New_Systems/rnas/2l94

>  <Rbt.Executable>
rbdock ($Id: //depot/dev/client3/rdock/2013.1/src/exe/rbdock.cxx#4 $)

>  <Rbt.Library>
libRbt.so (2013.1, Build901 2013/11/27)

>  <Rbt.Parameter_File>
/export/apps/rDock/src/rDock_2013.1_src/data/scripts/dock_solv.prm

>  <Rbt.Receptor>
prm/blind_docking_40.prm

>  <SCORE>
1.22687

>  <SCORE.INTER>
-2.83161

>  <SCORE.INTER.CONST>
1

>  <SCORE.INTER.POLAR>
-0.569976

>  <SCORE.INTER.ROT>
10

>  <SCORE.INTER.SOLV>
17.6928

>  <SCORE.INTER.VDW>
-16.1521

>  <SCORE.INTER.norm>
-0.117984

>  <SCORE.INTRA>
4.02606

>  <SCORE.INTRA.DIHEDRAL>
13.1793

>  <SCORE.INTRA.DIHEDRAL.0>
7.52971

>  <SCORE.INTRA.POLAR>
0

>  <SCORE.INTRA.POLAR.0>
0

>  <SCORE.INTRA.REPUL>
0

>  <SCORE.INTRA.REPUL.0>
0

>  <SCORE.INTRA.SOLV>
0.0121383

>  <SCORE.INTRA.SOLV.lig_0>
-22.1084

>  <SCORE.INTRA.VDW>
-2.56968

>  <SCORE.INTRA.VDW.0>
2.4256

>  <SCORE.INTRA.norm>
0.167752

>  <SCORE.RESTR>
0.0324201

>  <SCORE.RESTR.CAVITY>
0.0324201

>  <SCORE.RESTR.norm>
0.00135084

>  <SCORE.SYSTEM>
0

>  <SCORE.SYSTEM.CONST>
0

>  <SCORE.SYSTEM.DIHEDRAL>
0

>  <SCORE.SYSTEM.SOLV>
0

>  <SCORE.SYSTEM.norm>
0

>  <SCORE.heavy>
24

>  <SCORE.norm>
0.0511197

>  <RMSD>
8.958

$$$$
lig.pdb
 OpenBabel11021811453D
libRbt.so/2013.1/901 2013/11/27
 24 24  0  0  0  0  0  0  0  0999 V2000
    1.9887    1.0877    4.7933 C   0  0  0  0  0  0  0  0  0  0  0  0
    0.9636    2.0479    4.4963 C   0  0  0  0  0  0  0  0  0  0  0  0
    0.1108    2.5192    5.4663 C   0  0  0  0  0  0  0  0  0  0  0  0
    0.2053    2.0853    6.8272 C   0  0  0  0  0  0  0  0  0  0  0  0
    1.2075    1.1012    7.1155 C   0  0  0  0  0  0  0  0  0  0  0  0
    2.0541    0.6240    6.1464 C   0  0  0  0  0  0  0  0  0  0  0  0
    2.8612    0.6371    3.8443 C   0  0  0  0  0  0  0  0  0  0  0  0
    3.9328   -0.1287    4.1414 N   0  0  0  0  0  0  0  0  0  0  0  0
   -0.6885    2.0409    9.0425 N   0  0  0  0  0  0  0  0  0  0  0  0
   -0.6113    2.5731    7.8043 C   0  0  0  0  0  0  0  0  0  0  0  0
    2.7138    0.9230    2.5269 N   0  0  0  0  0  0  0  0  0  0  0  0
   -1.4215    3.6409    7.6112 N   0  0  0  0  0  0  0  0  0  0  0  0
    3.0302    0.0452    1.4020 C   0  0  0  0  0  0  0  0  0  0  0  0
   -1.9781    4.4990    8.6526 C   0  0  0  0  0  0  0  0  0  0  0  0
    1.7069   -0.3888    0.7513 C   0  0  0  0  0  0  0  0  0  0  0  0
   -1.9441    5.9502    8.1380 C   0  0  0  0  0  0  0  0  0  0  0  0
    1.9478   -0.9660   -0.6505 C   0  0  0  0  0  0  0  0  0  0  0  0
   -3.2706    6.3803    7.4860 C   0  0  0  0  0  0  0  0  0  0  0  0
    2.2040    0.1625   -1.6163 N   0  0  0  0  0  0  0  0  0  0  0  0
   -3.0678    6.8236    6.0591 N   0  0  0  0  0  0  0  0  0  0  0  0
    0.9240    0.9042   -1.8901 C   0  0  0  0  0  0  0  0  0  0  0  0
   -4.1316    7.8285    5.7069 C   0  0  0  0  0  0  0  0  0  0  0  0
    2.7743   -0.3579   -2.9124 C   0  0  0  0  0  0  0  0  0  0  0  0
   -3.1415    5.6754    5.0916 C   0  0  0  0  0  0  0  0  0  0  0  0
  1  6  2  0  0  0  0
  2  3  2  0  0  0  0
  2  1  1  0  0  0  0
  3  4  1  0  0  0  0
  4 10  1  0  0  0  0
  4  5  2  0  0  0  0
  6  5  1  0  0  0  0
  7  1  1  0  0  0  0
  7 11  1  0  0  0  0
  8  7  2  0  0  0  0
  9 10  2  0  0  0  0
 10 12  1  0  0  0  0
 12 14  1  0  0  0  0
 13 11  1  0  0  0  0
 13 15  1  0  0  0  0
 14 16  1  0  0  0  0
 16 18  1  0  0  0  0
 17 15  1  0  0  0  0
 17 19  1  0  0  0  0
 18 20  1  0  0  0  0
 19 23  1  0  0  0  0
 20 22  1  0  0  0  0
 20 24  1  0  0  0  0
 21 19  1  0  0  0  0
M  END
>  <CHROM.1>
169.38289033,171.20016968,140.88448572,109.99096700,163.63997417,94.71565049
-121.98452922,-76.58022520,-72.59592512,-151.83777631,0.32431688,2.35597580
4.35069937,-0.82277825,-0.82859289,1.55463573

>  <Name>
lig.pdb

>  <RI>
1.39428e+07

>  <Rbt.Current_Directory>
/home/itssahil/PROJECTS/Mol_Feturizer/New_Systems/rnas/2l94

>  <Rbt.Executable>
rbdock ($Id: //depot/dev/client3/rdock/2013.1/src/exe/rbdock.cxx#4 $)

>  <Rbt.Library>
libRbt.so (2013.1, Build901 2013/11/27)

>  <Rbt.Parameter_File>
/export/apps/rDock/src/rDock_2013.1_src/data/scripts/dock_solv.prm

>  <Rbt.Receptor>
prm/pocket_docking_8.prm

>  <SCORE>
-18.9115

>  <SCORE.INTER>
-22.0538

>  <SCORE.INTER.CONST>
1

>  <SCORE.INTER.POLAR>
-2.90648

>  <SCORE.INTER.ROT>
10

>  <SCORE.INTER.SOLV>
10.2883

>  <SCORE.INTER.VDW>
-18.7104

>  <SCORE.INTER.norm>
-0.918909

>  <SCORE.INTRA>
3.14229

>  <SCORE.INTRA.DIHEDRAL>
10.8613

>  <SCORE.INTRA.DIHEDRAL.0>
7.52971

>  <SCORE.INTRA.POLAR>
0

>  <SCORE.INTRA.POLAR.0>
0

>  <SCORE.INTRA.REPUL>
0

>  <SCORE.INTRA.REPUL.0>
0

>  <SCORE.INTRA.SOLV>
0.205189

>  <SCORE.INTRA.SOLV.lig_0>
-22.1084

>  <SCORE.INTRA.VDW>
-2.39096

>  <SCORE.INTRA.VDW.0>
2.4256

>  <SCORE.INTRA.norm>
0.130929

>  <SCORE.RESTR>
0

>  <SCORE.RESTR.CAVITY>
0

>  <SCORE.RESTR.norm>
0

>  <SCORE.SYSTEM>
0

>  <SCORE.SYSTEM.CONST>
0

>  <SCORE.SYSTEM.DIHEDRAL>
0

>  <SCORE.SYSTEM.SOLV>
0

>  <SCORE.SYSTEM.norm>
0

>  <SCORE.heavy>
24

>  <SCORE.norm>
-0.787981

>  <RMSD>
9.047

$$$$
lig.pdb
 OpenBabel11021811453D
libRbt.so/2013.1/901 2013/11/27
 24 24  0  0  0  0  0  0  0  0999 V2000
    1.6896   -6.7998   -0.0149 C   0  0  0  0  0  0  0  0  0  0  0  0
    1.4962   -7.9188    0.8635 C   0  0  0  0  0  0  0  0  0  0  0  0
    0.9785   -7.7650    2.1278 C   0  0  0  0  0  0  0  0  0  0  0  0
    0.5948   -6.4818    2.6333 C   0  0  0  0  0  0  0  0  0  0  0  0
    0.8199   -5.3612    1.7676 C   0  0  0  0  0  0  0  0  0  0  0  0
    1.3442   -5.5125    0.5083 C   0  0  0  0  0  0  0  0  0  0  0  0
    2.1731   -6.9453   -1.2837 C   0  0  0  0  0  0  0  0  0  0  0  0
    2.6015   -8.1292   -1.7713 N   0  0  0  0  0  0  0  0  0  0  0  0
   -0.7341   -5.2742    4.2093 N   0  0  0  0  0  0  0  0  0  0  0  0
    0.0467   -6.3223    3.8717 C   0  0  0  0  0  0  0  0  0  0  0  0
    2.2556   -5.9082   -2.1535 N   0  0  0  0  0  0  0  0  0  0  0  0
    0.2433   -7.2097    4.8756 N   0  0  0  0  0  0  0  0  0  0  0  0
    2.0441   -5.9614   -3.5987 C   0  0  0  0  0  0  0  0  0  0  0  0
   -0.6078   -7.3861    6.0482 C   0  0  0  0  0  0  0  0  0  0  0  0
    3.0650   -5.0237   -4.2630 C   0  0  0  0  0  0  0  0  0  0  0  0
   -0.2461   -6.2874    7.0649 C   0  0  0  0  0  0  0  0  0  0  0  0
    4.4855   -5.3130   -3.7583 C   0  0  0  0  0  0  0  0  0  0  0  0
   -1.4787   -5.5135    7.5666 C   0  0  0  0  0  0  0  0  0  0  0  0
    5.1927   -4.0098   -3.4877 N   0  0  0  0  0  0  0  0  0  0  0  0
   -1.0839   -4.3525    8.4440 N   0  0  0  0  0  0  0  0  0  0  0  0
    6.6279   -4.2715   -3.1197 C   0  0  0  0  0  0  0  0  0  0  0  0
   -2.2939   -3.8888    9.2096 C   0  0  0  0  0  0  0  0  0  0  0  0
    4.5150   -3.2513   -2.3735 C   0  0  0  0  0  0  0  0  0  0  0  0
   -0.5380   -3.1994    7.6489 C   0  0  0  0  0  0  0  0  0  0  0  0
  1  6  2  0  0  0  0
  2  3  2  0  0  0  0
  2  1  1  0  0  0  0
  3  4  1  0  0  0  0
  4 10  1  0  0  0  0
  4  5  2  0  0  0  0
  6  5  1  0  0  0  0
  7  1  1  0  0  0  0
  7 11  1  0  0  0  0
  8  7  2  0  0  0  0
  9 10  2  0  0  0  0
 10 12  1  0  0  0  0
 12 14  1  0  0  0  0
 13 11  1  0  0  0  0
 13 15  1  0  0  0  0
 14 16  1  0  0  0  0
 16 18  1  0  0  0  0
 17 15  1  0  0  0  0
 17 19  1  0  0  0  0
 18 20  1  0  0  0  0
 19 23  1  0  0  0  0
 20 22  1  0  0  0  0
 20 24  1  0  0  0  0
 21 19  1  0  0  0  0
M  END
>  <CHROM.1>
-156.11964538,-5.27392534,-80.61886117,-141.82889509,50.69338019,128.74070131
-173.92418857,-136.87735031,-174.56545056,-163.89660516,1.40230760,-5.70201418
1.73372327,0.64677628,-1.00031006,-2.41682770

>  <Name>
lig.pdb

>  <RI>
2.41306e+07

>  <Rbt.Current_Directory>
/home/itssahil/PROJECTS/Mol_Feturizer/New_Systems/rnas/2l94

>  <Rbt.Executable>
rbdock ($Id: //depot/dev/client3/rdock/2013.1/src/exe/rbdock.cxx#4 $)

>  <Rbt.Library>
libRbt.so (2013.1, Build901 2013/11/27)

>  <Rbt.Parameter_File>
/export/apps/rDock/src/rDock_2013.1_src/data/scripts/dock_solv.prm

>  <Rbt.Receptor>
prm/blind_docking_40.prm

>  <SCORE>
3.35697

>  <SCORE.INTER>
-4.12147

>  <SCORE.INTER.CONST>
1

>  <SCORE.INTER.POLAR>
-1.5974

>  <SCORE.INTER.ROT>
10

>  <SCORE.INTER.SOLV>
15.4724

>  <SCORE.INTER.VDW>
-12.8471

>  <SCORE.INTER.norm>
-0.171728

>  <SCORE.INTRA>
5.37391

>  <SCORE.INTRA.DIHEDRAL>
10.3257

>  <SCORE.INTRA.DIHEDRAL.0>
7.52971

>  <SCORE.INTRA.POLAR>
0

>  <SCORE.INTRA.POLAR.0>
0

>  <SCORE.INTRA.REPUL>
0

>  <SCORE.INTRA.REPUL.0>
0

>  <SCORE.INTRA.SOLV>
1.12391

>  <SCORE.INTRA.SOLV.lig_0>
-22.1084

>  <SCORE.INTRA.VDW>
-0.350873

>  <SCORE.INTRA.VDW.0>
2.4256

>  <SCORE.INTRA.norm>
0.223913

>  <SCORE.RESTR>
2.10453

>  <SCORE.RESTR.CAVITY>
2.10453

>  <SCORE.RESTR.norm>
0.0876887

>  <SCORE.SYSTEM>
0

>  <SCORE.SYSTEM.CONST>
0

>  <SCORE.SYSTEM.DIHEDRAL>
0

>  <SCORE.SYSTEM.SOLV>
0

>  <SCORE.SYSTEM.norm>
0

>  <SCORE.heavy>
24

>  <SCORE.norm>
0.139874

>  <RMSD>
9.048

$$$$
lig.pdb
 OpenBabel11021811453D
libRbt.so/2013.1/901 2013/11/27
 24 24  0  0  0  0  0  0  0  0999 V2000
    0.3783   -6.1931    4.3788 C   0  0  0  0  0  0  0  0  0  0  0  0
    1.0256   -4.9935    3.9282 C   0  0  0  0  0  0  0  0  0  0  0  0
    1.5916   -4.9025    2.6786 C   0  0  0  0  0  0  0  0  0  0  0  0
    1.5574   -5.9960    1.7552 C   0  0  0  0  0  0  0  0  0  0  0  0
    0.9404   -7.2043    2.2190 C   0  0  0  0  0  0  0  0  0  0  0  0
    0.3822   -7.2989    3.4693 C   0  0  0  0  0  0  0  0  0  0  0  0
   -0.2149   -6.2836    5.6055 C   0  0  0  0  0  0  0  0  0  0  0  0
    0.2377   -5.6143    6.6874 N   0  0  0  0  0  0  0  0  0  0  0  0
    2.4288   -6.9790   -0.2404 N   0  0  0  0  0  0  0  0  0  0  0  0
    2.0834   -5.9047    0.5004 C   0  0  0  0  0  0  0  0  0  0  0  0
   -1.3096   -7.0522    5.8288 N   0  0  0  0  0  0  0  0  0  0  0  0
    2.3066   -4.7176   -0.1118 N   0  0  0  0  0  0  0  0  0  0  0  0
   -2.4182   -6.7517    6.7326 C   0  0  0  0  0  0  0  0  0  0  0  0
    2.4331   -4.5005   -1.5496 C   0  0  0  0  0  0  0  0  0  0  0  0
   -3.5627   -6.1542    5.8982 C   0  0  0  0  0  0  0  0  0  0  0  0
    3.9153   -4.6812   -1.9268 C   0  0  0  0  0  0  0  0  0  0  0  0
   -3.0929   -4.9080    5.1352 C   0  0  0  0  0  0  0  0  0  0  0  0
    4.1863   -4.4084   -3.4174 C   0  0  0  0  0  0  0  0  0  0  0  0
   -3.3472   -3.6837    5.9768 N   0  0  0  0  0  0  0  0  0  0  0  0
    5.5063   -4.9907   -3.8556 N   0  0  0  0  0  0  0  0  0  0  0  0
   -3.4816   -2.4729    5.0939 C   0  0  0  0  0  0  0  0  0  0  0  0
    6.3366   -3.8993   -4.4760 C   0  0  0  0  0  0  0  0  0  0  0  0
   -2.2274   -3.4678    6.9644 C   0  0  0  0  0  0  0  0  0  0  0  0
    5.3340   -6.1007   -4.8546 C   0  0  0  0  0  0  0  0  0  0  0  0
  1  6  2  0  0  0  0
  2  3  2  0  0  0  0
  2  1  1  0  0  0  0
  3  4  1  0  0  0  0
  4 10  1  0  0  0  0
  4  5  2  0  0  0  0
  6  5  1  0  0  0  0
  7  1  1  0  0  0  0
  7 11  1  0  0  0  0
  8  7  2  0  0  0  0
  9 10  2  0  0  0  0
 10 12  1  0  0  0  0
 12 14  1  0  0  0  0
 13 11  1  0  0  0  0
 13 15  1  0  0  0  0
 14 16  1  0  0  0  0
 16 18  1  0  0  0  0
 17 15  1  0  0  0  0
 17 19  1  0  0  0  0
 18 20  1  0  0  0  0
 19 23  1  0  0  0  0
 20 22  1  0  0  0  0
 20 24  1  0  0  0  0
 21 19  1  0  0  0  0
M  END
>  <CHROM.1>
159.65694891,-32.13178923,-88.89498470,98.04691521,-57.05159732,-177.22377469
-162.27308586,-91.30812875,-155.15258743,-125.10193022,0.88395278,-5.34946291
2.14924600,-2.65487632,0.83173232,-0.60674049

>  <Name>
lig.pdb

>  <RI>
2.41306e+07

>  <Rbt.Current_Directory>
/home/itssahil/PROJECTS/Mol_Feturizer/New_Systems/rnas/2l94

>  <Rbt.Executable>
rbdock ($Id: //depot/dev/client3/rdock/2013.1/src/exe/rbdock.cxx#4 $)

>  <Rbt.Library>
libRbt.so (2013.1, Build901 2013/11/27)

>  <Rbt.Parameter_File>
/export/apps/rDock/src/rDock_2013.1_src/data/scripts/dock_solv.prm

>  <Rbt.Receptor>
prm/blind_docking_40.prm

>  <SCORE>
-6.3718

>  <SCORE.INTER>
-10.9063

>  <SCORE.INTER.CONST>
1

>  <SCORE.INTER.POLAR>
-2.17206

>  <SCORE.INTER.ROT>
10

>  <SCORE.INTER.SOLV>
17.1892

>  <SCORE.INTER.VDW>
-16.027

>  <SCORE.INTER.norm>
-0.45443

>  <SCORE.INTRA>
2.67552

>  <SCORE.INTRA.DIHEDRAL>
11.3096

>  <SCORE.INTRA.DIHEDRAL.0>
7.52971

>  <SCORE.INTRA.POLAR>
0

>  <SCORE.INTRA.POLAR.0>
0

>  <SCORE.INTRA.REPUL>
0

>  <SCORE.INTRA.REPUL.0>
0

>  <SCORE.INTRA.SOLV>
1.03339

>  <SCORE.INTRA.SOLV.lig_0>
-22.1084

>  <SCORE.INTRA.VDW>
-3.49596

>  <SCORE.INTRA.VDW.0>
2.4256

>  <SCORE.INTRA.norm>
0.11148

>  <SCORE.RESTR>
1.85899

>  <SCORE.RESTR.CAVITY>
1.85899

>  <SCORE.RESTR.norm>
0.0774579

>  <SCORE.SYSTEM>
0

>  <SCORE.SYSTEM.CONST>
0

>  <SCORE.SYSTEM.DIHEDRAL>
0

>  <SCORE.SYSTEM.SOLV>
0

>  <SCORE.SYSTEM.norm>
0

>  <SCORE.heavy>
24

>  <SCORE.norm>
-0.265492

>  <RMSD>
9.130

$$$$
lig.pdb
 OpenBabel11021811453D
libRbt.so/2013.1/901 2013/11/27
 24 24  0  0  0  0  0  0  0  0999 V2000
   -0.4392   -5.9635    4.6542 C   0  0  0  0  0  0  0  0  0  0  0  0
    0.1403   -7.0183    3.8716 C   0  0  0  0  0  0  0  0  0  0  0  0
    0.8982   -6.7577    2.7545 C   0  0  0  0  0  0  0  0  0  0  0  0
    1.1588   -5.4199    2.3169 C   0  0  0  0  0  0  0  0  0  0  0  0
    0.5516   -4.3688    3.0800 C   0  0  0  0  0  0  0  0  0  0  0  0
   -0.2119   -4.6280    4.1906 C   0  0  0  0  0  0  0  0  0  0  0  0
   -1.1668   -6.2100    5.7833 C   0  0  0  0  0  0  0  0  0  0  0  0
   -0.9509   -7.2845    6.5718 N   0  0  0  0  0  0  0  0  0  0  0  0
    1.5161   -4.4225    0.1755 N   0  0  0  0  0  0  0  0  0  0  0  0
    1.9390   -5.1487    1.2318 C   0  0  0  0  0  0  0  0  0  0  0  0
   -2.1618   -5.3885    6.2007 N   0  0  0  0  0  0  0  0  0  0  0  0
    3.2143   -5.5911    1.1222 N   0  0  0  0  0  0  0  0  0  0  0  0
   -2.5117   -5.0736    7.5844 C   0  0  0  0  0  0  0  0  0  0  0  0
    4.2527   -5.0223    0.2687 C   0  0  0  0  0  0  0  0  0  0  0  0
   -1.2422   -4.5751    8.2936 C   0  0  0  0  0  0  0  0  0  0  0  0
    5.6161   -5.5097    0.7936 C   0  0  0  0  0  0  0  0  0  0  0  0
   -1.5971   -3.7397    9.5314 C   0  0  0  0  0  0  0  0  0  0  0  0
    5.9962   -4.8708    2.1416 C   0  0  0  0  0  0  0  0  0  0  0  0
   -0.3442   -3.1078   10.0815 N   0  0  0  0  0  0  0  0  0  0  0  0
    6.4311   -3.4371    1.9716 N   0  0  0  0  0  0  0  0  0  0  0  0
   -0.6454   -2.4227   11.3867 C   0  0  0  0  0  0  0  0  0  0  0  0
    5.2071   -2.5662    1.8771 C   0  0  0  0  0  0  0  0  0  0  0  0
    0.2275   -2.1090    9.1060 C   0  0  0  0  0  0  0  0  0  0  0  0
    7.2672   -3.2396    0.7380 C   0  0  0  0  0  0  0  0  0  0  0  0
  1  6  2  0  0  0  0
  2  3  2  0  0  0  0
  2  1  1  0  0  0  0
  3  4  1  0  0  0  0
  4 10  1  0  0  0  0
  4  5  2  0  0  0  0
  6  5  1  0  0  0  0
  7  1  1  0  0  0  0
  7 11  1  0  0  0  0
  8  7  2  0  0  0  0
  9 10  2  0  0  0  0
 10 12  1  0  0  0  0
 12 14  1  0  0  0  0
 13 11  1  0  0  0  0
 13 15  1  0  0  0  0
 14 16  1  0  0  0  0
 16 18  1  0  0  0  0
 17 15  1  0  0  0  0
 17 19  1  0  0  0  0
 18 20  1  0  0  0  0
 19 23  1  0  0  0  0
 20 22  1  0  0  0  0
 20 24  1  0  0  0  0
 21 19  1  0  0  0  0
M  END
>  <CHROM.1>
123.65763101,29.43628007,161.38510652,53.64285124,158.36191526,-70.49177173
-74.76047660,-171.92622228,-173.20677097,81.23604120,1.43131942,-4.69709059
4.44950516,2.35446890,0.49523415,1.09285770

>  <Name>
lig.pdb

>  <RI>
2.41306e+07

>  <Rbt.Current_Directory>
/home/itssahil/PROJECTS/Mol_Feturizer/New_Systems/rnas/2l94

>  <Rbt.Executable>
rbdock ($Id: //depot/dev/client3/rdock/2013.1/src/exe/rbdock.cxx#4 $)

>  <Rbt.Library>
libRbt.so (2013.1, Build901 2013/11/27)

>  <Rbt.Parameter_File>
/export/apps/rDock/src/rDock_2013.1_src/data/scripts/dock_solv.prm

>  <Rbt.Receptor>
prm/blind_docking_40.prm

>  <SCORE>
-1.49825

>  <SCORE.INTER>
-12.8613

>  <SCORE.INTER.CONST>
1

>  <SCORE.INTER.POLAR>
-2.3437

>  <SCORE.INTER.ROT>
10

>  <SCORE.INTER.SOLV>
16.353

>  <SCORE.INTER.VDW>
-16.4795

>  <SCORE.INTER.norm>
-0.535887

>  <SCORE.INTRA>
9.08688

>  <SCORE.INTRA.DIHEDRAL>
13.2304

>  <SCORE.INTRA.DIHEDRAL.0>
7.52971

>  <SCORE.INTRA.POLAR>
0

>  <SCORE.INTRA.POLAR.0>
0

>  <SCORE.INTRA.REPUL>
0

>  <SCORE.INTRA.REPUL.0>
0

>  <SCORE.INTRA.SOLV>
0.323836

>  <SCORE.INTRA.SOLV.lig_0>
-22.1084

>  <SCORE.INTRA.VDW>
2.30978

>  <SCORE.INTRA.VDW.0>
2.4256

>  <SCORE.INTRA.norm>
0.37862

>  <SCORE.RESTR>
2.27616

>  <SCORE.RESTR.CAVITY>
2.27616

>  <SCORE.RESTR.norm>
0.0948401

>  <SCORE.SYSTEM>
0

>  <SCORE.SYSTEM.CONST>
0

>  <SCORE.SYSTEM.DIHEDRAL>
0

>  <SCORE.SYSTEM.SOLV>
0

>  <SCORE.SYSTEM.norm>
0

>  <SCORE.heavy>
24

>  <SCORE.norm>
-0.0624273

>  <RMSD>
9.131

$$$$
lig.pdb
 OpenBabel11021811453D
libRbt.so/2013.1/901 2013/11/27
 24 24  0  0  0  0  0  0  0  0999 V2000
    1.2036   -6.7127    0.2395 C   0  0  0  0  0  0  0  0  0  0  0  0
    1.9781   -5.6728    0.8559 C   0  0  0  0  0  0  0  0  0  0  0  0
    1.9408   -5.4500    2.2120 C   0  0  0  0  0  0  0  0  0  0  0  0
    1.1351   -6.2496    3.0843 C   0  0  0  0  0  0  0  0  0  0  0  0
    0.3366   -7.2657    2.4633 C   0  0  0  0  0  0  0  0  0  0  0  0
    0.3668   -7.4837    1.1086 C   0  0  0  0  0  0  0  0  0  0  0  0
    1.2577   -6.9630   -1.1019 C   0  0  0  0  0  0  0  0  0  0  0  0
    0.1595   -6.9788   -1.8873 N   0  0  0  0  0  0  0  0  0  0  0  0
    1.9248   -5.1868    5.0731 N   0  0  0  0  0  0  0  0  0  0  0  0
    1.1183   -6.0611    4.4348 C   0  0  0  0  0  0  0  0  0  0  0  0
    2.4235   -7.2114   -1.7486 N   0  0  0  0  0  0  0  0  0  0  0  0
    0.2845   -6.7431    5.2556 N   0  0  0  0  0  0  0  0  0  0  0  0
    2.7728   -6.8021   -3.1075 C   0  0  0  0  0  0  0  0  0  0  0  0
   -0.1323   -6.3337    6.5932 C   0  0  0  0  0  0  0  0  0  0  0  0
    2.9158   -5.2716   -3.1205 C   0  0  0  0  0  0  0  0  0  0  0  0
   -1.4552   -5.5567    6.4595 C   0  0  0  0  0  0  0  0  0  0  0  0
    3.4156   -4.7786   -4.4855 C   0  0  0  0  0  0  0  0  0  0  0  0
   -1.8942   -4.8999    7.7807 C   0  0  0  0  0  0  0  0  0  0  0  0
    4.9225   -4.7498   -4.4832 N   0  0  0  0  0  0  0  0  0  0  0  0
   -1.0225   -3.7198    8.1286 N   0  0  0  0  0  0  0  0  0  0  0  0
    5.4622   -6.1460   -4.3320 C   0  0  0  0  0  0  0  0  0  0  0  0
   -1.0520   -3.5168    9.6197 C   0  0  0  0  0  0  0  0  0  0  0  0
    5.4422   -3.8825   -3.3634 C   0  0  0  0  0  0  0  0  0  0  0  0
   -1.4810   -2.4566    7.4548 C   0  0  0  0  0  0  0  0  0  0  0  0
  1  6  2  0  0  0  0
  2  3  2  0  0  0  0
  2  1  1  0  0  0  0
  3  4  1  0  0  0  0
  4 10  1  0  0  0  0
  4  5  2  0  0  0  0
  6  5  1  0  0  0  0
  7  1  1  0  0  0  0
  7 11  1  0  0  0  0
  8  7  2  0  0  0  0
  9 10  2  0  0  0  0
 10 12  1  0  0  0  0
 12 14  1  0  0  0  0
 13 11  1  0  0  0  0
 13 15  1  0  0  0  0
 14 16  1  0  0  0  0
 16 18  1  0  0  0  0
 17 15  1  0  0  0  0
 17 19  1  0  0  0  0
 18 20  1  0  0  0  0
 19 23  1  0  0  0  0
 20 22  1  0  0  0  0
 20 24  1  0  0  0  0
 21 19  1  0  0  0  0
M  END
>  <CHROM.1>
-5.25307515,-125.03170567,93.05638830,68.21376343,174.50471553,-171.84361509
72.12634181,-89.60027088,64.40345103,-154.54263765,1.35374696,-5.62690988
1.80269132,0.94611248,-0.86166606,-2.16886276

>  <Name>
lig.pdb

>  <RI>
2.41306e+07

>  <Rbt.Current_Directory>
/home/itssahil/PROJECTS/Mol_Feturizer/New_Systems/rnas/2l94

>  <Rbt.Executable>
rbdock ($Id: //depot/dev/client3/rdock/2013.1/src/exe/rbdock.cxx#4 $)

>  <Rbt.Library>
libRbt.so (2013.1, Build901 2013/11/27)

>  <Rbt.Parameter_File>
/export/apps/rDock/src/rDock_2013.1_src/data/scripts/dock_solv.prm

>  <Rbt.Receptor>
prm/blind_docking_40.prm

>  <SCORE>
1.87136

>  <SCORE.INTER>
-5.54023

>  <SCORE.INTER.CONST>
1

>  <SCORE.INTER.POLAR>
-1.28078

>  <SCORE.INTER.ROT>
10

>  <SCORE.INTER.SOLV>
15.5055

>  <SCORE.INTER.VDW>
-14.8594

>  <SCORE.INTER.norm>
-0.230843

>  <SCORE.INTRA>
6.47252

>  <SCORE.INTRA.DIHEDRAL>
10.929

>  <SCORE.INTRA.DIHEDRAL.0>
7.52971

>  <SCORE.INTRA.POLAR>
0

>  <SCORE.INTRA.POLAR.0>
0

>  <SCORE.INTRA.REPUL>
0

>  <SCORE.INTRA.REPUL.0>
0

>  <SCORE.INTRA.SOLV>
0.0548766

>  <SCORE.INTRA.SOLV.lig_0>
-22.1084

>  <SCORE.INTRA.VDW>
0.980564

>  <SCORE.INTRA.VDW.0>
2.4256

>  <SCORE.INTRA.norm>
0.269688

>  <SCORE.RESTR>
0.939072

>  <SCORE.RESTR.CAVITY>
0.939072

>  <SCORE.RESTR.norm>
0.039128

>  <SCORE.SYSTEM>
0

>  <SCORE.SYSTEM.CONST>
0

>  <SCORE.SYSTEM.DIHEDRAL>
0

>  <SCORE.SYSTEM.SOLV>
0

>  <SCORE.SYSTEM.norm>
0

>  <SCORE.heavy>
24

>  <SCORE.norm>
0.0779734

>  <RMSD>
9.133

$$$$
lig.pdb
 OpenBabel11021811453D
libRbt.so/2013.1/901 2013/11/27
 24 24  0  0  0  0  0  0  0  0999 V2000
    1.2605   -6.7665    2.8407 C   0  0  0  0  0  0  0  0  0  0  0  0
    0.9842   -8.0408    2.2401 C   0  0  0  0  0  0  0  0  0  0  0  0
    1.1304   -8.2509    0.8893 C   0  0  0  0  0  0  0  0  0  0  0  0
    1.5758   -7.2128    0.0099 C   0  0  0  0  0  0  0  0  0  0  0  0
    1.8190   -5.9317    0.6059 C   0  0  0  0  0  0  0  0  0  0  0  0
    1.6656   -5.7186    1.9530 C   0  0  0  0  0  0  0  0  0  0  0  0
    1.1493   -6.5559    4.1854 C   0  0  0  0  0  0  0  0  0  0  0  0
    1.7079   -5.4960    4.8079 N   0  0  0  0  0  0  0  0  0  0  0  0
    1.5024   -8.5956   -1.9371 N   0  0  0  0  0  0  0  0  0  0  0  0
    1.7592   -7.4200   -1.3254 C   0  0  0  0  0  0  0  0  0  0  0  0
    0.4632   -7.3968    4.9986 N   0  0  0  0  0  0  0  0  0  0  0  0
    2.2201   -6.4549   -2.1562 N   0  0  0  0  0  0  0  0  0  0  0  0
   -0.3311   -7.0263    6.1682 C   0  0  0  0  0  0  0  0  0  0  0  0
    2.0411   -6.4073   -3.6040 C   0  0  0  0  0  0  0  0  0  0  0  0
   -1.0618   -5.7121    5.8490 C   0  0  0  0  0  0  0  0  0  0  0  0
    3.4051   -6.6939   -4.2591 C   0  0  0  0  0  0  0  0  0  0  0  0
   -2.0816   -5.3711    6.9444 C   0  0  0  0  0  0  0  0  0  0  0  0
    4.1904   -5.4097   -4.5818 C   0  0  0  0  0  0  0  0  0  0  0  0
   -2.5022   -3.9307    6.8021 N   0  0  0  0  0  0  0  0  0  0  0  0
    4.9305   -4.8951   -3.3731 N   0  0  0  0  0  0  0  0  0  0  0  0
   -3.3128   -3.5122    7.9984 C   0  0  0  0  0  0  0  0  0  0  0  0
    4.0963   -3.8329   -2.7086 C   0  0  0  0  0  0  0  0  0  0  0  0
   -3.3129   -3.7288    5.5459 C   0  0  0  0  0  0  0  0  0  0  0  0
    6.2684   -4.3114   -3.7323 C   0  0  0  0  0  0  0  0  0  0  0  0
  1  6  2  0  0  0  0
  2  3  2  0  0  0  0
  2  1  1  0  0  0  0
  3  4  1  0  0  0  0
  4 10  1  0  0  0  0
  4  5  2  0  0  0  0
  6  5  1  0  0  0  0
  7  1  1  0  0  0  0
  7 11  1  0  0  0  0
  8  7  2  0  0  0  0
  9 10  2  0  0  0  0
 10 12  1  0  0  0  0
 12 14  1  0  0  0  0
 13 11  1  0  0  0  0
 13 15  1  0  0  0  0
 14 16  1  0  0  0  0
 16 18  1  0  0  0  0
 17 15  1  0  0  0  0
 17 19  1  0  0  0  0
 18 20  1  0  0  0  0
 19 23  1  0  0  0  0
 20 22  1  0  0  0  0
 20 24  1  0  0  0  0
 21 19  1  0  0  0  0
M  END
>  <CHROM.1>
2.03356864,163.13275814,-108.87014921,38.26436283,171.29716973,-93.53204461
82.54787956,164.92767002,-170.28833718,-96.19236152,1.23177141,-5.97671787
1.43179682,2.86084621,1.03978476,0.24806565

>  <Name>
lig.pdb

>  <RI>
3.30914e+07

>  <Rbt.Current_Directory>
/home/itssahil/PROJECTS/Mol_Feturizer/New_Systems/rnas/2l94

>  <Rbt.Executable>
rbdock ($Id: //depot/dev/client3/rdock/2013.1/src/exe/rbdock.cxx#4 $)

>  <Rbt.Library>
libRbt.so (2013.1, Build901 2013/11/27)

>  <Rbt.Parameter_File>
/export/apps/rDock/src/rDock_2013.1_src/data/scripts/dock_solv.prm

>  <Rbt.Receptor>
prm/blind_docking_80.prm

>  <SCORE>
-1.11065

>  <SCORE.INTER>
-5.25914

>  <SCORE.INTER.CONST>
1

>  <SCORE.INTER.POLAR>
-1.46041

>  <SCORE.INTER.ROT>
10

>  <SCORE.INTER.SOLV>
14.1327

>  <SCORE.INTER.VDW>
-13.6156

>  <SCORE.INTER.norm>
-0.219131

>  <SCORE.INTRA>
2.84718

>  <SCORE.INTRA.DIHEDRAL>
7.02533

>  <SCORE.INTRA.DIHEDRAL.0>
7.52971

>  <SCORE.INTRA.POLAR>
0

>  <SCORE.INTRA.POLAR.0>
0

>  <SCORE.INTRA.REPUL>
0

>  <SCORE.INTRA.REPUL.0>
0

>  <SCORE.INTRA.SOLV>
0.916663

>  <SCORE.INTRA.SOLV.lig_0>
-22.1084

>  <SCORE.INTRA.VDW>
-1.12382

>  <SCORE.INTRA.VDW.0>
2.4256

>  <SCORE.INTRA.norm>
0.118633

>  <SCORE.RESTR>
1.30131

>  <SCORE.RESTR.CAVITY>
1.30131

>  <SCORE.RESTR.norm>
0.0542213

>  <SCORE.SYSTEM>
0

>  <SCORE.SYSTEM.CONST>
0

>  <SCORE.SYSTEM.DIHEDRAL>
0

>  <SCORE.SYSTEM.SOLV>
0

>  <SCORE.SYSTEM.norm>
0

>  <SCORE.heavy>
24

>  <SCORE.norm>
-0.0462771

>  <RMSD>
9.135

$$$$
lig.pdb
 OpenBabel11021811453D
libRbt.so/2013.1/901 2013/11/27
 24 24  0  0  0  0  0  0  0  0999 V2000
    1.1773   -6.1019    2.6625 C   0  0  0  0  0  0  0  0  0  0  0  0
    1.0664   -7.4067    2.0741 C   0  0  0  0  0  0  0  0  0  0  0  0
    1.0555   -7.5873    0.7112 C   0  0  0  0  0  0  0  0  0  0  0  0
    1.1641   -6.4845   -0.1951 C   0  0  0  0  0  0  0  0  0  0  0  0
    1.2408   -5.1794    0.3935 C   0  0  0  0  0  0  0  0  0  0  0  0
    1.2436   -4.9973    1.7539 C   0  0  0  0  0  0  0  0  0  0  0  0
    1.2211   -5.9142    4.0144 C   0  0  0  0  0  0  0  0  0  0  0  0
    2.3193   -5.4577    4.6536 N   0  0  0  0  0  0  0  0  0  0  0  0
    0.4280   -5.9407   -2.4020 N   0  0  0  0  0  0  0  0  0  0  0  0
    1.1910   -6.6550   -1.5478 C   0  0  0  0  0  0  0  0  0  0  0  0
    0.1595   -6.1694    4.8186 N   0  0  0  0  0  0  0  0  0  0  0  0
    1.9917   -7.5648   -2.1520 N   0  0  0  0  0  0  0  0  0  0  0  0
   -0.2296   -5.4241    6.0142 C   0  0  0  0  0  0  0  0  0  0  0  0
    2.4286   -7.5374   -3.5444 C   0  0  0  0  0  0  0  0  0  0  0  0
   -0.9880   -6.3833    6.9458 C   0  0  0  0  0  0  0  0  0  0  0  0
    3.7558   -6.7588   -3.6085 C   0  0  0  0  0  0  0  0  0  0  0  0
   -2.4814   -6.0322    6.9972 C   0  0  0  0  0  0  0  0  0  0  0  0
    3.8293   -5.8092   -4.8179 C   0  0  0  0  0  0  0  0  0  0  0  0
   -2.6404   -4.5929    7.4155 N   0  0  0  0  0  0  0  0  0  0  0  0
    4.4444   -4.4841   -4.4446 N   0  0  0  0  0  0  0  0  0  0  0  0
   -3.8121   -4.4563    8.3492 C   0  0  0  0  0  0  0  0  0  0  0  0
    4.2961   -3.5358   -5.6040 C   0  0  0  0  0  0  0  0  0  0  0  0
   -2.8443   -3.7031    6.2144 C   0  0  0  0  0  0  0  0  0  0  0  0
    5.9024   -4.6112   -4.1013 C   0  0  0  0  0  0  0  0  0  0  0  0
  1  6  2  0  0  0  0
  2  3  2  0  0  0  0
  2  1  1  0  0  0  0
  3  4  1  0  0  0  0
  4 10  1  0  0  0  0
  4  5  2  0  0  0  0
  6  5  1  0  0  0  0
  7  1  1  0  0  0  0
  7 11  1  0  0  0  0
  8  7  2  0  0  0  0
  9 10  2  0  0  0  0
 10 12  1  0  0  0  0
 12 14  1  0  0  0  0
 13 11  1  0  0  0  0
 13 15  1  0  0  0  0
 14 16  1  0  0  0  0
 16 18  1  0  0  0  0
 17 15  1  0  0  0  0
 17 19  1  0  0  0  0
 18 20  1  0  0  0  0
 19 23  1  0  0  0  0
 20 22  1  0  0  0  0
 20 24  1  0  0  0  0
 21 19  1  0  0  0  0
M  END
>  <CHROM.1>
131.92392741,112.78724856,90.53515416,-152.82883144,-109.22889163,-138.42515084
138.61869828,-55.93850857,-140.70035385,-171.44960530,1.07765665,-5.74204914
1.27995481,2.35924766,0.88488252,0.87415043

>  <Name>
lig.pdb

>  <RI>
3.30914e+07

>  <Rbt.Current_Directory>
/home/itssahil/PROJECTS/Mol_Feturizer/New_Systems/rnas/2l94

>  <Rbt.Executable>
rbdock ($Id: //depot/dev/client3/rdock/2013.1/src/exe/rbdock.cxx#4 $)

>  <Rbt.Library>
libRbt.so (2013.1, Build901 2013/11/27)

>  <Rbt.Parameter_File>
/export/apps/rDock/src/rDock_2013.1_src/data/scripts/dock_solv.prm

>  <Rbt.Receptor>
prm/blind_docking_80.prm

>  <SCORE>
11.4442

>  <SCORE.INTER>
-3.65172

>  <SCORE.INTER.CONST>
1

>  <SCORE.INTER.POLAR>
-0.944576

>  <SCORE.INTER.ROT>
10

>  <SCORE.INTER.SOLV>
15.6316

>  <SCORE.INTER.VDW>
-14.7631

>  <SCORE.INTER.norm>
-0.152155

>  <SCORE.INTRA>
13.2788

>  <SCORE.INTRA.DIHEDRAL>
31.7756

>  <SCORE.INTRA.DIHEDRAL.0>
7.52971

>  <SCORE.INTRA.POLAR>
0

>  <SCORE.INTRA.POLAR.0>
0

>  <SCORE.INTRA.REPUL>
0

>  <SCORE.INTRA.REPUL.0>
0

>  <SCORE.INTRA.SOLV>
0.0421955

>  <SCORE.INTRA.SOLV.lig_0>
-22.1084

>  <SCORE.INTRA.VDW>
-2.63013

>  <SCORE.INTRA.VDW.0>
2.4256

>  <SCORE.INTRA.norm>
0.553282

>  <SCORE.RESTR>
1.81718

>  <SCORE.RESTR.CAVITY>
1.81718

>  <SCORE.RESTR.norm>
0.0757158

>  <SCORE.SYSTEM>
0

>  <SCORE.SYSTEM.CONST>
0

>  <SCORE.SYSTEM.DIHEDRAL>
0

>  <SCORE.SYSTEM.SOLV>
0

>  <SCORE.SYSTEM.norm>
0

>  <SCORE.heavy>
24

>  <SCORE.norm>
0.476842

>  <RMSD>
9.161

$$$$
lig.pdb
 OpenBabel11021811453D
libRbt.so/2013.1/901 2013/11/27
 24 24  0  0  0  0  0  0  0  0999 V2000
   -0.0244   -6.0944    4.0088 C   0  0  0  0  0  0  0  0  0  0  0  0
    1.0372   -5.1593    4.2531 C   0  0  0  0  0  0  0  0  0  0  0  0
    1.9518   -4.8327    3.2800 C   0  0  0  0  0  0  0  0  0  0  0  0
    1.8892   -5.3999    1.9671 C   0  0  0  0  0  0  0  0  0  0  0  0
    0.8489   -6.3589    1.7348 C   0  0  0  0  0  0  0  0  0  0  0  0
   -0.0599   -6.6918    2.7080 C   0  0  0  0  0  0  0  0  0  0  0  0
   -0.9567   -6.4017    4.9580 C   0  0  0  0  0  0  0  0  0  0  0  0
   -1.7215   -7.5129    4.8986 N   0  0  0  0  0  0  0  0  0  0  0  0
    4.0926   -5.3126    1.0475 N   0  0  0  0  0  0  0  0  0  0  0  0
    2.7689   -5.0558    0.9836 C   0  0  0  0  0  0  0  0  0  0  0  0
   -1.1823   -5.6127    6.0377 N   0  0  0  0  0  0  0  0  0  0  0  0
    2.3842   -4.4204   -0.1488 N   0  0  0  0  0  0  0  0  0  0  0  0
   -1.5279   -6.0565    7.3867 C   0  0  0  0  0  0  0  0  0  0  0  0
    3.1105   -4.4014   -1.4147 C   0  0  0  0  0  0  0  0  0  0  0  0
   -1.9079   -4.8163    8.2118 C   0  0  0  0  0  0  0  0  0  0  0  0
    2.6122   -5.5855   -2.2640 C   0  0  0  0  0  0  0  0  0  0  0  0
   -0.7023   -3.8824    8.3858 C   0  0  0  0  0  0  0  0  0  0  0  0
    3.1283   -5.5355   -3.7134 C   0  0  0  0  0  0  0  0  0  0  0  0
   -1.1299   -2.6543    9.1480 N   0  0  0  0  0  0  0  0  0  0  0  0
    4.6334   -5.4598   -3.7627 N   0  0  0  0  0  0  0  0  0  0  0  0
   -0.5236   -1.4266    8.5247 C   0  0  0  0  0  0  0  0  0  0  0  0
    5.0460   -4.0128   -3.8016 C   0  0  0  0  0  0  0  0  0  0  0  0
   -0.7115   -2.7464   10.5946 C   0  0  0  0  0  0  0  0  0  0  0  0
    5.1984   -6.1610   -4.9665 C   0  0  0  0  0  0  0  0  0  0  0  0
  1  6  2  0  0  0  0
  2  3  2  0  0  0  0
  2  1  1  0  0  0  0
  3  4  1  0  0  0  0
  4 10  1  0  0  0  0
  4  5  2  0  0  0  0
  6  5  1  0  0  0  0
  7  1  1  0  0  0  0
  7 11  1  0  0  0  0
  8  7  2  0  0  0  0
  9 10  2  0  0  0  0
 10 12  1  0  0  0  0
 12 14  1  0  0  0  0
 13 11  1  0  0  0  0
 13 15  1  0  0  0  0
 14 16  1  0  0  0  0
 16 18  1  0  0  0  0
 17 15  1  0  0  0  0
 17 19  1  0  0  0  0
 18 20  1  0  0  0  0
 19 23  1  0  0  0  0
 20 22  1  0  0  0  0
 20 24  1  0  0  0  0
 21 19  1  0  0  0  0
M  END
>  <CHROM.1>
64.46383451,-161.28682350,90.82068118,-170.97615038,-64.93750444,170.27430586
55.57510658,177.62691387,-137.42554661,-91.88885370,1.19620870,-5.03366071
2.83090842,2.26567681,0.85964279,0.90311361

>  <Name>
lig.pdb

>  <RI>
2.41306e+07

>  <Rbt.Current_Directory>
/home/itssahil/PROJECTS/Mol_Feturizer/New_Systems/rnas/2l94

>  <Rbt.Executable>
rbdock ($Id: //depot/dev/client3/rdock/2013.1/src/exe/rbdock.cxx#4 $)

>  <Rbt.Library>
libRbt.so (2013.1, Build901 2013/11/27)

>  <Rbt.Parameter_File>
/export/apps/rDock/src/rDock_2013.1_src/data/scripts/dock_solv.prm

>  <Rbt.Receptor>
prm/blind_docking_40.prm

>  <SCORE>
2.03834

>  <SCORE.INTER>
-4.31443

>  <SCORE.INTER.CONST>
1

>  <SCORE.INTER.POLAR>
-1.36829

>  <SCORE.INTER.ROT>
10

>  <SCORE.INTER.SOLV>
13.7536

>  <SCORE.INTER.VDW>
-13.1665

>  <SCORE.INTER.norm>
-0.179768

>  <SCORE.INTRA>
5.20437

>  <SCORE.INTRA.DIHEDRAL>
14.4705

>  <SCORE.INTRA.DIHEDRAL.0>
7.52971

>  <SCORE.INTRA.POLAR>
0

>  <SCORE.INTRA.POLAR.0>
0

>  <SCORE.INTRA.REPUL>
0

>  <SCORE.INTRA.REPUL.0>
0

>  <SCORE.INTRA.SOLV>
-0.0235257

>  <SCORE.INTRA.SOLV.lig_0>
-22.1084

>  <SCORE.INTRA.VDW>
-2.01913

>  <SCORE.INTRA.VDW.0>
2.4256

>  <SCORE.INTRA.norm>
0.216849

>  <SCORE.RESTR>
1.1484

>  <SCORE.RESTR.CAVITY>
1.1484

>  <SCORE.RESTR.norm>
0.0478499

>  <SCORE.SYSTEM>
0

>  <SCORE.SYSTEM.CONST>
0

>  <SCORE.SYSTEM.DIHEDRAL>
0

>  <SCORE.SYSTEM.SOLV>
0

>  <SCORE.SYSTEM.norm>
0

>  <SCORE.heavy>
24

>  <SCORE.norm>
0.0849308

>  <RMSD>
9.288

$$$$
lig.pdb
 OpenBabel11021811453D
libRbt.so/2013.1/901 2013/11/27
 24 24  0  0  0  0  0  0  0  0999 V2000
    0.3159   -6.1307    4.3121 C   0  0  0  0  0  0  0  0  0  0  0  0
    0.7693   -7.1089    3.3641 C   0  0  0  0  0  0  0  0  0  0  0  0
    1.2074   -6.7528    2.1105 C   0  0  0  0  0  0  0  0  0  0  0  0
    1.2445   -5.3860    1.6861 C   0  0  0  0  0  0  0  0  0  0  0  0
    0.7598   -4.4136    2.6216 C   0  0  0  0  0  0  0  0  0  0  0  0
    0.3146   -4.7687    3.8704 C   0  0  0  0  0  0  0  0  0  0  0  0
   -0.0911   -6.4705    5.5705 C   0  0  0  0  0  0  0  0  0  0  0  0
    0.6034   -7.3180    6.3594 N   0  0  0  0  0  0  0  0  0  0  0  0
    1.1968   -3.9947   -0.2556 N   0  0  0  0  0  0  0  0  0  0  0  0
    1.7110   -5.0182    0.4587 C   0  0  0  0  0  0  0  0  0  0  0  0
   -1.2256   -5.9768    6.1257 N   0  0  0  0  0  0  0  0  0  0  0  0
    2.7376   -5.6563   -0.1521 N   0  0  0  0  0  0  0  0  0  0  0  0
   -1.4337   -5.6374    7.5320 C   0  0  0  0  0  0  0  0  0  0  0  0
    3.5869   -5.1093   -1.2056 C   0  0  0  0  0  0  0  0  0  0  0  0
   -2.2334   -4.3259    7.5907 C   0  0  0  0  0  0  0  0  0  0  0  0
    2.9240   -5.4248   -2.5594 C   0  0  0  0  0  0  0  0  0  0  0  0
   -2.2156   -3.7351    9.0073 C   0  0  0  0  0  0  0  0  0  0  0  0
    3.6465   -4.7581   -3.7440 C   0  0  0  0  0  0  0  0  0  0  0  0
   -0.8183   -3.2771    9.3383 N   0  0  0  0  0  0  0  0  0  0  0  0
    5.0547   -5.2753   -3.8955 N   0  0  0  0  0  0  0  0  0  0  0  0
   -0.7687   -2.7601   10.7503 C   0  0  0  0  0  0  0  0  0  0  0  0
    5.9693   -4.1158   -4.1866 C   0  0  0  0  0  0  0  0  0  0  0  0
   -0.3673   -2.1961    8.3876 C   0  0  0  0  0  0  0  0  0  0  0  0
    5.1740   -6.2817   -5.0057 C   0  0  0  0  0  0  0  0  0  0  0  0
  1  6  2  0  0  0  0
  2  3  2  0  0  0  0
  2  1  1  0  0  0  0
  3  4  1  0  0  0  0
  4 10  1  0  0  0  0
  4  5  2  0  0  0  0
  6  5  1  0  0  0  0
  7  1  1  0  0  0  0
  7 11  1  0  0  0  0
  8  7  2  0  0  0  0
  9 10  2  0  0  0  0
 10 12  1  0  0  0  0
 12 14  1  0  0  0  0
 13 11  1  0  0  0  0
 13 15  1  0  0  0  0
 14 16  1  0  0  0  0
 16 18  1  0  0  0  0
 17 15  1  0  0  0  0
 17 19  1  0  0  0  0
 18 20  1  0  0  0  0
 19 23  1  0  0  0  0
 20 22  1  0  0  0  0
 20 24  1  0  0  0  0
 21 19  1  0  0  0  0
M  END
>  <CHROM.1>
144.83280646,46.13370276,-88.91863144,139.14264376,-166.95219978,173.48187985
63.34162769,67.81888326,-177.09928980,-137.50224469,1.20053697,-5.05184614
2.83096834,2.68483012,1.08989476,0.42413471

>  <Name>
lig.pdb

>  <RI>
2.41306e+07

>  <Rbt.Current_Directory>
/home/itssahil/PROJECTS/Mol_Feturizer/New_Systems/rnas/2l94

>  <Rbt.Executable>
rbdock ($Id: //depot/dev/client3/rdock/2013.1/src/exe/rbdock.cxx#4 $)

>  <Rbt.Library>
libRbt.so (2013.1, Build901 2013/11/27)

>  <Rbt.Parameter_File>
/export/apps/rDock/src/rDock_2013.1_src/data/scripts/dock_solv.prm

>  <Rbt.Receptor>
prm/blind_docking_40.prm

>  <SCORE>
-4.97149

>  <SCORE.INTER>
-10.3556

>  <SCORE.INTER.CONST>
1

>  <SCORE.INTER.POLAR>
-2.05695

>  <SCORE.INTER.ROT>
10

>  <SCORE.INTER.SOLV>
16.64

>  <SCORE.INTER.VDW>
-15.8606

>  <SCORE.INTER.norm>
-0.431482

>  <SCORE.INTRA>
4.13219

>  <SCORE.INTRA.DIHEDRAL>
11.9961

>  <SCORE.INTRA.DIHEDRAL.0>
7.52971

>  <SCORE.INTRA.POLAR>
0

>  <SCORE.INTRA.POLAR.0>
0

>  <SCORE.INTRA.REPUL>
0

>  <SCORE.INTRA.REPUL.0>
0

>  <SCORE.INTRA.SOLV>
-0.0215386

>  <SCORE.INTRA.SOLV.lig_0>
-22.1084

>  <SCORE.INTRA.VDW>
-1.85509

>  <SCORE.INTRA.VDW.0>
2.4256

>  <SCORE.INTRA.norm>
0.172175

>  <SCORE.RESTR>
1.25189

>  <SCORE.RESTR.CAVITY>
1.25189

>  <SCORE.RESTR.norm>
0.0521622

>  <SCORE.SYSTEM>
0

>  <SCORE.SYSTEM.CONST>
0

>  <SCORE.SYSTEM.DIHEDRAL>
0

>  <SCORE.SYSTEM.SOLV>
0

>  <SCORE.SYSTEM.norm>
0

>  <SCORE.heavy>
24

>  <SCORE.norm>
-0.207146

>  <RMSD>
9.362

$$$$
lig.pdb
 OpenBabel11021811453D
libRbt.so/2013.1/901 2013/11/27
 24 24  0  0  0  0  0  0  0  0999 V2000
    0.8833   -6.3662    4.1232 C   0  0  0  0  0  0  0  0  0  0  0  0
    0.1894   -7.1187    3.1167 C   0  0  0  0  0  0  0  0  0  0  0  0
    0.2045   -6.7438    1.7940 C   0  0  0  0  0  0  0  0  0  0  0  0
    0.9215   -5.5880    1.3474 C   0  0  0  0  0  0  0  0  0  0  0  0
    1.5861   -4.8187    2.3584 C   0  0  0  0  0  0  0  0  0  0  0  0
    1.5649   -5.1875    3.6803 C   0  0  0  0  0  0  0  0  0  0  0  0
    0.9012   -6.7475    5.4344 C   0  0  0  0  0  0  0  0  0  0  0  0
    1.9497   -6.5085    6.2508 N   0  0  0  0  0  0  0  0  0  0  0  0
    1.4623   -4.0439   -0.3937 N   0  0  0  0  0  0  0  0  0  0  0  0
    0.9734   -5.2275    0.0333 C   0  0  0  0  0  0  0  0  0  0  0  0
   -0.1386   -7.3936    6.0178 N   0  0  0  0  0  0  0  0  0  0  0  0
    0.5330   -6.0338   -0.9617 N   0  0  0  0  0  0  0  0  0  0  0  0
   -0.6010   -7.2385    7.3956 C   0  0  0  0  0  0  0  0  0  0  0  0
    0.9268   -5.9630   -2.3654 C   0  0  0  0  0  0  0  0  0  0  0  0
   -1.4519   -5.9604    7.4700 C   0  0  0  0  0  0  0  0  0  0  0  0
    2.3123   -6.6215   -2.5019 C   0  0  0  0  0  0  0  0  0  0  0  0
   -0.5627   -4.7154    7.5934 C   0  0  0  0  0  0  0  0  0  0  0  0
    3.4557   -5.7003   -2.0393 C   0  0  0  0  0  0  0  0  0  0  0  0
   -1.4285   -3.5085    7.8492 N   0  0  0  0  0  0  0  0  0  0  0  0
    3.7299   -4.6108   -3.0450 N   0  0  0  0  0  0  0  0  0  0  0  0
   -2.0891   -3.0704    6.5704 C   0  0  0  0  0  0  0  0  0  0  0  0
    4.5418   -5.1856   -4.1746 C   0  0  0  0  0  0  0  0  0  0  0  0
   -0.6131   -2.3712    8.4127 C   0  0  0  0  0  0  0  0  0  0  0  0
    4.4812   -3.4569   -2.4417 C   0  0  0  0  0  0  0  0  0  0  0  0
  1  6  2  0  0  0  0
  2  3  2  0  0  0  0
  2  1  1  0  0  0  0
  3  4  1  0  0  0  0
  4 10  1  0  0  0  0
  4  5  2  0  0  0  0
  6  5  1  0  0  0  0
  7  1  1  0  0  0  0
  7 11  1  0  0  0  0
  8  7  2  0  0  0  0
  9 10  2  0  0  0  0
 10 12  1  0  0  0  0
 12 14  1  0  0  0  0
 13 11  1  0  0  0  0
 13 15  1  0  0  0  0
 14 16  1  0  0  0  0
 16 18  1  0  0  0  0
 17 15  1  0  0  0  0
 17 19  1  0  0  0  0
 18 20  1  0  0  0  0
 19 23  1  0  0  0  0
 20 22  1  0  0  0  0
 20 24  1  0  0  0  0
 21 19  1  0  0  0  0
M  END
>  <CHROM.1>
169.50209185,148.03727322,78.42961621,79.76816646,-81.45992232,-78.29772108
-74.60481491,-172.45475964,-77.02621925,-78.74823296,0.99872664,-5.37983294
2.55564791,2.99584265,1.21061497,0.14016130

>  <Name>
lig.pdb

>  <RI>
2.41306e+07

>  <Rbt.Current_Directory>
/home/itssahil/PROJECTS/Mol_Feturizer/New_Systems/rnas/2l94

>  <Rbt.Executable>
rbdock ($Id: //depot/dev/client3/rdock/2013.1/src/exe/rbdock.cxx#4 $)

>  <Rbt.Library>
libRbt.so (2013.1, Build901 2013/11/27)

>  <Rbt.Parameter_File>
/export/apps/rDock/src/rDock_2013.1_src/data/scripts/dock_solv.prm

>  <Rbt.Receptor>
prm/blind_docking_40.prm

>  <SCORE>
-3.01927

>  <SCORE.INTER>
-4.06019

>  <SCORE.INTER.CONST>
1

>  <SCORE.INTER.POLAR>
-0.470088

>  <SCORE.INTER.ROT>
10

>  <SCORE.INTER.SOLV>
18.2667

>  <SCORE.INTER.VDW>
-17.4954

>  <SCORE.INTER.norm>
-0.169175

>  <SCORE.INTRA>
0.140369

>  <SCORE.INTRA.DIHEDRAL>
6.63421

>  <SCORE.INTRA.DIHEDRAL.0>
7.52971

>  <SCORE.INTRA.POLAR>
0

>  <SCORE.INTRA.POLAR.0>
0

>  <SCORE.INTRA.REPUL>
0

>  <SCORE.INTRA.REPUL.0>
0

>  <SCORE.INTRA.SOLV>
1.43751

>  <SCORE.INTRA.SOLV.lig_0>
-22.1084

>  <SCORE.INTRA.VDW>
-3.89549

>  <SCORE.INTRA.VDW.0>
2.4256

>  <SCORE.INTRA.norm>
0.00584871

>  <SCORE.RESTR>
0.900555

>  <SCORE.RESTR.CAVITY>
0.900555

>  <SCORE.RESTR.norm>
0.0375231

>  <SCORE.SYSTEM>
0

>  <SCORE.SYSTEM.CONST>
0

>  <SCORE.SYSTEM.DIHEDRAL>
0

>  <SCORE.SYSTEM.SOLV>
0

>  <SCORE.SYSTEM.norm>
0

>  <SCORE.heavy>
24

>  <SCORE.norm>
-0.125803

>  <RMSD>
9.487

$$$$
lig.pdb
 OpenBabel11021811453D
libRbt.so/2013.1/901 2013/11/27
 24 24  0  0  0  0  0  0  0  0999 V2000
    1.0990   -6.5547    3.3270 C   0  0  0  0  0  0  0  0  0  0  0  0
    0.5051   -7.7213    2.7376 C   0  0  0  0  0  0  0  0  0  0  0  0
    0.3767   -7.8582    1.3757 C   0  0  0  0  0  0  0  0  0  0  0  0
    0.8375   -6.8490    0.4709 C   0  0  0  0  0  0  0  0  0  0  0  0
    1.3997   -5.6699    1.0621 C   0  0  0  0  0  0  0  0  0  0  0  0
    1.5209   -5.5286    2.4219 C   0  0  0  0  0  0  0  0  0  0  0  0
    1.2603   -6.4227    4.6766 C   0  0  0  0  0  0  0  0  0  0  0  0
    1.7541   -5.3033    5.2477 N   0  0  0  0  0  0  0  0  0  0  0  0
   -0.4239   -7.1018   -1.5423 N   0  0  0  0  0  0  0  0  0  0  0  0
    0.7484   -6.9902   -0.8825 C   0  0  0  0  0  0  0  0  0  0  0  0
    0.9314   -7.4085    5.5479 N   0  0  0  0  0  0  0  0  0  0  0  0
    1.8389   -7.0321   -1.6843 N   0  0  0  0  0  0  0  0  0  0  0  0
    0.3707   -7.2393    6.8870 C   0  0  0  0  0  0  0  0  0  0  0  0
    1.8686   -6.7385   -3.1138 C   0  0  0  0  0  0  0  0  0  0  0  0
   -1.0981   -6.8118    6.7363 C   0  0  0  0  0  0  0  0  0  0  0  0
    2.9998   -5.7241   -3.3650 C   0  0  0  0  0  0  0  0  0  0  0  0
   -1.2004   -5.3440    6.2991 C   0  0  0  0  0  0  0  0  0  0  0  0
    3.0051   -5.1858   -4.8073 C   0  0  0  0  0  0  0  0  0  0  0  0
   -2.6297   -4.8838    6.4304 N   0  0  0  0  0  0  0  0  0  0  0  0
    4.1598   -4.2451   -5.0426 N   0  0  0  0  0  0  0  0  0  0  0  0
   -3.0684   -4.2035    5.1623 C   0  0  0  0  0  0  0  0  0  0  0  0
    3.6226   -2.9345   -5.5517 C   0  0  0  0  0  0  0  0  0  0  0  0
   -2.7847   -3.9351    7.5931 C   0  0  0  0  0  0  0  0  0  0  0  0
    5.1426   -4.7905   -6.0408 C   0  0  0  0  0  0  0  0  0  0  0  0
  1  6  2  0  0  0  0
  2  3  2  0  0  0  0
  2  1  1  0  0  0  0
  3  4  1  0  0  0  0
  4 10  1  0  0  0  0
  4  5  2  0  0  0  0
  6  5  1  0  0  0  0
  7  1  1  0  0  0  0
  7 11  1  0  0  0  0
  8  7  2  0  0  0  0
  9 10  2  0  0  0  0
 10 12  1  0  0  0  0
 12 14  1  0  0  0  0
 13 11  1  0  0  0  0
 13 15  1  0  0  0  0
 14 16  1  0  0  0  0
 16 18  1  0  0  0  0
 17 15  1  0  0  0  0
 17 19  1  0  0  0  0
 18 20  1  0  0  0  0
 19 23  1  0  0  0  0
 20 22  1  0  0  0  0
 20 24  1  0  0  0  0
 21 19  1  0  0  0  0
M  END
>  <CHROM.1>
62.83598053,-176.51365440,129.27654145,73.38528516,-74.64282590,-171.98626717
-177.35251014,-168.69188979,-130.76247927,-124.73804385,0.92221032,-5.89132122
1.39082210,-2.29373386,0.96687221,-0.88670626

>  <Name>
lig.pdb

>  <RI>
3.30914e+07

>  <Rbt.Current_Directory>
/home/itssahil/PROJECTS/Mol_Feturizer/New_Systems/rnas/2l94

>  <Rbt.Executable>
rbdock ($Id: //depot/dev/client3/rdock/2013.1/src/exe/rbdock.cxx#4 $)

>  <Rbt.Library>
libRbt.so (2013.1, Build901 2013/11/27)

>  <Rbt.Parameter_File>
/export/apps/rDock/src/rDock_2013.1_src/data/scripts/dock_solv.prm

>  <Rbt.Receptor>
prm/blind_docking_80.prm

>  <SCORE>
2.97632

>  <SCORE.INTER>
-2.01955

>  <SCORE.INTER.CONST>
1

>  <SCORE.INTER.POLAR>
-0.788102

>  <SCORE.INTER.ROT>
10

>  <SCORE.INTER.SOLV>
14.8207

>  <SCORE.INTER.VDW>
-13.9263

>  <SCORE.INTER.norm>
-0.084148

>  <SCORE.INTRA>
4.27144

>  <SCORE.INTRA.DIHEDRAL>
15.7928

>  <SCORE.INTRA.DIHEDRAL.0>
7.52971

>  <SCORE.INTRA.POLAR>
0

>  <SCORE.INTRA.POLAR.0>
0

>  <SCORE.INTRA.REPUL>
0

>  <SCORE.INTRA.REPUL.0>
0

>  <SCORE.INTRA.SOLV>
0.253323

>  <SCORE.INTRA.SOLV.lig_0>
-22.1084

>  <SCORE.INTRA.VDW>
-3.75164

>  <SCORE.INTRA.VDW.0>
2.4256

>  <SCORE.INTRA.norm>
0.177977

>  <SCORE.RESTR>
0.724431

>  <SCORE.RESTR.CAVITY>
0.724431

>  <SCORE.RESTR.norm>
0.0301846

>  <SCORE.SYSTEM>
0

>  <SCORE.SYSTEM.CONST>
0

>  <SCORE.SYSTEM.DIHEDRAL>
0

>  <SCORE.SYSTEM.SOLV>
0

>  <SCORE.SYSTEM.norm>
0

>  <SCORE.heavy>
24

>  <SCORE.norm>
0.124013

>  <RMSD>
9.623

$$$$
lig.pdb
 OpenBabel11021811453D
libRbt.so/2013.1/901 2013/11/27
 24 24  0  0  0  0  0  0  0  0999 V2000
    0.9092   -5.7615    2.8934 C   0  0  0  0  0  0  0  0  0  0  0  0
    0.9658   -4.7611    1.8652 C   0  0  0  0  0  0  0  0  0  0  0  0
    1.1118   -5.0939    0.5393 C   0  0  0  0  0  0  0  0  0  0  0  0
    1.2054   -6.4567    0.1111 C   0  0  0  0  0  0  0  0  0  0  0  0
    1.1826   -7.4529    1.1420 C   0  0  0  0  0  0  0  0  0  0  0  0
    1.0450   -7.1215    2.4667 C   0  0  0  0  0  0  0  0  0  0  0  0
    0.7324   -5.4435    4.2096 C   0  0  0  0  0  0  0  0  0  0  0  0
    0.4110   -4.1994    4.6242 N   0  0  0  0  0  0  0  0  0  0  0  0
    0.2978   -6.6921   -2.0865 N   0  0  0  0  0  0  0  0  0  0  0  0
    1.3138   -6.7998   -1.2043 C   0  0  0  0  0  0  0  0  0  0  0  0
    0.8630   -6.3581    5.2023 N   0  0  0  0  0  0  0  0  0  0  0  0
    2.4602   -7.2831   -1.7393 N   0  0  0  0  0  0  0  0  0  0  0  0
    0.0809   -6.4267    6.4352 C   0  0  0  0  0  0  0  0  0  0  0  0
    2.8271   -7.2620   -3.1519 C   0  0  0  0  0  0  0  0  0  0  0  0
   -0.6113   -7.7984    6.4827 C   0  0  0  0  0  0  0  0  0  0  0  0
    2.6456   -5.8218   -3.6663 C   0  0  0  0  0  0  0  0  0  0  0  0
    0.3806   -8.9003    6.8800 C   0  0  0  0  0  0  0  0  0  0  0  0
    3.6192   -4.8284   -3.0067 C   0  0  0  0  0  0  0  0  0  0  0  0
    1.0018   -8.5555    8.2093 N   0  0  0  0  0  0  0  0  0  0  0  0
    5.0536   -5.1606   -3.3320 N   0  0  0  0  0  0  0  0  0  0  0  0
    2.1348   -9.4995    8.5067 C   0  0  0  0  0  0  0  0  0  0  0  0
    5.9306   -4.0261   -2.8747 C   0  0  0  0  0  0  0  0  0  0  0  0
   -0.0210   -8.6282    9.3159 C   0  0  0  0  0  0  0  0  0  0  0  0
    5.2663   -5.3794   -4.8040 C   0  0  0  0  0  0  0  0  0  0  0  0
  1  6  2  0  0  0  0
  2  3  2  0  0  0  0
  2  1  1  0  0  0  0
  3  4  1  0  0  0  0
  4 10  1  0  0  0  0
  4  5  2  0  0  0  0
  6  5  1  0  0  0  0
  7  1  1  0  0  0  0
  7 11  1  0  0  0  0
  8  7  2  0  0  0  0
  9 10  2  0  0  0  0
 10 12  1  0  0  0  0
 12 14  1  0  0  0  0
 13 11  1  0  0  0  0
 13 15  1  0  0  0  0
 14 16  1  0  0  0  0
 16 18  1  0  0  0  0
 17 15  1  0  0  0  0
 17 19  1  0  0  0  0
 18 20  1  0  0  0  0
 19 23  1  0  0  0  0
 20 22  1  0  0  0  0
 20 24  1  0  0  0  0
 21 19  1  0  0  0  0
M  END
>  <CHROM.1>
-71.58134036,9.60148162,51.06964873,121.32733216,76.70153090,65.44846906
63.14299371,56.96317281,-170.72538884,169.84773414,1.73762667,-6.49785888
1.81076549,1.99040102,-0.81350278,2.09199116

>  <Name>
lig.pdb

>  <RI>
3.30914e+07

>  <Rbt.Current_Directory>
/home/itssahil/PROJECTS/Mol_Feturizer/New_Systems/rnas/2l94

>  <Rbt.Executable>
rbdock ($Id: //depot/dev/client3/rdock/2013.1/src/exe/rbdock.cxx#4 $)

>  <Rbt.Library>
libRbt.so (2013.1, Build901 2013/11/27)

>  <Rbt.Parameter_File>
/export/apps/rDock/src/rDock_2013.1_src/data/scripts/dock_solv.prm

>  <Rbt.Receptor>
prm/blind_docking_80.prm

>  <SCORE>
-1.0379

>  <SCORE.INTER>
-7.81455

>  <SCORE.INTER.CONST>
1

>  <SCORE.INTER.POLAR>
-1.46706

>  <SCORE.INTER.ROT>
10

>  <SCORE.INTER.SOLV>
14.5084

>  <SCORE.INTER.VDW>
-15.4223

>  <SCORE.INTER.norm>
-0.325606

>  <SCORE.INTRA>
6.01471

>  <SCORE.INTRA.DIHEDRAL>
10.7469

>  <SCORE.INTRA.DIHEDRAL.0>
7.52971

>  <SCORE.INTRA.POLAR>
0

>  <SCORE.INTRA.POLAR.0>
0

>  <SCORE.INTRA.REPUL>
0

>  <SCORE.INTRA.REPUL.0>
0

>  <SCORE.INTRA.SOLV>
0.946353

>  <SCORE.INTRA.SOLV.lig_0>
-22.1084

>  <SCORE.INTRA.VDW>
0.168085

>  <SCORE.INTRA.VDW.0>
2.4256

>  <SCORE.INTRA.norm>
0.250613

>  <SCORE.RESTR>
0.761937

>  <SCORE.RESTR.CAVITY>
0.761937

>  <SCORE.RESTR.norm>
0.0317474

>  <SCORE.SYSTEM>
0

>  <SCORE.SYSTEM.CONST>
0

>  <SCORE.SYSTEM.DIHEDRAL>
0

>  <SCORE.SYSTEM.SOLV>
0

>  <SCORE.SYSTEM.norm>
0

>  <SCORE.heavy>
24

>  <SCORE.norm>
-0.0432458

>  <RMSD>
9.890

$$$$
lig.pdb
 OpenBabel11021811453D
libRbt.so/2013.1/901 2013/11/27
 24 24  0  0  0  0  0  0  0  0999 V2000
    0.8835   -6.5504    4.2257 C   0  0  0  0  0  0  0  0  0  0  0  0
    0.4990   -7.3890    3.1258 C   0  0  0  0  0  0  0  0  0  0  0  0
    0.6447   -6.9825    1.8205 C   0  0  0  0  0  0  0  0  0  0  0  0
    1.1971   -5.7045    1.4874 C   0  0  0  0  0  0  0  0  0  0  0  0
    1.5493   -4.8547    2.5872 C   0  0  0  0  0  0  0  0  0  0  0  0
    1.3967   -5.2564    3.8907 C   0  0  0  0  0  0  0  0  0  0  0  0
    0.7728   -6.9569    5.5247 C   0  0  0  0  0  0  0  0  0  0  0  0
    1.7659   -6.8019    6.4262 N   0  0  0  0  0  0  0  0  0  0  0  0
    1.4557   -4.0108   -0.1778 N   0  0  0  0  0  0  0  0  0  0  0  0
    1.3798   -5.3056    0.1962 C   0  0  0  0  0  0  0  0  0  0  0  0
   -0.3489   -7.5453    6.0091 N   0  0  0  0  0  0  0  0  0  0  0  0
    1.4998   -6.1836   -0.8279 N   0  0  0  0  0  0  0  0  0  0  0  0
   -0.9089   -7.3869    7.3498 C   0  0  0  0  0  0  0  0  0  0  0  0
    2.1198   -5.9176   -2.1222 C   0  0  0  0  0  0  0  0  0  0  0  0
   -0.8100   -5.9016    7.7333 C   0  0  0  0  0  0  0  0  0  0  0  0
    1.6610   -7.0144   -3.1010 C   0  0  0  0  0  0  0  0  0  0  0  0
   -1.2018   -5.0026    6.5525 C   0  0  0  0  0  0  0  0  0  0  0  0
    2.8246   -7.8907   -3.5988 C   0  0  0  0  0  0  0  0  0  0  0  0
   -2.6991   -5.0290    6.3820 N   0  0  0  0  0  0  0  0  0  0  0  0
    3.9116   -7.0597   -4.2324 N   0  0  0  0  0  0  0  0  0  0  0  0
   -3.0820   -6.0741    5.3697 C   0  0  0  0  0  0  0  0  0  0  0  0
    3.3819   -6.4561   -5.5054 C   0  0  0  0  0  0  0  0  0  0  0  0
   -3.2137   -3.6822    5.9379 C   0  0  0  0  0  0  0  0  0  0  0  0
    5.1358   -7.8723   -4.5500 C   0  0  0  0  0  0  0  0  0  0  0  0
  1  6  2  0  0  0  0
  2  3  2  0  0  0  0
  2  1  1  0  0  0  0
  3  4  1  0  0  0  0
  4 10  1  0  0  0  0
  4  5  2  0  0  0  0
  6  5  1  0  0  0  0
  7  1  1  0  0  0  0
  7 11  1  0  0  0  0
  8  7  2  0  0  0  0
  9 10  2  0  0  0  0
 10 12  1  0  0  0  0
 12 14  1  0  0  0  0
 13 11  1  0  0  0  0
 13 15  1  0  0  0  0
 14 16  1  0  0  0  0
 16 18  1  0  0  0  0
 17 15  1  0  0  0  0
 17 19  1  0  0  0  0
 18 20  1  0  0  0  0
 19 23  1  0  0  0  0
 20 22  1  0  0  0  0
 20 24  1  0  0  0  0
 21 19  1  0  0  0  0
M  END
>  <CHROM.1>
156.75970835,133.20956160,-162.98693576,41.86250695,42.49638480,-116.05491468
-55.84191747,75.06479683,-94.07345149,-67.33585841,0.82033653,-6.19495551
2.06908015,-2.11422982,0.69795025,-1.29004402

>  <Name>
lig.pdb

>  <RI>
3.30914e+07

>  <Rbt.Current_Directory>
/home/itssahil/PROJECTS/Mol_Feturizer/New_Systems/rnas/2l94

>  <Rbt.Executable>
rbdock ($Id: //depot/dev/client3/rdock/2013.1/src/exe/rbdock.cxx#4 $)

>  <Rbt.Library>
libRbt.so (2013.1, Build901 2013/11/27)

>  <Rbt.Parameter_File>
/export/apps/rDock/src/rDock_2013.1_src/data/scripts/dock_solv.prm

>  <Rbt.Receptor>
prm/blind_docking_80.prm

>  <SCORE>
3.60223

>  <SCORE.INTER>
-4.64884

>  <SCORE.INTER.CONST>
1

>  <SCORE.INTER.POLAR>
-0.430418

>  <SCORE.INTER.ROT>
10

>  <SCORE.INTER.SOLV>
17.2177

>  <SCORE.INTER.VDW>
-17.6704

>  <SCORE.INTER.norm>
-0.193702

>  <SCORE.INTRA>
8.07817

>  <SCORE.INTRA.DIHEDRAL>
15.8784

>  <SCORE.INTRA.DIHEDRAL.0>
7.52971

>  <SCORE.INTRA.POLAR>
0

>  <SCORE.INTRA.POLAR.0>
0

>  <SCORE.INTRA.REPUL>
0

>  <SCORE.INTRA.REPUL.0>
0

>  <SCORE.INTRA.SOLV>
1.13771

>  <SCORE.INTRA.SOLV.lig_0>
-22.1084

>  <SCORE.INTRA.VDW>
-0.42987

>  <SCORE.INTRA.VDW.0>
2.4256

>  <SCORE.INTRA.norm>
0.336591

>  <SCORE.RESTR>
0.172894

>  <SCORE.RESTR.CAVITY>
0.172894

>  <SCORE.RESTR.norm>
0.00720391

>  <SCORE.SYSTEM>
0

>  <SCORE.SYSTEM.CONST>
0

>  <SCORE.SYSTEM.DIHEDRAL>
0

>  <SCORE.SYSTEM.SOLV>
0

>  <SCORE.SYSTEM.norm>
0

>  <SCORE.heavy>
24

>  <SCORE.norm>
0.150093

>  <RMSD>
9.971

$$$$
lig.pdb
 OpenBabel11021811453D
libRbt.so/2013.1/901 2013/11/27
 24 24  0  0  0  0  0  0  0  0999 V2000
    1.2419   -6.4060    1.6054 C   0  0  0  0  0  0  0  0  0  0  0  0
    0.1113   -7.1158    2.1336 C   0  0  0  0  0  0  0  0  0  0  0  0
   -0.5582   -6.6801    3.2525 C   0  0  0  0  0  0  0  0  0  0  0  0
   -0.1703   -5.4892    3.9458 C   0  0  0  0  0  0  0  0  0  0  0  0
    0.9794   -4.8000    3.4371 C   0  0  0  0  0  0  0  0  0  0  0  0
    1.6535   -5.2385    2.3249 C   0  0  0  0  0  0  0  0  0  0  0  0
    1.8942   -6.8123    0.4766 C   0  0  0  0  0  0  0  0  0  0  0  0
    3.0919   -7.4348    0.5086 N   0  0  0  0  0  0  0  0  0  0  0  0
   -2.1965   -4.9863    5.1077 N   0  0  0  0  0  0  0  0  0  0  0  0
   -0.8492   -5.0280    5.0349 C   0  0  0  0  0  0  0  0  0  0  0  0
    1.3838   -6.6239   -0.7656 N   0  0  0  0  0  0  0  0  0  0  0  0
   -0.2222   -4.5677    6.1434 N   0  0  0  0  0  0  0  0  0  0  0  0
    1.5105   -7.5265   -1.9081 C   0  0  0  0  0  0  0  0  0  0  0  0
   -0.7968   -4.4750    7.4820 C   0  0  0  0  0  0  0  0  0  0  0  0
    2.8425   -7.2187   -2.6110 C   0  0  0  0  0  0  0  0  0  0  0  0
   -1.0988   -5.9051    7.9672 C   0  0  0  0  0  0  0  0  0  0  0  0
    2.9255   -5.7377   -3.0056 C   0  0  0  0  0  0  0  0  0  0  0  0
    0.1640   -6.7811    8.0561 C   0  0  0  0  0  0  0  0  0  0  0  0
    4.3661   -5.3671   -3.2486 N   0  0  0  0  0  0  0  0  0  0  0  0
   -0.0879   -8.1704    7.5270 N   0  0  0  0  0  0  0  0  0  0  0  0
    4.5172   -3.8703   -3.2532 C   0  0  0  0  0  0  0  0  0  0  0  0
    1.0139   -9.0786    8.0031 C   0  0  0  0  0  0  0  0  0  0  0  0
    4.8518   -5.9287   -4.5619 C   0  0  0  0  0  0  0  0  0  0  0  0
   -0.1352   -8.2063    6.0249 C   0  0  0  0  0  0  0  0  0  0  0  0
  1  6  2  0  0  0  0
  2  3  2  0  0  0  0
  2  1  1  0  0  0  0
  3  4  1  0  0  0  0
  4 10  1  0  0  0  0
  4  5  2  0  0  0  0
  6  5  1  0  0  0  0
  7  1  1  0  0  0  0
  7 11  1  0  0  0  0
  8  7  2  0  0  0  0
  9 10  2  0  0  0  0
 10 12  1  0  0  0  0
 12 14  1  0  0  0  0
 13 11  1  0  0  0  0
 13 15  1  0  0  0  0
 14 16  1  0  0  0  0
 16 18  1  0  0  0  0
 17 15  1  0  0  0  0
 17 19  1  0  0  0  0
 18 20  1  0  0  0  0
 19 23  1  0  0  0  0
 20 22  1  0  0  0  0
 20 24  1  0  0  0  0
 21 19  1  0  0  0  0
M  END
>  <CHROM.1>
-43.52534410,-104.09798391,64.58635625,-85.18382287,-55.68308729,61.07752679
-137.84251624,160.91667914,-164.15583758,-163.37581555,1.13443928,-6.24314073
2.47094483,-0.63927528,-1.08222824,2.49299105

>  <Name>
lig.pdb

>  <RI>
3.93418e+07

>  <Rbt.Current_Directory>
/home/itssahil/PROJECTS/Mol_Feturizer/New_Systems/rnas/2l94

>  <Rbt.Executable>
rbdock ($Id: //depot/dev/client3/rdock/2013.1/src/exe/rbdock.cxx#4 $)

>  <Rbt.Library>
libRbt.so (2013.1, Build901 2013/11/27)

>  <Rbt.Parameter_File>
/export/apps/rDock/src/rDock_2013.1_src/data/scripts/dock_solv.prm

>  <Rbt.Receptor>
prm/blind_docking_20.prm

>  <SCORE>
-1.44229

>  <SCORE.INTER>
-10.1375

>  <SCORE.INTER.CONST>
1

>  <SCORE.INTER.POLAR>
-2.33937

>  <SCORE.INTER.ROT>
10

>  <SCORE.INTER.SOLV>
16.2715

>  <SCORE.INTER.VDW>
-14.6509

>  <SCORE.INTER.norm>
-0.422395

>  <SCORE.INTRA>
8.18543

>  <SCORE.INTRA.DIHEDRAL>
22.181

>  <SCORE.INTRA.DIHEDRAL.0>
7.52971

>  <SCORE.INTRA.POLAR>
0

>  <SCORE.INTRA.POLAR.0>
0

>  <SCORE.INTRA.REPUL>
0

>  <SCORE.INTRA.REPUL.0>
0

>  <SCORE.INTRA.SOLV>
1.2519

>  <SCORE.INTRA.SOLV.lig_0>
-22.1084

>  <SCORE.INTRA.VDW>
-3.53103

>  <SCORE.INTRA.VDW.0>
2.4256

>  <SCORE.INTRA.norm>
0.34106

>  <SCORE.RESTR>
0.509753

>  <SCORE.RESTR.CAVITY>
0.509753

>  <SCORE.RESTR.norm>
0.0212397

>  <SCORE.SYSTEM>
0

>  <SCORE.SYSTEM.CONST>
0

>  <SCORE.SYSTEM.DIHEDRAL>
0

>  <SCORE.SYSTEM.SOLV>
0

>  <SCORE.SYSTEM.norm>
0

>  <SCORE.heavy>
24

>  <SCORE.norm>
-0.0600955

>  <RMSD>
10.011

$$$$
lig.pdb
 OpenBabel11021811453D
libRbt.so/2013.1/901 2013/11/27
 24 24  0  0  0  0  0  0  0  0999 V2000
    0.8557   -6.5541    4.4517 C   0  0  0  0  0  0  0  0  0  0  0  0
    0.2078   -7.2986    3.4090 C   0  0  0  0  0  0  0  0  0  0  0  0
    0.2352   -6.8827    2.0989 C   0  0  0  0  0  0  0  0  0  0  0  0
    0.9199   -5.6899    1.7019 C   0  0  0  0  0  0  0  0  0  0  0  0
    1.5378   -4.9298    2.7489 C   0  0  0  0  0  0  0  0  0  0  0  0
    1.5042   -5.3397    4.0583 C   0  0  0  0  0  0  0  0  0  0  0  0
    0.8617   -6.9748    5.7508 C   0  0  0  0  0  0  0  0  0  0  0  0
    1.9004   -6.7559    6.5852 N   0  0  0  0  0  0  0  0  0  0  0  0
    1.3300   -4.0375    0.0257 N   0  0  0  0  0  0  0  0  0  0  0  0
    0.9844   -5.2874    0.4006 C   0  0  0  0  0  0  0  0  0  0  0  0
   -0.1811   -7.6429    6.3034 N   0  0  0  0  0  0  0  0  0  0  0  0
    0.7028   -6.1155   -0.6333 N   0  0  0  0  0  0  0  0  0  0  0  0
   -0.6586   -7.5317    7.6803 C   0  0  0  0  0  0  0  0  0  0  0  0
    1.1487   -5.9523   -2.0135 C   0  0  0  0  0  0  0  0  0  0  0  0
   -1.0016   -6.0571    7.9463 C   0  0  0  0  0  0  0  0  0  0  0  0
    2.6816   -6.0991   -2.0360 C   0  0  0  0  0  0  0  0  0  0  0  0
   -2.3009   -5.6585    7.2328 C   0  0  0  0  0  0  0  0  0  0  0  0
    3.3088   -5.5799   -3.3425 C   0  0  0  0  0  0  0  0  0  0  0  0
   -1.9694   -4.8092    6.0325 N   0  0  0  0  0  0  0  0  0  0  0  0
    3.0933   -6.5443   -4.4813 N   0  0  0  0  0  0  0  0  0  0  0  0
   -1.5215   -3.4437    6.4780 C   0  0  0  0  0  0  0  0  0  0  0  0
    3.9510   -7.7606   -4.2567 C   0  0  0  0  0  0  0  0  0  0  0  0
   -3.1639   -4.6772    5.1206 C   0  0  0  0  0  0  0  0  0  0  0  0
    3.4436   -5.9391   -5.8122 C   0  0  0  0  0  0  0  0  0  0  0  0
  1  6  2  0  0  0  0
  2  3  2  0  0  0  0
  2  1  1  0  0  0  0
  3  4  1  0  0  0  0
  4 10  1  0  0  0  0
  4  5  2  0  0  0  0
  6  5  1  0  0  0  0
  7  1  1  0  0  0  0
  7 11  1  0  0  0  0
  8  7  2  0  0  0  0
  9 10  2  0  0  0  0
 10 12  1  0  0  0  0
 12 14  1  0  0  0  0
 13 11  1  0  0  0  0
 13 15  1  0  0  0  0
 14 16  1  0  0  0  0
 16 18  1  0  0  0  0
 17 15  1  0  0  0  0
 17 19  1  0  0  0  0
 18 20  1  0  0  0  0
 19 23  1  0  0  0  0
 20 22  1  0  0  0  0
 20 24  1  0  0  0  0
 21 19  1  0  0  0  0
M  END
>  <CHROM.1>
163.58670350,146.24514449,65.49034095,57.02011792,73.51099192,-164.52991256
-75.71419054,-105.49974229,-72.51188687,-71.07376760,0.74415429,-5.97004366
2.26383920,-2.07118637,0.76665416,-1.23476963

>  <Name>
lig.pdb

>  <RI>
3.30914e+07

>  <Rbt.Current_Directory>
/home/itssahil/PROJECTS/Mol_Feturizer/New_Systems/rnas/2l94

>  <Rbt.Executable>
rbdock ($Id: //depot/dev/client3/rdock/2013.1/src/exe/rbdock.cxx#4 $)

>  <Rbt.Library>
libRbt.so (2013.1, Build901 2013/11/27)

>  <Rbt.Parameter_File>
/export/apps/rDock/src/rDock_2013.1_src/data/scripts/dock_solv.prm

>  <Rbt.Receptor>
prm/blind_docking_80.prm

>  <SCORE>
-2.57309

>  <SCORE.INTER>
-5.08565

>  <SCORE.INTER.CONST>
1

>  <SCORE.INTER.POLAR>
-0.640808

>  <SCORE.INTER.ROT>
10

>  <SCORE.INTER.SOLV>
17.2472

>  <SCORE.INTER.VDW>
-17.2701

>  <SCORE.INTER.norm>
-0.211902

>  <SCORE.INTRA>
2.13604

>  <SCORE.INTRA.DIHEDRAL>
10.1572

>  <SCORE.INTRA.DIHEDRAL.0>
7.52971

>  <SCORE.INTRA.POLAR>
0

>  <SCORE.INTRA.POLAR.0>
0

>  <SCORE.INTRA.REPUL>
0

>  <SCORE.INTRA.REPUL.0>
0

>  <SCORE.INTRA.SOLV>
1.24731

>  <SCORE.INTRA.SOLV.lig_0>
-22.1084

>  <SCORE.INTRA.VDW>
-3.56623

>  <SCORE.INTRA.VDW.0>
2.4256

>  <SCORE.INTRA.norm>
0.0890018

>  <SCORE.RESTR>
0.376515

>  <SCORE.RESTR.CAVITY>
0.376515

>  <SCORE.RESTR.norm>
0.0156881

>  <SCORE.SYSTEM>
0

>  <SCORE.SYSTEM.CONST>
0

>  <SCORE.SYSTEM.DIHEDRAL>
0

>  <SCORE.SYSTEM.SOLV>
0

>  <SCORE.SYSTEM.norm>
0

>  <SCORE.heavy>
24

>  <SCORE.norm>
-0.107212

>  <RMSD>
10.016

$$$$
lig.pdb
 OpenBabel11021811453D
libRbt.so/2013.1/901 2013/11/27
 24 24  0  0  0  0  0  0  0  0999 V2000
   -0.4367   -5.8723    3.9367 C   0  0  0  0  0  0  0  0  0  0  0  0
    0.6238   -4.9768    3.5703 C   0  0  0  0  0  0  0  0  0  0  0  0
    1.5033   -5.2734    2.5561 C   0  0  0  0  0  0  0  0  0  0  0  0
    1.4031   -6.4872    1.8038 C   0  0  0  0  0  0  0  0  0  0  0  0
    0.3644   -7.3958    2.1930 C   0  0  0  0  0  0  0  0  0  0  0  0
   -0.5092   -7.1043    3.2107 C   0  0  0  0  0  0  0  0  0  0  0  0
   -1.3349   -5.5732    4.9209 C   0  0  0  0  0  0  0  0  0  0  0  0
   -2.5807   -6.0926    4.9559 N   0  0  0  0  0  0  0  0  0  0  0  0
    2.5377   -8.0333    0.3788 N   0  0  0  0  0  0  0  0  0  0  0  0
    2.2472   -6.7751    0.7722 C   0  0  0  0  0  0  0  0  0  0  0  0
   -1.0402   -4.7319    5.9429 N   0  0  0  0  0  0  0  0  0  0  0  0
    2.8714   -5.8136    0.0511 N   0  0  0  0  0  0  0  0  0  0  0  0
   -1.4981   -4.8442    7.3263 C   0  0  0  0  0  0  0  0  0  0  0  0
    3.4145   -5.9631   -1.2954 C   0  0  0  0  0  0  0  0  0  0  0  0
   -0.5287   -5.7745    8.0733 C   0  0  0  0  0  0  0  0  0  0  0  0
    2.6609   -4.9893   -2.2203 C   0  0  0  0  0  0  0  0  0  0  0  0
   -0.5157   -7.1740    7.4430 C   0  0  0  0  0  0  0  0  0  0  0  0
    3.0052   -5.1953   -3.7065 C   0  0  0  0  0  0  0  0  0  0  0  0
    0.8232   -7.8198    7.6922 N   0  0  0  0  0  0  0  0  0  0  0  0
    4.4385   -4.8294   -3.9984 N   0  0  0  0  0  0  0  0  0  0  0  0
    0.9269   -9.1030    6.9136 C   0  0  0  0  0  0  0  0  0  0  0  0
    4.5227   -3.3451   -4.2337 C   0  0  0  0  0  0  0  0  0  0  0  0
    1.0190   -8.1022    9.1612 C   0  0  0  0  0  0  0  0  0  0  0  0
    4.9730   -5.5461   -5.2069 C   0  0  0  0  0  0  0  0  0  0  0  0
  1  6  2  0  0  0  0
  2  3  2  0  0  0  0
  2  1  1  0  0  0  0
  3  4  1  0  0  0  0
  4 10  1  0  0  0  0
  4  5  2  0  0  0  0
  6  5  1  0  0  0  0
  7  1  1  0  0  0  0
  7 11  1  0  0  0  0
  8  7  2  0  0  0  0
  9 10  2  0  0  0  0
 10 12  1  0  0  0  0
 12 14  1  0  0  0  0
 13 11  1  0  0  0  0
 13 15  1  0  0  0  0
 14 16  1  0  0  0  0
 16 18  1  0  0  0  0
 17 15  1  0  0  0  0
 17 19  1  0  0  0  0
 18 20  1  0  0  0  0
 19 23  1  0  0  0  0
 20 22  1  0  0  0  0
 20 24  1  0  0  0  0
 21 19  1  0  0  0  0
M  END
>  <CHROM.1>
154.01421715,154.04305376,118.10286713,85.72841579,-60.91678447,-171.82334700
-66.87569847,152.47405488,-171.73816248,-84.32457061,1.24576358,-6.12524055
2.48914079,2.13128707,-0.77615384,2.13306604

>  <Name>
lig.pdb

>  <RI>
3.30914e+07

>  <Rbt.Current_Directory>
/home/itssahil/PROJECTS/Mol_Feturizer/New_Systems/rnas/2l94

>  <Rbt.Executable>
rbdock ($Id: //depot/dev/client3/rdock/2013.1/src/exe/rbdock.cxx#4 $)

>  <Rbt.Library>
libRbt.so (2013.1, Build901 2013/11/27)

>  <Rbt.Parameter_File>
/export/apps/rDock/src/rDock_2013.1_src/data/scripts/dock_solv.prm

>  <Rbt.Receptor>
prm/blind_docking_80.prm

>  <SCORE>
-1.91005

>  <SCORE.INTER>
-2.68309

>  <SCORE.INTER.CONST>
1

>  <SCORE.INTER.POLAR>
-0.639916

>  <SCORE.INTER.ROT>
10

>  <SCORE.INTER.SOLV>
15.3042

>  <SCORE.INTER.VDW>
-15.0237

>  <SCORE.INTER.norm>
-0.111795

>  <SCORE.INTRA>
0.723927

>  <SCORE.INTRA.DIHEDRAL>
6.49736

>  <SCORE.INTRA.DIHEDRAL.0>
7.52971

>  <SCORE.INTRA.POLAR>
0

>  <SCORE.INTRA.POLAR.0>
0

>  <SCORE.INTRA.REPUL>
0

>  <SCORE.INTRA.REPUL.0>
0

>  <SCORE.INTRA.SOLV>
0.448948

>  <SCORE.INTRA.SOLV.lig_0>
-22.1084

>  <SCORE.INTRA.VDW>
-2.74923

>  <SCORE.INTRA.VDW.0>
2.4256

>  <SCORE.INTRA.norm>
0.0301636

>  <SCORE.RESTR>
0.0491141

>  <SCORE.RESTR.CAVITY>
0.0491141

>  <SCORE.RESTR.norm>
0.00204642

>  <SCORE.SYSTEM>
0

>  <SCORE.SYSTEM.CONST>
0

>  <SCORE.SYSTEM.DIHEDRAL>
0

>  <SCORE.SYSTEM.SOLV>
0

>  <SCORE.SYSTEM.norm>
0

>  <SCORE.heavy>
24

>  <SCORE.norm>
-0.0795854

>  <RMSD>
10.051

$$$$
lig.pdb
 OpenBabel11021811453D
libRbt.so/2013.1/901 2013/11/27
 24 24  0  0  0  0  0  0  0  0999 V2000
    1.1310   -6.2285    2.4716 C   0  0  0  0  0  0  0  0  0  0  0  0
    1.4945   -5.2653    1.4710 C   0  0  0  0  0  0  0  0  0  0  0  0
    1.8265   -5.6418    0.1911 C   0  0  0  0  0  0  0  0  0  0  0  0
    1.8181   -7.0142   -0.2159 C   0  0  0  0  0  0  0  0  0  0  0  0
    1.4877   -7.9776    0.7933 C   0  0  0  0  0  0  0  0  0  0  0  0
    1.1640   -7.6035    2.0735 C   0  0  0  0  0  0  0  0  0  0  0  0
    0.7688   -5.8630    3.7365 C   0  0  0  0  0  0  0  0  0  0  0  0
    0.6251   -4.5740    4.1119 N   0  0  0  0  0  0  0  0  0  0  0  0
    1.8836   -8.6394   -1.9660 N   0  0  0  0  0  0  0  0  0  0  0  0
    2.1103   -7.3960   -1.4921 C   0  0  0  0  0  0  0  0  0  0  0  0
    0.5213   -6.7710    4.7129 N   0  0  0  0  0  0  0  0  0  0  0  0
    2.6589   -6.5518   -2.3978 N   0  0  0  0  0  0  0  0  0  0  0  0
   -0.4827   -6.6654    5.7697 C   0  0  0  0  0  0  0  0  0  0  0  0
    2.6046   -6.6927   -3.8496 C   0  0  0  0  0  0  0  0  0  0  0  0
    0.2136   -6.9301    7.1144 C   0  0  0  0  0  0  0  0  0  0  0  0
    4.0093   -6.3956   -4.4067 C   0  0  0  0  0  0  0  0  0  0  0  0
    0.4837   -8.4287    7.3070 C   0  0  0  0  0  0  0  0  0  0  0  0
    4.0347   -5.1608   -5.3256 C   0  0  0  0  0  0  0  0  0  0  0  0
    0.7575   -8.7021    8.7638 N   0  0  0  0  0  0  0  0  0  0  0  0
    3.5231   -3.9325   -4.6165 N   0  0  0  0  0  0  0  0  0  0  0  0
    2.1788   -8.3373    9.0961 C   0  0  0  0  0  0  0  0  0  0  0  0
    3.5374   -2.7749   -5.5784 C   0  0  0  0  0  0  0  0  0  0  0  0
    0.5180  -10.1548    9.0927 C   0  0  0  0  0  0  0  0  0  0  0  0
    4.3574   -3.5803   -3.4165 C   0  0  0  0  0  0  0  0  0  0  0  0
  1  6  2  0  0  0  0
  2  3  2  0  0  0  0
  2  1  1  0  0  0  0
  3  4  1  0  0  0  0
  4 10  1  0  0  0  0
  4  5  2  0  0  0  0
  6  5  1  0  0  0  0
  7  1  1  0  0  0  0
  7 11  1  0  0  0  0
  8  7  2  0  0  0  0
  9 10  2  0  0  0  0
 10 12  1  0  0  0  0
 12 14  1  0  0  0  0
 13 11  1  0  0  0  0
 13 15  1  0  0  0  0
 14 16  1  0  0  0  0
 16 18  1  0  0  0  0
 17 15  1  0  0  0  0
 17 19  1  0  0  0  0
 18 20  1  0  0  0  0
 19 23  1  0  0  0  0
 20 22  1  0  0  0  0
 20 24  1  0  0  0  0
 21 19  1  0  0  0  0
M  END
>  <CHROM.1>
-167.83281710,5.24557980,-135.75464904,-128.79806782,-76.24702332,-116.89851830
57.26576707,-162.53726737,-79.90753595,-178.40259345,1.81484950,-6.54535325
1.41600866,2.97462585,-1.34489249,-3.07048358

>  <Name>
lig.pdb

>  <RI>
3.30914e+07

>  <Rbt.Current_Directory>
/home/itssahil/PROJECTS/Mol_Feturizer/New_Systems/rnas/2l94

>  <Rbt.Executable>
rbdock ($Id: //depot/dev/client3/rdock/2013.1/src/exe/rbdock.cxx#4 $)

>  <Rbt.Library>
libRbt.so (2013.1, Build901 2013/11/27)

>  <Rbt.Parameter_File>
/export/apps/rDock/src/rDock_2013.1_src/data/scripts/dock_solv.prm

>  <Rbt.Receptor>
prm/blind_docking_80.prm

>  <SCORE>
-2.15524

>  <SCORE.INTER>
-5.03229

>  <SCORE.INTER.CONST>
1

>  <SCORE.INTER.POLAR>
-1.0814

>  <SCORE.INTER.ROT>
10

>  <SCORE.INTER.SOLV>
11.3042

>  <SCORE.INTER.VDW>
-13.7849

>  <SCORE.INTER.norm>
-0.209679

>  <SCORE.INTRA>
1.90133

>  <SCORE.INTRA.DIHEDRAL>
6.483

>  <SCORE.INTRA.DIHEDRAL.0>
7.52971

>  <SCORE.INTRA.POLAR>
0

>  <SCORE.INTRA.POLAR.0>
0

>  <SCORE.INTRA.REPUL>
0

>  <SCORE.INTRA.REPUL.0>
0

>  <SCORE.INTRA.SOLV>
0.571924

>  <SCORE.INTRA.SOLV.lig_0>
-22.1084

>  <SCORE.INTRA.VDW>
-1.62614

>  <SCORE.INTRA.VDW.0>
2.4256

>  <SCORE.INTRA.norm>
0.079222

>  <SCORE.RESTR>
0.975725

>  <SCORE.RESTR.CAVITY>
0.975725

>  <SCORE.RESTR.norm>
0.0406552

>  <SCORE.SYSTEM>
0

>  <SCORE.SYSTEM.CONST>
0

>  <SCORE.SYSTEM.DIHEDRAL>
0

>  <SCORE.SYSTEM.SOLV>
0

>  <SCORE.SYSTEM.norm>
0

>  <SCORE.heavy>
24

>  <SCORE.norm>
-0.0898016

>  <RMSD>
10.065

$$$$
lig.pdb
 OpenBabel11021811453D
libRbt.so/2013.1/901 2013/11/27
 24 24  0  0  0  0  0  0  0  0999 V2000
   -0.3789   -5.8334    3.7659 C   0  0  0  0  0  0  0  0  0  0  0  0
    0.7241   -4.9339    3.5776 C   0  0  0  0  0  0  0  0  0  0  0  0
    1.5791   -5.0516    2.5075 C   0  0  0  0  0  0  0  0  0  0  0  0
    1.4100   -6.0717    1.5174 C   0  0  0  0  0  0  0  0  0  0  0  0
    0.3284   -6.9898    1.7248 C   0  0  0  0  0  0  0  0  0  0  0  0
   -0.5210   -6.8782    2.7971 C   0  0  0  0  0  0  0  0  0  0  0  0
   -1.2527   -5.7060    4.8075 C   0  0  0  0  0  0  0  0  0  0  0  0
   -2.5881   -5.8424    4.6621 N   0  0  0  0  0  0  0  0  0  0  0  0
    3.5766   -6.2113    0.5202 N   0  0  0  0  0  0  0  0  0  0  0  0
    2.2301   -6.1754    0.4328 C   0  0  0  0  0  0  0  0  0  0  0  0
   -0.8426   -5.4358    6.0715 N   0  0  0  0  0  0  0  0  0  0  0  0
    1.7572   -6.2501   -0.8340 N   0  0  0  0  0  0  0  0  0  0  0  0
   -1.4324   -5.9439    7.3085 C   0  0  0  0  0  0  0  0  0  0  0  0
    2.4679   -6.7922   -1.9879 C   0  0  0  0  0  0  0  0  0  0  0  0
   -0.4038   -6.8673    7.9809 C   0  0  0  0  0  0  0  0  0  0  0  0
    2.6050   -5.6670   -3.0305 C   0  0  0  0  0  0  0  0  0  0  0  0
    0.7517   -7.1907    7.0237 C   0  0  0  0  0  0  0  0  0  0  0  0
    3.3636   -6.1160   -4.2925 C   0  0  0  0  0  0  0  0  0  0  0  0
    1.4282   -8.4612    7.4711 N   0  0  0  0  0  0  0  0  0  0  0  0
    4.8487   -6.1993   -4.0453 N   0  0  0  0  0  0  0  0  0  0  0  0
    0.4347   -9.5907    7.4950 C   0  0  0  0  0  0  0  0  0  0  0  0
    5.4919   -4.9226   -4.5161 C   0  0  0  0  0  0  0  0  0  0  0  0
    2.0360   -8.2929    8.8417 C   0  0  0  0  0  0  0  0  0  0  0  0
    5.4802   -7.3583   -4.7649 C   0  0  0  0  0  0  0  0  0  0  0  0
  1  6  2  0  0  0  0
  2  3  2  0  0  0  0
  2  1  1  0  0  0  0
  3  4  1  0  0  0  0
  4 10  1  0  0  0  0
  4  5  2  0  0  0  0
  6  5  1  0  0  0  0
  7  1  1  0  0  0  0
  7 11  1  0  0  0  0
  8  7  2  0  0  0  0
  9 10  2  0  0  0  0
 10 12  1  0  0  0  0
 12 14  1  0  0  0  0
 13 11  1  0  0  0  0
 13 15  1  0  0  0  0
 14 16  1  0  0  0  0
 16 18  1  0  0  0  0
 17 15  1  0  0  0  0
 17 19  1  0  0  0  0
 18 20  1  0  0  0  0
 19 23  1  0  0  0  0
 20 22  1  0  0  0  0
 20 24  1  0  0  0  0
 21 19  1  0  0  0  0
M  END
>  <CHROM.1>
51.75713210,137.02076703,-119.69199077,113.63681118,-11.98861115,179.07522078
-76.16340055,-158.19904272,58.65526119,-96.59878588,1.43068303,-6.47535594
2.27706507,2.00646368,-0.49795193,1.88200955

>  <Name>
lig.pdb

>  <RI>
3.30914e+07

>  <Rbt.Current_Directory>
/home/itssahil/PROJECTS/Mol_Feturizer/New_Systems/rnas/2l94

>  <Rbt.Executable>
rbdock ($Id: //depot/dev/client3/rdock/2013.1/src/exe/rbdock.cxx#4 $)

>  <Rbt.Library>
libRbt.so (2013.1, Build901 2013/11/27)

>  <Rbt.Parameter_File>
/export/apps/rDock/src/rDock_2013.1_src/data/scripts/dock_solv.prm

>  <Rbt.Receptor>
prm/blind_docking_80.prm

>  <SCORE>
-0.575212

>  <SCORE.INTER>
-12.9719

>  <SCORE.INTER.CONST>
1

>  <SCORE.INTER.POLAR>
-2.3379

>  <SCORE.INTER.ROT>
10

>  <SCORE.INTER.SOLV>
18.1205

>  <SCORE.INTER.VDW>
-17.1618

>  <SCORE.INTER.norm>
-0.540497

>  <SCORE.INTRA>
12.3967

>  <SCORE.INTRA.DIHEDRAL>
21.178

>  <SCORE.INTRA.DIHEDRAL.0>
7.52971

>  <SCORE.INTRA.POLAR>
0

>  <SCORE.INTRA.POLAR.0>
0

>  <SCORE.INTRA.REPUL>
0

>  <SCORE.INTRA.REPUL.0>
0

>  <SCORE.INTRA.SOLV>
0.224144

>  <SCORE.INTRA.SOLV.lig_0>
-22.1084

>  <SCORE.INTRA.VDW>
1.69564

>  <SCORE.INTRA.VDW.0>
2.4256

>  <SCORE.INTRA.norm>
0.51653

>  <SCORE.RESTR>
0

>  <SCORE.RESTR.CAVITY>
0

>  <SCORE.RESTR.norm>
0

>  <SCORE.SYSTEM>
0

>  <SCORE.SYSTEM.CONST>
0

>  <SCORE.SYSTEM.DIHEDRAL>
0

>  <SCORE.SYSTEM.SOLV>
0

>  <SCORE.SYSTEM.norm>
0

>  <SCORE.heavy>
24

>  <SCORE.norm>
-0.0239671

>  <RMSD>
10.169

$$$$
lig.pdb
 OpenBabel11021811453D
libRbt.so/2013.1/901 2013/11/27
 24 24  0  0  0  0  0  0  0  0999 V2000
    1.7681   -5.9323    1.7872 C   0  0  0  0  0  0  0  0  0  0  0  0
    2.0079   -4.7675    2.5914 C   0  0  0  0  0  0  0  0  0  0  0  0
    1.2160   -4.4588    3.6719 C   0  0  0  0  0  0  0  0  0  0  0  0
    0.1151   -5.2877    4.0597 C   0  0  0  0  0  0  0  0  0  0  0  0
   -0.1437   -6.4322    3.2357 C   0  0  0  0  0  0  0  0  0  0  0  0
    0.6414   -6.7370    2.1519 C   0  0  0  0  0  0  0  0  0  0  0  0
    2.5676   -6.2653    0.7314 C   0  0  0  0  0  0  0  0  0  0  0  0
    3.1504   -7.4772    0.6096 N   0  0  0  0  0  0  0  0  0  0  0  0
   -1.9993   -5.1275    5.1605 N   0  0  0  0  0  0  0  0  0  0  0  0
   -0.6545   -5.0109    5.1509 C   0  0  0  0  0  0  0  0  0  0  0  0
    2.8338   -5.4017   -0.2797 N   0  0  0  0  0  0  0  0  0  0  0  0
   -0.1287   -4.5905    6.3259 N   0  0  0  0  0  0  0  0  0  0  0  0
    3.0044   -5.7365   -1.6922 C   0  0  0  0  0  0  0  0  0  0  0  0
   -0.7618   -4.6902    7.6374 C   0  0  0  0  0  0  0  0  0  0  0  0
    1.6092   -5.9477   -2.3021 C   0  0  0  0  0  0  0  0  0  0  0  0
   -1.3290   -6.1147    7.7818 C   0  0  0  0  0  0  0  0  0  0  0  0
    0.5732   -6.2503   -1.2107 C   0  0  0  0  0  0  0  0  0  0  0  0
   -0.2697   -7.1315    8.2442 C   0  0  0  0  0  0  0  0  0  0  0  0
    0.0440   -7.6488   -1.4005 N   0  0  0  0  0  0  0  0  0  0  0  0
    0.7089   -7.4510    7.1424 N   0  0  0  0  0  0  0  0  0  0  0  0
   -1.1390   -7.8766   -0.4994 C   0  0  0  0  0  0  0  0  0  0  0  0
   -0.0362   -8.0894    6.0010 C   0  0  0  0  0  0  0  0  0  0  0  0
    1.1113   -8.6727   -1.1029 C   0  0  0  0  0  0  0  0  0  0  0  0
    1.7944   -8.3849    7.5999 C   0  0  0  0  0  0  0  0  0  0  0  0
  1  6  2  0  0  0  0
  2  3  2  0  0  0  0
  2  1  1  0  0  0  0
  3  4  1  0  0  0  0
  4 10  1  0  0  0  0
  4  5  2  0  0  0  0
  6  5  1  0  0  0  0
  7  1  1  0  0  0  0
  7 11  1  0  0  0  0
  8  7  2  0  0  0  0
  9 10  2  0  0  0  0
 10 12  1  0  0  0  0
 12 14  1  0  0  0  0
 13 11  1  0  0  0  0
 13 15  1  0  0  0  0
 14 16  1  0  0  0  0
 16 18  1  0  0  0  0
 17 15  1  0  0  0  0
 17 19  1  0  0  0  0
 18 20  1  0  0  0  0
 19 23  1  0  0  0  0
 20 22  1  0  0  0  0
 20 24  1  0  0  0  0
 21 19  1  0  0  0  0
M  END
>  <CHROM.1>
137.95906848,125.99343535,46.38893086,78.32129748,-20.63601243,83.33209865
-72.84249082,-115.38726255,-170.00761678,-62.49253933,0.68526860,-6.35610742
2.97192018,0.47644545,1.32141980,-0.54536618

>  <Name>
lig.pdb

>  <RI>
3.93418e+07

>  <Rbt.Current_Directory>
/home/itssahil/PROJECTS/Mol_Feturizer/New_Systems/rnas/2l94

>  <Rbt.Executable>
rbdock ($Id: //depot/dev/client3/rdock/2013.1/src/exe/rbdock.cxx#4 $)

>  <Rbt.Library>
libRbt.so (2013.1, Build901 2013/11/27)

>  <Rbt.Parameter_File>
/export/apps/rDock/src/rDock_2013.1_src/data/scripts/dock_solv.prm

>  <Rbt.Receptor>
prm/blind_docking_20.prm

>  <SCORE>
10.1818

>  <SCORE.INTER>
-4.09026

>  <SCORE.INTER.CONST>
1

>  <SCORE.INTER.POLAR>
-0.822064

>  <SCORE.INTER.ROT>
10

>  <SCORE.INTER.SOLV>
16.6501

>  <SCORE.INTER.VDW>
-15.8033

>  <SCORE.INTER.norm>
-0.170428

>  <SCORE.INTRA>
13.3575

>  <SCORE.INTRA.DIHEDRAL>
23.5258

>  <SCORE.INTRA.DIHEDRAL.0>
7.52971

>  <SCORE.INTRA.POLAR>
0

>  <SCORE.INTRA.POLAR.0>
0

>  <SCORE.INTRA.REPUL>
0

>  <SCORE.INTRA.REPUL.0>
0

>  <SCORE.INTRA.SOLV>
3.13249

>  <SCORE.INTRA.SOLV.lig_0>
-22.1084

>  <SCORE.INTRA.VDW>
0.0282917

>  <SCORE.INTRA.VDW.0>
2.4256

>  <SCORE.INTRA.norm>
0.556561

>  <SCORE.RESTR>
0.914602

>  <SCORE.RESTR.CAVITY>
0.914602

>  <SCORE.RESTR.norm>
0.0381084

>  <SCORE.SYSTEM>
0

>  <SCORE.SYSTEM.CONST>
0

>  <SCORE.SYSTEM.DIHEDRAL>
0

>  <SCORE.SYSTEM.SOLV>
0

>  <SCORE.SYSTEM.norm>
0

>  <SCORE.heavy>
24

>  <SCORE.norm>
0.424241

>  <RMSD>
10.551

$$$$
lig.pdb
 OpenBabel11021811453D
libRbt.so/2013.1/901 2013/11/27
 24 24  0  0  0  0  0  0  0  0999 V2000
   -4.0942    6.1406    5.8476 C   0  0  0  0  0  0  0  0  0  0  0  0
   -3.2706    5.2542    5.0750 C   0  0  0  0  0  0  0  0  0  0  0  0
   -3.8115    4.2600    4.2946 C   0  0  0  0  0  0  0  0  0  0  0  0
   -5.2262    4.0611    4.2024 C   0  0  0  0  0  0  0  0  0  0  0  0
   -6.0458    4.9253    5.0006 C   0  0  0  0  0  0  0  0  0  0  0  0
   -5.5065    5.9130    5.7863 C   0  0  0  0  0  0  0  0  0  0  0  0
   -3.5690    7.1514    6.6008 C   0  0  0  0  0  0  0  0  0  0  0  0
   -4.3329    8.0927    7.1954 N   0  0  0  0  0  0  0  0  0  0  0  0
   -6.2868    3.3568    2.1807 N   0  0  0  0  0  0  0  0  0  0  0  0
   -5.7751    3.1019    3.4035 C   0  0  0  0  0  0  0  0  0  0  0  0
   -2.2360    7.2835    6.8120 N   0  0  0  0  0  0  0  0  0  0  0  0
   -5.8546    1.8020    3.7749 N   0  0  0  0  0  0  0  0  0  0  0  0
   -1.5879    7.7572    8.0334 C   0  0  0  0  0  0  0  0  0  0  0  0
   -5.9966    0.6578    2.8798 C   0  0  0  0  0  0  0  0  0  0  0  0
   -1.4449    6.5619    8.9894 C   0  0  0  0  0  0  0  0  0  0  0  0
   -7.2457   -0.1310    3.3149 C   0  0  0  0  0  0  0  0  0  0  0  0
   -2.7387    5.7373    9.0345 C   0  0  0  0  0  0  0  0  0  0  0  0
   -8.4479    0.7812    3.6192 C   0  0  0  0  0  0  0  0  0  0  0  0
   -3.8252    6.5511    9.6897 N   0  0  0  0  0  0  0  0  0  0  0  0
   -9.1692    0.3473    4.8702 N   0  0  0  0  0  0  0  0  0  0  0  0
   -3.6960    6.4691   11.1864 C   0  0  0  0  0  0  0  0  0  0  0  0
  -10.6439    0.2706    4.5788 C   0  0  0  0  0  0  0  0  0  0  0  0
   -5.1898    6.0616    9.2721 C   0  0  0  0  0  0  0  0  0  0  0  0
   -8.9462    1.2979    6.0132 C   0  0  0  0  0  0  0  0  0  0  0  0
  1  6  2  0  0  0  0
  2  3  2  0  0  0  0
  2  1  1  0  0  0  0
  3  4  1  0  0  0  0
  4 10  1  0  0  0  0
  4  5  2  0  0  0  0
  6  5  1  0  0  0  0
  7  1  1  0  0  0  0
  7 11  1  0  0  0  0
  8  7  2  0  0  0  0
  9 10  2  0  0  0  0
 10 12  1  0  0  0  0
 12 14  1  0  0  0  0
 13 11  1  0  0  0  0
 13 15  1  0  0  0  0
 14 16  1  0  0  0  0
 16 18  1  0  0  0  0
 17 15  1  0  0  0  0
 17 19  1  0  0  0  0
 18 20  1  0  0  0  0
 19 23  1  0  0  0  0
 20 22  1  0  0  0  0
 20 24  1  0  0  0  0
 21 19  1  0  0  0  0
M  END
>  <CHROM.1>
-99.22833869,171.43177575,-124.52506746,84.58228048,-44.47601475,44.31980388
-137.05404136,-67.68902989,-81.80183035,-131.05184889,-5.24996111,4.29762904
5.94553969,-0.75892577,-0.70324994,-1.88489360

>  <Name>
lig.pdb

>  <RI>
3.93418e+07

>  <Rbt.Current_Directory>
/home/itssahil/PROJECTS/Mol_Feturizer/New_Systems/rnas/2l94

>  <Rbt.Executable>
rbdock ($Id: //depot/dev/client3/rdock/2013.1/src/exe/rbdock.cxx#4 $)

>  <Rbt.Library>
libRbt.so (2013.1, Build901 2013/11/27)

>  <Rbt.Parameter_File>
/export/apps/rDock/src/rDock_2013.1_src/data/scripts/dock_solv.prm

>  <Rbt.Receptor>
prm/blind_docking_20.prm

>  <SCORE>
-4.55981

>  <SCORE.INTER>
-15.7267

>  <SCORE.INTER.CONST>
1

>  <SCORE.INTER.POLAR>
-2.32794

>  <SCORE.INTER.ROT>
10

>  <SCORE.INTER.SOLV>
20.6009

>  <SCORE.INTER.VDW>
-19.8583

>  <SCORE.INTER.norm>
-0.65528

>  <SCORE.INTRA>
8.22996

>  <SCORE.INTRA.DIHEDRAL>
20.9261

>  <SCORE.INTRA.DIHEDRAL.0>
7.52971

>  <SCORE.INTRA.POLAR>
0

>  <SCORE.INTRA.POLAR.0>
0

>  <SCORE.INTRA.REPUL>
0

>  <SCORE.INTRA.REPUL.0>
0

>  <SCORE.INTRA.SOLV>
2.63244

>  <SCORE.INTRA.SOLV.lig_0>
-22.1084

>  <SCORE.INTRA.VDW>
-3.54934

>  <SCORE.INTRA.VDW.0>
2.4256

>  <SCORE.INTRA.norm>
0.342915

>  <SCORE.RESTR>
2.93696

>  <SCORE.RESTR.CAVITY>
2.93696

>  <SCORE.RESTR.norm>
0.122373

>  <SCORE.SYSTEM>
0

>  <SCORE.SYSTEM.CONST>
0

>  <SCORE.SYSTEM.DIHEDRAL>
0

>  <SCORE.SYSTEM.SOLV>
0

>  <SCORE.SYSTEM.norm>
0

>  <SCORE.heavy>
24

>  <SCORE.norm>
-0.189992

>  <RMSD>
14.664

$$$$
lig.pdb
 OpenBabel11021811453D
libRbt.so/2013.1/901 2013/11/27
 24 24  0  0  0  0  0  0  0  0999 V2000
   -3.6828    4.7664    5.0156 C   0  0  0  0  0  0  0  0  0  0  0  0
   -4.9143    4.8419    4.2816 C   0  0  0  0  0  0  0  0  0  0  0  0
   -5.4816    3.7308    3.7039 C   0  0  0  0  0  0  0  0  0  0  0  0
   -4.8800    2.4362    3.8116 C   0  0  0  0  0  0  0  0  0  0  0  0
   -3.6330    2.3682    4.5160 C   0  0  0  0  0  0  0  0  0  0  0  0
   -3.0616    3.4782    5.0862 C   0  0  0  0  0  0  0  0  0  0  0  0
   -3.1274    5.8576    5.6201 C   0  0  0  0  0  0  0  0  0  0  0  0
   -3.0763    7.0720    5.0321 N   0  0  0  0  0  0  0  0  0  0  0  0
   -5.0687    0.0653    3.5853 N   0  0  0  0  0  0  0  0  0  0  0  0
   -5.4524    1.3215    3.2738 C   0  0  0  0  0  0  0  0  0  0  0  0
   -2.5872    5.8039    6.8629 N   0  0  0  0  0  0  0  0  0  0  0  0
   -6.4616    1.3827    2.3728 N   0  0  0  0  0  0  0  0  0  0  0  0
   -2.6255    6.8547    7.8780 C   0  0  0  0  0  0  0  0  0  0  0  0
   -7.4179    0.3203    2.0774 C   0  0  0  0  0  0  0  0  0  0  0  0
   -4.0961    7.0996    8.2527 C   0  0  0  0  0  0  0  0  0  0  0  0
   -8.6789    0.5697    2.9256 C   0  0  0  0  0  0  0  0  0  0  0  0
   -4.8407    7.8131    7.1158 C   0  0  0  0  0  0  0  0  0  0  0  0
   -8.3506    1.0535    4.3496 C   0  0  0  0  0  0  0  0  0  0  0  0
   -6.2295    8.1721    7.5785 N   0  0  0  0  0  0  0  0  0  0  0  0
   -9.2833    0.4488    5.3684 N   0  0  0  0  0  0  0  0  0  0  0  0
   -7.1241    8.3977    6.3901 C   0  0  0  0  0  0  0  0  0  0  0  0
  -10.6793    0.4426    4.8057 C   0  0  0  0  0  0  0  0  0  0  0  0
   -6.2065    9.4125    8.4370 C   0  0  0  0  0  0  0  0  0  0  0  0
   -9.2824    1.2124    6.6633 C   0  0  0  0  0  0  0  0  0  0  0  0
  1  6  2  0  0  0  0
  2  3  2  0  0  0  0
  2  1  1  0  0  0  0
  3  4  1  0  0  0  0
  4 10  1  0  0  0  0
  4  5  2  0  0  0  0
  6  5  1  0  0  0  0
  7  1  1  0  0  0  0
  7 11  1  0  0  0  0
  8  7  2  0  0  0  0
  9 10  2  0  0  0  0
 10 12  1  0  0  0  0
 12 14  1  0  0  0  0
 13 11  1  0  0  0  0
 13 15  1  0  0  0  0
 14 16  1  0  0  0  0
 16 18  1  0  0  0  0
 17 15  1  0  0  0  0
 17 19  1  0  0  0  0
 18 20  1  0  0  0  0
 19 23  1  0  0  0  0
 20 22  1  0  0  0  0
 20 24  1  0  0  0  0
 21 19  1  0  0  0  0
M  END
>  <CHROM.1>
-165.82995827,-42.29900430,95.21637113,62.79598245,-71.75812279,-39.83683369
-141.54744494,-173.70798539,-159.40044906,-41.10560309,-5.74322217,3.96878144
5.24731273,-1.12477040,-0.24823733,-2.58012045

>  <Name>
lig.pdb

>  <RI>
3.93418e+07

>  <Rbt.Current_Directory>
/home/itssahil/PROJECTS/Mol_Feturizer/New_Systems/rnas/2l94

>  <Rbt.Executable>
rbdock ($Id: //depot/dev/client3/rdock/2013.1/src/exe/rbdock.cxx#4 $)

>  <Rbt.Library>
libRbt.so (2013.1, Build901 2013/11/27)

>  <Rbt.Parameter_File>
/export/apps/rDock/src/rDock_2013.1_src/data/scripts/dock_solv.prm

>  <Rbt.Receptor>
prm/blind_docking_20.prm

>  <SCORE>
-1.61949

>  <SCORE.INTER>
-13.7559

>  <SCORE.INTER.CONST>
1

>  <SCORE.INTER.POLAR>
-2.27313

>  <SCORE.INTER.ROT>
10

>  <SCORE.INTER.SOLV>
17.0793

>  <SCORE.INTER.VDW>
-17.5533

>  <SCORE.INTER.norm>
-0.573164

>  <SCORE.INTRA>
8.47787

>  <SCORE.INTRA.DIHEDRAL>
11.5054

>  <SCORE.INTRA.DIHEDRAL.0>
7.52971

>  <SCORE.INTRA.POLAR>
0

>  <SCORE.INTRA.POLAR.0>
0

>  <SCORE.INTRA.REPUL>
0

>  <SCORE.INTRA.REPUL.0>
0

>  <SCORE.INTRA.SOLV>
1.17844

>  <SCORE.INTRA.SOLV.lig_0>
-22.1084

>  <SCORE.INTRA.VDW>
2.13596

>  <SCORE.INTRA.VDW.0>
2.4256

>  <SCORE.INTRA.norm>
0.353244

>  <SCORE.RESTR>
3.65857

>  <SCORE.RESTR.CAVITY>
3.65857

>  <SCORE.RESTR.norm>
0.152441

>  <SCORE.SYSTEM>
0

>  <SCORE.SYSTEM.CONST>
0

>  <SCORE.SYSTEM.DIHEDRAL>
0

>  <SCORE.SYSTEM.SOLV>
0

>  <SCORE.SYSTEM.norm>
0

>  <SCORE.heavy>
24

>  <SCORE.norm>
-0.067479

>  <RMSD>
14.681

$$$$
lig.pdb
 OpenBabel11021811453D
libRbt.so/2013.1/901 2013/11/27
 24 24  0  0  0  0  0  0  0  0999 V2000
   -5.1541    2.4817    3.7021 C   0  0  0  0  0  0  0  0  0  0  0  0
   -3.9774    2.3192    4.5082 C   0  0  0  0  0  0  0  0  0  0  0  0
   -3.3747    3.3859    5.1320 C   0  0  0  0  0  0  0  0  0  0  0  0
   -3.8939    4.7152    5.0196 C   0  0  0  0  0  0  0  0  0  0  0  0
   -5.0494    4.8811    4.1870 C   0  0  0  0  0  0  0  0  0  0  0  0
   -5.6471    3.8182    3.5572 C   0  0  0  0  0  0  0  0  0  0  0  0
   -5.7789    1.4247    3.1044 C   0  0  0  0  0  0  0  0  0  0  0  0
   -5.4618    0.1403    3.3744 N   0  0  0  0  0  0  0  0  0  0  0  0
   -2.9042    6.8898    5.0299 N   0  0  0  0  0  0  0  0  0  0  0  0
   -3.3257    5.7747    5.6632 C   0  0  0  0  0  0  0  0  0  0  0  0
   -6.7711    1.5867    2.1943 N   0  0  0  0  0  0  0  0  0  0  0  0
   -3.1337    5.7955    7.0036 N   0  0  0  0  0  0  0  0  0  0  0  0
   -7.9449    0.7332    2.0207 C   0  0  0  0  0  0  0  0  0  0  0  0
   -2.9631    6.9860    7.8307 C   0  0  0  0  0  0  0  0  0  0  0  0
   -8.2303    0.0395    3.3625 C   0  0  0  0  0  0  0  0  0  0  0  0
   -4.3481    7.3903    8.3693 C   0  0  0  0  0  0  0  0  0  0  0  0
   -8.3745    1.0683    4.4925 C   0  0  0  0  0  0  0  0  0  0  0  0
   -4.9583    8.5794    7.6054 C   0  0  0  0  0  0  0  0  0  0  0  0
   -9.4233    0.5948    5.4660 N   0  0  0  0  0  0  0  0  0  0  0  0
   -5.5635    8.1434    6.2950 N   0  0  0  0  0  0  0  0  0  0  0  0
  -10.7301    0.3852    4.7506 C   0  0  0  0  0  0  0  0  0  0  0  0
   -5.1770    9.1327    5.2284 C   0  0  0  0  0  0  0  0  0  0  0  0
   -9.6116    1.5931    6.5813 C   0  0  0  0  0  0  0  0  0  0  0  0
   -7.0629    8.0588    6.3619 C   0  0  0  0  0  0  0  0  0  0  0  0
  1  6  2  0  0  0  0
  2  3  2  0  0  0  0
  2  1  1  0  0  0  0
  3  4  1  0  0  0  0
  4 10  1  0  0  0  0
  4  5  2  0  0  0  0
  6  5  1  0  0  0  0
  7  1  1  0  0  0  0
  7 11  1  0  0  0  0
  8  7  2  0  0  0  0
  9 10  2  0  0  0  0
 10 12  1  0  0  0  0
 12 14  1  0  0  0  0
 13 11  1  0  0  0  0
 13 15  1  0  0  0  0
 14 16  1  0  0  0  0
 16 18  1  0  0  0  0
 17 15  1  0  0  0  0
 17 19  1  0  0  0  0
 18 20  1  0  0  0  0
 19 23  1  0  0  0  0
 20 22  1  0  0  0  0
 20 24  1  0  0  0  0
 21 19  1  0  0  0  0
M  END
>  <CHROM.1>
124.22047769,9.75189894,93.09388904,25.48159020,54.65261181,-102.09292341
79.22154495,144.38369659,-57.67034392,-136.53624800,-5.84132144,4.00887913
5.05919889,-2.08166977,0.29519532,0.54013506

>  <Name>
lig.pdb

>  <RI>
3.93418e+07

>  <Rbt.Current_Directory>
/home/itssahil/PROJECTS/Mol_Feturizer/New_Systems/rnas/2l94

>  <Rbt.Executable>
rbdock ($Id: //depot/dev/client3/rdock/2013.1/src/exe/rbdock.cxx#4 $)

>  <Rbt.Library>
libRbt.so (2013.1, Build901 2013/11/27)

>  <Rbt.Parameter_File>
/export/apps/rDock/src/rDock_2013.1_src/data/scripts/dock_solv.prm

>  <Rbt.Receptor>
prm/blind_docking_20.prm

>  <SCORE>
-3.67529

>  <SCORE.INTER>
-16.7698

>  <SCORE.INTER.CONST>
1

>  <SCORE.INTER.POLAR>
-2.35506

>  <SCORE.INTER.ROT>
10

>  <SCORE.INTER.SOLV>
18.4187

>  <SCORE.INTER.VDW>
-19.7359

>  <SCORE.INTER.norm>
-0.69874

>  <SCORE.INTRA>
9.82332

>  <SCORE.INTRA.DIHEDRAL>
18.6134

>  <SCORE.INTRA.DIHEDRAL.0>
7.52971

>  <SCORE.INTRA.POLAR>
0

>  <SCORE.INTRA.POLAR.0>
0

>  <SCORE.INTRA.REPUL>
0

>  <SCORE.INTRA.REPUL.0>
0

>  <SCORE.INTRA.SOLV>
2.35695

>  <SCORE.INTRA.SOLV.lig_0>
-22.1084

>  <SCORE.INTRA.VDW>
-0.661867

>  <SCORE.INTRA.VDW.0>
2.4256

>  <SCORE.INTRA.norm>
0.409305

>  <SCORE.RESTR>
3.27115

>  <SCORE.RESTR.CAVITY>
3.27115

>  <SCORE.RESTR.norm>
0.136298

>  <SCORE.SYSTEM>
0

>  <SCORE.SYSTEM.CONST>
0

>  <SCORE.SYSTEM.DIHEDRAL>
0

>  <SCORE.SYSTEM.SOLV>
0

>  <SCORE.SYSTEM.norm>
0

>  <SCORE.heavy>
24

>  <SCORE.norm>
-0.153137

>  <RMSD>
14.742

$$$$
lig.pdb
 OpenBabel11021811453D
libRbt.so/2013.1/901 2013/11/27
 24 24  0  0  0  0  0  0  0  0999 V2000
   -5.1993    2.3146    3.9089 C   0  0  0  0  0  0  0  0  0  0  0  0
   -5.8536    3.5668    4.1636 C   0  0  0  0  0  0  0  0  0  0  0  0
   -5.2584    4.5551    4.9114 C   0  0  0  0  0  0  0  0  0  0  0  0
   -3.9497    4.3927    5.4684 C   0  0  0  0  0  0  0  0  0  0  0  0
   -3.3115    3.1290    5.2415 C   0  0  0  0  0  0  0  0  0  0  0  0
   -3.9080    2.1386    4.5019 C   0  0  0  0  0  0  0  0  0  0  0  0
   -5.7680    1.3390    3.1410 C   0  0  0  0  0  0  0  0  0  0  0  0
   -5.1848    0.1389    2.9341 N   0  0  0  0  0  0  0  0  0  0  0  0
   -2.0372    5.7141    6.0203 N   0  0  0  0  0  0  0  0  0  0  0  0
   -3.3351    5.3798    6.1809 C   0  0  0  0  0  0  0  0  0  0  0  0
   -6.9676    1.5016    2.5299 N   0  0  0  0  0  0  0  0  0  0  0  0
   -3.9815    6.1123    7.1187 N   0  0  0  0  0  0  0  0  0  0  0  0
   -7.9889    0.4766    2.3237 C   0  0  0  0  0  0  0  0  0  0  0  0
   -3.5863    7.4305    7.6051 C   0  0  0  0  0  0  0  0  0  0  0  0
   -8.9379    0.5018    3.5327 C   0  0  0  0  0  0  0  0  0  0  0  0
   -4.8516    8.1461    8.1135 C   0  0  0  0  0  0  0  0  0  0  0  0
   -8.1979    0.9456    4.8021 C   0  0  0  0  0  0  0  0  0  0  0  0
   -5.1090    9.4815    7.3921 C   0  0  0  0  0  0  0  0  0  0  0  0
   -9.1490    0.9102    5.9709 N   0  0  0  0  0  0  0  0  0  0  0  0
   -5.9882    9.2959    6.1813 N   0  0  0  0  0  0  0  0  0  0  0  0
  -10.0078    2.1455    5.9713 C   0  0  0  0  0  0  0  0  0  0  0  0
   -7.3114    8.7312    6.6237 C   0  0  0  0  0  0  0  0  0  0  0  0
   -8.3957    0.8175    7.2747 C   0  0  0  0  0  0  0  0  0  0  0  0
   -5.3746    8.3674    5.1707 C   0  0  0  0  0  0  0  0  0  0  0  0
  1  6  2  0  0  0  0
  2  3  2  0  0  0  0
  2  1  1  0  0  0  0
  3  4  1  0  0  0  0
  4 10  1  0  0  0  0
  4  5  2  0  0  0  0
  6  5  1  0  0  0  0
  7  1  1  0  0  0  0
  7 11  1  0  0  0  0
  8  7  2  0  0  0  0
  9 10  2  0  0  0  0
 10 12  1  0  0  0  0
 12 14  1  0  0  0  0
 13 11  1  0  0  0  0
 13 15  1  0  0  0  0
 14 16  1  0  0  0  0
 16 18  1  0  0  0  0
 17 15  1  0  0  0  0
 17 19  1  0  0  0  0
 18 20  1  0  0  0  0
 19 23  1  0  0  0  0
 20 22  1  0  0  0  0
 20 24  1  0  0  0  0
 21 19  1  0  0  0  0
M  END
>  <CHROM.1>
-136.36083483,-177.52117135,154.05631719,90.67912661,-30.31112101,-121.86229684
91.01253765,-178.01984031,-80.24838318,60.41859453,-5.87037261,4.09175027
5.31842911,-1.94330781,0.19345883,0.43933837

>  <Name>
lig.pdb

>  <RI>
3.93418e+07

>  <Rbt.Current_Directory>
/home/itssahil/PROJECTS/Mol_Feturizer/New_Systems/rnas/2l94

>  <Rbt.Executable>
rbdock ($Id: //depot/dev/client3/rdock/2013.1/src/exe/rbdock.cxx#4 $)

>  <Rbt.Library>
libRbt.so (2013.1, Build901 2013/11/27)

>  <Rbt.Parameter_File>
/export/apps/rDock/src/rDock_2013.1_src/data/scripts/dock_solv.prm

>  <Rbt.Receptor>
prm/blind_docking_20.prm

>  <SCORE>
10.875

>  <SCORE.INTER>
-3.64162

>  <SCORE.INTER.CONST>
1

>  <SCORE.INTER.POLAR>
-0.516585

>  <SCORE.INTER.ROT>
10

>  <SCORE.INTER.SOLV>
17.5189

>  <SCORE.INTER.VDW>
-16.8121

>  <SCORE.INTER.norm>
-0.151734

>  <SCORE.INTRA>
9.36931

>  <SCORE.INTRA.DIHEDRAL>
15.575

>  <SCORE.INTRA.DIHEDRAL.0>
7.52971

>  <SCORE.INTRA.POLAR>
0

>  <SCORE.INTRA.POLAR.0>
0

>  <SCORE.INTRA.REPUL>
0

>  <SCORE.INTRA.REPUL.0>
0

>  <SCORE.INTRA.SOLV>
0.96535

>  <SCORE.INTRA.SOLV.lig_0>
-22.1084

>  <SCORE.INTRA.VDW>
1.09914

>  <SCORE.INTRA.VDW.0>
2.4256

>  <SCORE.INTRA.norm>
0.390388

>  <SCORE.RESTR>
5.14732

>  <SCORE.RESTR.CAVITY>
5.14732

>  <SCORE.RESTR.norm>
0.214472

>  <SCORE.SYSTEM>
0

>  <SCORE.SYSTEM.CONST>
0

>  <SCORE.SYSTEM.DIHEDRAL>
0

>  <SCORE.SYSTEM.SOLV>
0

>  <SCORE.SYSTEM.norm>
0

>  <SCORE.heavy>
24

>  <SCORE.norm>
0.453126

>  <RMSD>
14.817

$$$$
lig.pdb
 OpenBabel11021811453D
libRbt.so/2013.1/901 2013/11/27
 24 24  0  0  0  0  0  0  0  0999 V2000
   -5.0512    2.5087    3.8305 C   0  0  0  0  0  0  0  0  0  0  0  0
   -5.8162    3.7167    3.9590 C   0  0  0  0  0  0  0  0  0  0  0  0
   -5.3013    4.8381    4.5651 C   0  0  0  0  0  0  0  0  0  0  0  0
   -3.9706    4.8651    5.0922 C   0  0  0  0  0  0  0  0  0  0  0  0
   -3.2198    3.6476    4.9933 C   0  0  0  0  0  0  0  0  0  0  0  0
   -3.7357    2.5249    4.3956 C   0  0  0  0  0  0  0  0  0  0  0  0
   -5.5414    1.3998    3.2021 C   0  0  0  0  0  0  0  0  0  0  0  0
   -5.0662    0.1576    3.4350 N   0  0  0  0  0  0  0  0  0  0  0  0
   -2.1093    6.2040    5.7638 N   0  0  0  0  0  0  0  0  0  0  0  0
   -3.4371    5.9829    5.6628 C   0  0  0  0  0  0  0  0  0  0  0  0
   -6.5489    1.4631    2.2966 N   0  0  0  0  0  0  0  0  0  0  0  0
   -4.2022    6.9724    6.1817 N   0  0  0  0  0  0  0  0  0  0  0  0
   -7.6079    0.4755    2.0978 C   0  0  0  0  0  0  0  0  0  0  0  0
   -3.7897    8.3554    6.4002 C   0  0  0  0  0  0  0  0  0  0  0  0
   -8.0314   -0.0511    3.4784 C   0  0  0  0  0  0  0  0  0  0  0  0
   -4.7214    9.2629    5.5755 C   0  0  0  0  0  0  0  0  0  0  0  0
   -8.3494    1.1073    4.4339 C   0  0  0  0  0  0  0  0  0  0  0  0
   -6.2021    8.8591    5.6950 C   0  0  0  0  0  0  0  0  0  0  0  0
   -9.3791    0.6562    5.4379 N   0  0  0  0  0  0  0  0  0  0  0  0
   -7.1041    9.8537    5.0090 N   0  0  0  0  0  0  0  0  0  0  0  0
  -10.6606    0.3007    4.7345 C   0  0  0  0  0  0  0  0  0  0  0  0
   -8.5331    9.5353    5.3586 C   0  0  0  0  0  0  0  0  0  0  0  0
   -9.6445    1.7356    6.4580 C   0  0  0  0  0  0  0  0  0  0  0  0
   -6.9492    9.8243    3.5140 C   0  0  0  0  0  0  0  0  0  0  0  0
  1  6  2  0  0  0  0
  2  3  2  0  0  0  0
  2  1  1  0  0  0  0
  3  4  1  0  0  0  0
  4 10  1  0  0  0  0
  4  5  2  0  0  0  0
  6  5  1  0  0  0  0
  7  1  1  0  0  0  0
  7 11  1  0  0  0  0
  8  7  2  0  0  0  0
  9 10  2  0  0  0  0
 10 12  1  0  0  0  0
 12 14  1  0  0  0  0
 13 11  1  0  0  0  0
 13 15  1  0  0  0  0
 14 16  1  0  0  0  0
 16 18  1  0  0  0  0
 17 15  1  0  0  0  0
 17 19  1  0  0  0  0
 18 20  1  0  0  0  0
 19 23  1  0  0  0  0
 20 22  1  0  0  0  0
 20 24  1  0  0  0  0
 21 19  1  0  0  0  0
M  END
>  <CHROM.1>
-157.28657502,-157.58687617,120.15197851,38.63770757,51.33091392,44.40634197
173.48631304,151.00066883,-62.80050483,-170.45029440,-6.10743973,4.36768514
4.66268557,-1.86853942,0.01274997,0.18444918

>  <Name>
lig.pdb

>  <RI>
3.93418e+07

>  <Rbt.Current_Directory>
/home/itssahil/PROJECTS/Mol_Feturizer/New_Systems/rnas/2l94

>  <Rbt.Executable>
rbdock ($Id: //depot/dev/client3/rdock/2013.1/src/exe/rbdock.cxx#4 $)

>  <Rbt.Library>
libRbt.so (2013.1, Build901 2013/11/27)

>  <Rbt.Parameter_File>
/export/apps/rDock/src/rDock_2013.1_src/data/scripts/dock_solv.prm

>  <Rbt.Receptor>
prm/blind_docking_20.prm

>  <SCORE>
-9.44912

>  <SCORE.INTER>
-15.8678

>  <SCORE.INTER.CONST>
1

>  <SCORE.INTER.POLAR>
-1.65446

>  <SCORE.INTER.ROT>
10

>  <SCORE.INTER.SOLV>
20.2944

>  <SCORE.INTER.VDW>
-22.0951

>  <SCORE.INTER.norm>
-0.661157

>  <SCORE.INTRA>
3.22375

>  <SCORE.INTRA.DIHEDRAL>
5.17499

>  <SCORE.INTRA.DIHEDRAL.0>
7.52971

>  <SCORE.INTRA.POLAR>
0

>  <SCORE.INTRA.POLAR.0>
0

>  <SCORE.INTRA.REPUL>
0

>  <SCORE.INTRA.REPUL.0>
0

>  <SCORE.INTRA.SOLV>
0.770502

>  <SCORE.INTRA.SOLV.lig_0>
-22.1084

>  <SCORE.INTRA.VDW>
0.251004

>  <SCORE.INTRA.VDW.0>
2.4256

>  <SCORE.INTRA.norm>
0.134323

>  <SCORE.RESTR>
3.1949

>  <SCORE.RESTR.CAVITY>
3.1949

>  <SCORE.RESTR.norm>
0.133121

>  <SCORE.SYSTEM>
0

>  <SCORE.SYSTEM.CONST>
0

>  <SCORE.SYSTEM.DIHEDRAL>
0

>  <SCORE.SYSTEM.SOLV>
0

>  <SCORE.SYSTEM.norm>
0

>  <SCORE.heavy>
24

>  <SCORE.norm>
-0.393713

>  <RMSD>
14.817

$$$$
lig.pdb
 OpenBabel11021811453D
libRbt.so/2013.1/901 2013/11/27
 24 24  0  0  0  0  0  0  0  0999 V2000
   -5.4577    2.4966    3.6766 C   0  0  0  0  0  0  0  0  0  0  0  0
   -4.3692    2.2805    4.5874 C   0  0  0  0  0  0  0  0  0  0  0  0
   -3.7134    3.3266    5.1922 C   0  0  0  0  0  0  0  0  0  0  0  0
   -4.0871    4.6879    4.9542 C   0  0  0  0  0  0  0  0  0  0  0  0
   -5.1521    4.9034    4.0187 C   0  0  0  0  0  0  0  0  0  0  0  0
   -5.8021    3.8602    3.4081 C   0  0  0  0  0  0  0  0  0  0  0  0
   -6.1364    1.4641    3.0952 C   0  0  0  0  0  0  0  0  0  0  0  0
   -5.7369    0.1782    3.1957 N   0  0  0  0  0  0  0  0  0  0  0  0
   -2.9218    6.7732    4.9140 N   0  0  0  0  0  0  0  0  0  0  0  0
   -3.4677    5.7314    5.5764 C   0  0  0  0  0  0  0  0  0  0  0  0
   -7.2692    1.6533    2.3740 N   0  0  0  0  0  0  0  0  0  0  0  0
   -3.3463    5.8089    6.9229 N   0  0  0  0  0  0  0  0  0  0  0  0
   -8.4265    0.7626    2.3157 C   0  0  0  0  0  0  0  0  0  0  0  0
   -3.1214    7.0247    7.6987 C   0  0  0  0  0  0  0  0  0  0  0  0
   -8.6568    0.1903    3.7237 C   0  0  0  0  0  0  0  0  0  0  0  0
   -4.4563    7.4190    8.3578 C   0  0  0  0  0  0  0  0  0  0  0  0
   -8.4437    1.2680    4.7957 C   0  0  0  0  0  0  0  0  0  0  0  0
   -5.1319    8.6145    7.6620 C   0  0  0  0  0  0  0  0  0  0  0  0
   -9.4676    1.0930    5.8880 N   0  0  0  0  0  0  0  0  0  0  0  0
   -5.5849    8.2599    6.2682 N   0  0  0  0  0  0  0  0  0  0  0  0
  -10.2217    2.3783    6.0952 C   0  0  0  0  0  0  0  0  0  0  0  0
   -4.8450    9.1238    5.2824 C   0  0  0  0  0  0  0  0  0  0  0  0
   -8.8095    0.6785    7.1807 C   0  0  0  0  0  0  0  0  0  0  0  0
   -7.0628    8.4632    6.0824 C   0  0  0  0  0  0  0  0  0  0  0  0
  1  6  2  0  0  0  0
  2  3  2  0  0  0  0
  2  1  1  0  0  0  0
  3  4  1  0  0  0  0
  4 10  1  0  0  0  0
  4  5  2  0  0  0  0
  6  5  1  0  0  0  0
  7  1  1  0  0  0  0
  7 11  1  0  0  0  0
  8  7  2  0  0  0  0
  9 10  2  0  0  0  0
 10 12  1  0  0  0  0
 12 14  1  0  0  0  0
 13 11  1  0  0  0  0
 13 15  1  0  0  0  0
 14 16  1  0  0  0  0
 16 18  1  0  0  0  0
 17 15  1  0  0  0  0
 17 19  1  0  0  0  0
 18 20  1  0  0  0  0
 19 23  1  0  0  0  0
 20 22  1  0  0  0  0
 20 24  1  0  0  0  0
 21 19  1  0  0  0  0
M  END
>  <CHROM.1>
126.12769700,-8.52990828,103.64607067,38.29242150,40.42568676,-104.54618227
66.88177684,141.58084416,-125.38452789,-117.57546770,-5.95295987,4.12061044
5.16482018,-2.09428746,0.41334027,0.57047577

>  <Name>
lig.pdb

>  <RI>
3.93418e+07

>  <Rbt.Current_Directory>
/home/itssahil/PROJECTS/Mol_Feturizer/New_Systems/rnas/2l94

>  <Rbt.Executable>
rbdock ($Id: //depot/dev/client3/rdock/2013.1/src/exe/rbdock.cxx#4 $)

>  <Rbt.Library>
libRbt.so (2013.1, Build901 2013/11/27)

>  <Rbt.Parameter_File>
/export/apps/rDock/src/rDock_2013.1_src/data/scripts/dock_solv.prm

>  <Rbt.Receptor>
prm/blind_docking_20.prm

>  <SCORE>
-2.08833

>  <SCORE.INTER>
-15.8162

>  <SCORE.INTER.CONST>
1

>  <SCORE.INTER.POLAR>
-1.9388

>  <SCORE.INTER.ROT>
10

>  <SCORE.INTER.SOLV>
18.3307

>  <SCORE.INTER.VDW>
-20.4584

>  <SCORE.INTER.norm>
-0.659008

>  <SCORE.INTRA>
9.77744

>  <SCORE.INTRA.DIHEDRAL>
23.0611

>  <SCORE.INTRA.DIHEDRAL.0>
7.52971

>  <SCORE.INTRA.POLAR>
0

>  <SCORE.INTRA.POLAR.0>
0

>  <SCORE.INTRA.REPUL>
0

>  <SCORE.INTRA.REPUL.0>
0

>  <SCORE.INTRA.SOLV>
2.31891

>  <SCORE.INTRA.SOLV.lig_0>
-22.1084

>  <SCORE.INTRA.VDW>
-2.91255

>  <SCORE.INTRA.VDW.0>
2.4256

>  <SCORE.INTRA.norm>
0.407393

>  <SCORE.RESTR>
3.95041

>  <SCORE.RESTR.CAVITY>
3.95041

>  <SCORE.RESTR.norm>
0.164601

>  <SCORE.SYSTEM>
0

>  <SCORE.SYSTEM.CONST>
0

>  <SCORE.SYSTEM.DIHEDRAL>
0

>  <SCORE.SYSTEM.SOLV>
0

>  <SCORE.SYSTEM.norm>
0

>  <SCORE.heavy>
24

>  <SCORE.norm>
-0.0870136

>  <RMSD>
14.830

$$$$
lig.pdb
 OpenBabel11021811453D
libRbt.so/2013.1/901 2013/11/27
 24 24  0  0  0  0  0  0  0  0999 V2000
   -5.0616    2.3081    3.8057 C   0  0  0  0  0  0  0  0  0  0  0  0
   -3.7336    2.3751    4.3469 C   0  0  0  0  0  0  0  0  0  0  0  0
   -3.1993    3.5545    4.8090 C   0  0  0  0  0  0  0  0  0  0  0  0
   -3.9420    4.7781    4.7846 C   0  0  0  0  0  0  0  0  0  0  0  0
   -5.2555    4.7164    4.2129 C   0  0  0  0  0  0  0  0  0  0  0  0
   -5.7869    3.5411    3.7439 C   0  0  0  0  0  0  0  0  0  0  0  0
   -5.6135    1.1362    3.3736 C   0  0  0  0  0  0  0  0  0  0  0  0
   -4.8959    0.0026    3.2216 N   0  0  0  0  0  0  0  0  0  0  0  0
   -2.1268    6.1316    5.5467 N   0  0  0  0  0  0  0  0  0  0  0  0
   -3.4356    5.9461    5.2734 C   0  0  0  0  0  0  0  0  0  0  0  0
   -6.9297    1.0217    3.0675 N   0  0  0  0  0  0  0  0  0  0  0  0
   -4.2112    7.0263    5.5293 N   0  0  0  0  0  0  0  0  0  0  0  0
   -7.7808   -0.1448    3.2936 C   0  0  0  0  0  0  0  0  0  0  0  0
   -3.7572    8.4106    5.6189 C   0  0  0  0  0  0  0  0  0  0  0  0
   -9.2121    0.3541    3.5496 C   0  0  0  0  0  0  0  0  0  0  0  0
   -4.9981    9.3046    5.8003 C   0  0  0  0  0  0  0  0  0  0  0  0
   -9.5484    0.3120    5.0467 C   0  0  0  0  0  0  0  0  0  0  0  0
   -5.9916    9.1859    4.6304 C   0  0  0  0  0  0  0  0  0  0  0  0
   -9.0716    1.5839    5.7000 N   0  0  0  0  0  0  0  0  0  0  0  0
   -7.2818    9.9086    4.9245 N   0  0  0  0  0  0  0  0  0  0  0  0
   -8.2509    1.2587    6.9182 C   0  0  0  0  0  0  0  0  0  0  0  0
   -8.1071    9.0677    5.8611 C   0  0  0  0  0  0  0  0  0  0  0  0
  -10.2378    2.4562    6.0937 C   0  0  0  0  0  0  0  0  0  0  0  0
   -8.0792   10.1773    3.6787 C   0  0  0  0  0  0  0  0  0  0  0  0
  1  6  2  0  0  0  0
  2  3  2  0  0  0  0
  2  1  1  0  0  0  0
  3  4  1  0  0  0  0
  4 10  1  0  0  0  0
  4  5  2  0  0  0  0
  6  5  1  0  0  0  0
  7  1  1  0  0  0  0
  7 11  1  0  0  0  0
  8  7  2  0  0  0  0
  9 10  2  0  0  0  0
 10 12  1  0  0  0  0
 12 14  1  0  0  0  0
 13 11  1  0  0  0  0
 13 15  1  0  0  0  0
 14 16  1  0  0  0  0
 16 18  1  0  0  0  0
 17 15  1  0  0  0  0
 17 19  1  0  0  0  0
 18 20  1  0  0  0  0
 19 23  1  0  0  0  0
 20 22  1  0  0  0  0
 20 24  1  0  0  0  0
 21 19  1  0  0  0  0
M  END
>  <CHROM.1>
14.90805656,-10.82004091,175.05460210,149.06060513,-102.34044686,-59.99502250
171.62600693,85.66427044,-129.42717403,-77.24509647,-6.16807811,4.39123092
4.72327151,-1.82182090,0.09003419,0.12849215

>  <Name>
lig.pdb

>  <RI>
3.93418e+07

>  <Rbt.Current_Directory>
/home/itssahil/PROJECTS/Mol_Feturizer/New_Systems/rnas/2l94

>  <Rbt.Executable>
rbdock ($Id: //depot/dev/client3/rdock/2013.1/src/exe/rbdock.cxx#4 $)

>  <Rbt.Library>
libRbt.so (2013.1, Build901 2013/11/27)

>  <Rbt.Parameter_File>
/export/apps/rDock/src/rDock_2013.1_src/data/scripts/dock_solv.prm

>  <Rbt.Receptor>
prm/blind_docking_20.prm

>  <SCORE>
-10.4246

>  <SCORE.INTER>
-17.5152

>  <SCORE.INTER.CONST>
1

>  <SCORE.INTER.POLAR>
-1.5054

>  <SCORE.INTER.ROT>
10

>  <SCORE.INTER.SOLV>
20.0649

>  <SCORE.INTER.VDW>
-23.6138

>  <SCORE.INTER.norm>
-0.729802

>  <SCORE.INTRA>
2.68732

>  <SCORE.INTRA.DIHEDRAL>
9.44539

>  <SCORE.INTRA.DIHEDRAL.0>
7.52971

>  <SCORE.INTRA.POLAR>
0

>  <SCORE.INTRA.POLAR.0>
0

>  <SCORE.INTRA.REPUL>
0

>  <SCORE.INTRA.REPUL.0>
0

>  <SCORE.INTRA.SOLV>
0.68248

>  <SCORE.INTRA.SOLV.lig_0>
-22.1084

>  <SCORE.INTRA.VDW>
-2.37661

>  <SCORE.INTRA.VDW.0>
2.4256

>  <SCORE.INTRA.norm>
0.111972

>  <SCORE.RESTR>
4.40332

>  <SCORE.RESTR.CAVITY>
4.40332

>  <SCORE.RESTR.norm>
0.183472

>  <SCORE.SYSTEM>
0

>  <SCORE.SYSTEM.CONST>
0

>  <SCORE.SYSTEM.DIHEDRAL>
0

>  <SCORE.SYSTEM.SOLV>
0

>  <SCORE.SYSTEM.norm>
0

>  <SCORE.heavy>
24

>  <SCORE.norm>
-0.434358

>  <RMSD>
14.848

$$$$
lig.pdb
 OpenBabel11021811453D
libRbt.so/2013.1/901 2013/11/27
 24 24  0  0  0  0  0  0  0  0999 V2000
   -4.1278    4.3990    4.9185 C   0  0  0  0  0  0  0  0  0  0  0  0
   -4.3550    3.1565    5.6008 C   0  0  0  0  0  0  0  0  0  0  0  0
   -5.3235    2.2718    5.1893 C   0  0  0  0  0  0  0  0  0  0  0  0
   -6.1515    2.5373    4.0521 C   0  0  0  0  0  0  0  0  0  0  0  0
   -5.9462    3.7935    3.3922 C   0  0  0  0  0  0  0  0  0  0  0  0
   -4.9850    4.6811    3.8069 C   0  0  0  0  0  0  0  0  0  0  0  0
   -3.1474    5.2701    5.2994 C   0  0  0  0  0  0  0  0  0  0  0  0
   -2.9830    6.4815    4.7263 N   0  0  0  0  0  0  0  0  0  0  0  0
   -7.0120    1.0121    2.4268 N   0  0  0  0  0  0  0  0  0  0  0  0
   -7.0904    1.6509    3.6133 C   0  0  0  0  0  0  0  0  0  0  0  0
   -2.2648    4.9839    6.2884 N   0  0  0  0  0  0  0  0  0  0  0  0
   -8.1905    1.3363    4.3378 N   0  0  0  0  0  0  0  0  0  0  0  0
   -1.7018    5.9241    7.2555 C   0  0  0  0  0  0  0  0  0  0  0  0
   -8.9982    0.1288    4.1966 C   0  0  0  0  0  0  0  0  0  0  0  0
   -2.0043    5.3927    8.6659 C   0  0  0  0  0  0  0  0  0  0  0  0
  -10.3771    0.4060    4.8238 C   0  0  0  0  0  0  0  0  0  0  0  0
   -2.4981    6.5201    9.5830 C   0  0  0  0  0  0  0  0  0  0  0  0
  -11.4595    0.7040    3.7704 C   0  0  0  0  0  0  0  0  0  0  0  0
   -4.0047    6.5033    9.6256 N   0  0  0  0  0  0  0  0  0  0  0  0
  -12.6772    1.3395    4.3926 N   0  0  0  0  0  0  0  0  0  0  0  0
   -4.5599    7.2389    8.4364 C   0  0  0  0  0  0  0  0  0  0  0  0
  -13.8577    1.1180    3.4855 C   0  0  0  0  0  0  0  0  0  0  0  0
   -4.5139    7.1381   10.8960 C   0  0  0  0  0  0  0  0  0  0  0  0
  -12.4989    2.8162    4.6099 C   0  0  0  0  0  0  0  0  0  0  0  0
  1  6  2  0  0  0  0
  2  3  2  0  0  0  0
  2  1  1  0  0  0  0
  3  4  1  0  0  0  0
  4 10  1  0  0  0  0
  4  5  2  0  0  0  0
  6  5  1  0  0  0  0
  7  1  1  0  0  0  0
  7 11  1  0  0  0  0
  8  7  2  0  0  0  0
  9 10  2  0  0  0  0
 10 12  1  0  0  0  0
 12 14  1  0  0  0  0
 13 11  1  0  0  0  0
 13 15  1  0  0  0  0
 14 16  1  0  0  0  0
 16 18  1  0  0  0  0
 17 15  1  0  0  0  0
 17 19  1  0  0  0  0
 18 20  1  0  0  0  0
 19 23  1  0  0  0  0
 20 22  1  0  0  0  0
 20 24  1  0  0  0  0
 21 19  1  0  0  0  0
M  END
>  <CHROM.1>
-113.66237142,-175.28299558,-160.02743376,124.26592177,-135.49519070,101.60222122
-164.10426878,97.05964676,-83.06305521,-158.09644196,-6.34400835,3.63042085
5.59685816,-0.62773639,-0.25041197,-2.13384605

>  <Name>
lig.pdb

>  <RI>
3.93418e+07

>  <Rbt.Current_Directory>
/home/itssahil/PROJECTS/Mol_Feturizer/New_Systems/rnas/2l94

>  <Rbt.Executable>
rbdock ($Id: //depot/dev/client3/rdock/2013.1/src/exe/rbdock.cxx#4 $)

>  <Rbt.Library>
libRbt.so (2013.1, Build901 2013/11/27)

>  <Rbt.Parameter_File>
/export/apps/rDock/src/rDock_2013.1_src/data/scripts/dock_solv.prm

>  <Rbt.Receptor>
prm/blind_docking_20.prm

>  <SCORE>
-2.87681

>  <SCORE.INTER>
-17.0043

>  <SCORE.INTER.CONST>
1

>  <SCORE.INTER.POLAR>
-2.91819

>  <SCORE.INTER.ROT>
10

>  <SCORE.INTER.SOLV>
19.1131

>  <SCORE.INTER.VDW>
-18.2466

>  <SCORE.INTER.norm>
-0.708512

>  <SCORE.INTRA>
8.79304

>  <SCORE.INTRA.DIHEDRAL>
24.0206

>  <SCORE.INTRA.DIHEDRAL.0>
7.52971

>  <SCORE.INTRA.POLAR>
0

>  <SCORE.INTRA.POLAR.0>
0

>  <SCORE.INTRA.REPUL>
0

>  <SCORE.INTRA.REPUL.0>
0

>  <SCORE.INTRA.SOLV>
0.146091

>  <SCORE.INTRA.SOLV.lig_0>
-22.1084

>  <SCORE.INTRA.VDW>
-3.29032

>  <SCORE.INTRA.VDW.0>
2.4256

>  <SCORE.INTRA.norm>
0.366377

>  <SCORE.RESTR>
5.33445

>  <SCORE.RESTR.CAVITY>
5.33445

>  <SCORE.RESTR.norm>
0.222269

>  <SCORE.SYSTEM>
0

>  <SCORE.SYSTEM.CONST>
0

>  <SCORE.SYSTEM.DIHEDRAL>
0

>  <SCORE.SYSTEM.SOLV>
0

>  <SCORE.SYSTEM.norm>
0

>  <SCORE.heavy>
24

>  <SCORE.norm>
-0.119867

>  <RMSD>
14.874

$$$$
lig.pdb
 OpenBabel11021811453D
libRbt.so/2013.1/901 2013/11/27
 24 24  0  0  0  0  0  0  0  0999 V2000
   -6.3358    2.6687    3.9371 C   0  0  0  0  0  0  0  0  0  0  0  0
   -5.7423    2.4505    5.2259 C   0  0  0  0  0  0  0  0  0  0  0  0
   -4.8130    3.3171    5.7507 C   0  0  0  0  0  0  0  0  0  0  0  0
   -4.3940    4.4897    5.0443 C   0  0  0  0  0  0  0  0  0  0  0  0
   -4.9623    4.6884    3.7431 C   0  0  0  0  0  0  0  0  0  0  0  0
   -5.8842    3.8196    3.2148 C   0  0  0  0  0  0  0  0  0  0  0  0
   -7.2830    1.8317    3.4205 C   0  0  0  0  0  0  0  0  0  0  0  0
   -7.2818    1.4343    2.1301 N   0  0  0  0  0  0  0  0  0  0  0  0
   -2.9566    6.3897    4.8656 N   0  0  0  0  0  0  0  0  0  0  0  0
   -3.5003    5.3751    5.5706 C   0  0  0  0  0  0  0  0  0  0  0  0
   -8.2974    1.3317    4.1689 N   0  0  0  0  0  0  0  0  0  0  0  0
   -3.0790    5.3084    6.8559 N   0  0  0  0  0  0  0  0  0  0  0  0
   -8.8963    0.0036    4.0526 C   0  0  0  0  0  0  0  0  0  0  0  0
   -2.5055    6.4035    7.6321 C   0  0  0  0  0  0  0  0  0  0  0  0
  -10.3054    0.1682    3.4607 C   0  0  0  0  0  0  0  0  0  0  0  0
   -3.6532    7.1006    8.3861 C   0  0  0  0  0  0  0  0  0  0  0  0
  -11.2839    0.7053    4.5143 C   0  0  0  0  0  0  0  0  0  0  0  0
   -4.8792    7.3608    7.4923 C   0  0  0  0  0  0  0  0  0  0  0  0
  -12.5971    1.0349    3.8520 N   0  0  0  0  0  0  0  0  0  0  0  0
   -4.5498    8.3020    6.3613 N   0  0  0  0  0  0  0  0  0  0  0  0
  -12.7730    2.5271    3.7753 C   0  0  0  0  0  0  0  0  0  0  0  0
   -4.3427    9.6829    6.9232 C   0  0  0  0  0  0  0  0  0  0  0  0
  -13.7503    0.4281    4.6123 C   0  0  0  0  0  0  0  0  0  0  0  0
   -5.6415    8.3538    5.3290 C   0  0  0  0  0  0  0  0  0  0  0  0
  1  6  2  0  0  0  0
  2  3  2  0  0  0  0
  2  1  1  0  0  0  0
  3  4  1  0  0  0  0
  4 10  1  0  0  0  0
  4  5  2  0  0  0  0
  6  5  1  0  0  0  0
  7  1  1  0  0  0  0
  7 11  1  0  0  0  0
  8  7  2  0  0  0  0
  9 10  2  0  0  0  0
 10 12  1  0  0  0  0
 12 14  1  0  0  0  0
 13 11  1  0  0  0  0
 13 15  1  0  0  0  0
 14 16  1  0  0  0  0
 16 18  1  0  0  0  0
 17 15  1  0  0  0  0
 17 19  1  0  0  0  0
 18 20  1  0  0  0  0
 19 23  1  0  0  0  0
 20 22  1  0  0  0  0
 20 24  1  0  0  0  0
 21 19  1  0  0  0  0
M  END
>  <CHROM.1>
171.07245586,-137.47824564,92.18393488,-109.06611974,-75.53361553,-45.68613059
-63.04097347,172.12405088,-107.98242339,-70.78567811,-6.71516411,3.99296278
5.01403190,-2.39554089,0.05982992,0.47392902

>  <Name>
lig.pdb

>  <RI>
3.93418e+07

>  <Rbt.Current_Directory>
/home/itssahil/PROJECTS/Mol_Feturizer/New_Systems/rnas/2l94

>  <Rbt.Executable>
rbdock ($Id: //depot/dev/client3/rdock/2013.1/src/exe/rbdock.cxx#4 $)

>  <Rbt.Library>
libRbt.so (2013.1, Build901 2013/11/27)

>  <Rbt.Parameter_File>
/export/apps/rDock/src/rDock_2013.1_src/data/scripts/dock_solv.prm

>  <Rbt.Receptor>
prm/blind_docking_20.prm

>  <SCORE>
-2.90712

>  <SCORE.INTER>
-8.68685

>  <SCORE.INTER.CONST>
1

>  <SCORE.INTER.POLAR>
-2.38109

>  <SCORE.INTER.ROT>
10

>  <SCORE.INTER.SOLV>
19.4121

>  <SCORE.INTER.VDW>
-14.5916

>  <SCORE.INTER.norm>
-0.361952

>  <SCORE.INTRA>
2.32782

>  <SCORE.INTRA.DIHEDRAL>
8.90059

>  <SCORE.INTRA.DIHEDRAL.0>
7.52971

>  <SCORE.INTRA.POLAR>
0

>  <SCORE.INTRA.POLAR.0>
0

>  <SCORE.INTRA.REPUL>
0

>  <SCORE.INTRA.REPUL.0>
0

>  <SCORE.INTRA.SOLV>
2.15152

>  <SCORE.INTRA.SOLV.lig_0>
-22.1084

>  <SCORE.INTRA.VDW>
-3.19823

>  <SCORE.INTRA.VDW.0>
2.4256

>  <SCORE.INTRA.norm>
0.0969924

>  <SCORE.RESTR>
3.45191

>  <SCORE.RESTR.CAVITY>
3.45191

>  <SCORE.RESTR.norm>
0.14383

>  <SCORE.SYSTEM>
0

>  <SCORE.SYSTEM.CONST>
0

>  <SCORE.SYSTEM.DIHEDRAL>
0

>  <SCORE.SYSTEM.SOLV>
0

>  <SCORE.SYSTEM.norm>
0

>  <SCORE.heavy>
24

>  <SCORE.norm>
-0.12113

>  <RMSD>
15.177

$$$$
lig.pdb
 OpenBabel11021811453D
libRbt.so/2013.1/901 2013/11/27
 24 24  0  0  0  0  0  0  0  0999 V2000
   -4.3915    4.8282    5.2537 C   0  0  0  0  0  0  0  0  0  0  0  0
   -4.9202    5.0550    3.9384 C   0  0  0  0  0  0  0  0  0  0  0  0
   -5.7158    4.1274    3.3085 C   0  0  0  0  0  0  0  0  0  0  0  0
   -6.0682    2.8890    3.9344 C   0  0  0  0  0  0  0  0  0  0  0  0
   -5.5119    2.6494    5.2340 C   0  0  0  0  0  0  0  0  0  0  0  0
   -4.7110    3.5713    5.8604 C   0  0  0  0  0  0  0  0  0  0  0  0
   -3.6268    5.7562    5.9010 C   0  0  0  0  0  0  0  0  0  0  0  0
   -2.9921    6.7585    5.2563 N   0  0  0  0  0  0  0  0  0  0  0  0
   -7.3174    2.0923    2.0601 N   0  0  0  0  0  0  0  0  0  0  0  0
   -6.8859    1.9777    3.3340 C   0  0  0  0  0  0  0  0  0  0  0  0
   -3.4504    5.7427    7.2455 N   0  0  0  0  0  0  0  0  0  0  0  0
   -7.3386    0.8726    3.9726 N   0  0  0  0  0  0  0  0  0  0  0  0
   -3.3297    6.9059    8.1222 C   0  0  0  0  0  0  0  0  0  0  0  0
   -7.8233   -0.3500    3.3394 C   0  0  0  0  0  0  0  0  0  0  0  0
   -4.7408    7.4643    8.3673 C   0  0  0  0  0  0  0  0  0  0  0  0
   -9.1690   -0.7188    3.9912 C   0  0  0  0  0  0  0  0  0  0  0  0
   -5.1178    8.4940    7.2932 C   0  0  0  0  0  0  0  0  0  0  0  0
  -10.3074    0.2336    3.5827 C   0  0  0  0  0  0  0  0  0  0  0  0
   -6.0328    7.8486    6.2842 N   0  0  0  0  0  0  0  0  0  0  0  0
  -11.0319    0.7789    4.7874 N   0  0  0  0  0  0  0  0  0  0  0  0
   -5.8549    8.4998    4.9397 C   0  0  0  0  0  0  0  0  0  0  0  0
  -12.2176    1.5797    4.3199 C   0  0  0  0  0  0  0  0  0  0  0  0
   -7.4742    7.9628    6.7148 C   0  0  0  0  0  0  0  0  0  0  0  0
  -10.1508    1.6581    5.6303 C   0  0  0  0  0  0  0  0  0  0  0  0
  1  6  2  0  0  0  0
  2  3  2  0  0  0  0
  2  1  1  0  0  0  0
  3  4  1  0  0  0  0
  4 10  1  0  0  0  0
  4  5  2  0  0  0  0
  6  5  1  0  0  0  0
  7  1  1  0  0  0  0
  7 11  1  0  0  0  0
  8  7  2  0  0  0  0
  9 10  2  0  0  0  0
 10 12  1  0  0  0  0
 12 14  1  0  0  0  0
 13 11  1  0  0  0  0
 13 15  1  0  0  0  0
 14 16  1  0  0  0  0
 16 18  1  0  0  0  0
 17 15  1  0  0  0  0
 17 19  1  0  0  0  0
 18 20  1  0  0  0  0
 19 23  1  0  0  0  0
 20 22  1  0  0  0  0
 20 24  1  0  0  0  0
 21 19  1  0  0  0  0
M  END
>  <CHROM.1>
7.13582567,-19.57937773,-131.17241839,78.68829973,-88.92831801,71.67506844
-128.11866554,101.57718182,-150.73259046,-173.99859914,-6.57123981,4.04175944
5.12274648,-0.94306838,-0.15577310,-2.63742378

>  <Name>
lig.pdb

>  <RI>
3.93418e+07

>  <Rbt.Current_Directory>
/home/itssahil/PROJECTS/Mol_Feturizer/New_Systems/rnas/2l94

>  <Rbt.Executable>
rbdock ($Id: //depot/dev/client3/rdock/2013.1/src/exe/rbdock.cxx#4 $)

>  <Rbt.Library>
libRbt.so (2013.1, Build901 2013/11/27)

>  <Rbt.Parameter_File>
/export/apps/rDock/src/rDock_2013.1_src/data/scripts/dock_solv.prm

>  <Rbt.Receptor>
prm/blind_docking_20.prm

>  <SCORE>
5.20375

>  <SCORE.INTER>
-0.346586

>  <SCORE.INTER.CONST>
1

>  <SCORE.INTER.POLAR>
-2.05169

>  <SCORE.INTER.ROT>
10

>  <SCORE.INTER.SOLV>
18.9077

>  <SCORE.INTER.VDW>
-9.96134

>  <SCORE.INTER.norm>
-0.0144411

>  <SCORE.INTRA>
2.9786

>  <SCORE.INTRA.DIHEDRAL>
13.3796

>  <SCORE.INTRA.DIHEDRAL.0>
7.52971

>  <SCORE.INTRA.POLAR>
0

>  <SCORE.INTRA.POLAR.0>
0

>  <SCORE.INTRA.REPUL>
0

>  <SCORE.INTRA.REPUL.0>
0

>  <SCORE.INTRA.SOLV>
2.35382

>  <SCORE.INTRA.SOLV.lig_0>
-22.1084

>  <SCORE.INTRA.VDW>
-4.8881

>  <SCORE.INTRA.VDW.0>
2.4256

>  <SCORE.INTRA.norm>
0.124108

>  <SCORE.RESTR>
2.57174

>  <SCORE.RESTR.CAVITY>
2.57174

>  <SCORE.RESTR.norm>
0.107156

>  <SCORE.SYSTEM>
0

>  <SCORE.SYSTEM.CONST>
0

>  <SCORE.SYSTEM.DIHEDRAL>
0

>  <SCORE.SYSTEM.SOLV>
0

>  <SCORE.SYSTEM.norm>
0

>  <SCORE.heavy>
24

>  <SCORE.norm>
0.216823

>  <RMSD>
15.270

$$$$
lig.pdb
 OpenBabel11021811453D
libRbt.so/2013.1/901 2013/11/27
 24 24  0  0  0  0  0  0  0  0999 V2000
   -4.4722    6.1515    6.4167 C   0  0  0  0  0  0  0  0  0  0  0  0
   -5.6492    6.0041    5.6081 C   0  0  0  0  0  0  0  0  0  0  0  0
   -5.8454    4.9019    4.8101 C   0  0  0  0  0  0  0  0  0  0  0  0
   -4.8910    3.8366    4.7500 C   0  0  0  0  0  0  0  0  0  0  0  0
   -3.7006    4.0009    5.5321 C   0  0  0  0  0  0  0  0  0  0  0  0
   -3.4999    5.1046    6.3229 C   0  0  0  0  0  0  0  0  0  0  0  0
   -4.2823    7.2268    7.2368 C   0  0  0  0  0  0  0  0  0  0  0  0
   -3.2358    8.0699    7.1061 N   0  0  0  0  0  0  0  0  0  0  0  0
   -4.3028    1.6288    4.0514 N   0  0  0  0  0  0  0  0  0  0  0  0
   -5.0921    2.7222    3.9902 C   0  0  0  0  0  0  0  0  0  0  0  0
   -5.1361    7.5316    8.2454 N   0  0  0  0  0  0  0  0  0  0  0  0
   -6.1090    2.6196    3.1017 N   0  0  0  0  0  0  0  0  0  0  0  0
   -5.5106    8.8698    8.6982 C   0  0  0  0  0  0  0  0  0  0  0  0
   -6.6775    1.3793    2.5830 C   0  0  0  0  0  0  0  0  0  0  0  0
   -5.9171    9.6921    7.4646 C   0  0  0  0  0  0  0  0  0  0  0  0
   -7.2424    0.5833    3.7742 C   0  0  0  0  0  0  0  0  0  0  0  0
   -7.1505    9.0846    6.7822 C   0  0  0  0  0  0  0  0  0  0  0  0
   -8.0413    1.4643    4.7517 C   0  0  0  0  0  0  0  0  0  0  0  0
   -7.3814    9.7770    5.4634 N   0  0  0  0  0  0  0  0  0  0  0  0
   -8.9358    0.6359    5.6389 N   0  0  0  0  0  0  0  0  0  0  0  0
   -8.8532    9.8130    5.1534 C   0  0  0  0  0  0  0  0  0  0  0  0
  -10.1040    0.1439    4.8272 C   0  0  0  0  0  0  0  0  0  0  0  0
   -6.6470    9.0721    4.3500 C   0  0  0  0  0  0  0  0  0  0  0  0
   -9.4528    1.4183    6.8138 C   0  0  0  0  0  0  0  0  0  0  0  0
  1  6  2  0  0  0  0
  2  3  2  0  0  0  0
  2  1  1  0  0  0  0
  3  4  1  0  0  0  0
  4 10  1  0  0  0  0
  4  5  2  0  0  0  0
  6  5  1  0  0  0  0
  7  1  1  0  0  0  0
  7 11  1  0  0  0  0
  8  7  2  0  0  0  0
  9 10  2  0  0  0  0
 10 12  1  0  0  0  0
 12 14  1  0  0  0  0
 13 11  1  0  0  0  0
 13 15  1  0  0  0  0
 14 16  1  0  0  0  0
 16 18  1  0  0  0  0
 17 15  1  0  0  0  0
 17 19  1  0  0  0  0
 18 20  1  0  0  0  0
 19 23  1  0  0  0  0
 20 22  1  0  0  0  0
 20 24  1  0  0  0  0
 21 19  1  0  0  0  0
M  END
>  <CHROM.1>
-170.78035704,-120.06648958,60.86440105,49.56255183,62.89483600,44.30637758
161.76592352,-170.83737759,-148.37922182,-73.82773658,-6.23231998,5.07387046
5.55940426,-1.36615304,0.04128910,-2.85946750

>  <Name>
lig.pdb

>  <RI>
3.93418e+07

>  <Rbt.Current_Directory>
/home/itssahil/PROJECTS/Mol_Feturizer/New_Systems/rnas/2l94

>  <Rbt.Executable>
rbdock ($Id: //depot/dev/client3/rdock/2013.1/src/exe/rbdock.cxx#4 $)

>  <Rbt.Library>
libRbt.so (2013.1, Build901 2013/11/27)

>  <Rbt.Parameter_File>
/export/apps/rDock/src/rDock_2013.1_src/data/scripts/dock_solv.prm

>  <Rbt.Receptor>
prm/blind_docking_20.prm

>  <SCORE>
-10.0711

>  <SCORE.INTER>
-17.2906

>  <SCORE.INTER.CONST>
1

>  <SCORE.INTER.POLAR>
-3.21992

>  <SCORE.INTER.ROT>
10

>  <SCORE.INTER.SOLV>
17.8548

>  <SCORE.INTER.VDW>
-17.0123

>  <SCORE.INTER.norm>
-0.720444

>  <SCORE.INTRA>
3.36319

>  <SCORE.INTRA.DIHEDRAL>
11.925

>  <SCORE.INTRA.DIHEDRAL.0>
7.52971

>  <SCORE.INTRA.POLAR>
0

>  <SCORE.INTRA.POLAR.0>
0

>  <SCORE.INTRA.REPUL>
0

>  <SCORE.INTRA.REPUL.0>
0

>  <SCORE.INTRA.SOLV>
1.08024

>  <SCORE.INTRA.SOLV.lig_0>
-22.1084

>  <SCORE.INTRA.VDW>
-3.13941

>  <SCORE.INTRA.VDW.0>
2.4256

>  <SCORE.INTRA.norm>
0.140133

>  <SCORE.RESTR>
3.85634

>  <SCORE.RESTR.CAVITY>
3.85634

>  <SCORE.RESTR.norm>
0.160681

>  <SCORE.SYSTEM>
0

>  <SCORE.SYSTEM.CONST>
0

>  <SCORE.SYSTEM.DIHEDRAL>
0

>  <SCORE.SYSTEM.SOLV>
0

>  <SCORE.SYSTEM.norm>
0

>  <SCORE.heavy>
24

>  <SCORE.norm>
-0.41963

>  <RMSD>
15.354

$$$$
lig.pdb
 OpenBabel11021811453D
libRbt.so/2013.1/901 2013/11/27
 24 24  0  0  0  0  0  0  0  0999 V2000
   -4.6364    7.2634    5.9344 C   0  0  0  0  0  0  0  0  0  0  0  0
   -3.3858    6.6815    5.5365 C   0  0  0  0  0  0  0  0  0  0  0  0
   -3.3186    5.4350    4.9603 C   0  0  0  0  0  0  0  0  0  0  0  0
   -4.4934    4.6540    4.7167 C   0  0  0  0  0  0  0  0  0  0  0  0
   -5.7381    5.2221    5.1453 C   0  0  0  0  0  0  0  0  0  0  0  0
   -5.8055    6.4629    5.7281 C   0  0  0  0  0  0  0  0  0  0  0  0
   -4.7175    8.5134    6.4782 C   0  0  0  0  0  0  0  0  0  0  0  0
   -4.4698    9.6360    5.7701 N   0  0  0  0  0  0  0  0  0  0  0  0
   -3.2937    2.7540    3.9048 N   0  0  0  0  0  0  0  0  0  0  0  0
   -4.4421    3.4324    4.1128 C   0  0  0  0  0  0  0  0  0  0  0  0
   -5.0582    8.7217    7.7742 N   0  0  0  0  0  0  0  0  0  0  0  0
   -5.5492    2.7931    3.6661 N   0  0  0  0  0  0  0  0  0  0  0  0
   -5.8485    9.8322    8.3019 C   0  0  0  0  0  0  0  0  0  0  0  0
   -5.6774    1.3592    3.4251 C   0  0  0  0  0  0  0  0  0  0  0  0
   -7.0942    9.9919    7.4155 C   0  0  0  0  0  0  0  0  0  0  0  0
   -6.6845    0.7962    4.4451 C   0  0  0  0  0  0  0  0  0  0  0  0
   -7.8249    8.6523    7.2491 C   0  0  0  0  0  0  0  0  0  0  0  0
   -8.1453    0.9513    3.9849 C   0  0  0  0  0  0  0  0  0  0  0  0
   -8.3372    8.5368    5.8363 N   0  0  0  0  0  0  0  0  0  0  0  0
   -9.1119    0.4923    5.0473 N   0  0  0  0  0  0  0  0  0  0  0  0
   -9.3955    9.5767    5.5875 C   0  0  0  0  0  0  0  0  0  0  0  0
  -10.4299    0.1672    4.3971 C   0  0  0  0  0  0  0  0  0  0  0  0
   -8.9076    7.1635    5.5816 C   0  0  0  0  0  0  0  0  0  0  0  0
   -9.3336    1.5384    6.1038 C   0  0  0  0  0  0  0  0  0  0  0  0
  1  6  2  0  0  0  0
  2  3  2  0  0  0  0
  2  1  1  0  0  0  0
  3  4  1  0  0  0  0
  4 10  1  0  0  0  0
  4  5  2  0  0  0  0
  6  5  1  0  0  0  0
  7  1  1  0  0  0  0
  7 11  1  0  0  0  0
  8  7  2  0  0  0  0
  9 10  2  0  0  0  0
 10 12  1  0  0  0  0
 12 14  1  0  0  0  0
 13 11  1  0  0  0  0
 13 15  1  0  0  0  0
 14 16  1  0  0  0  0
 16 18  1  0  0  0  0
 17 15  1  0  0  0  0
 17 19  1  0  0  0  0
 18 20  1  0  0  0  0
 19 23  1  0  0  0  0
 20 22  1  0  0  0  0
 20 24  1  0  0  0  0
 21 19  1  0  0  0  0
M  END
>  <CHROM.1>
11.86526947,68.84160339,113.58412415,47.40271908,51.30286153,84.46202207
-175.50567385,-141.50361454,-65.83708003,-158.62633388,-6.39606632,5.41815006
5.45984539,-1.40974416,-0.15451741,-2.82844324

>  <Name>
lig.pdb

>  <RI>
3.93418e+07

>  <Rbt.Current_Directory>
/home/itssahil/PROJECTS/Mol_Feturizer/New_Systems/rnas/2l94

>  <Rbt.Executable>
rbdock ($Id: //depot/dev/client3/rdock/2013.1/src/exe/rbdock.cxx#4 $)

>  <Rbt.Library>
libRbt.so (2013.1, Build901 2013/11/27)

>  <Rbt.Parameter_File>
/export/apps/rDock/src/rDock_2013.1_src/data/scripts/dock_solv.prm

>  <Rbt.Receptor>
prm/blind_docking_20.prm

>  <SCORE>
-3.45698

>  <SCORE.INTER>
-12.4672

>  <SCORE.INTER.CONST>
1

>  <SCORE.INTER.POLAR>
-1.24136

>  <SCORE.INTER.ROT>
10

>  <SCORE.INTER.SOLV>
17.4629

>  <SCORE.INTER.VDW>
-20.2612

>  <SCORE.INTER.norm>
-0.519466

>  <SCORE.INTRA>
5.73935

>  <SCORE.INTRA.DIHEDRAL>
16.2825

>  <SCORE.INTRA.DIHEDRAL.0>
7.52971

>  <SCORE.INTRA.POLAR>
0

>  <SCORE.INTRA.POLAR.0>
0

>  <SCORE.INTRA.REPUL>
0

>  <SCORE.INTRA.REPUL.0>
0

>  <SCORE.INTRA.SOLV>
1.01427

>  <SCORE.INTRA.SOLV.lig_0>
-22.1084

>  <SCORE.INTRA.VDW>
-2.90901

>  <SCORE.INTRA.VDW.0>
2.4256

>  <SCORE.INTRA.norm>
0.23914

>  <SCORE.RESTR>
3.27085

>  <SCORE.RESTR.CAVITY>
3.27085

>  <SCORE.RESTR.norm>
0.136285

>  <SCORE.SYSTEM>
0

>  <SCORE.SYSTEM.CONST>
0

>  <SCORE.SYSTEM.DIHEDRAL>
0

>  <SCORE.SYSTEM.SOLV>
0

>  <SCORE.SYSTEM.norm>
0

>  <SCORE.heavy>
24

>  <SCORE.norm>
-0.144041

>  <RMSD>
15.446

$$$$
lig.pdb
 OpenBabel11021811453D
libRbt.so/2013.1/901 2013/11/27
 24 24  0  0  0  0  0  0  0  0999 V2000
   -4.7783    4.6842    4.5823 C   0  0  0  0  0  0  0  0  0  0  0  0
   -6.1114    4.9947    5.0151 C   0  0  0  0  0  0  0  0  0  0  0  0
   -6.4296    6.2170    5.5581 C   0  0  0  0  0  0  0  0  0  0  0  0
   -5.4506    7.2500    5.7123 C   0  0  0  0  0  0  0  0  0  0  0  0
   -4.1126    6.9268    5.3109 C   0  0  0  0  0  0  0  0  0  0  0  0
   -3.7921    5.7041    4.7761 C   0  0  0  0  0  0  0  0  0  0  0  0
   -4.4585    3.4851    4.0125 C   0  0  0  0  0  0  0  0  0  0  0  0
   -3.1853    3.1103    3.7640 N   0  0  0  0  0  0  0  0  0  0  0  0
   -4.9303    9.5393    6.1560 N   0  0  0  0  0  0  0  0  0  0  0  0
   -5.7627    8.4783    6.2159 C   0  0  0  0  0  0  0  0  0  0  0  0
   -5.3992    2.5757    3.6559 N   0  0  0  0  0  0  0  0  0  0  0  0
   -6.9441    8.7375    6.8250 N   0  0  0  0  0  0  0  0  0  0  0  0
   -5.2807    1.1209    3.7317 C   0  0  0  0  0  0  0  0  0  0  0  0
   -7.5556   10.0520    6.9942 C   0  0  0  0  0  0  0  0  0  0  0  0
   -6.6993    0.5288    3.7401 C   0  0  0  0  0  0  0  0  0  0  0  0
   -7.8904   10.6016    5.5950 C   0  0  0  0  0  0  0  0  0  0  0  0
   -7.6269    1.3390    4.6561 C   0  0  0  0  0  0  0  0  0  0  0  0
   -8.7491    9.6300    4.7653 C   0  0  0  0  0  0  0  0  0  0  0  0
   -8.8663    0.5327    4.9485 N   0  0  0  0  0  0  0  0  0  0  0  0
   -8.6603    9.9337    3.2910 N   0  0  0  0  0  0  0  0  0  0  0  0
   -9.5613    0.1755    3.6629 C   0  0  0  0  0  0  0  0  0  0  0  0
   -9.6326    9.0522    2.5541 C   0  0  0  0  0  0  0  0  0  0  0  0
   -9.8113    1.3024    5.8376 C   0  0  0  0  0  0  0  0  0  0  0  0
   -7.2793    9.7001    2.7451 C   0  0  0  0  0  0  0  0  0  0  0  0
  1  6  2  0  0  0  0
  2  3  2  0  0  0  0
  2  1  1  0  0  0  0
  3  4  1  0  0  0  0
  4 10  1  0  0  0  0
  4  5  2  0  0  0  0
  6  5  1  0  0  0  0
  7  1  1  0  0  0  0
  7 11  1  0  0  0  0
  8  7  2  0  0  0  0
  9 10  2  0  0  0  0
 10 12  1  0  0  0  0
 12 14  1  0  0  0  0
 13 11  1  0  0  0  0
 13 15  1  0  0  0  0
 14 16  1  0  0  0  0
 16 18  1  0  0  0  0
 17 15  1  0  0  0  0
 17 19  1  0  0  0  0
 18 20  1  0  0  0  0
 19 23  1  0  0  0  0
 20 22  1  0  0  0  0
 20 24  1  0  0  0  0
 21 19  1  0  0  0  0
M  END
>  <CHROM.1>
-167.90310887,-170.96703058,64.40430001,159.10067819,-42.58586825,54.03567144
-159.86545821,-164.12900874,-58.10577529,-173.87377414,-6.68602390,5.64067356
4.72971687,-1.54882412,-0.09536342,0.09899470

>  <Name>
lig.pdb

>  <RI>
3.93418e+07

>  <Rbt.Current_Directory>
/home/itssahil/PROJECTS/Mol_Feturizer/New_Systems/rnas/2l94

>  <Rbt.Executable>
rbdock ($Id: //depot/dev/client3/rdock/2013.1/src/exe/rbdock.cxx#4 $)

>  <Rbt.Library>
libRbt.so (2013.1, Build901 2013/11/27)

>  <Rbt.Parameter_File>
/export/apps/rDock/src/rDock_2013.1_src/data/scripts/dock_solv.prm

>  <Rbt.Receptor>
prm/blind_docking_20.prm

>  <SCORE>
-9.46326

>  <SCORE.INTER>
-14.1205

>  <SCORE.INTER.CONST>
1

>  <SCORE.INTER.POLAR>
-1.84376

>  <SCORE.INTER.ROT>
10

>  <SCORE.INTER.SOLV>
19.1307

>  <SCORE.INTER.VDW>
-19.9114

>  <SCORE.INTER.norm>
-0.588354

>  <SCORE.INTRA>
1.92221

>  <SCORE.INTRA.DIHEDRAL>
1.70834

>  <SCORE.INTRA.DIHEDRAL.0>
7.52971

>  <SCORE.INTRA.POLAR>
0

>  <SCORE.INTRA.POLAR.0>
0

>  <SCORE.INTRA.REPUL>
0

>  <SCORE.INTRA.REPUL.0>
0

>  <SCORE.INTRA.SOLV>
0.848321

>  <SCORE.INTRA.SOLV.lig_0>
-22.1084

>  <SCORE.INTRA.VDW>
0.643879

>  <SCORE.INTRA.VDW.0>
2.4256

>  <SCORE.INTRA.norm>
0.0800921

>  <SCORE.RESTR>
2.73503

>  <SCORE.RESTR.CAVITY>
2.73503

>  <SCORE.RESTR.norm>
0.11396

>  <SCORE.SYSTEM>
0

>  <SCORE.SYSTEM.CONST>
0

>  <SCORE.SYSTEM.DIHEDRAL>
0

>  <SCORE.SYSTEM.SOLV>
0

>  <SCORE.SYSTEM.norm>
0

>  <SCORE.heavy>
24

>  <SCORE.norm>
-0.394303

>  <RMSD>
15.470

$$$$
lig.pdb
 OpenBabel11021811453D
libRbt.so/2013.1/901 2013/11/27
 24 24  0  0  0  0  0  0  0  0999 V2000
   -6.6711    2.3144    4.1199 C   0  0  0  0  0  0  0  0  0  0  0  0
   -5.9434    3.1812    3.2366 C   0  0  0  0  0  0  0  0  0  0  0  0
   -5.0035    4.0682    3.7056 C   0  0  0  0  0  0  0  0  0  0  0  0
   -4.6924    4.1685    5.0993 C   0  0  0  0  0  0  0  0  0  0  0  0
   -5.4438    3.3262    5.9835 C   0  0  0  0  0  0  0  0  0  0  0  0
   -6.3881    2.4461    5.5173 C   0  0  0  0  0  0  0  0  0  0  0  0
   -7.5836    1.4076    3.6616 C   0  0  0  0  0  0  0  0  0  0  0  0
   -7.4275    0.7367    2.5003 N   0  0  0  0  0  0  0  0  0  0  0  0
   -2.5602    5.2354    4.9459 N   0  0  0  0  0  0  0  0  0  0  0  0
   -3.7365    5.0186    5.5717 C   0  0  0  0  0  0  0  0  0  0  0  0
   -8.7172    1.1090    4.3434 N   0  0  0  0  0  0  0  0  0  0  0  0
   -3.8886    5.7212    6.7193 N   0  0  0  0  0  0  0  0  0  0  0  0
   -9.3673   -0.1974    4.4275 C   0  0  0  0  0  0  0  0  0  0  0  0
   -3.1762    6.9424    7.0823 C   0  0  0  0  0  0  0  0  0  0  0  0
  -10.8205    0.0234    4.8773 C   0  0  0  0  0  0  0  0  0  0  0  0
   -3.6490    8.0641    6.1389 C   0  0  0  0  0  0  0  0  0  0  0  0
  -11.6213    0.7682    3.8002 C   0  0  0  0  0  0  0  0  0  0  0  0
   -4.3914    9.1903    6.8807 C   0  0  0  0  0  0  0  0  0  0  0  0
  -12.8671    1.3490    4.4185 N   0  0  0  0  0  0  0  0  0  0  0  0
   -5.6919    8.7029    7.4678 N   0  0  0  0  0  0  0  0  0  0  0  0
  -14.0438    1.1264    3.5077 C   0  0  0  0  0  0  0  0  0  0  0  0
   -6.6973    8.5466    6.3586 C   0  0  0  0  0  0  0  0  0  0  0  0
  -12.7006    2.8258    4.6780 C   0  0  0  0  0  0  0  0  0  0  0  0
   -6.2424    9.6520    8.4954 C   0  0  0  0  0  0  0  0  0  0  0  0
  1  6  2  0  0  0  0
  2  3  2  0  0  0  0
  2  1  1  0  0  0  0
  3  4  1  0  0  0  0
  4 10  1  0  0  0  0
  4  5  2  0  0  0  0
  6  5  1  0  0  0  0
  7  1  1  0  0  0  0
  7 11  1  0  0  0  0
  8  7  2  0  0  0  0
  9 10  2  0  0  0  0
 10 12  1  0  0  0  0
 12 14  1  0  0  0  0
 13 11  1  0  0  0  0
 13 15  1  0  0  0  0
 14 16  1  0  0  0  0
 16 18  1  0  0  0  0
 17 15  1  0  0  0  0
 17 19  1  0  0  0  0
 18 20  1  0  0  0  0
 19 23  1  0  0  0  0
 20 22  1  0  0  0  0
 20 24  1  0  0  0  0
 21 19  1  0  0  0  0
M  END
>  <CHROM.1>
-39.60541503,35.88081745,67.98722027,-161.01680809,66.61649963,115.50422878
-65.87222137,-162.08063225,-136.94704767,-75.03344073,-7.12350576,4.02099531
5.16743059,-2.34115168,0.07927566,0.45586719

>  <Name>
lig.pdb

>  <RI>
3.93418e+07

>  <Rbt.Current_Directory>
/home/itssahil/PROJECTS/Mol_Feturizer/New_Systems/rnas/2l94

>  <Rbt.Executable>
rbdock ($Id: //depot/dev/client3/rdock/2013.1/src/exe/rbdock.cxx#4 $)

>  <Rbt.Library>
libRbt.so (2013.1, Build901 2013/11/27)

>  <Rbt.Parameter_File>
/export/apps/rDock/src/rDock_2013.1_src/data/scripts/dock_solv.prm

>  <Rbt.Receptor>
prm/blind_docking_20.prm

>  <SCORE>
5.91349

>  <SCORE.INTER>
-3.97131

>  <SCORE.INTER.CONST>
1

>  <SCORE.INTER.POLAR>
-1.58849

>  <SCORE.INTER.ROT>
10

>  <SCORE.INTER.SOLV>
17.8345

>  <SCORE.INTER.VDW>
-13.5641

>  <SCORE.INTER.norm>
-0.165471

>  <SCORE.INTRA>
5.73276

>  <SCORE.INTRA.DIHEDRAL>
17.1844

>  <SCORE.INTRA.DIHEDRAL.0>
7.52971

>  <SCORE.INTRA.POLAR>
0

>  <SCORE.INTRA.POLAR.0>
0

>  <SCORE.INTRA.REPUL>
0

>  <SCORE.INTRA.REPUL.0>
0

>  <SCORE.INTRA.SOLV>
0.74335

>  <SCORE.INTRA.SOLV.lig_0>
-22.1084

>  <SCORE.INTRA.VDW>
-3.2311

>  <SCORE.INTRA.VDW.0>
2.4256

>  <SCORE.INTRA.norm>
0.238865

>  <SCORE.RESTR>
4.15204

>  <SCORE.RESTR.CAVITY>
4.15204

>  <SCORE.RESTR.norm>
0.173002

>  <SCORE.SYSTEM>
0

>  <SCORE.SYSTEM.CONST>
0

>  <SCORE.SYSTEM.DIHEDRAL>
0

>  <SCORE.SYSTEM.SOLV>
0

>  <SCORE.SYSTEM.norm>
0

>  <SCORE.heavy>
24

>  <SCORE.norm>
0.246395

>  <RMSD>
15.626

$$$$
lig.pdb
 OpenBabel11021811453D
libRbt.so/2013.1/901 2013/11/27
 24 24  0  0  0  0  0  0  0  0999 V2000
   -4.8136    7.0239    6.4242 C   0  0  0  0  0  0  0  0  0  0  0  0
   -3.8223    6.4448    5.5622 C   0  0  0  0  0  0  0  0  0  0  0  0
   -4.0804    5.3185    4.8171 C   0  0  0  0  0  0  0  0  0  0  0  0
   -5.3551    4.6679    4.8531 C   0  0  0  0  0  0  0  0  0  0  0  0
   -6.3329    5.2277    5.7398 C   0  0  0  0  0  0  0  0  0  0  0  0
   -6.0737    6.3473    6.4902 C   0  0  0  0  0  0  0  0  0  0  0  0
   -4.5782    8.1603    7.1440 C   0  0  0  0  0  0  0  0  0  0  0  0
   -3.4328    8.8676    7.0395 N   0  0  0  0  0  0  0  0  0  0  0  0
   -6.0526    3.6448    2.8098 N   0  0  0  0  0  0  0  0  0  0  0  0
   -5.6337    3.5719    4.0910 C   0  0  0  0  0  0  0  0  0  0  0  0
   -5.4826    8.6676    8.0179 N   0  0  0  0  0  0  0  0  0  0  0  0
   -5.5139    2.3076    4.5612 N   0  0  0  0  0  0  0  0  0  0  0  0
   -5.7397   10.0811    8.2866 C   0  0  0  0  0  0  0  0  0  0  0  0
   -5.3512    1.1011    3.7560 C   0  0  0  0  0  0  0  0  0  0  0  0
   -7.2312   10.3498    8.0295 C   0  0  0  0  0  0  0  0  0  0  0  0
   -6.6322    0.2589    3.9015 C   0  0  0  0  0  0  0  0  0  0  0  0
   -7.7701    9.4365    6.9197 C   0  0  0  0  0  0  0  0  0  0  0  0
   -7.9045    1.1220    3.9811 C   0  0  0  0  0  0  0  0  0  0  0  0
   -7.3694    9.9939    5.5779 N   0  0  0  0  0  0  0  0  0  0  0  0
   -8.9904    0.4357    4.7706 N   0  0  0  0  0  0  0  0  0  0  0  0
   -8.4897   10.8229    5.0112 C   0  0  0  0  0  0  0  0  0  0  0  0
  -10.0669   -0.0193    3.8222 C   0  0  0  0  0  0  0  0  0  0  0  0
   -7.0245    8.8843    4.6157 C   0  0  0  0  0  0  0  0  0  0  0  0
   -9.6007    1.3415    5.8035 C   0  0  0  0  0  0  0  0  0  0  0  0
  1  6  2  0  0  0  0
  2  3  2  0  0  0  0
  2  1  1  0  0  0  0
  3  4  1  0  0  0  0
  4 10  1  0  0  0  0
  4  5  2  0  0  0  0
  6  5  1  0  0  0  0
  7  1  1  0  0  0  0
  7 11  1  0  0  0  0
  8  7  2  0  0  0  0
  9 10  2  0  0  0  0
 10 12  1  0  0  0  0
 12 14  1  0  0  0  0
 13 11  1  0  0  0  0
 13 15  1  0  0  0  0
 14 16  1  0  0  0  0
 16 18  1  0  0  0  0
 17 15  1  0  0  0  0
 17 19  1  0  0  0  0
 18 20  1  0  0  0  0
 19 23  1  0  0  0  0
 20 22  1  0  0  0  0
 20 24  1  0  0  0  0
 21 19  1  0  0  0  0
M  END
>  <CHROM.1>
-84.67434581,4.12314880,-112.05577267,123.42516229,-31.53675772,36.85101365
-151.73437114,-79.37282428,-96.03275780,-107.90058935,-6.44696263,5.57633969
5.48696518,-1.40352059,0.01443821,-2.84210587

>  <Name>
lig.pdb

>  <RI>
3.93418e+07

>  <Rbt.Current_Directory>
/home/itssahil/PROJECTS/Mol_Feturizer/New_Systems/rnas/2l94

>  <Rbt.Executable>
rbdock ($Id: //depot/dev/client3/rdock/2013.1/src/exe/rbdock.cxx#4 $)

>  <Rbt.Library>
libRbt.so (2013.1, Build901 2013/11/27)

>  <Rbt.Parameter_File>
/export/apps/rDock/src/rDock_2013.1_src/data/scripts/dock_solv.prm

>  <Rbt.Receptor>
prm/blind_docking_20.prm

>  <SCORE>
-7.57346

>  <SCORE.INTER>
-18.826

>  <SCORE.INTER.CONST>
1

>  <SCORE.INTER.POLAR>
-3.27293

>  <SCORE.INTER.ROT>
10

>  <SCORE.INTER.SOLV>
20.1235

>  <SCORE.INTER.VDW>
-18.6154

>  <SCORE.INTER.norm>
-0.784417

>  <SCORE.INTRA>
9.53009

>  <SCORE.INTRA.DIHEDRAL>
23.8757

>  <SCORE.INTRA.DIHEDRAL.0>
7.52971

>  <SCORE.INTRA.POLAR>
0

>  <SCORE.INTRA.POLAR.0>
0

>  <SCORE.INTRA.REPUL>
0

>  <SCORE.INTRA.REPUL.0>
0

>  <SCORE.INTRA.SOLV>
1.5655

>  <SCORE.INTRA.SOLV.lig_0>
-22.1084

>  <SCORE.INTRA.VDW>
-3.1905

>  <SCORE.INTRA.VDW.0>
2.4256

>  <SCORE.INTRA.norm>
0.397087

>  <SCORE.RESTR>
1.72247

>  <SCORE.RESTR.CAVITY>
1.72247

>  <SCORE.RESTR.norm>
0.0717694

>  <SCORE.SYSTEM>
0

>  <SCORE.SYSTEM.CONST>
0

>  <SCORE.SYSTEM.DIHEDRAL>
0

>  <SCORE.SYSTEM.SOLV>
0

>  <SCORE.SYSTEM.norm>
0

>  <SCORE.heavy>
24

>  <SCORE.norm>
-0.315561

>  <RMSD>
15.644

$$$$
lig.pdb
 OpenBabel11021811453D
libRbt.so/2013.1/901 2013/11/27
 24 24  0  0  0  0  0  0  0  0999 V2000
   -5.0973    3.9084    4.6703 C   0  0  0  0  0  0  0  0  0  0  0  0
   -4.7473    3.9564    6.0618 C   0  0  0  0  0  0  0  0  0  0  0  0
   -4.5936    5.1489    6.7284 C   0  0  0  0  0  0  0  0  0  0  0  0
   -4.7841    6.4075    6.0734 C   0  0  0  0  0  0  0  0  0  0  0  0
   -5.1005    6.3585    4.6758 C   0  0  0  0  0  0  0  0  0  0  0  0
   -5.2462    5.1687    4.0073 C   0  0  0  0  0  0  0  0  0  0  0  0
   -5.2836    2.7295    4.0066 C   0  0  0  0  0  0  0  0  0  0  0  0
   -4.5515    1.6239    4.2611 N   0  0  0  0  0  0  0  0  0  0  0  0
   -3.6254    8.4356    6.5757 N   0  0  0  0  0  0  0  0  0  0  0  0
   -4.6700    7.5953    6.7334 C   0  0  0  0  0  0  0  0  0  0  0  0
   -6.2242    2.5795    3.0414 N   0  0  0  0  0  0  0  0  0  0  0  0
   -5.6032    8.0338    7.6114 N   0  0  0  0  0  0  0  0  0  0  0  0
   -7.0160    1.3808    2.7723 C   0  0  0  0  0  0  0  0  0  0  0  0
   -5.8169    9.4184    8.0210 C   0  0  0  0  0  0  0  0  0  0  0  0
   -8.0401    1.2233    3.9078 C   0  0  0  0  0  0  0  0  0  0  0  0
   -7.1604    9.8846    7.4299 C   0  0  0  0  0  0  0  0  0  0  0  0
   -8.7779   -0.1183    3.7993 C   0  0  0  0  0  0  0  0  0  0  0  0
   -7.2633    9.6294    5.9153 C   0  0  0  0  0  0  0  0  0  0  0  0
   -9.9038   -0.1498    4.8009 N   0  0  0  0  0  0  0  0  0  0  0  0
   -8.6723    9.2799    5.5073 N   0  0  0  0  0  0  0  0  0  0  0  0
  -11.1036    0.5695    4.2472 C   0  0  0  0  0  0  0  0  0  0  0  0
   -8.9607    7.8622    5.9224 C   0  0  0  0  0  0  0  0  0  0  0  0
   -9.4852    0.4912    6.1009 C   0  0  0  0  0  0  0  0  0  0  0  0
   -8.8822    9.4066    4.0242 C   0  0  0  0  0  0  0  0  0  0  0  0
  1  6  2  0  0  0  0
  2  3  2  0  0  0  0
  2  1  1  0  0  0  0
  3  4  1  0  0  0  0
  4 10  1  0  0  0  0
  4  5  2  0  0  0  0
  6  5  1  0  0  0  0
  7  1  1  0  0  0  0
  7 11  1  0  0  0  0
  8  7  2  0  0  0  0
  9 10  2  0  0  0  0
 10 12  1  0  0  0  0
 12 14  1  0  0  0  0
 13 11  1  0  0  0  0
 13 15  1  0  0  0  0
 14 16  1  0  0  0  0
 16 18  1  0  0  0  0
 17 15  1  0  0  0  0
 17 19  1  0  0  0  0
 18 20  1  0  0  0  0
 19 23  1  0  0  0  0
 20 22  1  0  0  0  0
 20 24  1  0  0  0  0
 21 19  1  0  0  0  0
M  END
>  <CHROM.1>
106.80976486,-35.91495791,110.50135251,71.89604204,-172.10267834,-51.87461130
145.49963674,-171.84151287,82.14599759,-75.47573048,-6.77057306,5.02185308
5.28446308,-1.80239723,-0.05802308,0.26478064

>  <Name>
lig.pdb

>  <RI>
3.93418e+07

>  <Rbt.Current_Directory>
/home/itssahil/PROJECTS/Mol_Feturizer/New_Systems/rnas/2l94

>  <Rbt.Executable>
rbdock ($Id: //depot/dev/client3/rdock/2013.1/src/exe/rbdock.cxx#4 $)

>  <Rbt.Library>
libRbt.so (2013.1, Build901 2013/11/27)

>  <Rbt.Parameter_File>
/export/apps/rDock/src/rDock_2013.1_src/data/scripts/dock_solv.prm

>  <Rbt.Receptor>
prm/blind_docking_20.prm

>  <SCORE>
7.23033

>  <SCORE.INTER>
-6.81078

>  <SCORE.INTER.CONST>
1

>  <SCORE.INTER.POLAR>
-1.08684

>  <SCORE.INTER.ROT>
10

>  <SCORE.INTER.SOLV>
17.6192

>  <SCORE.INTER.VDW>
-17.0575

>  <SCORE.INTER.norm>
-0.283783

>  <SCORE.INTRA>
11.2955

>  <SCORE.INTRA.DIHEDRAL>
19.1627

>  <SCORE.INTRA.DIHEDRAL.0>
7.52971

>  <SCORE.INTRA.POLAR>
0

>  <SCORE.INTRA.POLAR.0>
0

>  <SCORE.INTRA.REPUL>
0

>  <SCORE.INTRA.REPUL.0>
0

>  <SCORE.INTRA.SOLV>
0.435121

>  <SCORE.INTRA.SOLV.lig_0>
-22.1084

>  <SCORE.INTRA.VDW>
1.49654

>  <SCORE.INTRA.VDW.0>
2.4256

>  <SCORE.INTRA.norm>
0.470644

>  <SCORE.RESTR>
2.74565

>  <SCORE.RESTR.CAVITY>
2.74565

>  <SCORE.RESTR.norm>
0.114402

>  <SCORE.SYSTEM>
0

>  <SCORE.SYSTEM.CONST>
0

>  <SCORE.SYSTEM.DIHEDRAL>
0

>  <SCORE.SYSTEM.SOLV>
0

>  <SCORE.SYSTEM.norm>
0

>  <SCORE.heavy>
24

>  <SCORE.norm>
0.301264

>  <RMSD>
15.648

$$$$
lig.pdb
 OpenBabel11021811453D
libRbt.so/2013.1/901 2013/11/27
 24 24  0  0  0  0  0  0  0  0999 V2000
   -2.8122    5.0422    8.3051 C   0  0  0  0  0  0  0  0  0  0  0  0
   -3.4155    6.3098    8.6055 C   0  0  0  0  0  0  0  0  0  0  0  0
   -4.0134    7.0752    7.6325 C   0  0  0  0  0  0  0  0  0  0  0  0
   -4.0756    6.6449    6.2685 C   0  0  0  0  0  0  0  0  0  0  0  0
   -3.4432    5.3947    5.9640 C   0  0  0  0  0  0  0  0  0  0  0  0
   -2.8389    4.6335    6.9331 C   0  0  0  0  0  0  0  0  0  0  0  0
   -2.2440    4.2595    9.2691 C   0  0  0  0  0  0  0  0  0  0  0  0
   -0.9126    4.0496    9.3493 N   0  0  0  0  0  0  0  0  0  0  0  0
   -5.3321    6.8294    4.2448 N   0  0  0  0  0  0  0  0  0  0  0  0
   -4.6978    7.3788    5.3022 C   0  0  0  0  0  0  0  0  0  0  0  0
   -2.9770    3.6355   10.2243 N   0  0  0  0  0  0  0  0  0  0  0  0
   -4.7299    8.7325    5.3224 N   0  0  0  0  0  0  0  0  0  0  0  0
   -2.5879    3.4086   11.6147 C   0  0  0  0  0  0  0  0  0  0  0  0
   -5.6969    9.5814    4.6333 C   0  0  0  0  0  0  0  0  0  0  0  0
   -3.4492    4.3201   12.5037 C   0  0  0  0  0  0  0  0  0  0  0  0
   -7.0193    9.5278    5.4208 C   0  0  0  0  0  0  0  0  0  0  0  0
   -3.6532    5.6927   11.8476 C   0  0  0  0  0  0  0  0  0  0  0  0
   -7.9269    8.3656    4.9789 C   0  0  0  0  0  0  0  0  0  0  0  0
   -3.4921    6.7709   12.8885 N   0  0  0  0  0  0  0  0  0  0  0  0
   -9.1504    8.8643    4.2524 N   0  0  0  0  0  0  0  0  0  0  0  0
   -4.6346    6.7156   13.8658 C   0  0  0  0  0  0  0  0  0  0  0  0
  -10.0719    7.7017    3.9981 C   0  0  0  0  0  0  0  0  0  0  0  0
   -3.4413    8.1352   12.2464 C   0  0  0  0  0  0  0  0  0  0  0  0
   -8.8072    9.5113    2.9395 C   0  0  0  0  0  0  0  0  0  0  0  0
  1  6  2  0  0  0  0
  2  3  2  0  0  0  0
  2  1  1  0  0  0  0
  3  4  1  0  0  0  0
  4 10  1  0  0  0  0
  4  5  2  0  0  0  0
  6  5  1  0  0  0  0
  7  1  1  0  0  0  0
  7 11  1  0  0  0  0
  8  7  2  0  0  0  0
  9 10  2  0  0  0  0
 10 12  1  0  0  0  0
 12 14  1  0  0  0  0
 13 11  1  0  0  0  0
 13 15  1  0  0  0  0
 14 16  1  0  0  0  0
 16 18  1  0  0  0  0
 17 15  1  0  0  0  0
 17 19  1  0  0  0  0
 18 20  1  0  0  0  0
 19 23  1  0  0  0  0
 20 22  1  0  0  0  0
 20 24  1  0  0  0  0
 21 19  1  0  0  0  0
M  END
>  <CHROM.1>
-147.48141019,-110.62623149,75.83466981,109.34857828,-38.89712017,-87.94860117
-110.26572846,-137.08450051,-68.69873045,-173.15480396,-4.69572983,6.64303897
7.87719057,-0.84738849,0.70458578,-1.64295678

>  <Name>
lig.pdb

>  <RI>
0

>  <Rbt.Current_Directory>
/home/itssahil/PROJECTS/Mol_Feturizer/New_Systems/rnas/2l94

>  <Rbt.Executable>
rbdock ($Id: //depot/dev/client3/rdock/2013.1/src/exe/rbdock.cxx#4 $)

>  <Rbt.Library>
libRbt.so (2013.1, Build901 2013/11/27)

>  <Rbt.Parameter_File>
/export/apps/rDock/src/rDock_2013.1_src/data/scripts/dock_solv.prm

>  <Rbt.Receptor>
prm/blind_docking_100.prm

>  <SCORE>
15.3881

>  <SCORE.INTER>
-2.58995

>  <SCORE.INTER.CONST>
1

>  <SCORE.INTER.POLAR>
-0.620935

>  <SCORE.INTER.ROT>
10

>  <SCORE.INTER.SOLV>
15.857

>  <SCORE.INTER.VDW>
-15.2092

>  <SCORE.INTER.norm>
-0.107914

>  <SCORE.INTRA>
10.6732

>  <SCORE.INTRA.DIHEDRAL>
26.1921

>  <SCORE.INTRA.DIHEDRAL.0>
7.52971

>  <SCORE.INTRA.POLAR>
0

>  <SCORE.INTRA.POLAR.0>
0

>  <SCORE.INTRA.REPUL>
0

>  <SCORE.INTRA.REPUL.0>
0

>  <SCORE.INTRA.SOLV>
0.793416

>  <SCORE.INTRA.SOLV.lig_0>
-22.1084

>  <SCORE.INTRA.VDW>
-2.81949

>  <SCORE.INTRA.VDW.0>
2.4256

>  <SCORE.INTRA.norm>
0.444719

>  <SCORE.RESTR>
7.3048

>  <SCORE.RESTR.CAVITY>
7.3048

>  <SCORE.RESTR.norm>
0.304367

>  <SCORE.SYSTEM>
0

>  <SCORE.SYSTEM.CONST>
0

>  <SCORE.SYSTEM.DIHEDRAL>
0

>  <SCORE.SYSTEM.SOLV>
0

>  <SCORE.SYSTEM.norm>
0

>  <SCORE.heavy>
24

>  <SCORE.norm>
0.641171

>  <RMSD>
15.650

$$$$
lig.pdb
 OpenBabel11021811453D
libRbt.so/2013.1/901 2013/11/27
 24 24  0  0  0  0  0  0  0  0999 V2000
   -4.9244    4.0756    4.9257 C   0  0  0  0  0  0  0  0  0  0  0  0
   -3.6245    4.5031    5.3601 C   0  0  0  0  0  0  0  0  0  0  0  0
   -3.4466    5.6616    6.0786 C   0  0  0  0  0  0  0  0  0  0  0  0
   -4.5493    6.4995    6.4411 C   0  0  0  0  0  0  0  0  0  0  0  0
   -5.8425    6.0889    5.9777 C   0  0  0  0  0  0  0  0  0  0  0  0
   -6.0204    4.9367    5.2534 C   0  0  0  0  0  0  0  0  0  0  0  0
   -5.1160    2.9107    4.2393 C   0  0  0  0  0  0  0  0  0  0  0  0
   -4.2233    1.8978    4.2550 N   0  0  0  0  0  0  0  0  0  0  0  0
   -3.4096    8.5336    6.9623 N   0  0  0  0  0  0  0  0  0  0  0  0
   -4.3889    7.6314    7.1844 C   0  0  0  0  0  0  0  0  0  0  0  0
   -6.2235    2.6816    3.4909 N   0  0  0  0  0  0  0  0  0  0  0  0
   -5.2053    7.9465    8.2179 N   0  0  0  0  0  0  0  0  0  0  0  0
   -6.9117    1.4039    3.3178 C   0  0  0  0  0  0  0  0  0  0  0  0
   -5.4119    9.2789    8.7769 C   0  0  0  0  0  0  0  0  0  0  0  0
   -7.5922    1.0468    4.6491 C   0  0  0  0  0  0  0  0  0  0  0  0
   -6.3290   10.0581    7.8159 C   0  0  0  0  0  0  0  0  0  0  0  0
   -9.0179    0.5284    4.4150 C   0  0  0  0  0  0  0  0  0  0  0  0
   -7.2913    9.1412    7.0392 C   0  0  0  0  0  0  0  0  0  0  0  0
   -9.8426    0.7624    5.6547 N   0  0  0  0  0  0  0  0  0  0  0  0
   -7.7486    9.7816    5.7530 N   0  0  0  0  0  0  0  0  0  0  0  0
  -10.0300    2.2388    5.8754 C   0  0  0  0  0  0  0  0  0  0  0  0
   -9.0913   10.4228    5.9802 C   0  0  0  0  0  0  0  0  0  0  0  0
   -9.1809    0.1501    6.8644 C   0  0  0  0  0  0  0  0  0  0  0  0
   -7.8666    8.7856    4.6331 C   0  0  0  0  0  0  0  0  0  0  0  0
  1  6  2  0  0  0  0
  2  3  2  0  0  0  0
  2  1  1  0  0  0  0
  3  4  1  0  0  0  0
  4 10  1  0  0  0  0
  4  5  2  0  0  0  0
  6  5  1  0  0  0  0
  7  1  1  0  0  0  0
  7 11  1  0  0  0  0
  8  7  2  0  0  0  0
  9 10  2  0  0  0  0
 10 12  1  0  0  0  0
 12 14  1  0  0  0  0
 13 11  1  0  0  0  0
 13 15  1  0  0  0  0
 14 16  1  0  0  0  0
 16 18  1  0  0  0  0
 17 15  1  0  0  0  0
 17 19  1  0  0  0  0
 18 20  1  0  0  0  0
 19 23  1  0  0  0  0
 20 22  1  0  0  0  0
 20 24  1  0  0  0  0
 21 19  1  0  0  0  0
M  END
>  <CHROM.1>
44.61371613,20.25941092,76.39521158,69.92593611,136.11807878,29.13425806
-156.36219142,-155.23538727,66.71316605,-97.12511219,-6.45687200,5.29164899
5.79849116,-1.78017411,0.03860694,0.27253508

>  <Name>
lig.pdb

>  <RI>
3.93418e+07

>  <Rbt.Current_Directory>
/home/itssahil/PROJECTS/Mol_Feturizer/New_Systems/rnas/2l94

>  <Rbt.Executable>
rbdock ($Id: //depot/dev/client3/rdock/2013.1/src/exe/rbdock.cxx#4 $)

>  <Rbt.Library>
libRbt.so (2013.1, Build901 2013/11/27)

>  <Rbt.Parameter_File>
/export/apps/rDock/src/rDock_2013.1_src/data/scripts/dock_solv.prm

>  <Rbt.Receptor>
prm/blind_docking_20.prm

>  <SCORE>
9.446

>  <SCORE.INTER>
-3.71981

>  <SCORE.INTER.CONST>
1

>  <SCORE.INTER.POLAR>
-2.28994

>  <SCORE.INTER.ROT>
10

>  <SCORE.INTER.SOLV>
18.0779

>  <SCORE.INTER.VDW>
-11.1394

>  <SCORE.INTER.norm>
-0.154992

>  <SCORE.INTRA>
9.96177

>  <SCORE.INTRA.DIHEDRAL>
19.1216

>  <SCORE.INTRA.DIHEDRAL.0>
7.52971

>  <SCORE.INTRA.POLAR>
0

>  <SCORE.INTRA.POLAR.0>
0

>  <SCORE.INTRA.REPUL>
0

>  <SCORE.INTRA.REPUL.0>
0

>  <SCORE.INTRA.SOLV>
0.636536

>  <SCORE.INTRA.SOLV.lig_0>
-22.1084

>  <SCORE.INTRA.VDW>
0.0826832

>  <SCORE.INTRA.VDW.0>
2.4256

>  <SCORE.INTRA.norm>
0.415074

>  <SCORE.RESTR>
3.20404

>  <SCORE.RESTR.CAVITY>
3.20404

>  <SCORE.RESTR.norm>
0.133502

>  <SCORE.SYSTEM>
0

>  <SCORE.SYSTEM.CONST>
0

>  <SCORE.SYSTEM.DIHEDRAL>
0

>  <SCORE.SYSTEM.SOLV>
0

>  <SCORE.SYSTEM.norm>
0

>  <SCORE.heavy>
24

>  <SCORE.norm>
0.393583

>  <RMSD>
15.686

$$$$
lig.pdb
 OpenBabel11021811453D
libRbt.so/2013.1/901 2013/11/27
 24 24  0  0  0  0  0  0  0  0999 V2000
   -5.8080    9.0460    4.3938 C   0  0  0  0  0  0  0  0  0  0  0  0
   -4.8133    9.8072    5.0953 C   0  0  0  0  0  0  0  0  0  0  0  0
   -3.8605    9.2027    5.8807 C   0  0  0  0  0  0  0  0  0  0  0  0
   -3.8026    7.7805    6.0336 C   0  0  0  0  0  0  0  0  0  0  0  0
   -4.8171    7.0240    5.3595 C   0  0  0  0  0  0  0  0  0  0  0  0
   -5.7737    7.6270    4.5817 C   0  0  0  0  0  0  0  0  0  0  0  0
   -6.7389    9.6339    3.5859 C   0  0  0  0  0  0  0  0  0  0  0  0
   -6.7291    9.5009    2.2423 N   0  0  0  0  0  0  0  0  0  0  0  0
   -1.9917    7.8356    7.5911 N   0  0  0  0  0  0  0  0  0  0  0  0
   -2.8400    7.1681    6.7806 C   0  0  0  0  0  0  0  0  0  0  0  0
   -7.7492   10.3949    4.0750 N   0  0  0  0  0  0  0  0  0  0  0  0
   -2.6526    5.8269    6.7701 N   0  0  0  0  0  0  0  0  0  0  0  0
   -9.1118   10.4780    3.5528 C   0  0  0  0  0  0  0  0  0  0  0  0
   -1.9953    5.0411    7.8098 C   0  0  0  0  0  0  0  0  0  0  0  0
   -9.5640    9.0576    3.1773 C   0  0  0  0  0  0  0  0  0  0  0  0
   -3.0702    4.6018    8.8214 C   0  0  0  0  0  0  0  0  0  0  0  0
  -10.0421    8.2883    4.4165 C   0  0  0  0  0  0  0  0  0  0  0  0
   -3.7282    5.7918    9.5430 C   0  0  0  0  0  0  0  0  0  0  0  0
   -8.8514    7.6909    5.1217 N   0  0  0  0  0  0  0  0  0  0  0  0
   -3.2874    5.8787   10.9823 N   0  0  0  0  0  0  0  0  0  0  0  0
   -9.2589    6.4346    5.8424 C   0  0  0  0  0  0  0  0  0  0  0  0
   -4.2206    5.0533   11.8269 C   0  0  0  0  0  0  0  0  0  0  0  0
   -8.2622    8.6704    6.1062 C   0  0  0  0  0  0  0  0  0  0  0  0
   -3.2891    7.2928   11.4926 C   0  0  0  0  0  0  0  0  0  0  0  0
  1  6  2  0  0  0  0
  2  3  2  0  0  0  0
  2  1  1  0  0  0  0
  3  4  1  0  0  0  0
  4 10  1  0  0  0  0
  4  5  2  0  0  0  0
  6  5  1  0  0  0  0
  7  1  1  0  0  0  0
  7 11  1  0  0  0  0
  8  7  2  0  0  0  0
  9 10  2  0  0  0  0
 10 12  1  0  0  0  0
 12 14  1  0  0  0  0
 13 11  1  0  0  0  0
 13 15  1  0  0  0  0
 14 16  1  0  0  0  0
 16 18  1  0  0  0  0
 17 15  1  0  0  0  0
 17 19  1  0  0  0  0
 18 20  1  0  0  0  0
 19 23  1  0  0  0  0
 20 22  1  0  0  0  0
 20 24  1  0  0  0  0
 21 19  1  0  0  0  0
M  END
>  <CHROM.1>
10.15165288,110.13241826,89.96391970,41.39142713,81.12429339,-63.38999128
-107.98120118,-83.58408542,-151.12008320,-89.06756039,-5.52633875,7.68608764
6.35016576,-2.24965894,0.01703877,2.10096245

>  <Name>
lig.pdb

>  <RI>
0

>  <Rbt.Current_Directory>
/home/itssahil/PROJECTS/Mol_Feturizer/New_Systems/rnas/2l94

>  <Rbt.Executable>
rbdock ($Id: //depot/dev/client3/rdock/2013.1/src/exe/rbdock.cxx#4 $)

>  <Rbt.Library>
libRbt.so (2013.1, Build901 2013/11/27)

>  <Rbt.Parameter_File>
/export/apps/rDock/src/rDock_2013.1_src/data/scripts/dock_solv.prm

>  <Rbt.Receptor>
prm/blind_docking_100.prm

>  <SCORE>
-5.34087

>  <SCORE.INTER>
-21.2561

>  <SCORE.INTER.CONST>
1

>  <SCORE.INTER.POLAR>
-2.84951

>  <SCORE.INTER.ROT>
10

>  <SCORE.INTER.SOLV>
21.28

>  <SCORE.INTER.VDW>
-22.0324

>  <SCORE.INTER.norm>
-0.885669

>  <SCORE.INTRA>
10.2917

>  <SCORE.INTRA.DIHEDRAL>
20.7463

>  <SCORE.INTRA.DIHEDRAL.0>
7.52971

>  <SCORE.INTRA.POLAR>
0

>  <SCORE.INTRA.POLAR.0>
0

>  <SCORE.INTRA.REPUL>
0

>  <SCORE.INTRA.REPUL.0>
0

>  <SCORE.INTRA.SOLV>
2.35834

>  <SCORE.INTRA.SOLV.lig_0>
-22.1084

>  <SCORE.INTRA.VDW>
-1.26059

>  <SCORE.INTRA.VDW.0>
2.4256

>  <SCORE.INTRA.norm>
0.428822

>  <SCORE.RESTR>
5.62345

>  <SCORE.RESTR.CAVITY>
5.62345

>  <SCORE.RESTR.norm>
0.234311

>  <SCORE.SYSTEM>
0

>  <SCORE.SYSTEM.CONST>
0

>  <SCORE.SYSTEM.DIHEDRAL>
0

>  <SCORE.SYSTEM.SOLV>
0

>  <SCORE.SYSTEM.norm>
0

>  <SCORE.heavy>
24

>  <SCORE.norm>
-0.222536

>  <RMSD>
15.692

$$$$
lig.pdb
 OpenBabel11021811453D
libRbt.so/2013.1/901 2013/11/27
 24 24  0  0  0  0  0  0  0  0999 V2000
   -8.4815    1.0088    4.6094 C   0  0  0  0  0  0  0  0  0  0  0  0
   -7.7963    1.4871    5.7767 C   0  0  0  0  0  0  0  0  0  0  0  0
   -6.5896    2.1403    5.6906 C   0  0  0  0  0  0  0  0  0  0  0  0
   -5.9558    2.3878    4.4310 C   0  0  0  0  0  0  0  0  0  0  0  0
   -6.6247    1.8800    3.2689 C   0  0  0  0  0  0  0  0  0  0  0  0
   -7.8254    1.2206    3.3544 C   0  0  0  0  0  0  0  0  0  0  0  0
   -9.6953    0.3873    4.6811 C   0  0  0  0  0  0  0  0  0  0  0  0
  -10.0196   -0.4708    5.6719 N   0  0  0  0  0  0  0  0  0  0  0  0
   -3.6393    2.5139    3.8599 N   0  0  0  0  0  0  0  0  0  0  0  0
   -4.7773    3.0665    4.3310 C   0  0  0  0  0  0  0  0  0  0  0  0
  -10.6710    0.5892    3.7611 N   0  0  0  0  0  0  0  0  0  0  0  0
   -4.6491    4.3629    4.7010 N   0  0  0  0  0  0  0  0  0  0  0  0
  -12.1107    0.6313    4.0098 C   0  0  0  0  0  0  0  0  0  0  0  0
   -3.6174    5.2901    4.2467 C   0  0  0  0  0  0  0  0  0  0  0  0
  -12.4447    1.9947    4.6362 C   0  0  0  0  0  0  0  0  0  0  0  0
   -3.5763    6.4723    5.2329 C   0  0  0  0  0  0  0  0  0  0  0  0
  -12.7668    3.0327    3.5523 C   0  0  0  0  0  0  0  0  0  0  0  0
   -4.9070    7.2442    5.2904 C   0  0  0  0  0  0  0  0  0  0  0  0
  -12.7243    4.4129    4.1564 N   0  0  0  0  0  0  0  0  0  0  0  0
   -4.8144    8.4393    6.2052 N   0  0  0  0  0  0  0  0  0  0  0  0
  -13.9388    4.6344    5.0162 C   0  0  0  0  0  0  0  0  0  0  0  0
   -6.2030    8.8320    6.6332 C   0  0  0  0  0  0  0  0  0  0  0  0
  -12.6666    5.4692    3.0807 C   0  0  0  0  0  0  0  0  0  0  0  0
   -4.1581    9.6158    5.5382 C   0  0  0  0  0  0  0  0  0  0  0  0
  1  6  2  0  0  0  0
  2  3  2  0  0  0  0
  2  1  1  0  0  0  0
  3  4  1  0  0  0  0
  4 10  1  0  0  0  0
  4  5  2  0  0  0  0
  6  5  1  0  0  0  0
  7  1  1  0  0  0  0
  7 11  1  0  0  0  0
  8  7  2  0  0  0  0
  9 10  2  0  0  0  0
 10 12  1  0  0  0  0
 12 14  1  0  0  0  0
 13 11  1  0  0  0  0
 13 15  1  0  0  0  0
 14 16  1  0  0  0  0
 16 18  1  0  0  0  0
 17 15  1  0  0  0  0
 17 19  1  0  0  0  0
 18 20  1  0  0  0  0
 19 23  1  0  0  0  0
 20 22  1  0  0  0  0
 20 24  1  0  0  0  0
 21 19  1  0  0  0  0
M  END
>  <CHROM.1>
116.57916450,-38.20731336,-162.07571433,76.91859520,89.71176383,-61.23612223
-176.87553650,-164.96877148,-73.81062205,-158.72702541,-7.97044902,3.69786245
4.67207569,-2.56341040,-0.04835175,0.13388140

>  <Name>
lig.pdb

>  <RI>
2.62193e+07

>  <Rbt.Current_Directory>
/home/itssahil/PROJECTS/Mol_Feturizer/New_Systems/rnas/2l94

>  <Rbt.Executable>
rbdock ($Id: //depot/dev/client3/rdock/2013.1/src/exe/rbdock.cxx#4 $)

>  <Rbt.Library>
libRbt.so (2013.1, Build901 2013/11/27)

>  <Rbt.Parameter_File>
/export/apps/rDock/src/rDock_2013.1_src/data/scripts/dock_solv.prm

>  <Rbt.Receptor>
prm/blind_docking_60.prm

>  <SCORE>
23.6388

>  <SCORE.INTER>
-1.79773

>  <SCORE.INTER.CONST>
1

>  <SCORE.INTER.POLAR>
-0.695761

>  <SCORE.INTER.ROT>
10

>  <SCORE.INTER.SOLV>
20.8664

>  <SCORE.INTER.VDW>
-16.1014

>  <SCORE.INTER.norm>
-0.0749053

>  <SCORE.INTRA>
6.1132

>  <SCORE.INTRA.DIHEDRAL>
17.4599

>  <SCORE.INTRA.DIHEDRAL.0>
7.52971

>  <SCORE.INTRA.POLAR>
0

>  <SCORE.INTRA.POLAR.0>
0

>  <SCORE.INTRA.REPUL>
0

>  <SCORE.INTRA.REPUL.0>
0

>  <SCORE.INTRA.SOLV>
0.0270302

>  <SCORE.INTRA.SOLV.lig_0>
-22.1084

>  <SCORE.INTRA.VDW>
-2.63027

>  <SCORE.INTRA.VDW.0>
2.4256

>  <SCORE.INTRA.norm>
0.254717

>  <SCORE.RESTR>
19.3234

>  <SCORE.RESTR.CAVITY>
19.3234

>  <SCORE.RESTR.norm>
0.80514

>  <SCORE.SYSTEM>
0

>  <SCORE.SYSTEM.CONST>
0

>  <SCORE.SYSTEM.DIHEDRAL>
0

>  <SCORE.SYSTEM.SOLV>
0

>  <SCORE.SYSTEM.norm>
0

>  <SCORE.heavy>
24

>  <SCORE.norm>
0.984951

>  <RMSD>
15.708

$$$$
lig.pdb
 OpenBabel11021811453D
libRbt.so/2013.1/901 2013/11/27
 24 24  0  0  0  0  0  0  0  0999 V2000
   -5.2347    8.5122    5.3863 C   0  0  0  0  0  0  0  0  0  0  0  0
   -4.9653    7.1056    5.2866 C   0  0  0  0  0  0  0  0  0  0  0  0
   -4.0319    6.4893    6.0860 C   0  0  0  0  0  0  0  0  0  0  0  0
   -3.2851    7.2151    7.0683 C   0  0  0  0  0  0  0  0  0  0  0  0
   -3.5310    8.6256    7.1435 C   0  0  0  0  0  0  0  0  0  0  0  0
   -4.4568    9.2434    6.3404 C   0  0  0  0  0  0  0  0  0  0  0  0
   -6.1820    9.1282    4.6195 C   0  0  0  0  0  0  0  0  0  0  0  0
   -6.3984    8.8059    3.3263 N   0  0  0  0  0  0  0  0  0  0  0  0
   -1.6753    7.2665    8.8329 N   0  0  0  0  0  0  0  0  0  0  0  0
   -2.3833    6.6076    7.8913 C   0  0  0  0  0  0  0  0  0  0  0  0
   -6.9822   10.1107    5.1027 N   0  0  0  0  0  0  0  0  0  0  0  0
   -2.1195    5.2807    7.8305 N   0  0  0  0  0  0  0  0  0  0  0  0
   -8.3816   10.3479    4.7541 C   0  0  0  0  0  0  0  0  0  0  0  0
   -1.5447    4.4672    8.8974 C   0  0  0  0  0  0  0  0  0  0  0  0
   -9.1995    9.1323    5.2190 C   0  0  0  0  0  0  0  0  0  0  0  0
   -2.7053    3.8280    9.6825 C   0  0  0  0  0  0  0  0  0  0  0  0
   -9.0626    7.9675    4.2287 C   0  0  0  0  0  0  0  0  0  0  0  0
   -3.7930    4.8467   10.0687 C   0  0  0  0  0  0  0  0  0  0  0  0
  -10.0515    8.1497    3.1059 N   0  0  0  0  0  0  0  0  0  0  0  0
   -3.4064    5.6300   11.2977 N   0  0  0  0  0  0  0  0  0  0  0  0
   -9.6464    9.3187    2.2499 C   0  0  0  0  0  0  0  0  0  0  0  0
   -3.8170    4.8517   12.5188 C   0  0  0  0  0  0  0  0  0  0  0  0
  -11.4422    8.3756    3.6454 C   0  0  0  0  0  0  0  0  0  0  0  0
   -4.0606    6.9828   11.3382 C   0  0  0  0  0  0  0  0  0  0  0  0
  1  6  2  0  0  0  0
  2  3  2  0  0  0  0
  2  1  1  0  0  0  0
  3  4  1  0  0  0  0
  4 10  1  0  0  0  0
  4  5  2  0  0  0  0
  6  5  1  0  0  0  0
  7  1  1  0  0  0  0
  7 11  1  0  0  0  0
  8  7  2  0  0  0  0
  9 10  2  0  0  0  0
 10 12  1  0  0  0  0
 12 14  1  0  0  0  0
 13 11  1  0  0  0  0
 13 15  1  0  0  0  0
 14 16  1  0  0  0  0
 16 18  1  0  0  0  0
 17 15  1  0  0  0  0
 17 19  1  0  0  0  0
 18 20  1  0  0  0  0
 19 23  1  0  0  0  0
 20 22  1  0  0  0  0
 20 24  1  0  0  0  0
 21 19  1  0  0  0  0
M  END
>  <CHROM.1>
-179.40033630,-38.21524143,94.15672555,63.86726715,-79.28294727,-48.46838471
-80.95688602,-84.14634833,69.46304410,-85.81225283,-5.39295129,7.41707625
6.76351988,-2.28852850,-0.00801932,2.07509251

>  <Name>
lig.pdb

>  <RI>
0

>  <Rbt.Current_Directory>
/home/itssahil/PROJECTS/Mol_Feturizer/New_Systems/rnas/2l94

>  <Rbt.Executable>
rbdock ($Id: //depot/dev/client3/rdock/2013.1/src/exe/rbdock.cxx#4 $)

>  <Rbt.Library>
libRbt.so (2013.1, Build901 2013/11/27)

>  <Rbt.Parameter_File>
/export/apps/rDock/src/rDock_2013.1_src/data/scripts/dock_solv.prm

>  <Rbt.Receptor>
prm/blind_docking_100.prm

>  <SCORE>
-1.9802

>  <SCORE.INTER>
-15.0141

>  <SCORE.INTER.CONST>
1

>  <SCORE.INTER.POLAR>
-2.00446

>  <SCORE.INTER.ROT>
10

>  <SCORE.INTER.SOLV>
19.4936

>  <SCORE.INTER.VDW>
-20.0923

>  <SCORE.INTER.norm>
-0.625586

>  <SCORE.INTRA>
7.34439

>  <SCORE.INTRA.DIHEDRAL>
9.05755

>  <SCORE.INTRA.DIHEDRAL.0>
7.52971

>  <SCORE.INTRA.POLAR>
0

>  <SCORE.INTRA.POLAR.0>
0

>  <SCORE.INTRA.REPUL>
0

>  <SCORE.INTRA.REPUL.0>
0

>  <SCORE.INTRA.SOLV>
2.47778

>  <SCORE.INTRA.SOLV.lig_0>
-22.1084

>  <SCORE.INTRA.VDW>
1.57672

>  <SCORE.INTRA.VDW.0>
2.4256

>  <SCORE.INTRA.norm>
0.306016

>  <SCORE.RESTR>
5.68948

>  <SCORE.RESTR.CAVITY>
5.68948

>  <SCORE.RESTR.norm>
0.237062

>  <SCORE.SYSTEM>
0

>  <SCORE.SYSTEM.CONST>
0

>  <SCORE.SYSTEM.DIHEDRAL>
0

>  <SCORE.SYSTEM.SOLV>
0

>  <SCORE.SYSTEM.norm>
0

>  <SCORE.heavy>
24

>  <SCORE.norm>
-0.0825083

>  <RMSD>
15.746

$$$$
lig.pdb
 OpenBabel11021811453D
libRbt.so/2013.1/901 2013/11/27
 24 24  0  0  0  0  0  0  0  0999 V2000
   -3.7889    7.8157    6.0544 C   0  0  0  0  0  0  0  0  0  0  0  0
   -4.8380    7.0244    5.4763 C   0  0  0  0  0  0  0  0  0  0  0  0
   -5.8289    7.5874    4.7072 C   0  0  0  0  0  0  0  0  0  0  0  0
   -5.8624    8.9920    4.4329 C   0  0  0  0  0  0  0  0  0  0  0  0
   -4.8333    9.7856    5.0386 C   0  0  0  0  0  0  0  0  0  0  0  0
   -3.8482    9.2258    5.8132 C   0  0  0  0  0  0  0  0  0  0  0  0
   -2.7824    7.2625    6.7931 C   0  0  0  0  0  0  0  0  0  0  0  0
   -1.9726    7.9937    7.5885 N   0  0  0  0  0  0  0  0  0  0  0  0
   -6.7889    9.5121    2.2930 N   0  0  0  0  0  0  0  0  0  0  0  0
   -6.8195    9.5557    3.6418 C   0  0  0  0  0  0  0  0  0  0  0  0
   -2.5225    5.9315    6.7861 N   0  0  0  0  0  0  0  0  0  0  0  0
   -7.8893   10.2136    4.1484 N   0  0  0  0  0  0  0  0  0  0  0  0
   -2.0680    5.1245    7.9168 C   0  0  0  0  0  0  0  0  0  0  0  0
   -9.1547   10.4567    3.4627 C   0  0  0  0  0  0  0  0  0  0  0  0
   -2.5373    5.8112    9.2095 C   0  0  0  0  0  0  0  0  0  0  0  0
  -10.1125    9.3030    3.8141 C   0  0  0  0  0  0  0  0  0  0  0  0
   -3.2480    4.8133   10.1342 C   0  0  0  0  0  0  0  0  0  0  0  0
   -9.3701    8.0257    4.2466 C   0  0  0  0  0  0  0  0  0  0  0  0
   -3.4294    5.4371   11.4943 N   0  0  0  0  0  0  0  0  0  0  0  0
   -9.4887    7.7925    5.7315 N   0  0  0  0  0  0  0  0  0  0  0  0
   -3.6571    4.3645   12.5245 C   0  0  0  0  0  0  0  0  0  0  0  0
   -8.5649    8.7409    6.4475 C   0  0  0  0  0  0  0  0  0  0  0  0
   -4.5946    6.3953   11.4956 C   0  0  0  0  0  0  0  0  0  0  0  0
   -9.1343    6.3829    6.1153 C   0  0  0  0  0  0  0  0  0  0  0  0
  1  6  2  0  0  0  0
  2  3  2  0  0  0  0
  2  1  1  0  0  0  0
  3  4  1  0  0  0  0
  4 10  1  0  0  0  0
  4  5  2  0  0  0  0
  6  5  1  0  0  0  0
  7  1  1  0  0  0  0
  7 11  1  0  0  0  0
  8  7  2  0  0  0  0
  9 10  2  0  0  0  0
 10 12  1  0  0  0  0
 12 14  1  0  0  0  0
 13 11  1  0  0  0  0
 13 15  1  0  0  0  0
 14 16  1  0  0  0  0
 16 18  1  0  0  0  0
 17 15  1  0  0  0  0
 17 19  1  0  0  0  0
 18 20  1  0  0  0  0
 19 23  1  0  0  0  0
 20 22  1  0  0  0  0
 20 24  1  0  0  0  0
 21 19  1  0  0  0  0
M  END
>  <CHROM.1>
-79.04485537,-164.47010927,92.35122586,25.92300223,129.96842484,-23.23972937
106.79150148,168.04701718,-159.93318683,-76.08803655,-5.57273043,7.61932463
6.53897424,-0.91946358,0.02376275,-1.04813343

>  <Name>
lig.pdb

>  <RI>
0

>  <Rbt.Current_Directory>
/home/itssahil/PROJECTS/Mol_Feturizer/New_Systems/rnas/2l94

>  <Rbt.Executable>
rbdock ($Id: //depot/dev/client3/rdock/2013.1/src/exe/rbdock.cxx#4 $)

>  <Rbt.Library>
libRbt.so (2013.1, Build901 2013/11/27)

>  <Rbt.Parameter_File>
/export/apps/rDock/src/rDock_2013.1_src/data/scripts/dock_solv.prm

>  <Rbt.Receptor>
prm/blind_docking_100.prm

>  <SCORE>
11.5248

>  <SCORE.INTER>
-10.1524

>  <SCORE.INTER.CONST>
1

>  <SCORE.INTER.POLAR>
-1.12685

>  <SCORE.INTER.ROT>
10

>  <SCORE.INTER.SOLV>
20.1811

>  <SCORE.INTER.VDW>
-20.0058

>  <SCORE.INTER.norm>
-0.423019

>  <SCORE.INTRA>
15.2269

>  <SCORE.INTRA.DIHEDRAL>
26.2586

>  <SCORE.INTRA.DIHEDRAL.0>
7.52971

>  <SCORE.INTRA.POLAR>
0

>  <SCORE.INTRA.POLAR.0>
0

>  <SCORE.INTRA.REPUL>
0

>  <SCORE.INTRA.REPUL.0>
0

>  <SCORE.INTRA.SOLV>
1.51932

>  <SCORE.INTRA.SOLV.lig_0>
-22.1084

>  <SCORE.INTRA.VDW>
1.33798

>  <SCORE.INTRA.VDW.0>
2.4256

>  <SCORE.INTRA.norm>
0.634455

>  <SCORE.RESTR>
6.4503

>  <SCORE.RESTR.CAVITY>
6.4503

>  <SCORE.RESTR.norm>
0.268763

>  <SCORE.SYSTEM>
0

>  <SCORE.SYSTEM.CONST>
0

>  <SCORE.SYSTEM.DIHEDRAL>
0

>  <SCORE.SYSTEM.SOLV>
0

>  <SCORE.SYSTEM.norm>
0

>  <SCORE.heavy>
24

>  <SCORE.norm>
0.480199

>  <RMSD>
15.781

$$$$
lig.pdb
 OpenBabel11021811453D
libRbt.so/2013.1/901 2013/11/27
 24 24  0  0  0  0  0  0  0  0999 V2000
   -5.5203    8.9695    4.9674 C   0  0  0  0  0  0  0  0  0  0  0  0
   -5.3252    7.5605    4.7733 C   0  0  0  0  0  0  0  0  0  0  0  0
   -4.3654    6.8609    5.4656 C   0  0  0  0  0  0  0  0  0  0  0  0
   -3.5150    7.4977    6.4251 C   0  0  0  0  0  0  0  0  0  0  0  0
   -3.6883    8.9110    6.5933 C   0  0  0  0  0  0  0  0  0  0  0  0
   -4.6408    9.6120    5.8968 C   0  0  0  0  0  0  0  0  0  0  0  0
   -6.4916    9.6676    4.3087 C   0  0  0  0  0  0  0  0  0  0  0  0
   -6.6761    9.5812    2.9739 N   0  0  0  0  0  0  0  0  0  0  0  0
   -1.7909    7.3775    8.0747 N   0  0  0  0  0  0  0  0  0  0  0  0
   -2.5845    6.8069    7.1438 C   0  0  0  0  0  0  0  0  0  0  0  0
   -7.3496   10.5001    4.9490 N   0  0  0  0  0  0  0  0  0  0  0  0
   -2.3762    5.4787    6.9804 N   0  0  0  0  0  0  0  0  0  0  0  0
   -8.7561   10.7253    4.6213 C   0  0  0  0  0  0  0  0  0  0  0  0
   -1.7635    4.5773    7.9512 C   0  0  0  0  0  0  0  0  0  0  0  0
   -9.5759    9.5780    5.2334 C   0  0  0  0  0  0  0  0  0  0  0  0
   -2.3112    4.9393    9.3443 C   0  0  0  0  0  0  0  0  0  0  0  0
  -10.6630    9.1004    4.2607 C   0  0  0  0  0  0  0  0  0  0  0  0
   -3.8201    5.2439    9.3284 C   0  0  0  0  0  0  0  0  0  0  0  0
  -10.0174    8.3626    3.1158 N   0  0  0  0  0  0  0  0  0  0  0  0
   -4.2856    5.8042   10.6485 N   0  0  0  0  0  0  0  0  0  0  0  0
   -9.6715    9.3268    2.0139 C   0  0  0  0  0  0  0  0  0  0  0  0
   -3.5964    7.1207   10.8876 C   0  0  0  0  0  0  0  0  0  0  0  0
  -10.9348    7.2911    2.5809 C   0  0  0  0  0  0  0  0  0  0  0  0
   -3.9847    4.8803   11.7956 C   0  0  0  0  0  0  0  0  0  0  0  0
  1  6  2  0  0  0  0
  2  3  2  0  0  0  0
  2  1  1  0  0  0  0
  3  4  1  0  0  0  0
  4 10  1  0  0  0  0
  4  5  2  0  0  0  0
  6  5  1  0  0  0  0
  7  1  1  0  0  0  0
  7 11  1  0  0  0  0
  8  7  2  0  0  0  0
  9 10  2  0  0  0  0
 10 12  1  0  0  0  0
 12 14  1  0  0  0  0
 13 11  1  0  0  0  0
 13 15  1  0  0  0  0
 14 16  1  0  0  0  0
 16 18  1  0  0  0  0
 17 15  1  0  0  0  0
 17 19  1  0  0  0  0
 18 20  1  0  0  0  0
 19 23  1  0  0  0  0
 20 22  1  0  0  0  0
 20 24  1  0  0  0  0
 21 19  1  0  0  0  0
M  END
>  <CHROM.1>
-178.50672357,-49.01121482,41.49102280,81.14421665,-138.49530356,41.35522792
-170.96602620,71.23081171,-89.30746775,63.27787751,-5.61454586,7.72269619
6.28358707,-2.32598189,-0.01274317,2.09355434

>  <Name>
lig.pdb

>  <RI>
0

>  <Rbt.Current_Directory>
/home/itssahil/PROJECTS/Mol_Feturizer/New_Systems/rnas/2l94

>  <Rbt.Executable>
rbdock ($Id: //depot/dev/client3/rdock/2013.1/src/exe/rbdock.cxx#4 $)

>  <Rbt.Library>
libRbt.so (2013.1, Build901 2013/11/27)

>  <Rbt.Parameter_File>
/export/apps/rDock/src/rDock_2013.1_src/data/scripts/dock_solv.prm

>  <Rbt.Receptor>
prm/blind_docking_100.prm

>  <SCORE>
2.49638

>  <SCORE.INTER>
-14.0047

>  <SCORE.INTER.CONST>
1

>  <SCORE.INTER.POLAR>
-1.17378

>  <SCORE.INTER.ROT>
10

>  <SCORE.INTER.SOLV>
19.9459

>  <SCORE.INTER.VDW>
-22.3391

>  <SCORE.INTER.norm>
-0.583527

>  <SCORE.INTRA>
10.3269

>  <SCORE.INTRA.DIHEDRAL>
12.7375

>  <SCORE.INTRA.DIHEDRAL.0>
7.52971

>  <SCORE.INTRA.POLAR>
0

>  <SCORE.INTRA.POLAR.0>
0

>  <SCORE.INTRA.REPUL>
0

>  <SCORE.INTRA.REPUL.0>
0

>  <SCORE.INTRA.SOLV>
2.21261

>  <SCORE.INTRA.SOLV.lig_0>
-22.1084

>  <SCORE.INTRA.VDW>
2.85183

>  <SCORE.INTRA.VDW.0>
2.4256

>  <SCORE.INTRA.norm>
0.430287

>  <SCORE.RESTR>
6.17414

>  <SCORE.RESTR.CAVITY>
6.17414

>  <SCORE.RESTR.norm>
0.257256

>  <SCORE.SYSTEM>
0

>  <SCORE.SYSTEM.CONST>
0

>  <SCORE.SYSTEM.DIHEDRAL>
0

>  <SCORE.SYSTEM.SOLV>
0

>  <SCORE.SYSTEM.norm>
0

>  <SCORE.heavy>
24

>  <SCORE.norm>
0.104016

>  <RMSD>
15.794

$$$$
lig.pdb
 OpenBabel11021811453D
libRbt.so/2013.1/901 2013/11/27
 24 24  0  0  0  0  0  0  0  0999 V2000
   -5.7261    9.1051    4.4569 C   0  0  0  0  0  0  0  0  0  0  0  0
   -5.7205    7.6794    4.6256 C   0  0  0  0  0  0  0  0  0  0  0  0
   -4.7655    7.0443    5.3838 C   0  0  0  0  0  0  0  0  0  0  0  0
   -3.7307    7.7714    6.0544 C   0  0  0  0  0  0  0  0  0  0  0  0
   -3.7177    9.1916    5.8576 C   0  0  0  0  0  0  0  0  0  0  0  0
   -4.6657    9.8258    5.0943 C   0  0  0  0  0  0  0  0  0  0  0  0
   -6.6882    9.7487    3.7324 C   0  0  0  0  0  0  0  0  0  0  0  0
   -6.8232    9.5953    2.3977 N   0  0  0  0  0  0  0  0  0  0  0  0
   -1.9765    7.8208    7.6757 N   0  0  0  0  0  0  0  0  0  0  0  0
   -2.8002    7.1556    6.8384 C   0  0  0  0  0  0  0  0  0  0  0  0
   -7.5860   10.5904    4.3021 N   0  0  0  0  0  0  0  0  0  0  0  0
   -2.6224    5.8131    6.8407 N   0  0  0  0  0  0  0  0  0  0  0  0
   -8.9845   10.7673    3.9159 C   0  0  0  0  0  0  0  0  0  0  0  0
   -2.0088    5.0274    7.9069 C   0  0  0  0  0  0  0  0  0  0  0  0
   -9.6618    9.3876    3.9394 C   0  0  0  0  0  0  0  0  0  0  0  0
   -3.0036    4.9647    9.0808 C   0  0  0  0  0  0  0  0  0  0  0  0
   -9.3862    8.6633    5.2643 C   0  0  0  0  0  0  0  0  0  0  0  0
   -3.0098    6.2530    9.9234 C   0  0  0  0  0  0  0  0  0  0  0  0
   -9.1884    7.1933    4.9964 N   0  0  0  0  0  0  0  0  0  0  0  0
   -4.0358    6.1880   11.0265 N   0  0  0  0  0  0  0  0  0  0  0  0
  -10.4637    6.5910    4.4727 C   0  0  0  0  0  0  0  0  0  0  0  0
   -4.1209    7.5360   11.6907 C   0  0  0  0  0  0  0  0  0  0  0  0
   -8.7654    6.4701    6.2510 C   0  0  0  0  0  0  0  0  0  0  0  0
   -3.6915    5.1543   12.0623 C   0  0  0  0  0  0  0  0  0  0  0  0
  1  6  2  0  0  0  0
  2  3  2  0  0  0  0
  2  1  1  0  0  0  0
  3  4  1  0  0  0  0
  4 10  1  0  0  0  0
  4  5  2  0  0  0  0
  6  5  1  0  0  0  0
  7  1  1  0  0  0  0
  7 11  1  0  0  0  0
  8  7  2  0  0  0  0
  9 10  2  0  0  0  0
 10 12  1  0  0  0  0
 12 14  1  0  0  0  0
 13 11  1  0  0  0  0
 13 15  1  0  0  0  0
 14 16  1  0  0  0  0
 16 18  1  0  0  0  0
 17 15  1  0  0  0  0
 17 19  1  0  0  0  0
 18 20  1  0  0  0  0
 19 23  1  0  0  0  0
 20 22  1  0  0  0  0
 20 24  1  0  0  0  0
 21 19  1  0  0  0  0
M  END
>  <CHROM.1>
-167.11553857,-66.38505597,73.02442915,54.43903869,50.28572597,-78.78243194
177.42539040,-142.22621707,-64.89003851,-172.46063051,-5.58054477,7.69821748
6.45927449,-2.27888708,0.08116867,2.12247705

>  <Name>
lig.pdb

>  <RI>
0

>  <Rbt.Current_Directory>
/home/itssahil/PROJECTS/Mol_Feturizer/New_Systems/rnas/2l94

>  <Rbt.Executable>
rbdock ($Id: //depot/dev/client3/rdock/2013.1/src/exe/rbdock.cxx#4 $)

>  <Rbt.Library>
libRbt.so (2013.1, Build901 2013/11/27)

>  <Rbt.Parameter_File>
/export/apps/rDock/src/rDock_2013.1_src/data/scripts/dock_solv.prm

>  <Rbt.Receptor>
prm/blind_docking_100.prm

>  <SCORE>
-6.50132

>  <SCORE.INTER>
-18.1494

>  <SCORE.INTER.CONST>
1

>  <SCORE.INTER.POLAR>
-2.1228

>  <SCORE.INTER.ROT>
10

>  <SCORE.INTER.SOLV>
21.3159

>  <SCORE.INTER.VDW>
-22.3956

>  <SCORE.INTER.norm>
-0.756225

>  <SCORE.INTRA>
5.18024

>  <SCORE.INTRA.DIHEDRAL>
14.3264

>  <SCORE.INTRA.DIHEDRAL.0>
7.52971

>  <SCORE.INTRA.POLAR>
0

>  <SCORE.INTRA.POLAR.0>
0

>  <SCORE.INTRA.REPUL>
0

>  <SCORE.INTRA.REPUL.0>
0

>  <SCORE.INTRA.SOLV>
1.39365

>  <SCORE.INTRA.SOLV.lig_0>
-22.1084

>  <SCORE.INTRA.VDW>
-2.67979

>  <SCORE.INTRA.VDW.0>
2.4256

>  <SCORE.INTRA.norm>
0.215844

>  <SCORE.RESTR>
6.46784

>  <SCORE.RESTR.CAVITY>
6.46784

>  <SCORE.RESTR.norm>
0.269494

>  <SCORE.SYSTEM>
0

>  <SCORE.SYSTEM.CONST>
0

>  <SCORE.SYSTEM.DIHEDRAL>
0

>  <SCORE.SYSTEM.SOLV>
0

>  <SCORE.SYSTEM.norm>
0

>  <SCORE.heavy>
24

>  <SCORE.norm>
-0.270888

>  <RMSD>
15.804

$$$$
lig.pdb
 OpenBabel11021811453D
libRbt.so/2013.1/901 2013/11/27
 24 24  0  0  0  0  0  0  0  0999 V2000
   -5.8071    9.0250    4.7490 C   0  0  0  0  0  0  0  0  0  0  0  0
   -4.6704    9.4594    5.5107 C   0  0  0  0  0  0  0  0  0  0  0  0
   -3.7777    8.5650    6.0523 C   0  0  0  0  0  0  0  0  0  0  0  0
   -3.9280    7.1521    5.8775 C   0  0  0  0  0  0  0  0  0  0  0  0
   -5.0819    6.7184    5.1452 C   0  0  0  0  0  0  0  0  0  0  0  0
   -5.9781    7.6101    4.6110 C   0  0  0  0  0  0  0  0  0  0  0  0
   -6.6819    9.9057    4.1800 C   0  0  0  0  0  0  0  0  0  0  0  0
   -6.8486   10.0105    2.8442 N   0  0  0  0  0  0  0  0  0  0  0  0
   -1.6978    6.4791    6.4082 N   0  0  0  0  0  0  0  0  0  0  0  0
   -3.0290    6.2577    6.3791 C   0  0  0  0  0  0  0  0  0  0  0  0
   -7.4547   10.7415    4.9171 N   0  0  0  0  0  0  0  0  0  0  0  0
   -3.4007    5.0612    6.8931 N   0  0  0  0  0  0  0  0  0  0  0  0
   -8.8209   11.1631    4.6136 C   0  0  0  0  0  0  0  0  0  0  0  0
   -2.6281    4.2475    7.8267 C   0  0  0  0  0  0  0  0  0  0  0  0
   -9.7811   10.1019    5.1748 C   0  0  0  0  0  0  0  0  0  0  0  0
   -2.4485    5.0578    9.1240 C   0  0  0  0  0  0  0  0  0  0  0  0
   -9.6010    8.7608    4.4504 C   0  0  0  0  0  0  0  0  0  0  0  0
   -3.7377    5.1300    9.9622 C   0  0  0  0  0  0  0  0  0  0  0  0
  -10.4232    8.7630    3.1871 N   0  0  0  0  0  0  0  0  0  0  0  0
   -3.4731    5.6891   11.3373 N   0  0  0  0  0  0  0  0  0  0  0  0
  -10.8361    7.3583    2.8410 C   0  0  0  0  0  0  0  0  0  0  0  0
   -4.5884    5.2675   12.2560 C   0  0  0  0  0  0  0  0  0  0  0  0
   -9.6450    9.3586    2.0400 C   0  0  0  0  0  0  0  0  0  0  0  0
   -3.3850    7.1898   11.3332 C   0  0  0  0  0  0  0  0  0  0  0  0
  1  6  2  0  0  0  0
  2  3  2  0  0  0  0
  2  1  1  0  0  0  0
  3  4  1  0  0  0  0
  4 10  1  0  0  0  0
  4  5  2  0  0  0  0
  6  5  1  0  0  0  0
  7  1  1  0  0  0  0
  7 11  1  0  0  0  0
  8  7  2  0  0  0  0
  9 10  2  0  0  0  0
 10 12  1  0  0  0  0
 12 14  1  0  0  0  0
 13 11  1  0  0  0  0
 13 15  1  0  0  0  0
 14 16  1  0  0  0  0
 16 18  1  0  0  0  0
 17 15  1  0  0  0  0
 17 19  1  0  0  0  0
 18 20  1  0  0  0  0
 19 23  1  0  0  0  0
 20 22  1  0  0  0  0
 20 24  1  0  0  0  0
 21 19  1  0  0  0  0
M  END
>  <CHROM.1>
-37.34606112,115.88464522,62.20087684,85.81805156,-65.08693757,74.15667853
168.91290266,-84.50449039,-151.46803661,-158.87481333,-5.77287120,7.69873994
6.18387825,-2.30811555,-0.30945234,1.87564140

>  <Name>
lig.pdb

>  <RI>
0

>  <Rbt.Current_Directory>
/home/itssahil/PROJECTS/Mol_Feturizer/New_Systems/rnas/2l94

>  <Rbt.Executable>
rbdock ($Id: //depot/dev/client3/rdock/2013.1/src/exe/rbdock.cxx#4 $)

>  <Rbt.Library>
libRbt.so (2013.1, Build901 2013/11/27)

>  <Rbt.Parameter_File>
/export/apps/rDock/src/rDock_2013.1_src/data/scripts/dock_solv.prm

>  <Rbt.Receptor>
prm/blind_docking_100.prm

>  <SCORE>
-8.59924

>  <SCORE.INTER>
-20.9047

>  <SCORE.INTER.CONST>
1

>  <SCORE.INTER.POLAR>
-2.39277

>  <SCORE.INTER.ROT>
10

>  <SCORE.INTER.SOLV>
20.5785

>  <SCORE.INTER.VDW>
-23.0868

>  <SCORE.INTER.norm>
-0.871031

>  <SCORE.INTRA>
6.07423

>  <SCORE.INTRA.DIHEDRAL>
18.1169

>  <SCORE.INTRA.DIHEDRAL.0>
7.52971

>  <SCORE.INTRA.POLAR>
0

>  <SCORE.INTRA.POLAR.0>
0

>  <SCORE.INTRA.REPUL>
0

>  <SCORE.INTRA.REPUL.0>
0

>  <SCORE.INTRA.SOLV>
1.3928

>  <SCORE.INTRA.SOLV.lig_0>
-22.1084

>  <SCORE.INTRA.VDW>
-3.68064

>  <SCORE.INTRA.VDW.0>
2.4256

>  <SCORE.INTRA.norm>
0.253093

>  <SCORE.RESTR>
6.23128

>  <SCORE.RESTR.CAVITY>
6.23128

>  <SCORE.RESTR.norm>
0.259637

>  <SCORE.SYSTEM>
0

>  <SCORE.SYSTEM.CONST>
0

>  <SCORE.SYSTEM.DIHEDRAL>
0

>  <SCORE.SYSTEM.SOLV>
0

>  <SCORE.SYSTEM.norm>
0

>  <SCORE.heavy>
24

>  <SCORE.norm>
-0.358302

>  <RMSD>
15.815

$$$$
lig.pdb
 OpenBabel11021811453D
libRbt.so/2013.1/901 2013/11/27
 24 24  0  0  0  0  0  0  0  0999 V2000
   -4.5356    7.1080    5.8630 C   0  0  0  0  0  0  0  0  0  0  0  0
   -4.6483    8.3715    6.5351 C   0  0  0  0  0  0  0  0  0  0  0  0
   -5.4219    9.3914    6.0335 C   0  0  0  0  0  0  0  0  0  0  0  0
   -6.1650    9.2450    4.8187 C   0  0  0  0  0  0  0  0  0  0  0  0
   -6.0249    7.9947    4.1312 C   0  0  0  0  0  0  0  0  0  0  0  0
   -5.2465    6.9787    4.6268 C   0  0  0  0  0  0  0  0  0  0  0  0
   -3.7957    6.0777    6.3687 C   0  0  0  0  0  0  0  0  0  0  0  0
   -3.8434    4.8265    5.8632 N   0  0  0  0  0  0  0  0  0  0  0  0
   -7.0901   10.5099    3.0152 N   0  0  0  0  0  0  0  0  0  0  0  0
   -6.9640   10.2368    4.3311 C   0  0  0  0  0  0  0  0  0  0  0  0
   -2.9514    6.2356    7.4181 N   0  0  0  0  0  0  0  0  0  0  0  0
   -7.7028   11.0386    5.1343 N   0  0  0  0  0  0  0  0  0  0  0  0
   -1.6669    5.5663    7.6141 C   0  0  0  0  0  0  0  0  0  0  0  0
   -8.8847   11.7989    4.7400 C   0  0  0  0  0  0  0  0  0  0  0  0
   -1.6155    5.0518    9.0617 C   0  0  0  0  0  0  0  0  0  0  0  0
   -9.8090   10.8581    3.9449 C   0  0  0  0  0  0  0  0  0  0  0  0
   -3.0165    4.6680    9.5578 C   0  0  0  0  0  0  0  0  0  0  0  0
  -10.1016    9.5434    4.6905 C   0  0  0  0  0  0  0  0  0  0  0  0
   -3.2480    5.2784   10.9164 N   0  0  0  0  0  0  0  0  0  0  0  0
   -9.4102    8.3722    4.0395 N   0  0  0  0  0  0  0  0  0  0  0  0
   -4.3469    4.5394   11.6305 C   0  0  0  0  0  0  0  0  0  0  0  0
  -10.1428    8.0181    2.7733 C   0  0  0  0  0  0  0  0  0  0  0  0
   -3.6148    6.7367   10.7954 C   0  0  0  0  0  0  0  0  0  0  0  0
   -9.3722    7.1655    4.9352 C   0  0  0  0  0  0  0  0  0  0  0  0
  1  6  2  0  0  0  0
  2  3  2  0  0  0  0
  2  1  1  0  0  0  0
  3  4  1  0  0  0  0
  4 10  1  0  0  0  0
  4  5  2  0  0  0  0
  6  5  1  0  0  0  0
  7  1  1  0  0  0  0
  7 11  1  0  0  0  0
  8  7  2  0  0  0  0
  9 10  2  0  0  0  0
 10 12  1  0  0  0  0
 12 14  1  0  0  0  0
 13 11  1  0  0  0  0
 13 15  1  0  0  0  0
 14 16  1  0  0  0  0
 16 18  1  0  0  0  0
 17 15  1  0  0  0  0
 17 19  1  0  0  0  0
 18 20  1  0  0  0  0
 19 23  1  0  0  0  0
 20 22  1  0  0  0  0
 20 24  1  0  0  0  0
 21 19  1  0  0  0  0
M  END
>  <CHROM.1>
142.66266565,169.50428673,47.22820235,-133.60135343,31.82340532,52.02660096
-109.09045565,-132.01936548,-159.33405877,-74.68965492,-5.83749189,7.70429724
6.23728020,-0.74630050,0.50702006,-1.35661727

>  <Name>
lig.pdb

>  <RI>
0

>  <Rbt.Current_Directory>
/home/itssahil/PROJECTS/Mol_Feturizer/New_Systems/rnas/2l94

>  <Rbt.Executable>
rbdock ($Id: //depot/dev/client3/rdock/2013.1/src/exe/rbdock.cxx#4 $)

>  <Rbt.Library>
libRbt.so (2013.1, Build901 2013/11/27)

>  <Rbt.Parameter_File>
/export/apps/rDock/src/rDock_2013.1_src/data/scripts/dock_solv.prm

>  <Rbt.Receptor>
prm/blind_docking_100.prm

>  <SCORE>
14.4016

>  <SCORE.INTER>
-0.807003

>  <SCORE.INTER.CONST>
1

>  <SCORE.INTER.POLAR>
-1.3123

>  <SCORE.INTER.ROT>
10

>  <SCORE.INTER.SOLV>
17.9991

>  <SCORE.INTER.VDW>
-12.4301

>  <SCORE.INTER.norm>
-0.0336251

>  <SCORE.INTRA>
8.67316

>  <SCORE.INTRA.DIHEDRAL>
16.6302

>  <SCORE.INTRA.DIHEDRAL.0>
7.52971

>  <SCORE.INTRA.POLAR>
0

>  <SCORE.INTRA.POLAR.0>
0

>  <SCORE.INTRA.REPUL>
0

>  <SCORE.INTRA.REPUL.0>
0

>  <SCORE.INTRA.SOLV>
2.70537

>  <SCORE.INTRA.SOLV.lig_0>
-22.1084

>  <SCORE.INTRA.VDW>
-0.994601

>  <SCORE.INTRA.VDW.0>
2.4256

>  <SCORE.INTRA.norm>
0.361382

>  <SCORE.RESTR>
6.53539

>  <SCORE.RESTR.CAVITY>
6.53539

>  <SCORE.RESTR.norm>
0.272308

>  <SCORE.SYSTEM>
0

>  <SCORE.SYSTEM.CONST>
0

>  <SCORE.SYSTEM.DIHEDRAL>
0

>  <SCORE.SYSTEM.SOLV>
0

>  <SCORE.SYSTEM.norm>
0

>  <SCORE.heavy>
24

>  <SCORE.norm>
0.600065

>  <RMSD>
15.821

$$$$
lig.pdb
 OpenBabel11021811453D
libRbt.so/2013.1/901 2013/11/27
 24 24  0  0  0  0  0  0  0  0999 V2000
   -5.4528    3.1627    4.7898 C   0  0  0  0  0  0  0  0  0  0  0  0
   -6.1294    3.0599    6.0518 C   0  0  0  0  0  0  0  0  0  0  0  0
   -7.2679    2.3042    6.2029 C   0  0  0  0  0  0  0  0  0  0  0  0
   -7.8349    1.5708    5.1121 C   0  0  0  0  0  0  0  0  0  0  0  0
   -7.1774    1.7013    3.8446 C   0  0  0  0  0  0  0  0  0  0  0  0
   -6.0453    2.4619    3.6907 C   0  0  0  0  0  0  0  0  0  0  0  0
   -4.3038    3.8845    4.6363 C   0  0  0  0  0  0  0  0  0  0  0  0
   -3.3573    3.5674    3.7270 N   0  0  0  0  0  0  0  0  0  0  0  0
   -9.2426    0.1325    6.3996 N   0  0  0  0  0  0  0  0  0  0  0  0
   -8.9427    0.7892    5.2591 C   0  0  0  0  0  0  0  0  0  0  0  0
   -4.0282    4.9805    5.3860 N   0  0  0  0  0  0  0  0  0  0  0  0
   -9.8414    0.6040    4.2631 N   0  0  0  0  0  0  0  0  0  0  0  0
   -3.3317    6.1875    4.9453 C   0  0  0  0  0  0  0  0  0  0  0  0
  -11.2298    0.1831    4.4232 C   0  0  0  0  0  0  0  0  0  0  0  0
   -4.0941    7.4035    5.4959 C   0  0  0  0  0  0  0  0  0  0  0  0
  -12.1317    1.3675    4.0291 C   0  0  0  0  0  0  0  0  0  0  0  0
   -5.5692    7.3637    5.0737 C   0  0  0  0  0  0  0  0  0  0  0  0
  -11.9239    2.5979    4.9307 C   0  0  0  0  0  0  0  0  0  0  0  0
   -6.2235    8.6751    5.4261 N   0  0  0  0  0  0  0  0  0  0  0  0
  -12.5589    3.8310    4.3393 N   0  0  0  0  0  0  0  0  0  0  0  0
   -7.6012    8.4292    5.9782 C   0  0  0  0  0  0  0  0  0  0  0  0
  -11.9680    5.0468    5.0014 C   0  0  0  0  0  0  0  0  0  0  0  0
   -6.3159    9.5722    4.2167 C   0  0  0  0  0  0  0  0  0  0  0  0
  -14.0501    3.8484    4.5285 C   0  0  0  0  0  0  0  0  0  0  0  0
  1  6  2  0  0  0  0
  2  3  2  0  0  0  0
  2  1  1  0  0  0  0
  3  4  1  0  0  0  0
  4 10  1  0  0  0  0
  4  5  2  0  0  0  0
  6  5  1  0  0  0  0
  7  1  1  0  0  0  0
  7 11  1  0  0  0  0
  8  7  2  0  0  0  0
  9 10  2  0  0  0  0
 10 12  1  0  0  0  0
 12 14  1  0  0  0  0
 13 11  1  0  0  0  0
 13 15  1  0  0  0  0
 14 16  1  0  0  0  0
 16 18  1  0  0  0  0
 17 15  1  0  0  0  0
 17 19  1  0  0  0  0
 18 20  1  0  0  0  0
 19 23  1  0  0  0  0
 20 22  1  0  0  0  0
 20 24  1  0  0  0  0
 21 19  1  0  0  0  0
M  END
>  <CHROM.1>
-31.83186800,150.14654815,112.21067561,136.36480026,-55.20289976,-61.93099447
166.47457267,-170.39677637,-139.10563722,-162.07914393,-7.82638809,3.93537187
4.90604124,-0.62616543,0.01665667,-3.10645175

>  <Name>
lig.pdb

>  <RI>
2.62193e+07

>  <Rbt.Current_Directory>
/home/itssahil/PROJECTS/Mol_Feturizer/New_Systems/rnas/2l94

>  <Rbt.Executable>
rbdock ($Id: //depot/dev/client3/rdock/2013.1/src/exe/rbdock.cxx#4 $)

>  <Rbt.Library>
libRbt.so (2013.1, Build901 2013/11/27)

>  <Rbt.Parameter_File>
/export/apps/rDock/src/rDock_2013.1_src/data/scripts/dock_solv.prm

>  <Rbt.Receptor>
prm/blind_docking_60.prm

>  <SCORE>
23.8394

>  <SCORE.INTER>
3.38344

>  <SCORE.INTER.CONST>
1

>  <SCORE.INTER.POLAR>
-0.688129

>  <SCORE.INTER.ROT>
10

>  <SCORE.INTER.SOLV>
18.524

>  <SCORE.INTER.VDW>
-11.8919

>  <SCORE.INTER.norm>
0.140977

>  <SCORE.INTRA>
1.13815

>  <SCORE.INTRA.DIHEDRAL>
8.45196

>  <SCORE.INTRA.DIHEDRAL.0>
7.52971

>  <SCORE.INTRA.POLAR>
0

>  <SCORE.INTRA.POLAR.0>
0

>  <SCORE.INTRA.REPUL>
0

>  <SCORE.INTRA.REPUL.0>
0

>  <SCORE.INTRA.SOLV>
0.36974

>  <SCORE.INTRA.SOLV.lig_0>
-22.1084

>  <SCORE.INTRA.VDW>
-3.2727

>  <SCORE.INTRA.VDW.0>
2.4256

>  <SCORE.INTRA.norm>
0.047423

>  <SCORE.RESTR>
19.3178

>  <SCORE.RESTR.CAVITY>
19.3178

>  <SCORE.RESTR.norm>
0.804909

>  <SCORE.SYSTEM>
0

>  <SCORE.SYSTEM.CONST>
0

>  <SCORE.SYSTEM.DIHEDRAL>
0

>  <SCORE.SYSTEM.SOLV>
0

>  <SCORE.SYSTEM.norm>
0

>  <SCORE.heavy>
24

>  <SCORE.norm>
0.993309

>  <RMSD>
15.852

$$$$
lig.pdb
 OpenBabel11021811453D
libRbt.so/2013.1/901 2013/11/27
 24 24  0  0  0  0  0  0  0  0999 V2000
   -3.0679    4.6843    8.5892 C   0  0  0  0  0  0  0  0  0  0  0  0
   -4.2476    5.4982    8.6721 C   0  0  0  0  0  0  0  0  0  0  0  0
   -4.7888    6.1031    7.5624 C   0  0  0  0  0  0  0  0  0  0  0  0
   -4.2107    5.9459    6.2622 C   0  0  0  0  0  0  0  0  0  0  0  0
   -3.0136    5.1605    6.1864 C   0  0  0  0  0  0  0  0  0  0  0  0
   -2.4679    4.5628    7.2949 C   0  0  0  0  0  0  0  0  0  0  0  0
   -2.5407    4.0533    9.6794 C   0  0  0  0  0  0  0  0  0  0  0  0
   -1.2369    3.7134    9.7677 N   0  0  0  0  0  0  0  0  0  0  0  0
   -4.9132    5.8536    3.9805 N   0  0  0  0  0  0  0  0  0  0  0  0
   -4.7596    6.5113    5.1493 C   0  0  0  0  0  0  0  0  0  0  0  0
   -3.2893    3.7230   10.7609 N   0  0  0  0  0  0  0  0  0  0  0  0
   -5.1987    7.7921    5.1235 N   0  0  0  0  0  0  0  0  0  0  0  0
   -2.8603    3.7391   12.1580 C   0  0  0  0  0  0  0  0  0  0  0  0
   -6.1691    8.3511    4.1873 C   0  0  0  0  0  0  0  0  0  0  0  0
   -3.1359    5.1418   12.7233 C   0  0  0  0  0  0  0  0  0  0  0  0
   -6.3694    9.8358    4.5438 C   0  0  0  0  0  0  0  0  0  0  0  0
   -4.6124    5.5234   12.5489 C   0  0  0  0  0  0  0  0  0  0  0  0
   -7.7834   10.1334    5.0749 C   0  0  0  0  0  0  0  0  0  0  0  0
   -4.7624    7.0154   12.7016 N   0  0  0  0  0  0  0  0  0  0  0  0
   -8.7784   10.2748    3.9509 N   0  0  0  0  0  0  0  0  0  0  0  0
   -3.9786    7.7224   11.6296 C   0  0  0  0  0  0  0  0  0  0  0  0
   -9.9915   11.0027    4.4647 C   0  0  0  0  0  0  0  0  0  0  0  0
   -4.2847    7.4678   14.0592 C   0  0  0  0  0  0  0  0  0  0  0  0
   -9.2055    8.9431    3.3994 C   0  0  0  0  0  0  0  0  0  0  0  0
  1  6  2  0  0  0  0
  2  3  2  0  0  0  0
  2  1  1  0  0  0  0
  3  4  1  0  0  0  0
  4 10  1  0  0  0  0
  4  5  2  0  0  0  0
  6  5  1  0  0  0  0
  7  1  1  0  0  0  0
  7 11  1  0  0  0  0
  8  7  2  0  0  0  0
  9 10  2  0  0  0  0
 10 12  1  0  0  0  0
 12 14  1  0  0  0  0
 13 11  1  0  0  0  0
 13 15  1  0  0  0  0
 14 16  1  0  0  0  0
 16 18  1  0  0  0  0
 17 15  1  0  0  0  0
 17 19  1  0  0  0  0
 18 20  1  0  0  0  0
 19 23  1  0  0  0  0
 20 22  1  0  0  0  0
 20 24  1  0  0  0  0
 21 19  1  0  0  0  0
M  END
>  <CHROM.1>
-135.11675843,-154.82300856,179.51663940,88.90526161,55.84546528,-113.12758305
-80.74960821,-162.40432642,62.03455993,-161.12135502,-4.87455445,6.67392874
7.94627626,-0.81589249,0.81929188,-1.65510419

>  <Name>
lig.pdb

>  <RI>
0

>  <Rbt.Current_Directory>
/home/itssahil/PROJECTS/Mol_Feturizer/New_Systems/rnas/2l94

>  <Rbt.Executable>
rbdock ($Id: //depot/dev/client3/rdock/2013.1/src/exe/rbdock.cxx#4 $)

>  <Rbt.Library>
libRbt.so (2013.1, Build901 2013/11/27)

>  <Rbt.Parameter_File>
/export/apps/rDock/src/rDock_2013.1_src/data/scripts/dock_solv.prm

>  <Rbt.Receptor>
prm/blind_docking_100.prm

>  <SCORE>
18.3268

>  <SCORE.INTER>
0.863108

>  <SCORE.INTER.CONST>
1

>  <SCORE.INTER.POLAR>
-1.19671

>  <SCORE.INTER.ROT>
10

>  <SCORE.INTER.SOLV>
14.5369

>  <SCORE.INTER.VDW>
-10.5479

>  <SCORE.INTER.norm>
0.0359629

>  <SCORE.INTRA>
8.07733

>  <SCORE.INTRA.DIHEDRAL>
14.7533

>  <SCORE.INTRA.DIHEDRAL.0>
7.52971

>  <SCORE.INTRA.POLAR>
0

>  <SCORE.INTRA.POLAR.0>
0

>  <SCORE.INTRA.REPUL>
0

>  <SCORE.INTRA.REPUL.0>
0

>  <SCORE.INTRA.SOLV>
0.263612

>  <SCORE.INTRA.SOLV.lig_0>
-22.1084

>  <SCORE.INTRA.VDW>
0.568893

>  <SCORE.INTRA.VDW.0>
2.4256

>  <SCORE.INTRA.norm>
0.336556

>  <SCORE.RESTR>
9.38634

>  <SCORE.RESTR.CAVITY>
9.38634

>  <SCORE.RESTR.norm>
0.391098

>  <SCORE.SYSTEM>
0

>  <SCORE.SYSTEM.CONST>
0

>  <SCORE.SYSTEM.DIHEDRAL>
0

>  <SCORE.SYSTEM.SOLV>
0

>  <SCORE.SYSTEM.norm>
0

>  <SCORE.heavy>
24

>  <SCORE.norm>
0.763616

>  <RMSD>
15.896

$$$$
lig.pdb
 OpenBabel11021811453D
libRbt.so/2013.1/901 2013/11/27
 24 24  0  0  0  0  0  0  0  0999 V2000
   -5.8064    8.9949    4.5966 C   0  0  0  0  0  0  0  0  0  0  0  0
   -4.7044    9.5188    5.3531 C   0  0  0  0  0  0  0  0  0  0  0  0
   -3.8096    8.6945    5.9934 C   0  0  0  0  0  0  0  0  0  0  0  0
   -3.9226    7.2687    5.9323 C   0  0  0  0  0  0  0  0  0  0  0  0
   -5.0427    6.7476    5.2046 C   0  0  0  0  0  0  0  0  0  0  0  0
   -5.9413    7.5696    4.5717 C   0  0  0  0  0  0  0  0  0  0  0  0
   -6.6822    9.8037    3.9306 C   0  0  0  0  0  0  0  0  0  0  0  0
   -6.8695    9.7352    2.5952 N   0  0  0  0  0  0  0  0  0  0  0  0
   -1.7009    6.4483    6.2476 N   0  0  0  0  0  0  0  0  0  0  0  0
   -3.0203    6.4414    6.5331 C   0  0  0  0  0  0  0  0  0  0  0  0
   -7.4353   10.7370    4.5637 N   0  0  0  0  0  0  0  0  0  0  0  0
   -3.3765    5.5346    7.4737 N   0  0  0  0  0  0  0  0  0  0  0  0
   -8.8023   11.1307    4.2281 C   0  0  0  0  0  0  0  0  0  0  0  0
   -2.4941    4.9354    8.4701 C   0  0  0  0  0  0  0  0  0  0  0  0
   -9.6421    9.8517    4.0803 C   0  0  0  0  0  0  0  0  0  0  0  0
   -3.3103    4.7241    9.7589 C   0  0  0  0  0  0  0  0  0  0  0  0
   -9.4844    8.9464    5.3098 C   0  0  0  0  0  0  0  0  0  0  0  0
   -3.4619    6.0148   10.5841 C   0  0  0  0  0  0  0  0  0  0  0  0
   -9.1826    7.5406    4.8574 N   0  0  0  0  0  0  0  0  0  0  0  0
   -4.2224    5.7682   11.8625 N   0  0  0  0  0  0  0  0  0  0  0  0
  -10.4334    6.8914    4.3307 C   0  0  0  0  0  0  0  0  0  0  0  0
   -4.5302    7.0927   12.5078 C   0  0  0  0  0  0  0  0  0  0  0  0
   -8.6255    6.7182    5.9929 C   0  0  0  0  0  0  0  0  0  0  0  0
   -3.4450    4.9219   12.8318 C   0  0  0  0  0  0  0  0  0  0  0  0
  1  6  2  0  0  0  0
  2  3  2  0  0  0  0
  2  1  1  0  0  0  0
  3  4  1  0  0  0  0
  4 10  1  0  0  0  0
  4  5  2  0  0  0  0
  6  5  1  0  0  0  0
  7  1  1  0  0  0  0
  7 11  1  0  0  0  0
  8  7  2  0  0  0  0
  9 10  2  0  0  0  0
 10 12  1  0  0  0  0
 12 14  1  0  0  0  0
 13 11  1  0  0  0  0
 13 15  1  0  0  0  0
 14 16  1  0  0  0  0
 16 18  1  0  0  0  0
 17 15  1  0  0  0  0
 17 19  1  0  0  0  0
 18 20  1  0  0  0  0
 19 23  1  0  0  0  0
 20 22  1  0  0  0  0
 20 24  1  0  0  0  0
 21 19  1  0  0  0  0
M  END
>  <CHROM.1>
-58.72876315,120.16913290,145.24651954,49.15785477,51.79262545,-79.74899709
-177.98418706,-130.92017757,-75.37386003,-170.87860949,-5.69412403,7.55375282
6.62814987,-2.18528004,-0.17427330,1.97383930

>  <Name>
lig.pdb

>  <RI>
0

>  <Rbt.Current_Directory>
/home/itssahil/PROJECTS/Mol_Feturizer/New_Systems/rnas/2l94

>  <Rbt.Executable>
rbdock ($Id: //depot/dev/client3/rdock/2013.1/src/exe/rbdock.cxx#4 $)

>  <Rbt.Library>
libRbt.so (2013.1, Build901 2013/11/27)

>  <Rbt.Parameter_File>
/export/apps/rDock/src/rDock_2013.1_src/data/scripts/dock_solv.prm

>  <Rbt.Receptor>
prm/blind_docking_100.prm

>  <SCORE>
-4.52799

>  <SCORE.INTER>
-19.4472

>  <SCORE.INTER.CONST>
1

>  <SCORE.INTER.POLAR>
-2.50503

>  <SCORE.INTER.ROT>
10

>  <SCORE.INTER.SOLV>
18.8765

>  <SCORE.INTER.VDW>
-21.1735

>  <SCORE.INTER.norm>
-0.8103

>  <SCORE.INTRA>
8.76724

>  <SCORE.INTRA.DIHEDRAL>
23.6199

>  <SCORE.INTRA.DIHEDRAL.0>
7.52971

>  <SCORE.INTRA.POLAR>
0

>  <SCORE.INTRA.POLAR.0>
0

>  <SCORE.INTRA.REPUL>
0

>  <SCORE.INTRA.REPUL.0>
0

>  <SCORE.INTRA.SOLV>
1.09476

>  <SCORE.INTRA.SOLV.lig_0>
-22.1084

>  <SCORE.INTRA.VDW>
-3.59009

>  <SCORE.INTRA.VDW.0>
2.4256

>  <SCORE.INTRA.norm>
0.365301

>  <SCORE.RESTR>
6.15198

>  <SCORE.RESTR.CAVITY>
6.15198

>  <SCORE.RESTR.norm>
0.256333

>  <SCORE.SYSTEM>
0

>  <SCORE.SYSTEM.CONST>
0

>  <SCORE.SYSTEM.DIHEDRAL>
0

>  <SCORE.SYSTEM.SOLV>
0

>  <SCORE.SYSTEM.norm>
0

>  <SCORE.heavy>
24

>  <SCORE.norm>
-0.188666

>  <RMSD>
15.901

$$$$
lig.pdb
 OpenBabel11021811453D
libRbt.so/2013.1/901 2013/11/27
 24 24  0  0  0  0  0  0  0  0999 V2000
   -5.5985    8.9056    5.1975 C   0  0  0  0  0  0  0  0  0  0  0  0
   -4.9808    9.4975    6.3504 C   0  0  0  0  0  0  0  0  0  0  0  0
   -4.0307    8.8289    7.0855 C   0  0  0  0  0  0  0  0  0  0  0  0
   -3.5987    7.5098    6.7352 C   0  0  0  0  0  0  0  0  0  0  0  0
   -4.2407    6.9070    5.6038 C   0  0  0  0  0  0  0  0  0  0  0  0
   -5.1951    7.5705    4.8739 C   0  0  0  0  0  0  0  0  0  0  0  0
   -6.5196    9.5730    4.4418 C   0  0  0  0  0  0  0  0  0  0  0  0
   -6.6781    9.3521    3.1193 N   0  0  0  0  0  0  0  0  0  0  0  0
   -1.7831    7.4653    8.2877 N   0  0  0  0  0  0  0  0  0  0  0  0
   -2.6312    6.8516    7.4355 C   0  0  0  0  0  0  0  0  0  0  0  0
   -7.3500   10.5081    4.9662 N   0  0  0  0  0  0  0  0  0  0  0  0
   -2.4380    5.5152    7.3319 N   0  0  0  0  0  0  0  0  0  0  0  0
   -8.7361   10.7614    4.5780 C   0  0  0  0  0  0  0  0  0  0  0  0
   -1.7742    4.6624    8.3130 C   0  0  0  0  0  0  0  0  0  0  0  0
   -9.6100    9.6530    5.1870 C   0  0  0  0  0  0  0  0  0  0  0  0
   -2.7111    4.5199    9.5269 C   0  0  0  0  0  0  0  0  0  0  0  0
   -9.5535    8.3784    4.3337 C   0  0  0  0  0  0  0  0  0  0  0  0
   -3.2429    5.8747   10.0287 C   0  0  0  0  0  0  0  0  0  0  0  0
  -10.4271    8.5541    3.1180 N   0  0  0  0  0  0  0  0  0  0  0  0
   -3.3603    5.9007   11.5318 N   0  0  0  0  0  0  0  0  0  0  0  0
  -10.9001    7.2126    2.6278 C   0  0  0  0  0  0  0  0  0  0  0  0
   -4.5656    5.0963   11.9389 C   0  0  0  0  0  0  0  0  0  0  0  0
   -9.6784    9.2605    2.0151 C   0  0  0  0  0  0  0  0  0  0  0  0
   -3.5032    7.2985   12.0663 C   0  0  0  0  0  0  0  0  0  0  0  0
  1  6  2  0  0  0  0
  2  3  2  0  0  0  0
  2  1  1  0  0  0  0
  3  4  1  0  0  0  0
  4 10  1  0  0  0  0
  4  5  2  0  0  0  0
  6  5  1  0  0  0  0
  7  1  1  0  0  0  0
  7 11  1  0  0  0  0
  8  7  2  0  0  0  0
  9 10  2  0  0  0  0
 10 12  1  0  0  0  0
 12 14  1  0  0  0  0
 13 11  1  0  0  0  0
 13 15  1  0  0  0  0
 14 16  1  0  0  0  0
 16 18  1  0  0  0  0
 17 15  1  0  0  0  0
 17 19  1  0  0  0  0
 18 20  1  0  0  0  0
 19 23  1  0  0  0  0
 20 22  1  0  0  0  0
 20 24  1  0  0  0  0
 21 19  1  0  0  0  0
M  END
>  <CHROM.1>
-16.46157485,149.98662862,72.02836107,76.30308476,-80.82491700,-49.46142071
-143.50716836,-77.40770317,-153.97840538,-75.26045962,-5.58641573,7.72082631
6.55025192,-2.29701937,-0.11398149,1.93803875

>  <Name>
lig.pdb

>  <RI>
0

>  <Rbt.Current_Directory>
/home/itssahil/PROJECTS/Mol_Feturizer/New_Systems/rnas/2l94

>  <Rbt.Executable>
rbdock ($Id: //depot/dev/client3/rdock/2013.1/src/exe/rbdock.cxx#4 $)

>  <Rbt.Library>
libRbt.so (2013.1, Build901 2013/11/27)

>  <Rbt.Parameter_File>
/export/apps/rDock/src/rDock_2013.1_src/data/scripts/dock_solv.prm

>  <Rbt.Receptor>
prm/blind_docking_100.prm

>  <SCORE>
-2.38082

>  <SCORE.INTER>
-13.547

>  <SCORE.INTER.CONST>
1

>  <SCORE.INTER.POLAR>
-1.3768

>  <SCORE.INTER.ROT>
10

>  <SCORE.INTER.SOLV>
21.0046

>  <SCORE.INTER.VDW>
-21.7102

>  <SCORE.INTER.norm>
-0.564459

>  <SCORE.INTRA>
5.83471

>  <SCORE.INTRA.DIHEDRAL>
10.1063

>  <SCORE.INTRA.DIHEDRAL.0>
7.52971

>  <SCORE.INTRA.POLAR>
0

>  <SCORE.INTRA.POLAR.0>
0

>  <SCORE.INTRA.REPUL>
0

>  <SCORE.INTRA.REPUL.0>
0

>  <SCORE.INTRA.SOLV>
1.97546

>  <SCORE.INTRA.SOLV.lig_0>
-22.1084

>  <SCORE.INTRA.VDW>
-0.20617

>  <SCORE.INTRA.VDW.0>
2.4256

>  <SCORE.INTRA.norm>
0.243113

>  <SCORE.RESTR>
5.33149

>  <SCORE.RESTR.CAVITY>
5.33149

>  <SCORE.RESTR.norm>
0.222145

>  <SCORE.SYSTEM>
0

>  <SCORE.SYSTEM.CONST>
0

>  <SCORE.SYSTEM.DIHEDRAL>
0

>  <SCORE.SYSTEM.SOLV>
0

>  <SCORE.SYSTEM.norm>
0

>  <SCORE.heavy>
24

>  <SCORE.norm>
-0.0992006

>  <RMSD>
15.927

$$$$
lig.pdb
 OpenBabel11021811453D
libRbt.so/2013.1/901 2013/11/27
 24 24  0  0  0  0  0  0  0  0999 V2000
   -5.7583    8.9074    4.4988 C   0  0  0  0  0  0  0  0  0  0  0  0
   -5.8474    7.4768    4.5782 C   0  0  0  0  0  0  0  0  0  0  0  0
   -4.9799    6.7396    5.3490 C   0  0  0  0  0  0  0  0  0  0  0  0
   -3.9468    7.3596    6.1221 C   0  0  0  0  0  0  0  0  0  0  0  0
   -3.8378    8.7853    6.0153 C   0  0  0  0  0  0  0  0  0  0  0  0
   -4.6982    9.5215    5.2398 C   0  0  0  0  0  0  0  0  0  0  0  0
   -6.6345    9.6516    3.7617 C   0  0  0  0  0  0  0  0  0  0  0  0
   -6.7155    9.5653    2.4167 N   0  0  0  0  0  0  0  0  0  0  0  0
   -1.7893    6.9182    7.0485 N   0  0  0  0  0  0  0  0  0  0  0  0
   -3.1041    6.6417    6.9183 C   0  0  0  0  0  0  0  0  0  0  0  0
   -7.4949   10.5336    4.3281 N   0  0  0  0  0  0  0  0  0  0  0  0
   -3.5199    5.5807    7.6500 N   0  0  0  0  0  0  0  0  0  0  0  0
   -8.8564   10.8313    3.8875 C   0  0  0  0  0  0  0  0  0  0  0  0
   -2.8561    5.0350    8.8299 C   0  0  0  0  0  0  0  0  0  0  0  0
   -9.4020    9.5917    3.1604 C   0  0  0  0  0  0  0  0  0  0  0  0
   -3.8894    4.9788    9.9705 C   0  0  0  0  0  0  0  0  0  0  0  0
  -10.1068    8.6454    4.1422 C   0  0  0  0  0  0  0  0  0  0  0  0
   -3.4544    5.7873   11.2062 C   0  0  0  0  0  0  0  0  0  0  0  0
   -9.0733    7.8314    4.8780 N   0  0  0  0  0  0  0  0  0  0  0  0
   -3.6981    7.2631   11.0160 N   0  0  0  0  0  0  0  0  0  0  0  0
   -9.6898    6.5557    5.3839 C   0  0  0  0  0  0  0  0  0  0  0  0
   -3.1498    8.0033   12.2063 C   0  0  0  0  0  0  0  0  0  0  0  0
   -8.4999    8.6101    6.0359 C   0  0  0  0  0  0  0  0  0  0  0  0
   -5.1598    7.5836   10.8727 C   0  0  0  0  0  0  0  0  0  0  0  0
  1  6  2  0  0  0  0
  2  3  2  0  0  0  0
  2  1  1  0  0  0  0
  3  4  1  0  0  0  0
  4 10  1  0  0  0  0
  4  5  2  0  0  0  0
  6  5  1  0  0  0  0
  7  1  1  0  0  0  0
  7 11  1  0  0  0  0
  8  7  2  0  0  0  0
  9 10  2  0  0  0  0
 10 12  1  0  0  0  0
 12 14  1  0  0  0  0
 13 11  1  0  0  0  0
 13 15  1  0  0  0  0
 14 16  1  0  0  0  0
 16 18  1  0  0  0  0
 17 15  1  0  0  0  0
 17 19  1  0  0  0  0
 18 20  1  0  0  0  0
 19 23  1  0  0  0  0
 20 22  1  0  0  0  0
 20 24  1  0  0  0  0
 21 19  1  0  0  0  0
M  END
>  <CHROM.1>
141.17224889,-64.97418216,126.17424983,26.67804302,89.92538036,-121.79349062
79.09854925,-79.74967304,-156.44115280,-175.38874783,-5.69555230,7.84253035
6.52664195,-2.22795353,-0.13884298,1.89572723

>  <Name>
lig.pdb

>  <RI>
0

>  <Rbt.Current_Directory>
/home/itssahil/PROJECTS/Mol_Feturizer/New_Systems/rnas/2l94

>  <Rbt.Executable>
rbdock ($Id: //depot/dev/client3/rdock/2013.1/src/exe/rbdock.cxx#4 $)

>  <Rbt.Library>
libRbt.so (2013.1, Build901 2013/11/27)

>  <Rbt.Parameter_File>
/export/apps/rDock/src/rDock_2013.1_src/data/scripts/dock_solv.prm

>  <Rbt.Receptor>
prm/blind_docking_100.prm

>  <SCORE>
-3.60139

>  <SCORE.INTER>
-22.8717

>  <SCORE.INTER.CONST>
1

>  <SCORE.INTER.POLAR>
-3.42491

>  <SCORE.INTER.ROT>
10

>  <SCORE.INTER.SOLV>
20.1955

>  <SCORE.INTER.VDW>
-20.8299

>  <SCORE.INTER.norm>
-0.952987

>  <SCORE.INTRA>
12.8898

>  <SCORE.INTRA.DIHEDRAL>
24.7863

>  <SCORE.INTRA.DIHEDRAL.0>
7.52971

>  <SCORE.INTRA.POLAR>
0

>  <SCORE.INTRA.POLAR.0>
0

>  <SCORE.INTRA.REPUL>
0

>  <SCORE.INTRA.REPUL.0>
0

>  <SCORE.INTRA.SOLV>
2.14287

>  <SCORE.INTRA.SOLV.lig_0>
-22.1084

>  <SCORE.INTRA.VDW>
-0.574731

>  <SCORE.INTRA.VDW.0>
2.4256

>  <SCORE.INTRA.norm>
0.537076

>  <SCORE.RESTR>
6.38046

>  <SCORE.RESTR.CAVITY>
6.38046

>  <SCORE.RESTR.norm>
0.265852

>  <SCORE.SYSTEM>
0

>  <SCORE.SYSTEM.CONST>
0

>  <SCORE.SYSTEM.DIHEDRAL>
0

>  <SCORE.SYSTEM.SOLV>
0

>  <SCORE.SYSTEM.norm>
0

>  <SCORE.heavy>
24

>  <SCORE.norm>
-0.150058

>  <RMSD>
15.990

$$$$
lig.pdb
 OpenBabel11021811453D
libRbt.so/2013.1/901 2013/11/27
 24 24  0  0  0  0  0  0  0  0999 V2000
   -3.9143    7.2575    5.9633 C   0  0  0  0  0  0  0  0  0  0  0  0
   -3.7040    8.6776    5.9797 C   0  0  0  0  0  0  0  0  0  0  0  0
   -4.5876    9.5467    5.3847 C   0  0  0  0  0  0  0  0  0  0  0  0
   -5.7706    9.0833    4.7251 C   0  0  0  0  0  0  0  0  0  0  0  0
   -5.9619    7.6630    4.6803 C   0  0  0  0  0  0  0  0  0  0  0  0
   -5.0763    6.7939    5.2669 C   0  0  0  0  0  0  0  0  0  0  0  0
   -3.0599    6.3878    6.5785 C   0  0  0  0  0  0  0  0  0  0  0  0
   -1.7290    6.3869    6.3513 N   0  0  0  0  0  0  0  0  0  0  0  0
   -6.9284    9.9830    2.8387 N   0  0  0  0  0  0  0  0  0  0  0  0
   -6.6722    9.9383    4.1633 C   0  0  0  0  0  0  0  0  0  0  0  0
   -3.4856    5.4590    7.4703 N   0  0  0  0  0  0  0  0  0  0  0  0
   -7.3909   10.8232    4.8944 N   0  0  0  0  0  0  0  0  0  0  0  0
   -2.7736    5.0017    8.6620 C   0  0  0  0  0  0  0  0  0  0  0  0
   -8.6500   11.4461    4.4979 C   0  0  0  0  0  0  0  0  0  0  0  0
   -2.2760    6.2413    9.4228 C   0  0  0  0  0  0  0  0  0  0  0  0
   -9.7621   10.3886    4.6263 C   0  0  0  0  0  0  0  0  0  0  0  0
   -3.4045    6.8630   10.2570 C   0  0  0  0  0  0  0  0  0  0  0  0
   -9.3477    9.0190    4.0585 C   0  0  0  0  0  0  0  0  0  0  0  0
   -3.5189    6.1267   11.5672 N   0  0  0  0  0  0  0  0  0  0  0  0
  -10.5494    8.1714    3.7254 N   0  0  0  0  0  0  0  0  0  0  0  0
   -4.7463    5.2567   11.5615 C   0  0  0  0  0  0  0  0  0  0  0  0
  -10.4366    6.8603    4.4559 C   0  0  0  0  0  0  0  0  0  0  0  0
   -3.5895    7.0936   12.7231 C   0  0  0  0  0  0  0  0  0  0  0  0
  -10.6624    7.9005    2.2510 C   0  0  0  0  0  0  0  0  0  0  0  0
  1  6  2  0  0  0  0
  2  3  2  0  0  0  0
  2  1  1  0  0  0  0
  3  4  1  0  0  0  0
  4 10  1  0  0  0  0
  4  5  2  0  0  0  0
  6  5  1  0  0  0  0
  7  1  1  0  0  0  0
  7 11  1  0  0  0  0
  8  7  2  0  0  0  0
  9 10  2  0  0  0  0
 10 12  1  0  0  0  0
 12 14  1  0  0  0  0
 13 11  1  0  0  0  0
 13 15  1  0  0  0  0
 14 16  1  0  0  0  0
 16 18  1  0  0  0  0
 17 15  1  0  0  0  0
 17 19  1  0  0  0  0
 18 20  1  0  0  0  0
 19 23  1  0  0  0  0
 20 22  1  0  0  0  0
 20 24  1  0  0  0  0
 21 19  1  0  0  0  0
M  END
>  <CHROM.1>
115.56423867,-52.76234702,74.78803154,47.72112859,80.12888864,-44.12934527
-159.06351155,83.06741673,-106.42499911,-124.41899404,-5.78971394,7.82527524
6.37622029,-0.85775350,0.10121306,-1.18779830

>  <Name>
lig.pdb

>  <RI>
0

>  <Rbt.Current_Directory>
/home/itssahil/PROJECTS/Mol_Feturizer/New_Systems/rnas/2l94

>  <Rbt.Executable>
rbdock ($Id: //depot/dev/client3/rdock/2013.1/src/exe/rbdock.cxx#4 $)

>  <Rbt.Library>
libRbt.so (2013.1, Build901 2013/11/27)

>  <Rbt.Parameter_File>
/export/apps/rDock/src/rDock_2013.1_src/data/scripts/dock_solv.prm

>  <Rbt.Receptor>
prm/blind_docking_100.prm

>  <SCORE>
-3.0279

>  <SCORE.INTER>
-20.2433

>  <SCORE.INTER.CONST>
1

>  <SCORE.INTER.POLAR>
-2.28817

>  <SCORE.INTER.ROT>
10

>  <SCORE.INTER.SOLV>
21.0988

>  <SCORE.INTER.VDW>
-23.1679

>  <SCORE.INTER.norm>
-0.843469

>  <SCORE.INTRA>
11.5979

>  <SCORE.INTRA.DIHEDRAL>
28.1035

>  <SCORE.INTRA.DIHEDRAL.0>
7.52971

>  <SCORE.INTRA.POLAR>
0

>  <SCORE.INTRA.POLAR.0>
0

>  <SCORE.INTRA.REPUL>
0

>  <SCORE.INTRA.REPUL.0>
0

>  <SCORE.INTRA.SOLV>
1.15691

>  <SCORE.INTRA.SOLV.lig_0>
-22.1084

>  <SCORE.INTRA.VDW>
-3.03231

>  <SCORE.INTRA.VDW.0>
2.4256

>  <SCORE.INTRA.norm>
0.483246

>  <SCORE.RESTR>
5.61746

>  <SCORE.RESTR.CAVITY>
5.61746

>  <SCORE.RESTR.norm>
0.234061

>  <SCORE.SYSTEM>
0

>  <SCORE.SYSTEM.CONST>
0

>  <SCORE.SYSTEM.DIHEDRAL>
0

>  <SCORE.SYSTEM.SOLV>
0

>  <SCORE.SYSTEM.norm>
0

>  <SCORE.heavy>
24

>  <SCORE.norm>
-0.126162

>  <RMSD>
15.997

$$$$
lig.pdb
 OpenBabel11021811453D
libRbt.so/2013.1/901 2013/11/27
 24 24  0  0  0  0  0  0  0  0999 V2000
   -3.2244    6.1246    7.7845 C   0  0  0  0  0  0  0  0  0  0  0  0
   -2.6906    7.4545    7.6984 C   0  0  0  0  0  0  0  0  0  0  0  0
   -3.1952    8.3809    6.8167 C   0  0  0  0  0  0  0  0  0  0  0  0
   -4.2870    8.0725    5.9436 C   0  0  0  0  0  0  0  0  0  0  0  0
   -4.7968    6.7339    6.0070 C   0  0  0  0  0  0  0  0  0  0  0  0
   -4.2885    5.8058    6.8811 C   0  0  0  0  0  0  0  0  0  0  0  0
   -2.7519    5.2070    8.6786 C   0  0  0  0  0  0  0  0  0  0  0  0
   -1.4960    5.2474    9.1728 N   0  0  0  0  0  0  0  0  0  0  0  0
   -4.1736   10.1188    4.7156 N   0  0  0  0  0  0  0  0  0  0  0  0
   -4.8191    8.9944    5.0911 C   0  0  0  0  0  0  0  0  0  0  0  0
   -3.5131    4.1847    9.1420 N   0  0  0  0  0  0  0  0  0  0  0  0
   -6.0515    8.8577    4.5467 N   0  0  0  0  0  0  0  0  0  0  0  0
   -3.4850    3.6152   10.4878 C   0  0  0  0  0  0  0  0  0  0  0  0
   -6.5327    9.5066    3.3311 C   0  0  0  0  0  0  0  0  0  0  0  0
   -3.3250    4.7705   11.4891 C   0  0  0  0  0  0  0  0  0  0  0  0
   -7.7048   10.4274    3.7185 C   0  0  0  0  0  0  0  0  0  0  0  0
   -4.5927    5.6346   11.5374 C   0  0  0  0  0  0  0  0  0  0  0  0
   -9.0773    9.8092    3.3960 C   0  0  0  0  0  0  0  0  0  0  0  0
   -4.4002    6.7455   12.5377 N   0  0  0  0  0  0  0  0  0  0  0  0
   -9.2114    8.4249    3.9784 N   0  0  0  0  0  0  0  0  0  0  0  0
   -5.7275    7.3688   12.8741 C   0  0  0  0  0  0  0  0  0  0  0  0
  -10.3532    7.7196    3.2968 C   0  0  0  0  0  0  0  0  0  0  0  0
   -3.4682    7.8012   11.9964 C   0  0  0  0  0  0  0  0  0  0  0  0
   -9.4699    8.4540    5.4590 C   0  0  0  0  0  0  0  0  0  0  0  0
  1  6  2  0  0  0  0
  2  3  2  0  0  0  0
  2  1  1  0  0  0  0
  3  4  1  0  0  0  0
  4 10  1  0  0  0  0
  4  5  2  0  0  0  0
  6  5  1  0  0  0  0
  7  1  1  0  0  0  0
  7 11  1  0  0  0  0
  8  7  2  0  0  0  0
  9 10  2  0  0  0  0
 10 12  1  0  0  0  0
 12 14  1  0  0  0  0
 13 11  1  0  0  0  0
 13 15  1  0  0  0  0
 14 16  1  0  0  0  0
 16 18  1  0  0  0  0
 17 15  1  0  0  0  0
 17 19  1  0  0  0  0
 18 20  1  0  0  0  0
 19 23  1  0  0  0  0
 20 22  1  0  0  0  0
 20 24  1  0  0  0  0
 21 19  1  0  0  0  0
M  END
>  <CHROM.1>
18.95551686,-25.83596723,-117.08968956,39.67166907,69.10898046,-101.25661556
52.23114273,179.47352402,-164.80333846,-162.75476661,-5.16074050,7.32304808
7.38694374,-1.04032276,0.17414998,-1.21286721

>  <Name>
lig.pdb

>  <RI>
0

>  <Rbt.Current_Directory>
/home/itssahil/PROJECTS/Mol_Feturizer/New_Systems/rnas/2l94

>  <Rbt.Executable>
rbdock ($Id: //depot/dev/client3/rdock/2013.1/src/exe/rbdock.cxx#4 $)

>  <Rbt.Library>
libRbt.so (2013.1, Build901 2013/11/27)

>  <Rbt.Parameter_File>
/export/apps/rDock/src/rDock_2013.1_src/data/scripts/dock_solv.prm

>  <Rbt.Receptor>
prm/blind_docking_100.prm

>  <SCORE>
-3.71895

>  <SCORE.INTER>
-12.2462

>  <SCORE.INTER.CONST>
1

>  <SCORE.INTER.POLAR>
-1.79013

>  <SCORE.INTER.ROT>
10

>  <SCORE.INTER.SOLV>
18.7277

>  <SCORE.INTER.VDW>
-18.7063

>  <SCORE.INTER.norm>
-0.51026

>  <SCORE.INTRA>
1.83447

>  <SCORE.INTRA.DIHEDRAL>
6.98465

>  <SCORE.INTRA.DIHEDRAL.0>
7.52971

>  <SCORE.INTRA.POLAR>
0

>  <SCORE.INTRA.POLAR.0>
0

>  <SCORE.INTRA.REPUL>
0

>  <SCORE.INTRA.REPUL.0>
0

>  <SCORE.INTRA.SOLV>
1.35015

>  <SCORE.INTRA.SOLV.lig_0>
-22.1084

>  <SCORE.INTRA.VDW>
-2.33293

>  <SCORE.INTRA.VDW.0>
2.4256

>  <SCORE.INTRA.norm>
0.0764364

>  <SCORE.RESTR>
6.69282

>  <SCORE.RESTR.CAVITY>
6.69282

>  <SCORE.RESTR.norm>
0.278868

>  <SCORE.SYSTEM>
0

>  <SCORE.SYSTEM.CONST>
0

>  <SCORE.SYSTEM.DIHEDRAL>
0

>  <SCORE.SYSTEM.SOLV>
0

>  <SCORE.SYSTEM.norm>
0

>  <SCORE.heavy>
24

>  <SCORE.norm>
-0.154956

>  <RMSD>
15.997

$$$$
lig.pdb
 OpenBabel11021811453D
libRbt.so/2013.1/901 2013/11/27
 24 24  0  0  0  0  0  0  0  0999 V2000
   -3.1497    5.9932    7.8631 C   0  0  0  0  0  0  0  0  0  0  0  0
   -2.6068    7.3152    7.7267 C   0  0  0  0  0  0  0  0  0  0  0  0
   -3.1394    8.2290    6.8484 C   0  0  0  0  0  0  0  0  0  0  0  0
   -4.2706    7.9149    6.0293 C   0  0  0  0  0  0  0  0  0  0  0  0
   -4.7907    6.5835    6.1421 C   0  0  0  0  0  0  0  0  0  0  0  0
   -4.2548    5.6678    7.0127 C   0  0  0  0  0  0  0  0  0  0  0  0
   -2.6486    5.0887    8.7551 C   0  0  0  0  0  0  0  0  0  0  0  0
   -1.3248    4.9260    8.9653 N   0  0  0  0  0  0  0  0  0  0  0  0
   -4.2291    9.9829    4.8334 N   0  0  0  0  0  0  0  0  0  0  0  0
   -4.8295    8.8250    5.1814 C   0  0  0  0  0  0  0  0  0  0  0  0
   -3.4463    4.2860    9.5023 N   0  0  0  0  0  0  0  0  0  0  0  0
   -6.0454    8.6418    4.6139 N   0  0  0  0  0  0  0  0  0  0  0  0
   -3.2064    3.8519   10.8771 C   0  0  0  0  0  0  0  0  0  0  0  0
   -6.5352    9.2872    3.3998 C   0  0  0  0  0  0  0  0  0  0  0  0
   -3.8798    4.8632   11.8188 C   0  0  0  0  0  0  0  0  0  0  0  0
   -7.5529   10.3659    3.8151 C   0  0  0  0  0  0  0  0  0  0  0  0
   -3.4845    6.3007   11.4535 C   0  0  0  0  0  0  0  0  0  0  0  0
   -8.6825    9.8076    4.6995 C   0  0  0  0  0  0  0  0  0  0  0  0
   -3.4575    7.1426   12.7035 N   0  0  0  0  0  0  0  0  0  0  0  0
   -9.9383    9.5601    3.9026 N   0  0  0  0  0  0  0  0  0  0  0  0
   -4.8242    7.1727   13.3316 C   0  0  0  0  0  0  0  0  0  0  0  0
   -9.6291    8.5842    2.7992 C   0  0  0  0  0  0  0  0  0  0  0  0
   -3.0117    8.5503   12.3943 C   0  0  0  0  0  0  0  0  0  0  0  0
  -10.4858   10.8229    3.2981 C   0  0  0  0  0  0  0  0  0  0  0  0
  1  6  2  0  0  0  0
  2  3  2  0  0  0  0
  2  1  1  0  0  0  0
  3  4  1  0  0  0  0
  4 10  1  0  0  0  0
  4  5  2  0  0  0  0
  6  5  1  0  0  0  0
  7  1  1  0  0  0  0
  7 11  1  0  0  0  0
  8  7  2  0  0  0  0
  9 10  2  0  0  0  0
 10 12  1  0  0  0  0
 12 14  1  0  0  0  0
 13 11  1  0  0  0  0
 13 15  1  0  0  0  0
 14 16  1  0  0  0  0
 16 18  1  0  0  0  0
 17 15  1  0  0  0  0
 17 19  1  0  0  0  0
 18 20  1  0  0  0  0
 19 23  1  0  0  0  0
 20 22  1  0  0  0  0
 20 24  1  0  0  0  0
 21 19  1  0  0  0  0
M  END
>  <CHROM.1>
13.86839720,-41.39136888,-105.42070155,91.58802739,-50.05985010,-54.44802065
-100.15375719,-148.24379854,-61.21545633,58.86164333,-5.02823313,7.52040376
7.43913095,-0.89745106,0.55611234,-1.48985792

>  <Name>
lig.pdb

>  <RI>
0

>  <Rbt.Current_Directory>
/home/itssahil/PROJECTS/Mol_Feturizer/New_Systems/rnas/2l94

>  <Rbt.Executable>
rbdock ($Id: //depot/dev/client3/rdock/2013.1/src/exe/rbdock.cxx#4 $)

>  <Rbt.Library>
libRbt.so (2013.1, Build901 2013/11/27)

>  <Rbt.Parameter_File>
/export/apps/rDock/src/rDock_2013.1_src/data/scripts/dock_solv.prm

>  <Rbt.Receptor>
prm/blind_docking_100.prm

>  <SCORE>
3.24141

>  <SCORE.INTER>
-9.95019

>  <SCORE.INTER.CONST>
1

>  <SCORE.INTER.POLAR>
-1.40202

>  <SCORE.INTER.ROT>
10

>  <SCORE.INTER.SOLV>
19.7458

>  <SCORE.INTER.VDW>
-18.8087

>  <SCORE.INTER.norm>
-0.414591

>  <SCORE.INTRA>
7.72469

>  <SCORE.INTRA.DIHEDRAL>
11.3154

>  <SCORE.INTRA.DIHEDRAL.0>
7.52971

>  <SCORE.INTRA.POLAR>
0

>  <SCORE.INTRA.POLAR.0>
0

>  <SCORE.INTRA.REPUL>
0

>  <SCORE.INTRA.REPUL.0>
0

>  <SCORE.INTRA.SOLV>
0.847076

>  <SCORE.INTRA.SOLV.lig_0>
-22.1084

>  <SCORE.INTRA.VDW>
1.64345

>  <SCORE.INTRA.VDW.0>
2.4256

>  <SCORE.INTRA.norm>
0.321862

>  <SCORE.RESTR>
5.46691

>  <SCORE.RESTR.CAVITY>
5.46691

>  <SCORE.RESTR.norm>
0.227788

>  <SCORE.SYSTEM>
0

>  <SCORE.SYSTEM.CONST>
0

>  <SCORE.SYSTEM.DIHEDRAL>
0

>  <SCORE.SYSTEM.SOLV>
0

>  <SCORE.SYSTEM.norm>
0

>  <SCORE.heavy>
24

>  <SCORE.norm>
0.135059

>  <RMSD>
16.006

$$$$
lig.pdb
 OpenBabel11021811453D
libRbt.so/2013.1/901 2013/11/27
 24 24  0  0  0  0  0  0  0  0999 V2000
   -5.8472    9.0343    4.5588 C   0  0  0  0  0  0  0  0  0  0  0  0
   -5.9902    7.6059    4.5497 C   0  0  0  0  0  0  0  0  0  0  0  0
   -5.0886    6.7844    5.1841 C   0  0  0  0  0  0  0  0  0  0  0  0
   -3.9635    7.3097    5.8966 C   0  0  0  0  0  0  0  0  0  0  0  0
   -3.8034    8.7344    5.8764 C   0  0  0  0  0  0  0  0  0  0  0  0
   -4.6984    9.5549    5.2365 C   0  0  0  0  0  0  0  0  0  0  0  0
   -6.7540    9.8607    3.9592 C   0  0  0  0  0  0  0  0  0  0  0  0
   -7.0093    9.8266    2.6337 N   0  0  0  0  0  0  0  0  0  0  0  0
   -1.7578    6.4876    6.3056 N   0  0  0  0  0  0  0  0  0  0  0  0
   -3.0834    6.5066    6.5599 C   0  0  0  0  0  0  0  0  0  0  0  0
   -7.4718   10.7781    4.6535 N   0  0  0  0  0  0  0  0  0  0  0  0
   -3.4700    5.6521    7.5368 N   0  0  0  0  0  0  0  0  0  0  0  0
   -8.8533   11.1815    4.3983 C   0  0  0  0  0  0  0  0  0  0  0  0
   -2.6167    5.0971    8.5829 C   0  0  0  0  0  0  0  0  0  0  0  0
   -9.7751   10.0492    4.8789 C   0  0  0  0  0  0  0  0  0  0  0  0
   -3.4830    4.8887    9.8391 C   0  0  0  0  0  0  0  0  0  0  0  0
   -9.4291    8.7264    4.1814 C   0  0  0  0  0  0  0  0  0  0  0  0
   -3.5476    6.1421   10.7305 C   0  0  0  0  0  0  0  0  0  0  0  0
   -9.9566    7.5777    5.0025 N   0  0  0  0  0  0  0  0  0  0  0  0
   -4.2897    5.8703   12.0146 N   0  0  0  0  0  0  0  0  0  0  0  0
   -8.8166    6.8586    5.6709 C   0  0  0  0  0  0  0  0  0  0  0  0
   -4.5245    7.1760   12.7257 C   0  0  0  0  0  0  0  0  0  0  0  0
  -10.7290    6.6102    4.1403 C   0  0  0  0  0  0  0  0  0  0  0  0
   -3.5292    4.9480   12.9261 C   0  0  0  0  0  0  0  0  0  0  0  0
  1  6  2  0  0  0  0
  2  3  2  0  0  0  0
  2  1  1  0  0  0  0
  3  4  1  0  0  0  0
  4 10  1  0  0  0  0
  4  5  2  0  0  0  0
  6  5  1  0  0  0  0
  7  1  1  0  0  0  0
  7 11  1  0  0  0  0
  8  7  2  0  0  0  0
  9 10  2  0  0  0  0
 10 12  1  0  0  0  0
 12 14  1  0  0  0  0
 13 11  1  0  0  0  0
 13 15  1  0  0  0  0
 14 16  1  0  0  0  0
 16 18  1  0  0  0  0
 17 15  1  0  0  0  0
 17 19  1  0  0  0  0
 18 20  1  0  0  0  0
 19 23  1  0  0  0  0
 20 22  1  0  0  0  0
 20 24  1  0  0  0  0
 21 19  1  0  0  0  0
M  END
>  <CHROM.1>
122.48464838,-61.55993668,148.21222182,74.36869986,-57.13239372,-87.55223446
-174.51889095,159.09272483,-107.59503984,-170.33473718,-5.80831971,7.60609849
6.64460116,-2.19071634,-0.12451064,1.97738062

>  <Name>
lig.pdb

>  <RI>
0

>  <Rbt.Current_Directory>
/home/itssahil/PROJECTS/Mol_Feturizer/New_Systems/rnas/2l94

>  <Rbt.Executable>
rbdock ($Id: //depot/dev/client3/rdock/2013.1/src/exe/rbdock.cxx#4 $)

>  <Rbt.Library>
libRbt.so (2013.1, Build901 2013/11/27)

>  <Rbt.Parameter_File>
/export/apps/rDock/src/rDock_2013.1_src/data/scripts/dock_solv.prm

>  <Rbt.Receptor>
prm/blind_docking_100.prm

>  <SCORE>
-0.838267

>  <SCORE.INTER>
-16.6764

>  <SCORE.INTER.CONST>
1

>  <SCORE.INTER.POLAR>
-1.94928

>  <SCORE.INTER.ROT>
10

>  <SCORE.INTER.SOLV>
18.5293

>  <SCORE.INTER.VDW>
-21.0631

>  <SCORE.INTER.norm>
-0.694849

>  <SCORE.INTRA>
8.88508

>  <SCORE.INTRA.DIHEDRAL>
23.7861

>  <SCORE.INTRA.DIHEDRAL.0>
7.52971

>  <SCORE.INTRA.POLAR>
0

>  <SCORE.INTRA.POLAR.0>
0

>  <SCORE.INTRA.REPUL>
0

>  <SCORE.INTRA.REPUL.0>
0

>  <SCORE.INTRA.SOLV>
0.678846

>  <SCORE.INTRA.SOLV.lig_0>
-22.1084

>  <SCORE.INTRA.VDW>
-3.34738

>  <SCORE.INTRA.VDW.0>
2.4256

>  <SCORE.INTRA.norm>
0.370212

>  <SCORE.RESTR>
6.95303

>  <SCORE.RESTR.CAVITY>
6.95303

>  <SCORE.RESTR.norm>
0.28971

>  <SCORE.SYSTEM>
0

>  <SCORE.SYSTEM.CONST>
0

>  <SCORE.SYSTEM.DIHEDRAL>
0

>  <SCORE.SYSTEM.SOLV>
0

>  <SCORE.SYSTEM.norm>
0

>  <SCORE.heavy>
24

>  <SCORE.norm>
-0.0349278

>  <RMSD>
16.019

$$$$
lig.pdb
 OpenBabel11021811453D
libRbt.so/2013.1/901 2013/11/27
 24 24  0  0  0  0  0  0  0  0999 V2000
   -3.0980    5.8962    7.9323 C   0  0  0  0  0  0  0  0  0  0  0  0
   -2.5656    7.2240    7.8107 C   0  0  0  0  0  0  0  0  0  0  0  0
   -3.0971    8.1390    6.9331 C   0  0  0  0  0  0  0  0  0  0  0  0
   -4.2167    7.8205    6.0998 C   0  0  0  0  0  0  0  0  0  0  0  0
   -4.7259    6.4838    6.1979 C   0  0  0  0  0  0  0  0  0  0  0  0
   -4.1910    5.5669    7.0679 C   0  0  0  0  0  0  0  0  0  0  0  0
   -2.5982    4.9901    8.8233 C   0  0  0  0  0  0  0  0  0  0  0  0
   -1.2786    4.7274    8.9360 N   0  0  0  0  0  0  0  0  0  0  0  0
   -4.2509    9.9549    5.0267 N   0  0  0  0  0  0  0  0  0  0  0  0
   -4.7748    8.7314    5.2522 C   0  0  0  0  0  0  0  0  0  0  0  0
   -3.3926    4.2866    9.6677 N   0  0  0  0  0  0  0  0  0  0  0  0
   -5.9125    8.4825    4.5612 N   0  0  0  0  0  0  0  0  0  0  0  0
   -3.0755    3.8899   11.0382 C   0  0  0  0  0  0  0  0  0  0  0  0
   -6.3450    9.1587    3.3420 C   0  0  0  0  0  0  0  0  0  0  0  0
   -3.8202    4.8383   11.9915 C   0  0  0  0  0  0  0  0  0  0  0  0
   -7.6096    9.9720    3.6753 C   0  0  0  0  0  0  0  0  0  0  0  0
   -3.6104    6.3030   11.5832 C   0  0  0  0  0  0  0  0  0  0  0  0
   -8.7471    9.0985    4.2347 C   0  0  0  0  0  0  0  0  0  0  0  0
   -3.4667    7.1496   12.8219 N   0  0  0  0  0  0  0  0  0  0  0  0
  -10.0996    9.6121    3.8096 N   0  0  0  0  0  0  0  0  0  0  0  0
   -4.7311    7.0884   13.6349 C   0  0  0  0  0  0  0  0  0  0  0  0
  -10.2345    9.4493    2.3194 C   0  0  0  0  0  0  0  0  0  0  0  0
   -3.1658    8.5833   12.4616 C   0  0  0  0  0  0  0  0  0  0  0  0
  -10.2936   11.0606    4.1619 C   0  0  0  0  0  0  0  0  0  0  0  0
  1  6  2  0  0  0  0
  2  3  2  0  0  0  0
  2  1  1  0  0  0  0
  3  4  1  0  0  0  0
  4 10  1  0  0  0  0
  4  5  2  0  0  0  0
  6  5  1  0  0  0  0
  7  1  1  0  0  0  0
  7 11  1  0  0  0  0
  8  7  2  0  0  0  0
  9 10  2  0  0  0  0
 10 12  1  0  0  0  0
 12 14  1  0  0  0  0
 13 11  1  0  0  0  0
 13 15  1  0  0  0  0
 14 16  1  0  0  0  0
 16 18  1  0  0  0  0
 17 15  1  0  0  0  0
 17 19  1  0  0  0  0
 18 20  1  0  0  0  0
 19 23  1  0  0  0  0
 20 22  1  0  0  0  0
 20 24  1  0  0  0  0
 21 19  1  0  0  0  0
M  END
>  <CHROM.1>
6.69761636,-49.28636211,-113.07308131,102.51718252,-48.43283452,-57.95032814
-146.27568798,-141.71827801,-62.47127944,66.53433302,-5.02625500,7.47256163
7.49854875,-0.88698997,0.57045089,-1.51018518

>  <Name>
lig.pdb

>  <RI>
0

>  <Rbt.Current_Directory>
/home/itssahil/PROJECTS/Mol_Feturizer/New_Systems/rnas/2l94

>  <Rbt.Executable>
rbdock ($Id: //depot/dev/client3/rdock/2013.1/src/exe/rbdock.cxx#4 $)

>  <Rbt.Library>
libRbt.so (2013.1, Build901 2013/11/27)

>  <Rbt.Parameter_File>
/export/apps/rDock/src/rDock_2013.1_src/data/scripts/dock_solv.prm

>  <Rbt.Receptor>
prm/blind_docking_100.prm

>  <SCORE>
1.98752

>  <SCORE.INTER>
-11.7347

>  <SCORE.INTER.CONST>
1

>  <SCORE.INTER.POLAR>
-1.43788

>  <SCORE.INTER.ROT>
10

>  <SCORE.INTER.SOLV>
19.5998

>  <SCORE.INTER.VDW>
-19.8302

>  <SCORE.INTER.norm>
-0.488947

>  <SCORE.INTRA>
7.66501

>  <SCORE.INTRA.DIHEDRAL>
12.6646

>  <SCORE.INTRA.DIHEDRAL.0>
7.52971

>  <SCORE.INTRA.POLAR>
0

>  <SCORE.INTRA.POLAR.0>
0

>  <SCORE.INTRA.REPUL>
0

>  <SCORE.INTRA.REPUL.0>
0

>  <SCORE.INTRA.SOLV>
0.481887

>  <SCORE.INTRA.SOLV.lig_0>
-22.1084

>  <SCORE.INTRA.VDW>
1.09176

>  <SCORE.INTRA.VDW.0>
2.4256

>  <SCORE.INTRA.norm>
0.319375

>  <SCORE.RESTR>
6.05724

>  <SCORE.RESTR.CAVITY>
6.05724

>  <SCORE.RESTR.norm>
0.252385

>  <SCORE.SYSTEM>
0

>  <SCORE.SYSTEM.CONST>
0

>  <SCORE.SYSTEM.DIHEDRAL>
0

>  <SCORE.SYSTEM.SOLV>
0

>  <SCORE.SYSTEM.norm>
0

>  <SCORE.heavy>
24

>  <SCORE.norm>
0.0828132

>  <RMSD>
16.025

$$$$
lig.pdb
 OpenBabel11021811453D
libRbt.so/2013.1/901 2013/11/27
 24 24  0  0  0  0  0  0  0  0999 V2000
   -6.6435    8.6861    6.5409 C   0  0  0  0  0  0  0  0  0  0  0  0
   -7.3747    7.6462    5.8737 C   0  0  0  0  0  0  0  0  0  0  0  0
   -6.7458    6.5427    5.3475 C   0  0  0  0  0  0  0  0  0  0  0  0
   -5.3286    6.3660    5.4452 C   0  0  0  0  0  0  0  0  0  0  0  0
   -4.5959    7.4212    6.0819 C   0  0  0  0  0  0  0  0  0  0  0  0
   -5.2217    8.5272    6.6004 C   0  0  0  0  0  0  0  0  0  0  0  0
   -7.2615    9.7704    7.0949 C   0  0  0  0  0  0  0  0  0  0  0  0
   -6.6175   10.6521    7.8892 N   0  0  0  0  0  0  0  0  0  0  0  0
   -3.4305    4.9245    5.2788 N   0  0  0  0  0  0  0  0  0  0  0  0
   -4.6987    5.2584    4.9591 C   0  0  0  0  0  0  0  0  0  0  0  0
   -8.5726   10.0461    6.8847 N   0  0  0  0  0  0  0  0  0  0  0  0
   -5.2985    4.3943    4.1061 N   0  0  0  0  0  0  0  0  0  0  0  0
   -9.1770   11.3707    6.7569 C   0  0  0  0  0  0  0  0  0  0  0  0
   -4.9170    3.0038    3.8792 C   0  0  0  0  0  0  0  0  0  0  0  0
   -9.4802   11.6129    5.2695 C   0  0  0  0  0  0  0  0  0  0  0  0
   -5.9567    2.1080    4.5779 C   0  0  0  0  0  0  0  0  0  0  0  0
  -10.0864   10.3603    4.6219 C   0  0  0  0  0  0  0  0  0  0  0  0
   -5.7708    0.6155    4.2498 C   0  0  0  0  0  0  0  0  0  0  0  0
  -10.0329   10.4999    3.1220 N   0  0  0  0  0  0  0  0  0  0  0  0
   -6.3300    0.2734    2.8919 N   0  0  0  0  0  0  0  0  0  0  0  0
  -11.3496   11.0144    2.6072 C   0  0  0  0  0  0  0  0  0  0  0  0
   -7.8311    0.3691    2.9466 C   0  0  0  0  0  0  0  0  0  0  0  0
   -9.7169    9.1768    2.4697 C   0  0  0  0  0  0  0  0  0  0  0  0
   -5.9449   -1.1113    2.4513 C   0  0  0  0  0  0  0  0  0  0  0  0
  1  6  2  0  0  0  0
  2  3  2  0  0  0  0
  2  1  1  0  0  0  0
  3  4  1  0  0  0  0
  4 10  1  0  0  0  0
  4  5  2  0  0  0  0
  6  5  1  0  0  0  0
  7  1  1  0  0  0  0
  7 11  1  0  0  0  0
  8  7  2  0  0  0  0
  9 10  2  0  0  0  0
 10 12  1  0  0  0  0
 12 14  1  0  0  0  0
 13 11  1  0  0  0  0
 13 15  1  0  0  0  0
 14 16  1  0  0  0  0
 16 18  1  0  0  0  0
 17 15  1  0  0  0  0
 17 19  1  0  0  0  0
 18 20  1  0  0  0  0
 19 23  1  0  0  0  0
 20 22  1  0  0  0  0
 20 24  1  0  0  0  0
 21 19  1  0  0  0  0
M  END
>  <CHROM.1>
-165.35580484,170.07330141,105.32873237,104.28188892,42.97381751,172.17235208
-78.72189545,-165.22569828,-96.35855502,-69.50297506,-7.05262976,6.60762276
4.85788228,-1.96853770,0.61878318,-2.71511458

>  <Name>
lig.pdb

>  <RI>
3.93418e+07

>  <Rbt.Current_Directory>
/home/itssahil/PROJECTS/Mol_Feturizer/New_Systems/rnas/2l94

>  <Rbt.Executable>
rbdock ($Id: //depot/dev/client3/rdock/2013.1/src/exe/rbdock.cxx#4 $)

>  <Rbt.Library>
libRbt.so (2013.1, Build901 2013/11/27)

>  <Rbt.Parameter_File>
/export/apps/rDock/src/rDock_2013.1_src/data/scripts/dock_solv.prm

>  <Rbt.Receptor>
prm/blind_docking_20.prm

>  <SCORE>
-9.16916

>  <SCORE.INTER>
-14.1234

>  <SCORE.INTER.CONST>
1

>  <SCORE.INTER.POLAR>
-1.56829

>  <SCORE.INTER.ROT>
10

>  <SCORE.INTER.SOLV>
15.309

>  <SCORE.INTER.VDW>
-19.5577

>  <SCORE.INTER.norm>
-0.588475

>  <SCORE.INTRA>
0.574195

>  <SCORE.INTRA.DIHEDRAL>
4.50367

>  <SCORE.INTRA.DIHEDRAL.0>
7.52971

>  <SCORE.INTRA.POLAR>
0

>  <SCORE.INTRA.POLAR.0>
0

>  <SCORE.INTRA.REPUL>
0

>  <SCORE.INTRA.REPUL.0>
0

>  <SCORE.INTRA.SOLV>
0.194899

>  <SCORE.INTRA.SOLV.lig_0>
-22.1084

>  <SCORE.INTRA.VDW>
-1.77509

>  <SCORE.INTRA.VDW.0>
2.4256

>  <SCORE.INTRA.norm>
0.0239248

>  <SCORE.RESTR>
4.38004

>  <SCORE.RESTR.CAVITY>
4.38004

>  <SCORE.RESTR.norm>
0.182502

>  <SCORE.SYSTEM>
0

>  <SCORE.SYSTEM.CONST>
0

>  <SCORE.SYSTEM.DIHEDRAL>
0

>  <SCORE.SYSTEM.SOLV>
0

>  <SCORE.SYSTEM.norm>
0

>  <SCORE.heavy>
24

>  <SCORE.norm>
-0.382048

>  <RMSD>
16.033

$$$$
lig.pdb
 OpenBabel11021811453D
libRbt.so/2013.1/901 2013/11/27
 24 24  0  0  0  0  0  0  0  0999 V2000
   -5.7669    9.0578    4.7694 C   0  0  0  0  0  0  0  0  0  0  0  0
   -5.8791    7.6312    4.6544 C   0  0  0  0  0  0  0  0  0  0  0  0
   -4.9813    6.7837    5.2593 C   0  0  0  0  0  0  0  0  0  0  0  0
   -3.8915    7.2780    6.0450 C   0  0  0  0  0  0  0  0  0  0  0  0
   -3.7611    8.7032    6.1311 C   0  0  0  0  0  0  0  0  0  0  0  0
   -4.6521    9.5503    5.5209 C   0  0  0  0  0  0  0  0  0  0  0  0
   -6.6712    9.9076    4.1993 C   0  0  0  0  0  0  0  0  0  0  0  0
   -6.8465    9.9996    2.8637 N   0  0  0  0  0  0  0  0  0  0  0  0
   -1.6890    6.4381    6.4347 N   0  0  0  0  0  0  0  0  0  0  0  0
   -3.0165    6.4463    6.6793 C   0  0  0  0  0  0  0  0  0  0  0  0
   -7.4667   10.7229    4.9351 N   0  0  0  0  0  0  0  0  0  0  0  0
   -3.4107    5.5499    7.6147 N   0  0  0  0  0  0  0  0  0  0  0  0
   -8.8466   11.0998    4.6352 C   0  0  0  0  0  0  0  0  0  0  0  0
   -2.5655    4.9494    8.6421 C   0  0  0  0  0  0  0  0  0  0  0  0
   -9.7767   10.1145    5.3612 C   0  0  0  0  0  0  0  0  0  0  0  0
   -3.4865    4.3369    9.7138 C   0  0  0  0  0  0  0  0  0  0  0  0
  -10.7400    9.4404    4.3745 C   0  0  0  0  0  0  0  0  0  0  0  0
   -4.2932    5.3999   10.4814 C   0  0  0  0  0  0  0  0  0  0  0  0
   -9.9628    8.5163    3.4724 N   0  0  0  0  0  0  0  0  0  0  0  0
   -3.4685    6.0430   11.5675 N   0  0  0  0  0  0  0  0  0  0  0  0
   -9.6223    9.2203    2.1871 C   0  0  0  0  0  0  0  0  0  0  0  0
   -3.6933    5.2962   12.8548 C   0  0  0  0  0  0  0  0  0  0  0  0
  -10.7541    7.2677    3.1711 C   0  0  0  0  0  0  0  0  0  0  0  0
   -3.8272    7.4884   11.7726 C   0  0  0  0  0  0  0  0  0  0  0  0
  1  6  2  0  0  0  0
  2  3  2  0  0  0  0
  2  1  1  0  0  0  0
  3  4  1  0  0  0  0
  4 10  1  0  0  0  0
  4  5  2  0  0  0  0
  6  5  1  0  0  0  0
  7  1  1  0  0  0  0
  7 11  1  0  0  0  0
  8  7  2  0  0  0  0
  9 10  2  0  0  0  0
 10 12  1  0  0  0  0
 12 14  1  0  0  0  0
 13 11  1  0  0  0  0
 13 15  1  0  0  0  0
 14 16  1  0  0  0  0
 16 18  1  0  0  0  0
 17 15  1  0  0  0  0
 17 19  1  0  0  0  0
 18 20  1  0  0  0  0
 19 23  1  0  0  0  0
 20 22  1  0  0  0  0
 20 24  1  0  0  0  0
 21 19  1  0  0  0  0
M  END
>  <CHROM.1>
120.05201053,-64.13949386,163.50437729,93.09823836,-124.31809383,-66.14825739
-80.81141671,68.73123372,-95.75627867,-92.84376253,-5.82192482,7.78601262
6.42243496,-2.26292286,-0.25469574,1.89455507

>  <Name>
lig.pdb

>  <RI>
0

>  <Rbt.Current_Directory>
/home/itssahil/PROJECTS/Mol_Feturizer/New_Systems/rnas/2l94

>  <Rbt.Executable>
rbdock ($Id: //depot/dev/client3/rdock/2013.1/src/exe/rbdock.cxx#4 $)

>  <Rbt.Library>
libRbt.so (2013.1, Build901 2013/11/27)

>  <Rbt.Parameter_File>
/export/apps/rDock/src/rDock_2013.1_src/data/scripts/dock_solv.prm

>  <Rbt.Receptor>
prm/blind_docking_100.prm

>  <SCORE>
-3.06631

>  <SCORE.INTER>
-21.4093

>  <SCORE.INTER.CONST>
1

>  <SCORE.INTER.POLAR>
-2.26954

>  <SCORE.INTER.ROT>
10

>  <SCORE.INTER.SOLV>
20.4245

>  <SCORE.INTER.VDW>
-23.7826

>  <SCORE.INTER.norm>
-0.892055

>  <SCORE.INTRA>
11.6405

>  <SCORE.INTRA.DIHEDRAL>
29.1296

>  <SCORE.INTRA.DIHEDRAL.0>
7.52971

>  <SCORE.INTRA.POLAR>
0

>  <SCORE.INTRA.POLAR.0>
0

>  <SCORE.INTRA.REPUL>
0

>  <SCORE.INTRA.REPUL.0>
0

>  <SCORE.INTRA.SOLV>
1.29849

>  <SCORE.INTRA.SOLV.lig_0>
-22.1084

>  <SCORE.INTRA.VDW>
-3.57354

>  <SCORE.INTRA.VDW.0>
2.4256

>  <SCORE.INTRA.norm>
0.485021

>  <SCORE.RESTR>
6.70249

>  <SCORE.RESTR.CAVITY>
6.70249

>  <SCORE.RESTR.norm>
0.27927

>  <SCORE.SYSTEM>
0

>  <SCORE.SYSTEM.CONST>
0

>  <SCORE.SYSTEM.DIHEDRAL>
0

>  <SCORE.SYSTEM.SOLV>
0

>  <SCORE.SYSTEM.norm>
0

>  <SCORE.heavy>
24

>  <SCORE.norm>
-0.127763

>  <RMSD>
16.034

$$$$
lig.pdb
 OpenBabel11021811453D
libRbt.so/2013.1/901 2013/11/27
 24 24  0  0  0  0  0  0  0  0999 V2000
   -4.9965    8.0935    5.5264 C   0  0  0  0  0  0  0  0  0  0  0  0
   -4.4492    8.7668    6.6702 C   0  0  0  0  0  0  0  0  0  0  0  0
   -3.7771    8.0859    7.6575 C   0  0  0  0  0  0  0  0  0  0  0  0
   -3.5778    6.6697    7.5934 C   0  0  0  0  0  0  0  0  0  0  0  0
   -4.1539    5.9941    6.4676 C   0  0  0  0  0  0  0  0  0  0  0  0
   -4.8322    6.6717    5.4855 C   0  0  0  0  0  0  0  0  0  0  0  0
   -5.6379    8.7642    4.5246 C   0  0  0  0  0  0  0  0  0  0  0  0
   -5.9983    8.1749    3.3645 N   0  0  0  0  0  0  0  0  0  0  0  0
   -1.9841    6.5731    9.3707 N   0  0  0  0  0  0  0  0  0  0  0  0
   -2.8814    5.9895    8.5483 C   0  0  0  0  0  0  0  0  0  0  0  0
   -5.9656   10.0765    4.6221 N   0  0  0  0  0  0  0  0  0  0  0  0
   -3.0326    4.6591    8.7517 N   0  0  0  0  0  0  0  0  0  0  0  0
   -7.1619   10.7204    4.0830 C   0  0  0  0  0  0  0  0  0  0  0  0
   -2.7041    3.9320    9.9739 C   0  0  0  0  0  0  0  0  0  0  0  0
   -8.3127   10.4916    5.0761 C   0  0  0  0  0  0  0  0  0  0  0  0
   -3.5095    4.5579   11.1277 C   0  0  0  0  0  0  0  0  0  0  0  0
   -9.6101   10.1312    4.3393 C   0  0  0  0  0  0  0  0  0  0  0  0
   -3.1304    3.9749   12.5012 C   0  0  0  0  0  0  0  0  0  0  0  0
   -9.4094    8.8461    3.5775 N   0  0  0  0  0  0  0  0  0  0  0  0
   -3.2577    5.0058   13.5942 N   0  0  0  0  0  0  0  0  0  0  0  0
  -10.4060    8.7545    2.4541 C   0  0  0  0  0  0  0  0  0  0  0  0
   -2.8206    4.3899   14.8961 C   0  0  0  0  0  0  0  0  0  0  0  0
   -9.5614    7.6522    4.4871 C   0  0  0  0  0  0  0  0  0  0  0  0
   -4.6671    5.5077   13.7404 C   0  0  0  0  0  0  0  0  0  0  0  0
  1  6  2  0  0  0  0
  2  3  2  0  0  0  0
  2  1  1  0  0  0  0
  3  4  1  0  0  0  0
  4 10  1  0  0  0  0
  4  5  2  0  0  0  0
  6  5  1  0  0  0  0
  7  1  1  0  0  0  0
  7 11  1  0  0  0  0
  8  7  2  0  0  0  0
  9 10  2  0  0  0  0
 10 12  1  0  0  0  0
 12 14  1  0  0  0  0
 13 11  1  0  0  0  0
 13 15  1  0  0  0  0
 14 16  1  0  0  0  0
 16 18  1  0  0  0  0
 17 15  1  0  0  0  0
 17 19  1  0  0  0  0
 18 20  1  0  0  0  0
 19 23  1  0  0  0  0
 20 22  1  0  0  0  0
 20 24  1  0  0  0  0
 21 19  1  0  0  0  0
M  END
>  <CHROM.1>
-21.76978983,170.89939247,57.78765876,82.37350177,-137.50910429,-173.66500557
147.45825862,61.73311728,-157.53820593,-177.72458145,-5.27757515,7.17684902
7.47011905,-2.08622258,-0.24433624,1.92678452

>  <Name>
lig.pdb

>  <RI>
0

>  <Rbt.Current_Directory>
/home/itssahil/PROJECTS/Mol_Feturizer/New_Systems/rnas/2l94

>  <Rbt.Executable>
rbdock ($Id: //depot/dev/client3/rdock/2013.1/src/exe/rbdock.cxx#4 $)

>  <Rbt.Library>
libRbt.so (2013.1, Build901 2013/11/27)

>  <Rbt.Parameter_File>
/export/apps/rDock/src/rDock_2013.1_src/data/scripts/dock_solv.prm

>  <Rbt.Receptor>
prm/blind_docking_100.prm

>  <SCORE>
13.2332

>  <SCORE.INTER>
3.94393

>  <SCORE.INTER.CONST>
1

>  <SCORE.INTER.POLAR>
-2.04852

>  <SCORE.INTER.ROT>
10

>  <SCORE.INTER.SOLV>
19.9811

>  <SCORE.INTER.VDW>
-7.46937

>  <SCORE.INTER.norm>
0.16433

>  <SCORE.INTRA>
2.62376

>  <SCORE.INTRA.DIHEDRAL>
8.12718

>  <SCORE.INTRA.DIHEDRAL.0>
7.52971

>  <SCORE.INTRA.POLAR>
0

>  <SCORE.INTRA.POLAR.0>
0

>  <SCORE.INTRA.REPUL>
0

>  <SCORE.INTRA.REPUL.0>
0

>  <SCORE.INTRA.SOLV>
1.22261

>  <SCORE.INTRA.SOLV.lig_0>
-22.1084

>  <SCORE.INTRA.VDW>
-2.05114

>  <SCORE.INTRA.VDW.0>
2.4256

>  <SCORE.INTRA.norm>
0.109323

>  <SCORE.RESTR>
6.6655

>  <SCORE.RESTR.CAVITY>
6.6655

>  <SCORE.RESTR.norm>
0.277729

>  <SCORE.SYSTEM>
0

>  <SCORE.SYSTEM.CONST>
0

>  <SCORE.SYSTEM.DIHEDRAL>
0

>  <SCORE.SYSTEM.SOLV>
0

>  <SCORE.SYSTEM.norm>
0

>  <SCORE.heavy>
24

>  <SCORE.norm>
0.551383

>  <RMSD>
16.040

$$$$
lig.pdb
 OpenBabel11021811453D
libRbt.so/2013.1/901 2013/11/27
 24 24  0  0  0  0  0  0  0  0999 V2000
   -3.2706    6.2296    7.8522 C   0  0  0  0  0  0  0  0  0  0  0  0
   -4.3961    5.8971    7.0252 C   0  0  0  0  0  0  0  0  0  0  0  0
   -4.9355    6.8003    6.1402 C   0  0  0  0  0  0  0  0  0  0  0  0
   -4.3977    8.1183    5.9881 C   0  0  0  0  0  0  0  0  0  0  0  0
   -3.2952    8.4601    6.8386 C   0  0  0  0  0  0  0  0  0  0  0  0
   -2.7610    7.5619    7.7283 C   0  0  0  0  0  0  0  0  0  0  0  0
   -2.7073    5.3299    8.7112 C   0  0  0  0  0  0  0  0  0  0  0  0
   -1.4343    5.4355    9.1488 N   0  0  0  0  0  0  0  0  0  0  0  0
   -4.2270   10.0993    4.6635 N   0  0  0  0  0  0  0  0  0  0  0  0
   -4.9017    9.0098    5.0876 C   0  0  0  0  0  0  0  0  0  0  0  0
   -3.3883    4.2612    9.1942 N   0  0  0  0  0  0  0  0  0  0  0  0
   -6.1331    8.8757    4.5403 N   0  0  0  0  0  0  0  0  0  0  0  0
   -3.2670    3.6789   10.5292 C   0  0  0  0  0  0  0  0  0  0  0  0
   -6.5902    9.4759    3.2908 C   0  0  0  0  0  0  0  0  0  0  0  0
   -3.3556    4.8204   11.5550 C   0  0  0  0  0  0  0  0  0  0  0  0
   -7.6476   10.5409    3.6365 C   0  0  0  0  0  0  0  0  0  0  0  0
   -4.6507    5.6236   11.3718 C   0  0  0  0  0  0  0  0  0  0  0  0
   -9.0054    9.9264    4.0218 C   0  0  0  0  0  0  0  0  0  0  0  0
   -4.6031    6.8511   12.2453 N   0  0  0  0  0  0  0  0  0  0  0  0
   -9.6090    9.1549    2.8756 N   0  0  0  0  0  0  0  0  0  0  0  0
   -3.4215    7.7031   11.8691 C   0  0  0  0  0  0  0  0  0  0  0  0
  -10.6118   10.0316    2.1746 C   0  0  0  0  0  0  0  0  0  0  0  0
   -4.5094    6.4711   13.7023 C   0  0  0  0  0  0  0  0  0  0  0  0
  -10.2956    7.8990    3.3352 C   0  0  0  0  0  0  0  0  0  0  0  0
  1  6  2  0  0  0  0
  2  3  2  0  0  0  0
  2  1  1  0  0  0  0
  3  4  1  0  0  0  0
  4 10  1  0  0  0  0
  4  5  2  0  0  0  0
  6  5  1  0  0  0  0
  7  1  1  0  0  0  0
  7 11  1  0  0  0  0
  8  7  2  0  0  0  0
  9 10  2  0  0  0  0
 10 12  1  0  0  0  0
 12 14  1  0  0  0  0
 13 11  1  0  0  0  0
 13 15  1  0  0  0  0
 14 16  1  0  0  0  0
 16 18  1  0  0  0  0
 17 15  1  0  0  0  0
 17 19  1  0  0  0  0
 18 20  1  0  0  0  0
 19 23  1  0  0  0  0
 20 22  1  0  0  0  0
 20 24  1  0  0  0  0
 21 19  1  0  0  0  0
M  END
>  <CHROM.1>
-161.73961883,157.09784323,-111.68293237,48.71362753,55.89394536,-75.43811217
-62.88059042,-171.36356839,59.59201039,-97.84129332,-5.19597777,7.44662670
7.24107348,-1.03168988,0.14092257,-1.18883473

>  <Name>
lig.pdb

>  <RI>
0

>  <Rbt.Current_Directory>
/home/itssahil/PROJECTS/Mol_Feturizer/New_Systems/rnas/2l94

>  <Rbt.Executable>
rbdock ($Id: //depot/dev/client3/rdock/2013.1/src/exe/rbdock.cxx#4 $)

>  <Rbt.Library>
libRbt.so (2013.1, Build901 2013/11/27)

>  <Rbt.Parameter_File>
/export/apps/rDock/src/rDock_2013.1_src/data/scripts/dock_solv.prm

>  <Rbt.Receptor>
prm/blind_docking_100.prm

>  <SCORE>
-2.5519

>  <SCORE.INTER>
-11.0908

>  <SCORE.INTER.CONST>
1

>  <SCORE.INTER.POLAR>
-1.1422

>  <SCORE.INTER.ROT>
10

>  <SCORE.INTER.SOLV>
20.9038

>  <SCORE.INTER.VDW>
-20.8211

>  <SCORE.INTER.norm>
-0.462118

>  <SCORE.INTRA>
2.95153

>  <SCORE.INTRA.DIHEDRAL>
4.2667

>  <SCORE.INTRA.DIHEDRAL.0>
7.52971

>  <SCORE.INTRA.POLAR>
0

>  <SCORE.INTRA.POLAR.0>
0

>  <SCORE.INTRA.REPUL>
0

>  <SCORE.INTRA.REPUL.0>
0

>  <SCORE.INTRA.SOLV>
1.09243

>  <SCORE.INTRA.SOLV.lig_0>
-22.1084

>  <SCORE.INTRA.VDW>
0.271963

>  <SCORE.INTRA.VDW.0>
2.4256

>  <SCORE.INTRA.norm>
0.12298

>  <SCORE.RESTR>
5.58741

>  <SCORE.RESTR.CAVITY>
5.58741

>  <SCORE.RESTR.norm>
0.232809

>  <SCORE.SYSTEM>
0

>  <SCORE.SYSTEM.CONST>
0

>  <SCORE.SYSTEM.DIHEDRAL>
0

>  <SCORE.SYSTEM.SOLV>
0

>  <SCORE.SYSTEM.norm>
0

>  <SCORE.heavy>
24

>  <SCORE.norm>
-0.106329

>  <RMSD>
16.046

$$$$
lig.pdb
 OpenBabel11021811453D
libRbt.so/2013.1/901 2013/11/27
 24 24  0  0  0  0  0  0  0  0999 V2000
   -5.7409    8.9711    4.4958 C   0  0  0  0  0  0  0  0  0  0  0  0
   -5.8915    7.5434    4.4909 C   0  0  0  0  0  0  0  0  0  0  0  0
   -5.0191    6.7215    5.1643 C   0  0  0  0  0  0  0  0  0  0  0  0
   -3.9188    7.2456    5.9153 C   0  0  0  0  0  0  0  0  0  0  0  0
   -3.7499    8.6692    5.8916 C   0  0  0  0  0  0  0  0  0  0  0  0
   -4.6156    9.4901    5.2130 C   0  0  0  0  0  0  0  0  0  0  0  0
   -6.6199    9.7981    3.8569 C   0  0  0  0  0  0  0  0  0  0  0  0
   -6.8151    9.7656    2.5213 N   0  0  0  0  0  0  0  0  0  0  0  0
   -1.7343    6.4170    6.4151 N   0  0  0  0  0  0  0  0  0  0  0  0
   -3.0688    6.4423    6.6166 C   0  0  0  0  0  0  0  0  0  0  0  0
   -7.3682   10.7148    4.5193 N   0  0  0  0  0  0  0  0  0  0  0  0
   -3.4972    5.5941    7.5815 N   0  0  0  0  0  0  0  0  0  0  0  0
   -8.7368   11.1185    4.2025 C   0  0  0  0  0  0  0  0  0  0  0  0
   -2.6882    5.0410    8.6632 C   0  0  0  0  0  0  0  0  0  0  0  0
   -9.6220   10.7882    5.4150 C   0  0  0  0  0  0  0  0  0  0  0  0
   -2.6667    6.0680    9.8106 C   0  0  0  0  0  0  0  0  0  0  0  0
   -9.3165    9.3827    5.9511 C   0  0  0  0  0  0  0  0  0  0  0  0
   -3.8470    5.8959   10.7838 C   0  0  0  0  0  0  0  0  0  0  0  0
   -9.3084    8.4036    4.8051 N   0  0  0  0  0  0  0  0  0  0  0  0
   -3.5600    6.5329   12.1200 N   0  0  0  0  0  0  0  0  0  0  0  0
  -10.6577    8.3809    4.1401 C   0  0  0  0  0  0  0  0  0  0  0  0
   -4.6317    6.1225   13.0940 C   0  0  0  0  0  0  0  0  0  0  0  0
   -8.9574    7.0170    5.2849 C   0  0  0  0  0  0  0  0  0  0  0  0
   -3.5237    8.0335   12.0379 C   0  0  0  0  0  0  0  0  0  0  0  0
  1  6  2  0  0  0  0
  2  3  2  0  0  0  0
  2  1  1  0  0  0  0
  3  4  1  0  0  0  0
  4 10  1  0  0  0  0
  4  5  2  0  0  0  0
  6  5  1  0  0  0  0
  7  1  1  0  0  0  0
  7 11  1  0  0  0  0
  8  7  2  0  0  0  0
  9 10  2  0  0  0  0
 10 12  1  0  0  0  0
 12 14  1  0  0  0  0
 13 11  1  0  0  0  0
 13 15  1  0  0  0  0
 14 16  1  0  0  0  0
 16 18  1  0  0  0  0
 17 15  1  0  0  0  0
 17 19  1  0  0  0  0
 18 20  1  0  0  0  0
 19 23  1  0  0  0  0
 20 22  1  0  0  0  0
 20 24  1  0  0  0  0
 21 19  1  0  0  0  0
M  END
>  <CHROM.1>
122.66088265,-62.25628494,84.58587843,119.30012549,-45.23484538,87.87021151
159.34246135,-48.74113916,-60.88078838,-169.97891381,-5.67421701,7.91099048
6.67910836,-2.26530694,-0.36595910,1.77318014

>  <Name>
lig.pdb

>  <RI>
0

>  <Rbt.Current_Directory>
/home/itssahil/PROJECTS/Mol_Feturizer/New_Systems/rnas/2l94

>  <Rbt.Executable>
rbdock ($Id: //depot/dev/client3/rdock/2013.1/src/exe/rbdock.cxx#4 $)

>  <Rbt.Library>
libRbt.so (2013.1, Build901 2013/11/27)

>  <Rbt.Parameter_File>
/export/apps/rDock/src/rDock_2013.1_src/data/scripts/dock_solv.prm

>  <Rbt.Receptor>
prm/blind_docking_100.prm

>  <SCORE>
1.27157

>  <SCORE.INTER>
-14.3107

>  <SCORE.INTER.CONST>
1

>  <SCORE.INTER.POLAR>
-2.0331

>  <SCORE.INTER.ROT>
10

>  <SCORE.INTER.SOLV>
20.4414

>  <SCORE.INTER.VDW>
-19.8439

>  <SCORE.INTER.norm>
-0.596279

>  <SCORE.INTRA>
10.4928

>  <SCORE.INTRA.DIHEDRAL>
21.7526

>  <SCORE.INTRA.DIHEDRAL.0>
7.52971

>  <SCORE.INTRA.POLAR>
0

>  <SCORE.INTRA.POLAR.0>
0

>  <SCORE.INTRA.REPUL>
0

>  <SCORE.INTRA.REPUL.0>
0

>  <SCORE.INTRA.SOLV>
1.64191

>  <SCORE.INTRA.SOLV.lig_0>
-22.1084

>  <SCORE.INTRA.VDW>
-1.20441

>  <SCORE.INTRA.VDW.0>
2.4256

>  <SCORE.INTRA.norm>
0.437202

>  <SCORE.RESTR>
5.08942

>  <SCORE.RESTR.CAVITY>
5.08942

>  <SCORE.RESTR.norm>
0.212059

>  <SCORE.SYSTEM>
0

>  <SCORE.SYSTEM.CONST>
0

>  <SCORE.SYSTEM.DIHEDRAL>
0

>  <SCORE.SYSTEM.SOLV>
0

>  <SCORE.SYSTEM.norm>
0

>  <SCORE.heavy>
24

>  <SCORE.norm>
0.0529822

>  <RMSD>
16.049

$$$$
lig.pdb
 OpenBabel11021811453D
libRbt.so/2013.1/901 2013/11/27
 24 24  0  0  0  0  0  0  0  0999 V2000
   -5.3019    4.0866    4.8572 C   0  0  0  0  0  0  0  0  0  0  0  0
   -5.6097    3.2547    3.7284 C   0  0  0  0  0  0  0  0  0  0  0  0
   -6.5291    2.2358    3.8099 C   0  0  0  0  0  0  0  0  0  0  0  0
   -7.2366    1.9555    5.0224 C   0  0  0  0  0  0  0  0  0  0  0  0
   -6.9036    2.7653    6.1578 C   0  0  0  0  0  0  0  0  0  0  0  0
   -5.9801    3.7776    6.0797 C   0  0  0  0  0  0  0  0  0  0  0  0
   -4.4142    5.1214    4.7785 C   0  0  0  0  0  0  0  0  0  0  0  0
   -3.5647    5.2783    3.7408 N   0  0  0  0  0  0  0  0  0  0  0  0
   -8.6966    0.5359    6.2720 N   0  0  0  0  0  0  0  0  0  0  0  0
   -8.1768    0.9711    5.1047 C   0  0  0  0  0  0  0  0  0  0  0  0
   -4.3220    6.0747    5.7386 N   0  0  0  0  0  0  0  0  0  0  0  0
   -8.6703    0.3414    4.0121 N   0  0  0  0  0  0  0  0  0  0  0  0
   -4.0343    7.4933    5.5360 C   0  0  0  0  0  0  0  0  0  0  0  0
   -9.9406   -0.3728    3.9301 C   0  0  0  0  0  0  0  0  0  0  0  0
   -3.7363    8.1181    6.9086 C   0  0  0  0  0  0  0  0  0  0  0  0
  -10.9932    0.4438    4.7027 C   0  0  0  0  0  0  0  0  0  0  0  0
   -4.5215    9.4231    7.0996 C   0  0  0  0  0  0  0  0  0  0  0  0
  -12.1240    0.9634    3.7965 C   0  0  0  0  0  0  0  0  0  0  0  0
   -5.8906    9.1052    7.6441 N   0  0  0  0  0  0  0  0  0  0  0  0
  -13.0799    1.8479    4.5563 N   0  0  0  0  0  0  0  0  0  0  0  0
   -6.7768    8.5969    6.5397 C   0  0  0  0  0  0  0  0  0  0  0  0
  -14.4401    1.7537    3.9187 C   0  0  0  0  0  0  0  0  0  0  0  0
   -6.5158   10.3255    8.2733 C   0  0  0  0  0  0  0  0  0  0  0  0
  -12.6417    3.2859    4.5610 C   0  0  0  0  0  0  0  0  0  0  0  0
  1  6  2  0  0  0  0
  2  3  2  0  0  0  0
  2  1  1  0  0  0  0
  3  4  1  0  0  0  0
  4 10  1  0  0  0  0
  4  5  2  0  0  0  0
  6  5  1  0  0  0  0
  7  1  1  0  0  0  0
  7 11  1  0  0  0  0
  8  7  2  0  0  0  0
  9 10  2  0  0  0  0
 10 12  1  0  0  0  0
 12 14  1  0  0  0  0
 13 11  1  0  0  0  0
 13 15  1  0  0  0  0
 14 16  1  0  0  0  0
 16 18  1  0  0  0  0
 17 15  1  0  0  0  0
 17 19  1  0  0  0  0
 18 20  1  0  0  0  0
 19 23  1  0  0  0  0
 20 22  1  0  0  0  0
 20 24  1  0  0  0  0
 21 19  1  0  0  0  0
M  END
>  <CHROM.1>
168.60638738,-13.85514365,40.59392363,-168.18109040,-132.21432188,116.27209375
-175.53011362,86.26993957,-77.63568733,-151.47454380,-7.56683299,4.10287046
5.30559907,-0.83976672,-0.07373581,-2.78104754

>  <Name>
lig.pdb

>  <RI>
2.62193e+07

>  <Rbt.Current_Directory>
/home/itssahil/PROJECTS/Mol_Feturizer/New_Systems/rnas/2l94

>  <Rbt.Executable>
rbdock ($Id: //depot/dev/client3/rdock/2013.1/src/exe/rbdock.cxx#4 $)

>  <Rbt.Library>
libRbt.so (2013.1, Build901 2013/11/27)

>  <Rbt.Parameter_File>
/export/apps/rDock/src/rDock_2013.1_src/data/scripts/dock_solv.prm

>  <Rbt.Receptor>
prm/blind_docking_60.prm

>  <SCORE>
16.5446

>  <SCORE.INTER>
-7.55447

>  <SCORE.INTER.CONST>
1

>  <SCORE.INTER.POLAR>
-1.49133

>  <SCORE.INTER.ROT>
10

>  <SCORE.INTER.SOLV>
20.4834

>  <SCORE.INTER.VDW>
-17.1597

>  <SCORE.INTER.norm>
-0.314769

>  <SCORE.INTRA>
7.577

>  <SCORE.INTRA.DIHEDRAL>
13.625

>  <SCORE.INTRA.DIHEDRAL.0>
7.52971

>  <SCORE.INTRA.POLAR>
0

>  <SCORE.INTRA.POLAR.0>
0

>  <SCORE.INTRA.REPUL>
0

>  <SCORE.INTRA.REPUL.0>
0

>  <SCORE.INTRA.SOLV>
0.491298

>  <SCORE.INTRA.SOLV.lig_0>
-22.1084

>  <SCORE.INTRA.VDW>
0.518852

>  <SCORE.INTRA.VDW.0>
2.4256

>  <SCORE.INTRA.norm>
0.315708

>  <SCORE.RESTR>
16.5221

>  <SCORE.RESTR.CAVITY>
16.5221

>  <SCORE.RESTR.norm>
0.688421

>  <SCORE.SYSTEM>
0

>  <SCORE.SYSTEM.CONST>
0

>  <SCORE.SYSTEM.DIHEDRAL>
0

>  <SCORE.SYSTEM.SOLV>
0

>  <SCORE.SYSTEM.norm>
0

>  <SCORE.heavy>
24

>  <SCORE.norm>
0.689359

>  <RMSD>
16.058

$$$$
lig.pdb
 OpenBabel11021811453D
libRbt.so/2013.1/901 2013/11/27
 24 24  0  0  0  0  0  0  0  0999 V2000
   -3.2023    6.0740    7.9380 C   0  0  0  0  0  0  0  0  0  0  0  0
   -2.6535    7.3941    7.8071 C   0  0  0  0  0  0  0  0  0  0  0  0
   -3.1530    8.2987    6.9003 C   0  0  0  0  0  0  0  0  0  0  0  0
   -4.2541    7.9764    6.0441 C   0  0  0  0  0  0  0  0  0  0  0  0
   -4.7793    6.6466    6.1523 C   0  0  0  0  0  0  0  0  0  0  0  0
   -4.2761    5.7401    7.0517 C   0  0  0  0  0  0  0  0  0  0  0  0
   -2.7347    5.1790    8.8573 C   0  0  0  0  0  0  0  0  0  0  0  0
   -1.4265    4.8652    8.9721 N   0  0  0  0  0  0  0  0  0  0  0  0
   -4.1792   10.0429    4.8474 N   0  0  0  0  0  0  0  0  0  0  0  0
   -4.7810    8.8776    5.1667 C   0  0  0  0  0  0  0  0  0  0  0  0
   -3.5521    4.5389    9.7298 N   0  0  0  0  0  0  0  0  0  0  0  0
   -5.9637    8.6771    4.5382 N   0  0  0  0  0  0  0  0  0  0  0  0
   -3.2426    4.1767   11.1115 C   0  0  0  0  0  0  0  0  0  0  0  0
   -6.3993    9.3140    3.2991 C   0  0  0  0  0  0  0  0  0  0  0  0
   -4.2448    4.8976   12.0274 C   0  0  0  0  0  0  0  0  0  0  0  0
   -7.6558   10.1476    3.6121 C   0  0  0  0  0  0  0  0  0  0  0  0
   -4.2440    6.4090   11.7597 C   0  0  0  0  0  0  0  0  0  0  0  0
   -8.9001    9.6548    2.8514 C   0  0  0  0  0  0  0  0  0  0  0  0
   -3.4685    7.1069   12.8475 N   0  0  0  0  0  0  0  0  0  0  0  0
   -9.9138    9.0436    3.7854 N   0  0  0  0  0  0  0  0  0  0  0  0
   -4.3206    7.2409   14.0801 C   0  0  0  0  0  0  0  0  0  0  0  0
   -9.2815    7.8736    4.4902 C   0  0  0  0  0  0  0  0  0  0  0  0
   -3.0164    8.4730   12.3941 C   0  0  0  0  0  0  0  0  0  0  0  0
  -11.1423    8.5705    3.0596 C   0  0  0  0  0  0  0  0  0  0  0  0
  1  6  2  0  0  0  0
  2  3  2  0  0  0  0
  2  1  1  0  0  0  0
  3  4  1  0  0  0  0
  4 10  1  0  0  0  0
  4  5  2  0  0  0  0
  6  5  1  0  0  0  0
  7  1  1  0  0  0  0
  7 11  1  0  0  0  0
  8  7  2  0  0  0  0
  9 10  2  0  0  0  0
 10 12  1  0  0  0  0
 12 14  1  0  0  0  0
 13 11  1  0  0  0  0
 13 15  1  0  0  0  0
 14 16  1  0  0  0  0
 16 18  1  0  0  0  0
 17 15  1  0  0  0  0
 17 19  1  0  0  0  0
 18 20  1  0  0  0  0
 19 23  1  0  0  0  0
 20 22  1  0  0  0  0
 20 24  1  0  0  0  0
 21 19  1  0  0  0  0
M  END
>  <CHROM.1>
12.57936885,-52.03947048,-117.67316955,119.05038730,-54.22181772,-117.28509417
111.41979319,-102.68691733,-79.07434785,-59.97983645,-5.08256114,7.40492435
7.50030424,-1.01817186,0.20771612,-1.31743694

>  <Name>
lig.pdb

>  <RI>
0

>  <Rbt.Current_Directory>
/home/itssahil/PROJECTS/Mol_Feturizer/New_Systems/rnas/2l94

>  <Rbt.Executable>
rbdock ($Id: //depot/dev/client3/rdock/2013.1/src/exe/rbdock.cxx#4 $)

>  <Rbt.Library>
libRbt.so (2013.1, Build901 2013/11/27)

>  <Rbt.Parameter_File>
/export/apps/rDock/src/rDock_2013.1_src/data/scripts/dock_solv.prm

>  <Rbt.Receptor>
prm/blind_docking_100.prm

>  <SCORE>
3.55884

>  <SCORE.INTER>
-11.7083

>  <SCORE.INTER.CONST>
1

>  <SCORE.INTER.POLAR>
-1.34785

>  <SCORE.INTER.ROT>
10

>  <SCORE.INTER.SOLV>
19.9404

>  <SCORE.INTER.VDW>
-20.2262

>  <SCORE.INTER.norm>
-0.487846

>  <SCORE.INTRA>
9.35792

>  <SCORE.INTRA.DIHEDRAL>
22.0762

>  <SCORE.INTRA.DIHEDRAL.0>
7.52971

>  <SCORE.INTRA.POLAR>
0

>  <SCORE.INTRA.POLAR.0>
0

>  <SCORE.INTRA.REPUL>
0

>  <SCORE.INTRA.REPUL.0>
0

>  <SCORE.INTRA.SOLV>
0.564743

>  <SCORE.INTRA.SOLV.lig_0>
-22.1084

>  <SCORE.INTRA.VDW>
-1.96254

>  <SCORE.INTRA.VDW.0>
2.4256

>  <SCORE.INTRA.norm>
0.389913

>  <SCORE.RESTR>
5.90922

>  <SCORE.RESTR.CAVITY>
5.90922

>  <SCORE.RESTR.norm>
0.246218

>  <SCORE.SYSTEM>
0

>  <SCORE.SYSTEM.CONST>
0

>  <SCORE.SYSTEM.DIHEDRAL>
0

>  <SCORE.SYSTEM.SOLV>
0

>  <SCORE.SYSTEM.norm>
0

>  <SCORE.heavy>
24

>  <SCORE.norm>
0.148285

>  <RMSD>
16.064

$$$$
lig.pdb
 OpenBabel11021811453D
libRbt.so/2013.1/901 2013/11/27
 24 24  0  0  0  0  0  0  0  0999 V2000
   -4.6146    8.4237    5.8256 C   0  0  0  0  0  0  0  0  0  0  0  0
   -3.4931    8.8773    6.5986 C   0  0  0  0  0  0  0  0  0  0  0  0
   -2.8231    8.0417    7.4606 C   0  0  0  0  0  0  0  0  0  0  0  0
   -3.2014    6.6710    7.6265 C   0  0  0  0  0  0  0  0  0  0  0  0
   -4.3423    6.2285    6.8793 C   0  0  0  0  0  0  0  0  0  0  0  0
   -5.0169    7.0640    6.0246 C   0  0  0  0  0  0  0  0  0  0  0  0
   -5.2669    9.2363    4.9431 C   0  0  0  0  0  0  0  0  0  0  0  0
   -4.6599   10.2608    4.3067 N   0  0  0  0  0  0  0  0  0  0  0  0
   -1.3998    6.1741    9.1150 N   0  0  0  0  0  0  0  0  0  0  0  0
   -2.5217    5.8238    8.4511 C   0  0  0  0  0  0  0  0  0  0  0  0
   -6.5775    9.0718    4.6356 N   0  0  0  0  0  0  0  0  0  0  0  0
   -2.9187    4.5482    8.6731 N   0  0  0  0  0  0  0  0  0  0  0  0
   -7.2040    9.2957    3.3342 C   0  0  0  0  0  0  0  0  0  0  0  0
   -2.5603    3.7224    9.8221 C   0  0  0  0  0  0  0  0  0  0  0  0
   -8.6953    8.9441    3.4583 C   0  0  0  0  0  0  0  0  0  0  0  0
   -3.5978    3.9787   10.9309 C   0  0  0  0  0  0  0  0  0  0  0  0
   -9.3471    9.7168    4.6134 C   0  0  0  0  0  0  0  0  0  0  0  0
   -3.6202    5.4461   11.3956 C   0  0  0  0  0  0  0  0  0  0  0  0
   -9.3314   11.1906    4.2979 N   0  0  0  0  0  0  0  0  0  0  0  0
   -4.3177    5.5955   12.7241 N   0  0  0  0  0  0  0  0  0  0  0  0
   -8.5531   11.9324    5.3503 C   0  0  0  0  0  0  0  0  0  0  0  0
   -4.5580    7.0582   12.9848 C   0  0  0  0  0  0  0  0  0  0  0  0
  -10.7345   11.7400    4.2252 C   0  0  0  0  0  0  0  0  0  0  0  0
   -3.5111    5.0238   13.8566 C   0  0  0  0  0  0  0  0  0  0  0  0
  1  6  2  0  0  0  0
  2  3  2  0  0  0  0
  2  1  1  0  0  0  0
  3  4  1  0  0  0  0
  4 10  1  0  0  0  0
  4  5  2  0  0  0  0
  6  5  1  0  0  0  0
  7  1  1  0  0  0  0
  7 11  1  0  0  0  0
  8  7  2  0  0  0  0
  9 10  2  0  0  0  0
 10 12  1  0  0  0  0
 12 14  1  0  0  0  0
 13 11  1  0  0  0  0
 13 15  1  0  0  0  0
 14 16  1  0  0  0  0
 16 18  1  0  0  0  0
 17 15  1  0  0  0  0
 17 19  1  0  0  0  0
 18 20  1  0  0  0  0
 19 23  1  0  0  0  0
 20 22  1  0  0  0  0
 20 24  1  0  0  0  0
 21 19  1  0  0  0  0
M  END
>  <CHROM.1>
-4.01345483,28.39290514,88.32749800,178.49730213,54.05654484,-61.14035368
-163.04002991,65.26902826,-119.89387380,-168.44120207,-5.16760822,7.69474006
7.43336593,-2.18716530,-0.49773575,1.89036933

>  <Name>
lig.pdb

>  <RI>
0

>  <Rbt.Current_Directory>
/home/itssahil/PROJECTS/Mol_Feturizer/New_Systems/rnas/2l94

>  <Rbt.Executable>
rbdock ($Id: //depot/dev/client3/rdock/2013.1/src/exe/rbdock.cxx#4 $)

>  <Rbt.Library>
libRbt.so (2013.1, Build901 2013/11/27)

>  <Rbt.Parameter_File>
/export/apps/rDock/src/rDock_2013.1_src/data/scripts/dock_solv.prm

>  <Rbt.Receptor>
prm/blind_docking_100.prm

>  <SCORE>
2.21489

>  <SCORE.INTER>
-6.64313

>  <SCORE.INTER.CONST>
1

>  <SCORE.INTER.POLAR>
-1.59063

>  <SCORE.INTER.ROT>
10

>  <SCORE.INTER.SOLV>
19.4051

>  <SCORE.INTER.VDW>
-15.8617

>  <SCORE.INTER.norm>
-0.276797

>  <SCORE.INTRA>
1.59593

>  <SCORE.INTRA.DIHEDRAL>
5.37782

>  <SCORE.INTRA.DIHEDRAL.0>
7.52971

>  <SCORE.INTRA.POLAR>
0

>  <SCORE.INTRA.POLAR.0>
0

>  <SCORE.INTRA.REPUL>
0

>  <SCORE.INTRA.REPUL.0>
0

>  <SCORE.INTRA.SOLV>
1.13325

>  <SCORE.INTRA.SOLV.lig_0>
-22.1084

>  <SCORE.INTRA.VDW>
-1.6596

>  <SCORE.INTRA.VDW.0>
2.4256

>  <SCORE.INTRA.norm>
0.0664971

>  <SCORE.RESTR>
7.26209

>  <SCORE.RESTR.CAVITY>
7.26209

>  <SCORE.RESTR.norm>
0.302587

>  <SCORE.SYSTEM>
0

>  <SCORE.SYSTEM.CONST>
0

>  <SCORE.SYSTEM.DIHEDRAL>
0

>  <SCORE.SYSTEM.SOLV>
0

>  <SCORE.SYSTEM.norm>
0

>  <SCORE.heavy>
24

>  <SCORE.norm>
0.0922871

>  <RMSD>
16.088

$$$$
lig.pdb
 OpenBabel11021811453D
libRbt.so/2013.1/901 2013/11/27
 24 24  0  0  0  0  0  0  0  0999 V2000
   -3.9167    7.1444    5.9247 C   0  0  0  0  0  0  0  0  0  0  0  0
   -5.0366    6.6998    5.1442 C   0  0  0  0  0  0  0  0  0  0  0  0
   -5.9496    7.5840    4.6199 C   0  0  0  0  0  0  0  0  0  0  0  0
   -5.8273    8.9968    4.8155 C   0  0  0  0  0  0  0  0  0  0  0  0
   -4.7274    9.4368    5.6233 C   0  0  0  0  0  0  0  0  0  0  0  0
   -3.8199    8.5544    6.1540 C   0  0  0  0  0  0  0  0  0  0  0  0
   -2.9866    6.2775    6.4231 C   0  0  0  0  0  0  0  0  0  0  0  0
   -1.6708    6.3724    6.1355 N   0  0  0  0  0  0  0  0  0  0  0  0
   -6.9682    9.9544    2.9474 N   0  0  0  0  0  0  0  0  0  0  0  0
   -6.7063    9.8852    4.2698 C   0  0  0  0  0  0  0  0  0  0  0  0
   -3.3159    5.2550    7.2508 N   0  0  0  0  0  0  0  0  0  0  0  0
   -7.3947   10.7814    5.0162 N   0  0  0  0  0  0  0  0  0  0  0  0
   -2.5207    4.7424    8.3649 C   0  0  0  0  0  0  0  0  0  0  0  0
   -8.6369   11.4462    4.6348 C   0  0  0  0  0  0  0  0  0  0  0  0
   -2.3101    5.8901    9.3656 C   0  0  0  0  0  0  0  0  0  0  0  0
   -9.8062   10.5212    5.0207 C   0  0  0  0  0  0  0  0  0  0  0  0
   -3.6474    6.3509    9.9617 C   0  0  0  0  0  0  0  0  0  0  0  0
  -10.8886   10.4453    3.9286 C   0  0  0  0  0  0  0  0  0  0  0  0
   -3.4190    6.8617   11.3612 N   0  0  0  0  0  0  0  0  0  0  0  0
  -10.2806   10.3822    2.5503 N   0  0  0  0  0  0  0  0  0  0  0  0
   -3.6347    5.7521   12.3541 C   0  0  0  0  0  0  0  0  0  0  0  0
  -11.3587   10.6384    1.5317 C   0  0  0  0  0  0  0  0  0  0  0  0
   -4.3487    8.0080   11.6738 C   0  0  0  0  0  0  0  0  0  0  0  0
   -9.6498    9.0472    2.2681 C   0  0  0  0  0  0  0  0  0  0  0  0
  1  6  2  0  0  0  0
  2  3  2  0  0  0  0
  2  1  1  0  0  0  0
  3  4  1  0  0  0  0
  4 10  1  0  0  0  0
  4  5  2  0  0  0  0
  6  5  1  0  0  0  0
  7  1  1  0  0  0  0
  7 11  1  0  0  0  0
  8  7  2  0  0  0  0
  9 10  2  0  0  0  0
 10 12  1  0  0  0  0
 12 14  1  0  0  0  0
 13 11  1  0  0  0  0
 13 15  1  0  0  0  0
 14 16  1  0  0  0  0
 16 18  1  0  0  0  0
 17 15  1  0  0  0  0
 17 19  1  0  0  0  0
 18 20  1  0  0  0  0
 19 23  1  0  0  0  0
 20 22  1  0  0  0  0
 20 24  1  0  0  0  0
 21 19  1  0  0  0  0
M  END
>  <CHROM.1>
-56.15573124,122.05756299,85.92328190,59.80909509,63.68430672,-137.05926614
40.59430253,149.58398862,-93.04061047,-166.70351981,-5.81508411,8.21988002
6.16100141,-0.69036659,0.57430628,-1.57440759

>  <Name>
lig.pdb

>  <RI>
0

>  <Rbt.Current_Directory>
/home/itssahil/PROJECTS/Mol_Feturizer/New_Systems/rnas/2l94

>  <Rbt.Executable>
rbdock ($Id: //depot/dev/client3/rdock/2013.1/src/exe/rbdock.cxx#4 $)

>  <Rbt.Library>
libRbt.so (2013.1, Build901 2013/11/27)

>  <Rbt.Parameter_File>
/export/apps/rDock/src/rDock_2013.1_src/data/scripts/dock_solv.prm

>  <Rbt.Receptor>
prm/blind_docking_100.prm

>  <SCORE>
-2.14676

>  <SCORE.INTER>
-19.4238

>  <SCORE.INTER.CONST>
1

>  <SCORE.INTER.POLAR>
-2.48994

>  <SCORE.INTER.ROT>
10

>  <SCORE.INTER.SOLV>
24.0533

>  <SCORE.INTER.VDW>
-22.9339

>  <SCORE.INTER.norm>
-0.809327

>  <SCORE.INTRA>
11.2119

>  <SCORE.INTRA.DIHEDRAL>
26.508

>  <SCORE.INTRA.DIHEDRAL.0>
7.52971

>  <SCORE.INTRA.POLAR>
0

>  <SCORE.INTRA.POLAR.0>
0

>  <SCORE.INTRA.REPUL>
0.0206324

>  <SCORE.INTRA.REPUL.0>
0

>  <SCORE.INTRA.SOLV>
1.46491

>  <SCORE.INTRA.SOLV.lig_0>
-22.1084

>  <SCORE.INTRA.VDW>
-2.8777

>  <SCORE.INTRA.VDW.0>
2.4256

>  <SCORE.INTRA.norm>
0.467163

>  <SCORE.RESTR>
6.06517

>  <SCORE.RESTR.CAVITY>
6.06517

>  <SCORE.RESTR.norm>
0.252715

>  <SCORE.SYSTEM>
0

>  <SCORE.SYSTEM.CONST>
0

>  <SCORE.SYSTEM.DIHEDRAL>
0

>  <SCORE.SYSTEM.SOLV>
0

>  <SCORE.SYSTEM.norm>
0

>  <SCORE.heavy>
24

>  <SCORE.norm>
-0.0894483

>  <RMSD>
16.096

$$$$
lig.pdb
 OpenBabel11021811453D
libRbt.so/2013.1/901 2013/11/27
 24 24  0  0  0  0  0  0  0  0999 V2000
   -5.1560    8.2691    5.5313 C   0  0  0  0  0  0  0  0  0  0  0  0
   -5.0753    6.8359    5.5525 C   0  0  0  0  0  0  0  0  0  0  0  0
   -4.2684    6.1698    6.4442 C   0  0  0  0  0  0  0  0  0  0  0  0
   -3.4722    6.8691    7.4068 C   0  0  0  0  0  0  0  0  0  0  0  0
   -3.5281    8.3012    7.3622 C   0  0  0  0  0  0  0  0  0  0  0  0
   -4.3271    8.9674    6.4670 C   0  0  0  0  0  0  0  0  0  0  0  0
   -5.9781    8.9395    4.6714 C   0  0  0  0  0  0  0  0  0  0  0  0
   -6.1875    8.5393    3.3989 N   0  0  0  0  0  0  0  0  0  0  0  0
   -1.7317    6.8250    9.0429 N   0  0  0  0  0  0  0  0  0  0  0  0
   -2.6963    6.2178    8.3197 C   0  0  0  0  0  0  0  0  0  0  0  0
   -6.6516   10.0593    5.0338 N   0  0  0  0  0  0  0  0  0  0  0  0
   -2.8293    4.8951    8.5777 N   0  0  0  0  0  0  0  0  0  0  0  0
   -7.9900   10.4532    4.5979 C   0  0  0  0  0  0  0  0  0  0  0  0
   -2.3969    4.2063    9.7898 C   0  0  0  0  0  0  0  0  0  0  0  0
   -8.9260    9.2494    4.7920 C   0  0  0  0  0  0  0  0  0  0  0  0
   -3.6214    4.0576   10.7118 C   0  0  0  0  0  0  0  0  0  0  0  0
  -10.3009    9.5163    4.1638 C   0  0  0  0  0  0  0  0  0  0  0  0
   -4.5723    5.2659   10.6357 C   0  0  0  0  0  0  0  0  0  0  0  0
  -10.1766    9.4853    2.6620 N   0  0  0  0  0  0  0  0  0  0  0  0
   -4.4723    6.1274   11.8692 N   0  0  0  0  0  0  0  0  0  0  0  0
  -11.2077   10.3892    2.0429 C   0  0  0  0  0  0  0  0  0  0  0  0
   -3.2573    7.0077   11.7496 C   0  0  0  0  0  0  0  0  0  0  0  0
  -10.3530    8.0821    2.1366 C   0  0  0  0  0  0  0  0  0  0  0  0
   -4.3608    5.3097   13.1257 C   0  0  0  0  0  0  0  0  0  0  0  0
  1  6  2  0  0  0  0
  2  3  2  0  0  0  0
  2  1  1  0  0  0  0
  3  4  1  0  0  0  0
  4 10  1  0  0  0  0
  4  5  2  0  0  0  0
  6  5  1  0  0  0  0
  7  1  1  0  0  0  0
  7 11  1  0  0  0  0
  8  7  2  0  0  0  0
  9 10  2  0  0  0  0
 10 12  1  0  0  0  0
 12 14  1  0  0  0  0
 13 11  1  0  0  0  0
 13 15  1  0  0  0  0
 14 16  1  0  0  0  0
 16 18  1  0  0  0  0
 17 15  1  0  0  0  0
 17 19  1  0  0  0  0
 18 20  1  0  0  0  0
 19 23  1  0  0  0  0
 20 22  1  0  0  0  0
 20 24  1  0  0  0  0
 21 19  1  0  0  0  0
M  END
>  <CHROM.1>
165.52172154,-37.82467571,97.87009561,49.51459089,-171.56995678,-35.71767869
-106.25815588,71.61655730,-150.74440345,79.92397661,-5.61395051,7.50868889
6.93140687,-2.21044253,-0.17643157,1.93408926

>  <Name>
lig.pdb

>  <RI>
0

>  <Rbt.Current_Directory>
/home/itssahil/PROJECTS/Mol_Feturizer/New_Systems/rnas/2l94

>  <Rbt.Executable>
rbdock ($Id: //depot/dev/client3/rdock/2013.1/src/exe/rbdock.cxx#4 $)

>  <Rbt.Library>
libRbt.so (2013.1, Build901 2013/11/27)

>  <Rbt.Parameter_File>
/export/apps/rDock/src/rDock_2013.1_src/data/scripts/dock_solv.prm

>  <Rbt.Receptor>
prm/blind_docking_100.prm

>  <SCORE>
9.02799

>  <SCORE.INTER>
-5.92655

>  <SCORE.INTER.CONST>
1

>  <SCORE.INTER.POLAR>
-1.57162

>  <SCORE.INTER.ROT>
10

>  <SCORE.INTER.SOLV>
19.6872

>  <SCORE.INTER.VDW>
-15.5414

>  <SCORE.INTER.norm>
-0.246939

>  <SCORE.INTRA>
8.19746

>  <SCORE.INTRA.DIHEDRAL>
12.8983

>  <SCORE.INTRA.DIHEDRAL.0>
7.52971

>  <SCORE.INTRA.POLAR>
0

>  <SCORE.INTRA.POLAR.0>
0

>  <SCORE.INTRA.REPUL>
0.0639968

>  <SCORE.INTRA.REPUL.0>
0

>  <SCORE.INTRA.SOLV>
1.49334

>  <SCORE.INTRA.SOLV.lig_0>
-22.1084

>  <SCORE.INTRA.VDW>
0.681652

>  <SCORE.INTRA.VDW.0>
2.4256

>  <SCORE.INTRA.norm>
0.341561

>  <SCORE.RESTR>
6.75707

>  <SCORE.RESTR.CAVITY>
6.75707

>  <SCORE.RESTR.norm>
0.281545

>  <SCORE.SYSTEM>
0

>  <SCORE.SYSTEM.CONST>
0

>  <SCORE.SYSTEM.DIHEDRAL>
0

>  <SCORE.SYSTEM.SOLV>
0

>  <SCORE.SYSTEM.norm>
0

>  <SCORE.heavy>
24

>  <SCORE.norm>
0.376166

>  <RMSD>
16.107

$$$$
lig.pdb
 OpenBabel11021811453D
libRbt.so/2013.1/901 2013/11/27
 24 24  0  0  0  0  0  0  0  0999 V2000
   -6.0057    9.1867    4.8983 C   0  0  0  0  0  0  0  0  0  0  0  0
   -6.4039    7.9218    5.4485 C   0  0  0  0  0  0  0  0  0  0  0  0
   -5.4904    7.0487    5.9901 C   0  0  0  0  0  0  0  0  0  0  0  0
   -4.0937    7.3579    6.0437 C   0  0  0  0  0  0  0  0  0  0  0  0
   -3.6934    8.6065    5.4636 C   0  0  0  0  0  0  0  0  0  0  0  0
   -4.6034    9.4754    4.9153 C   0  0  0  0  0  0  0  0  0  0  0  0
   -6.9083   10.0748    4.3870 C   0  0  0  0  0  0  0  0  0  0  0  0
   -6.9830   10.3647    3.0704 N   0  0  0  0  0  0  0  0  0  0  0  0
   -1.8710    6.5191    6.2970 N   0  0  0  0  0  0  0  0  0  0  0  0
   -3.1838    6.5155    6.6113 C   0  0  0  0  0  0  0  0  0  0  0  0
   -7.8033   10.7315    5.1659 N   0  0  0  0  0  0  0  0  0  0  0  0
   -3.5252    5.5957    7.5447 N   0  0  0  0  0  0  0  0  0  0  0  0
   -9.1742   11.0907    4.8084 C   0  0  0  0  0  0  0  0  0  0  0  0
   -2.6250    4.9752    8.5118 C   0  0  0  0  0  0  0  0  0  0  0  0
  -10.1016    9.9635    5.2905 C   0  0  0  0  0  0  0  0  0  0  0  0
   -2.1773    6.0622    9.5066 C   0  0  0  0  0  0  0  0  0  0  0  0
   -9.8272    8.6618    4.5248 C   0  0  0  0  0  0  0  0  0  0  0  0
   -3.3618    6.7370   10.2217 C   0  0  0  0  0  0  0  0  0  0  0  0
  -10.4847    8.7329    3.1703 N   0  0  0  0  0  0  0  0  0  0  0  0
   -3.5978    6.1397   11.5859 N   0  0  0  0  0  0  0  0  0  0  0  0
  -11.0094    7.3771    2.7828 C   0  0  0  0  0  0  0  0  0  0  0  0
   -4.4188    4.8875   11.4325 C   0  0  0  0  0  0  0  0  0  0  0  0
   -9.5109    9.2164    2.1244 C   0  0  0  0  0  0  0  0  0  0  0  0
   -4.3192    7.0869   12.5037 C   0  0  0  0  0  0  0  0  0  0  0  0
  1  6  2  0  0  0  0
  2  3  2  0  0  0  0
  2  1  1  0  0  0  0
  3  4  1  0  0  0  0
  4 10  1  0  0  0  0
  4  5  2  0  0  0  0
  6  5  1  0  0  0  0
  7  1  1  0  0  0  0
  7 11  1  0  0  0  0
  8  7  2  0  0  0  0
  9 10  2  0  0  0  0
 10 12  1  0  0  0  0
 12 14  1  0  0  0  0
 13 11  1  0  0  0  0
 13 15  1  0  0  0  0
 14 16  1  0  0  0  0
 16 18  1  0  0  0  0
 17 15  1  0  0  0  0
 17 19  1  0  0  0  0
 18 20  1  0  0  0  0
 19 23  1  0  0  0  0
 20 22  1  0  0  0  0
 20 24  1  0  0  0  0
 21 19  1  0  0  0  0
M  END
>  <CHROM.1>
156.39795028,-111.34495138,67.93425155,92.90034245,-65.76836244,57.50918590
97.88630243,-78.79236408,-143.98715188,-82.76923795,-5.91639001,7.91483211
6.37442128,-2.29797303,-0.21316797,1.88984441

>  <Name>
lig.pdb

>  <RI>
0

>  <Rbt.Current_Directory>
/home/itssahil/PROJECTS/Mol_Feturizer/New_Systems/rnas/2l94

>  <Rbt.Executable>
rbdock ($Id: //depot/dev/client3/rdock/2013.1/src/exe/rbdock.cxx#4 $)

>  <Rbt.Library>
libRbt.so (2013.1, Build901 2013/11/27)

>  <Rbt.Parameter_File>
/export/apps/rDock/src/rDock_2013.1_src/data/scripts/dock_solv.prm

>  <Rbt.Receptor>
prm/blind_docking_100.prm

>  <SCORE>
-3.4503

>  <SCORE.INTER>
-16.0083

>  <SCORE.INTER.CONST>
1

>  <SCORE.INTER.POLAR>
-2.01869

>  <SCORE.INTER.ROT>
10

>  <SCORE.INTER.SOLV>
19.7207

>  <SCORE.INTER.VDW>
-20.7834

>  <SCORE.INTER.norm>
-0.667011

>  <SCORE.INTRA>
6.67189

>  <SCORE.INTRA.DIHEDRAL>
19.1616

>  <SCORE.INTRA.DIHEDRAL.0>
7.52971

>  <SCORE.INTRA.POLAR>
0

>  <SCORE.INTRA.POLAR.0>
0

>  <SCORE.INTRA.REPUL>
0

>  <SCORE.INTRA.REPUL.0>
0

>  <SCORE.INTRA.SOLV>
1.63735

>  <SCORE.INTRA.SOLV.lig_0>
-22.1084

>  <SCORE.INTRA.VDW>
-3.72757

>  <SCORE.INTRA.VDW.0>
2.4256

>  <SCORE.INTRA.norm>
0.277996

>  <SCORE.RESTR>
5.88608

>  <SCORE.RESTR.CAVITY>
5.88608

>  <SCORE.RESTR.norm>
0.245253

>  <SCORE.SYSTEM>
0

>  <SCORE.SYSTEM.CONST>
0

>  <SCORE.SYSTEM.DIHEDRAL>
0

>  <SCORE.SYSTEM.SOLV>
0

>  <SCORE.SYSTEM.norm>
0

>  <SCORE.heavy>
24

>  <SCORE.norm>
-0.143763

>  <RMSD>
16.136

$$$$
lig.pdb
 OpenBabel11021811453D
libRbt.so/2013.1/901 2013/11/27
 24 24  0  0  0  0  0  0  0  0999 V2000
   -3.9475    7.3175    6.0656 C   0  0  0  0  0  0  0  0  0  0  0  0
   -3.7194    8.7346    6.0372 C   0  0  0  0  0  0  0  0  0  0  0  0
   -4.5839    9.5940    5.4015 C   0  0  0  0  0  0  0  0  0  0  0  0
   -5.7640    9.1232    4.7419 C   0  0  0  0  0  0  0  0  0  0  0  0
   -5.9728    7.7046    4.7422 C   0  0  0  0  0  0  0  0  0  0  0  0
   -5.1061    6.8450    5.3696 C   0  0  0  0  0  0  0  0  0  0  0  0
   -3.1124    6.4586    6.7211 C   0  0  0  0  0  0  0  0  0  0  0  0
   -1.7697    6.4979    6.5845 N   0  0  0  0  0  0  0  0  0  0  0  0
   -6.8632    9.9936    2.8074 N   0  0  0  0  0  0  0  0  0  0  0  0
   -6.6473    9.9698    4.1397 C   0  0  0  0  0  0  0  0  0  0  0  0
   -3.5708    5.5009    7.5647 N   0  0  0  0  0  0  0  0  0  0  0  0
   -7.3869   10.8665    4.8346 N   0  0  0  0  0  0  0  0  0  0  0  0
   -2.9280    5.0387    8.7933 C   0  0  0  0  0  0  0  0  0  0  0  0
   -8.6326   11.4839    4.3903 C   0  0  0  0  0  0  0  0  0  0  0  0
   -3.4861    5.8668    9.9619 C   0  0  0  0  0  0  0  0  0  0  0  0
   -9.7351   10.4094    4.4342 C   0  0  0  0  0  0  0  0  0  0  0  0
   -3.3471    5.1073   11.2885 C   0  0  0  0  0  0  0  0  0  0  0  0
   -9.5916    9.3652    3.3123 C   0  0  0  0  0  0  0  0  0  0  0  0
   -4.1469    5.8138   12.3529 N   0  0  0  0  0  0  0  0  0  0  0  0
  -10.5288    8.2017    3.5159 N   0  0  0  0  0  0  0  0  0  0  0  0
   -3.6037    7.2003   12.5675 C   0  0  0  0  0  0  0  0  0  0  0  0
   -9.9114    7.2475    4.5026 C   0  0  0  0  0  0  0  0  0  0  0  0
   -4.1075    5.0483   13.6523 C   0  0  0  0  0  0  0  0  0  0  0  0
  -10.8081    7.4663    2.2349 C   0  0  0  0  0  0  0  0  0  0  0  0
  1  6  2  0  0  0  0
  2  3  2  0  0  0  0
  2  1  1  0  0  0  0
  3  4  1  0  0  0  0
  4 10  1  0  0  0  0
  4  5  2  0  0  0  0
  6  5  1  0  0  0  0
  7  1  1  0  0  0  0
  7 11  1  0  0  0  0
  8  7  2  0  0  0  0
  9 10  2  0  0  0  0
 10 12  1  0  0  0  0
 12 14  1  0  0  0  0
 13 11  1  0  0  0  0
 13 15  1  0  0  0  0
 14 16  1  0  0  0  0
 16 18  1  0  0  0  0
 17 15  1  0  0  0  0
 17 19  1  0  0  0  0
 18 20  1  0  0  0  0
 19 23  1  0  0  0  0
 20 22  1  0  0  0  0
 20 24  1  0  0  0  0
 21 19  1  0  0  0  0
M  END
>  <CHROM.1>
114.00064204,-47.85124116,71.98479689,92.29888811,156.14619325,-72.55973443
170.15170221,-168.55494687,-62.28538107,-81.64317656,-5.84661555,7.76175256
6.54489200,-0.96474695,0.09185153,-1.17584937

>  <Name>
lig.pdb

>  <RI>
0

>  <Rbt.Current_Directory>
/home/itssahil/PROJECTS/Mol_Feturizer/New_Systems/rnas/2l94

>  <Rbt.Executable>
rbdock ($Id: //depot/dev/client3/rdock/2013.1/src/exe/rbdock.cxx#4 $)

>  <Rbt.Library>
libRbt.so (2013.1, Build901 2013/11/27)

>  <Rbt.Parameter_File>
/export/apps/rDock/src/rDock_2013.1_src/data/scripts/dock_solv.prm

>  <Rbt.Receptor>
prm/blind_docking_100.prm

>  <SCORE>
-1.67951

>  <SCORE.INTER>
-14.2935

>  <SCORE.INTER.CONST>
1

>  <SCORE.INTER.POLAR>
-1.72049

>  <SCORE.INTER.ROT>
10

>  <SCORE.INTER.SOLV>
20.4685

>  <SCORE.INTER.VDW>
-20.8836

>  <SCORE.INTER.norm>
-0.595563

>  <SCORE.INTRA>
7.24934

>  <SCORE.INTRA.DIHEDRAL>
19.4426

>  <SCORE.INTRA.DIHEDRAL.0>
7.52971

>  <SCORE.INTRA.POLAR>
0

>  <SCORE.INTRA.POLAR.0>
0

>  <SCORE.INTRA.REPUL>
0

>  <SCORE.INTRA.REPUL.0>
0

>  <SCORE.INTRA.SOLV>
0.553971

>  <SCORE.INTRA.SOLV.lig_0>
-22.1084

>  <SCORE.INTRA.VDW>
-2.74893

>  <SCORE.INTRA.VDW.0>
2.4256

>  <SCORE.INTRA.norm>
0.302056

>  <SCORE.RESTR>
5.36467

>  <SCORE.RESTR.CAVITY>
5.36467

>  <SCORE.RESTR.norm>
0.223528

>  <SCORE.SYSTEM>
0

>  <SCORE.SYSTEM.CONST>
0

>  <SCORE.SYSTEM.DIHEDRAL>
0

>  <SCORE.SYSTEM.SOLV>
0

>  <SCORE.SYSTEM.norm>
0

>  <SCORE.heavy>
24

>  <SCORE.norm>
-0.0699796

>  <RMSD>
16.144

$$$$
lig.pdb
 OpenBabel11021811453D
libRbt.so/2013.1/901 2013/11/27
 24 24  0  0  0  0  0  0  0  0999 V2000
   -3.3409    6.6614    7.4400 C   0  0  0  0  0  0  0  0  0  0  0  0
   -3.4197    8.0947    7.4632 C   0  0  0  0  0  0  0  0  0  0  0  0
   -4.1979    8.7910    6.5690 C   0  0  0  0  0  0  0  0  0  0  0  0
   -4.9798    8.1239    5.5725 C   0  0  0  0  0  0  0  0  0  0  0  0
   -4.8738    6.6947    5.5290 C   0  0  0  0  0  0  0  0  0  0  0  0
   -4.0909    5.9989    6.4160 C   0  0  0  0  0  0  0  0  0  0  0  0
   -2.5963    5.9585    8.3435 C   0  0  0  0  0  0  0  0  0  0  0  0
   -1.5290    6.4869    8.9797 N   0  0  0  0  0  0  0  0  0  0  0  0
   -6.0308    8.3885    3.4433 N   0  0  0  0  0  0  0  0  0  0  0  0
   -5.7832    8.8021    4.7041 C   0  0  0  0  0  0  0  0  0  0  0  0
   -2.8768    4.6735    8.6737 N   0  0  0  0  0  0  0  0  0  0  0  0
   -6.4039    9.9588    5.0372 N   0  0  0  0  0  0  0  0  0  0  0  0
   -2.7203    4.0555    9.9890 C   0  0  0  0  0  0  0  0  0  0  0  0
   -7.5879   10.5175    4.3920 C   0  0  0  0  0  0  0  0  0  0  0  0
   -3.8168    4.6147   10.9098 C   0  0  0  0  0  0  0  0  0  0  0  0
   -8.8046    9.6812    4.8302 C   0  0  0  0  0  0  0  0  0  0  0  0
   -3.2842    4.8220   12.3344 C   0  0  0  0  0  0  0  0  0  0  0  0
  -10.0705   10.0023    4.0152 C   0  0  0  0  0  0  0  0  0  0  0  0
   -4.2661    5.6563   13.1165 N   0  0  0  0  0  0  0  0  0  0  0  0
   -9.9187    9.5920    2.5723 N   0  0  0  0  0  0  0  0  0  0  0  0
   -4.3636    7.0321   12.5155 C   0  0  0  0  0  0  0  0  0  0  0  0
  -10.9464   10.3211    1.7492 C   0  0  0  0  0  0  0  0  0  0  0  0
   -3.8484    5.7643   14.5622 C   0  0  0  0  0  0  0  0  0  0  0  0
  -10.1001    8.1120    2.3805 C   0  0  0  0  0  0  0  0  0  0  0  0
  1  6  2  0  0  0  0
  2  3  2  0  0  0  0
  2  1  1  0  0  0  0
  3  4  1  0  0  0  0
  4 10  1  0  0  0  0
  4  5  2  0  0  0  0
  6  5  1  0  0  0  0
  7  1  1  0  0  0  0
  7 11  1  0  0  0  0
  8  7  2  0  0  0  0
  9 10  2  0  0  0  0
 10 12  1  0  0  0  0
 12 14  1  0  0  0  0
 13 11  1  0  0  0  0
 13 15  1  0  0  0  0
 14 16  1  0  0  0  0
 16 18  1  0  0  0  0
 17 15  1  0  0  0  0
 17 19  1  0  0  0  0
 18 20  1  0  0  0  0
 19 23  1  0  0  0  0
 20 22  1  0  0  0  0
 20 24  1  0  0  0  0
 21 19  1  0  0  0  0
M  END
>  <CHROM.1>
148.10532283,-25.22808965,73.91042685,71.97705113,-142.51221317,-169.20109541
66.24773751,166.96567471,-64.46716175,-161.23075331,-5.46203658,7.45627261
7.16701445,-0.96141389,0.40224593,-1.37666937

>  <Name>
lig.pdb

>  <RI>
0

>  <Rbt.Current_Directory>
/home/itssahil/PROJECTS/Mol_Feturizer/New_Systems/rnas/2l94

>  <Rbt.Executable>
rbdock ($Id: //depot/dev/client3/rdock/2013.1/src/exe/rbdock.cxx#4 $)

>  <Rbt.Library>
libRbt.so (2013.1, Build901 2013/11/27)

>  <Rbt.Parameter_File>
/export/apps/rDock/src/rDock_2013.1_src/data/scripts/dock_solv.prm

>  <Rbt.Receptor>
prm/blind_docking_100.prm

>  <SCORE>
4.68483

>  <SCORE.INTER>
-2.97798

>  <SCORE.INTER.CONST>
1

>  <SCORE.INTER.POLAR>
-1.26532

>  <SCORE.INTER.ROT>
10

>  <SCORE.INTER.SOLV>
20.1613

>  <SCORE.INTER.VDW>
-14.7547

>  <SCORE.INTER.norm>
-0.124082

>  <SCORE.INTRA>
2.16646

>  <SCORE.INTRA.DIHEDRAL>
9.01047

>  <SCORE.INTRA.DIHEDRAL.0>
7.52971

>  <SCORE.INTRA.POLAR>
0

>  <SCORE.INTRA.POLAR.0>
0

>  <SCORE.INTRA.REPUL>
0.0317742

>  <SCORE.INTRA.REPUL.0>
0

>  <SCORE.INTRA.SOLV>
0.41809

>  <SCORE.INTRA.SOLV.lig_0>
-22.1084

>  <SCORE.INTRA.VDW>
-2.70669

>  <SCORE.INTRA.VDW.0>
2.4256

>  <SCORE.INTRA.norm>
0.0902694

>  <SCORE.RESTR>
5.49634

>  <SCORE.RESTR.CAVITY>
5.49634

>  <SCORE.RESTR.norm>
0.229014

>  <SCORE.SYSTEM>
0

>  <SCORE.SYSTEM.CONST>
0

>  <SCORE.SYSTEM.DIHEDRAL>
0

>  <SCORE.SYSTEM.SOLV>
0

>  <SCORE.SYSTEM.norm>
0

>  <SCORE.heavy>
24

>  <SCORE.norm>
0.195201

>  <RMSD>
16.162

$$$$
lig.pdb
 OpenBabel11021811453D
libRbt.so/2013.1/901 2013/11/27
 24 24  0  0  0  0  0  0  0  0999 V2000
   -3.9747    7.4471    6.2376 C   0  0  0  0  0  0  0  0  0  0  0  0
   -5.3209    7.0230    5.9747 C   0  0  0  0  0  0  0  0  0  0  0  0
   -6.2335    7.8497    5.3633 C   0  0  0  0  0  0  0  0  0  0  0  0
   -5.8879    9.1750    4.9467 C   0  0  0  0  0  0  0  0  0  0  0  0
   -4.5533    9.6090    5.2403 C   0  0  0  0  0  0  0  0  0  0  0  0
   -3.6437    8.7873    5.8579 C   0  0  0  0  0  0  0  0  0  0  0  0
   -3.0515    6.6232    6.8153 C   0  0  0  0  0  0  0  0  0  0  0  0
   -1.7639    6.5720    6.4122 N   0  0  0  0  0  0  0  0  0  0  0  0
   -6.8950   10.0478    2.9637 N   0  0  0  0  0  0  0  0  0  0  0  0
   -6.7741    9.9904    4.3069 C   0  0  0  0  0  0  0  0  0  0  0  0
   -3.3592    5.7945    7.8437 N   0  0  0  0  0  0  0  0  0  0  0  0
   -7.6133   10.8192    4.9723 N   0  0  0  0  0  0  0  0  0  0  0  0
   -2.4954    5.4399    8.9681 C   0  0  0  0  0  0  0  0  0  0  0  0
   -8.8583   11.3799    4.4564 C   0  0  0  0  0  0  0  0  0  0  0  0
   -3.2734    4.4770    9.8794 C   0  0  0  0  0  0  0  0  0  0  0  0
  -10.0192   10.5107    4.9746 C   0  0  0  0  0  0  0  0  0  0  0  0
   -4.2899    5.2381   10.7416 C   0  0  0  0  0  0  0  0  0  0  0  0
   -9.9178    9.0464    4.5103 C   0  0  0  0  0  0  0  0  0  0  0  0
   -3.5698    5.9145   11.8799 N   0  0  0  0  0  0  0  0  0  0  0  0
  -10.5317    8.8545    3.1465 N   0  0  0  0  0  0  0  0  0  0  0  0
   -4.3587    5.7581   13.1514 C   0  0  0  0  0  0  0  0  0  0  0  0
  -10.8484    7.3953    2.9573 C   0  0  0  0  0  0  0  0  0  0  0  0
   -3.3629    7.3805   11.5901 C   0  0  0  0  0  0  0  0  0  0  0  0
   -9.6146    9.3021    2.0426 C   0  0  0  0  0  0  0  0  0  0  0  0
  1  6  2  0  0  0  0
  2  3  2  0  0  0  0
  2  1  1  0  0  0  0
  3  4  1  0  0  0  0
  4 10  1  0  0  0  0
  4  5  2  0  0  0  0
  6  5  1  0  0  0  0
  7  1  1  0  0  0  0
  7 11  1  0  0  0  0
  8  7  2  0  0  0  0
  9 10  2  0  0  0  0
 10 12  1  0  0  0  0
 12 14  1  0  0  0  0
 13 11  1  0  0  0  0
 13 15  1  0  0  0  0
 14 16  1  0  0  0  0
 16 18  1  0  0  0  0
 17 15  1  0  0  0  0
 17 19  1  0  0  0  0
 18 20  1  0  0  0  0
 19 23  1  0  0  0  0
 20 22  1  0  0  0  0
 20 24  1  0  0  0  0
 21 19  1  0  0  0  0
M  END
>  <CHROM.1>
-91.12508141,139.35177390,97.90883213,179.89008544,-77.64297226,-60.42202059
-85.50663853,-77.33372231,-137.84322524,-160.07804083,-5.87570270,7.91879026
6.49493873,-0.90800758,0.16510823,-1.18813030

>  <Name>
lig.pdb

>  <RI>
0

>  <Rbt.Current_Directory>
/home/itssahil/PROJECTS/Mol_Feturizer/New_Systems/rnas/2l94

>  <Rbt.Executable>
rbdock ($Id: //depot/dev/client3/rdock/2013.1/src/exe/rbdock.cxx#4 $)

>  <Rbt.Library>
libRbt.so (2013.1, Build901 2013/11/27)

>  <Rbt.Parameter_File>
/export/apps/rDock/src/rDock_2013.1_src/data/scripts/dock_solv.prm

>  <Rbt.Receptor>
prm/blind_docking_100.prm

>  <SCORE>
-2.36236

>  <SCORE.INTER>
-17.8076

>  <SCORE.INTER.CONST>
1

>  <SCORE.INTER.POLAR>
-2.00152

>  <SCORE.INTER.ROT>
10

>  <SCORE.INTER.SOLV>
20.8526

>  <SCORE.INTER.VDW>
-22.4176

>  <SCORE.INTER.norm>
-0.741984

>  <SCORE.INTRA>
9.04092

>  <SCORE.INTRA.DIHEDRAL>
23.4305

>  <SCORE.INTRA.DIHEDRAL.0>
7.52971

>  <SCORE.INTRA.POLAR>
0

>  <SCORE.INTRA.POLAR.0>
0

>  <SCORE.INTRA.REPUL>
0

>  <SCORE.INTRA.REPUL.0>
0

>  <SCORE.INTRA.SOLV>
1.19407

>  <SCORE.INTRA.SOLV.lig_0>
-22.1084

>  <SCORE.INTRA.VDW>
-3.27138

>  <SCORE.INTRA.VDW.0>
2.4256

>  <SCORE.INTRA.norm>
0.376705

>  <SCORE.RESTR>
6.40433

>  <SCORE.RESTR.CAVITY>
6.40433

>  <SCORE.RESTR.norm>
0.266847

>  <SCORE.SYSTEM>
0

>  <SCORE.SYSTEM.CONST>
0

>  <SCORE.SYSTEM.DIHEDRAL>
0

>  <SCORE.SYSTEM.SOLV>
0

>  <SCORE.SYSTEM.norm>
0

>  <SCORE.heavy>
24

>  <SCORE.norm>
-0.0984318

>  <RMSD>
16.197

$$$$
lig.pdb
 OpenBabel11021811453D
libRbt.so/2013.1/901 2013/11/27
 24 24  0  0  0  0  0  0  0  0999 V2000
   -4.2069    7.1503    5.9402 C   0  0  0  0  0  0  0  0  0  0  0  0
   -4.1343    8.5461    6.2683 C   0  0  0  0  0  0  0  0  0  0  0  0
   -4.9603    9.4723    5.6767 C   0  0  0  0  0  0  0  0  0  0  0  0
   -5.9445    9.0936    4.7085 C   0  0  0  0  0  0  0  0  0  0  0  0
   -5.9930    7.7044    4.3571 C   0  0  0  0  0  0  0  0  0  0  0  0
   -5.1634    6.7800    4.9412 C   0  0  0  0  0  0  0  0  0  0  0  0
   -3.4133    6.2180    6.5450 C   0  0  0  0  0  0  0  0  0  0  0  0
   -2.4823    5.5054    5.8752 N   0  0  0  0  0  0  0  0  0  0  0  0
   -7.0416   10.0557    2.8168 N   0  0  0  0  0  0  0  0  0  0  0  0
   -6.7933    9.9983    4.1424 C   0  0  0  0  0  0  0  0  0  0  0  0
   -3.4986    5.9399    7.8696 N   0  0  0  0  0  0  0  0  0  0  0  0
   -7.4626   10.9241    4.8697 N   0  0  0  0  0  0  0  0  0  0  0  0
   -2.3942    5.5935    8.7621 C   0  0  0  0  0  0  0  0  0  0  0  0
   -8.6822   11.6180    4.4676 C   0  0  0  0  0  0  0  0  0  0  0  0
   -2.5171    6.4578   10.0273 C   0  0  0  0  0  0  0  0  0  0  0  0
   -9.8825   10.7704    4.9287 C   0  0  0  0  0  0  0  0  0  0  0  0
   -3.4111    5.7766   11.0727 C   0  0  0  0  0  0  0  0  0  0  0  0
  -10.5059    9.9515    3.7838 C   0  0  0  0  0  0  0  0  0  0  0  0
   -4.3042    6.8086   11.7124 N   0  0  0  0  0  0  0  0  0  0  0  0
   -9.5825    8.8522    3.3230 N   0  0  0  0  0  0  0  0  0  0  0  0
   -3.4886    7.7223   12.5862 C   0  0  0  0  0  0  0  0  0  0  0  0
  -10.3145    7.9856    2.3338 C   0  0  0  0  0  0  0  0  0  0  0  0
   -5.3826    6.1500   12.5367 C   0  0  0  0  0  0  0  0  0  0  0  0
   -9.1056    7.9959    4.4629 C   0  0  0  0  0  0  0  0  0  0  0  0
  1  6  2  0  0  0  0
  2  3  2  0  0  0  0
  2  1  1  0  0  0  0
  3  4  1  0  0  0  0
  4 10  1  0  0  0  0
  4  5  2  0  0  0  0
  6  5  1  0  0  0  0
  7  1  1  0  0  0  0
  7 11  1  0  0  0  0
  8  7  2  0  0  0  0
  9 10  2  0  0  0  0
 10 12  1  0  0  0  0
 12 14  1  0  0  0  0
 13 11  1  0  0  0  0
 13 15  1  0  0  0  0
 14 16  1  0  0  0  0
 16 18  1  0  0  0  0
 17 15  1  0  0  0  0
 17 19  1  0  0  0  0
 18 20  1  0  0  0  0
 19 23  1  0  0  0  0
 20 22  1  0  0  0  0
 20 24  1  0  0  0  0
 21 19  1  0  0  0  0
M  END
>  <CHROM.1>
133.46353724,-115.20549010,89.14013209,131.87373630,88.09656976,-101.28735026
68.88802094,-138.83614055,-70.07192817,172.82292186,-5.89361817,8.03515788
6.45223689,-0.80660466,0.54969843,-1.56778442

>  <Name>
lig.pdb

>  <RI>
0

>  <Rbt.Current_Directory>
/home/itssahil/PROJECTS/Mol_Feturizer/New_Systems/rnas/2l94

>  <Rbt.Executable>
rbdock ($Id: //depot/dev/client3/rdock/2013.1/src/exe/rbdock.cxx#4 $)

>  <Rbt.Library>
libRbt.so (2013.1, Build901 2013/11/27)

>  <Rbt.Parameter_File>
/export/apps/rDock/src/rDock_2013.1_src/data/scripts/dock_solv.prm

>  <Rbt.Receptor>
prm/blind_docking_100.prm

>  <SCORE>
10.6267

>  <SCORE.INTER>
-4.95944

>  <SCORE.INTER.CONST>
1

>  <SCORE.INTER.POLAR>
-0.674597

>  <SCORE.INTER.ROT>
10

>  <SCORE.INTER.SOLV>
19.3526

>  <SCORE.INTER.VDW>
-17.7752

>  <SCORE.INTER.norm>
-0.206643

>  <SCORE.INTRA>
11.6338

>  <SCORE.INTRA.DIHEDRAL>
26.2609

>  <SCORE.INTRA.DIHEDRAL.0>
7.52971

>  <SCORE.INTRA.POLAR>
0

>  <SCORE.INTRA.POLAR.0>
0

>  <SCORE.INTRA.REPUL>
0

>  <SCORE.INTRA.REPUL.0>
0

>  <SCORE.INTRA.SOLV>
2.03019

>  <SCORE.INTRA.SOLV.lig_0>
-22.1084

>  <SCORE.INTRA.VDW>
-2.51172

>  <SCORE.INTRA.VDW.0>
2.4256

>  <SCORE.INTRA.norm>
0.484742

>  <SCORE.RESTR>
3.95236

>  <SCORE.RESTR.CAVITY>
3.95236

>  <SCORE.RESTR.norm>
0.164681

>  <SCORE.SYSTEM>
0

>  <SCORE.SYSTEM.CONST>
0

>  <SCORE.SYSTEM.DIHEDRAL>
0

>  <SCORE.SYSTEM.SOLV>
0

>  <SCORE.SYSTEM.norm>
0

>  <SCORE.heavy>
24

>  <SCORE.norm>
0.44278

>  <RMSD>
16.223

$$$$
lig.pdb
 OpenBabel11021811453D
libRbt.so/2013.1/901 2013/11/27
 24 24  0  0  0  0  0  0  0  0999 V2000
   -3.3838    6.2250    7.6597 C   0  0  0  0  0  0  0  0  0  0  0  0
   -2.7991    6.4031    6.3607 C   0  0  0  0  0  0  0  0  0  0  0  0
   -3.2608    7.3561    5.4839 C   0  0  0  0  0  0  0  0  0  0  0  0
   -4.3435    8.2292    5.8227 C   0  0  0  0  0  0  0  0  0  0  0  0
   -4.9484    8.0277    7.1069 C   0  0  0  0  0  0  0  0  0  0  0  0
   -4.4936    7.0713    7.9799 C   0  0  0  0  0  0  0  0  0  0  0  0
   -2.9124    5.3033    8.5502 C   0  0  0  0  0  0  0  0  0  0  0  0
   -1.5958    5.0545    8.7165 N   0  0  0  0  0  0  0  0  0  0  0  0
   -4.0381   10.2642    4.6087 N   0  0  0  0  0  0  0  0  0  0  0  0
   -4.7858    9.2018    4.9752 C   0  0  0  0  0  0  0  0  0  0  0  0
   -3.7345    4.5690    9.3402 N   0  0  0  0  0  0  0  0  0  0  0  0
   -6.0241    9.1831    4.4272 N   0  0  0  0  0  0  0  0  0  0  0  0
   -3.4742    4.1422   10.7136 C   0  0  0  0  0  0  0  0  0  0  0  0
   -6.4399    9.8816    3.2149 C   0  0  0  0  0  0  0  0  0  0  0  0
   -3.4210    5.3977   11.5990 C   0  0  0  0  0  0  0  0  0  0  0  0
   -7.9088    9.5124    2.9364 C   0  0  0  0  0  0  0  0  0  0  0  0
   -4.6261    5.4514   12.5482 C   0  0  0  0  0  0  0  0  0  0  0  0
   -8.8571    9.9572    4.0646 C   0  0  0  0  0  0  0  0  0  0  0  0
   -4.4150    6.5491   13.5593 N   0  0  0  0  0  0  0  0  0  0  0  0
  -10.0143    9.0036    4.2232 N   0  0  0  0  0  0  0  0  0  0  0  0
   -3.5168    6.0633   14.6642 C   0  0  0  0  0  0  0  0  0  0  0  0
   -9.4831    7.6624    4.6526 C   0  0  0  0  0  0  0  0  0  0  0  0
   -5.7303    7.0054   14.1403 C   0  0  0  0  0  0  0  0  0  0  0  0
  -10.7907    8.8353    2.9470 C   0  0  0  0  0  0  0  0  0  0  0  0
  1  6  2  0  0  0  0
  2  3  2  0  0  0  0
  2  1  1  0  0  0  0
  3  4  1  0  0  0  0
  4 10  1  0  0  0  0
  4  5  2  0  0  0  0
  6  5  1  0  0  0  0
  7  1  1  0  0  0  0
  7 11  1  0  0  0  0
  8  7  2  0  0  0  0
  9 10  2  0  0  0  0
 10 12  1  0  0  0  0
 12 14  1  0  0  0  0
 13 11  1  0  0  0  0
 13 15  1  0  0  0  0
 14 16  1  0  0  0  0
 16 18  1  0  0  0  0
 17 15  1  0  0  0  0
 17 19  1  0  0  0  0
 18 20  1  0  0  0  0
 19 23  1  0  0  0  0
 20 22  1  0  0  0  0
 20 24  1  0  0  0  0
 21 19  1  0  0  0  0
M  END
>  <CHROM.1>
-65.16374559,39.16220775,177.11467185,65.82464767,111.15763657,61.91213629
-147.40518666,169.94104513,-81.01742973,64.12142002,-5.26460995,7.35897292
7.55375763,-1.11509560,0.26379107,-1.28876089

>  <Name>
lig.pdb

>  <RI>
0

>  <Rbt.Current_Directory>
/home/itssahil/PROJECTS/Mol_Feturizer/New_Systems/rnas/2l94

>  <Rbt.Executable>
rbdock ($Id: //depot/dev/client3/rdock/2013.1/src/exe/rbdock.cxx#4 $)

>  <Rbt.Library>
libRbt.so (2013.1, Build901 2013/11/27)

>  <Rbt.Parameter_File>
/export/apps/rDock/src/rDock_2013.1_src/data/scripts/dock_solv.prm

>  <Rbt.Receptor>
prm/blind_docking_100.prm

>  <SCORE>
12.9708

>  <SCORE.INTER>
-5.94178

>  <SCORE.INTER.CONST>
1

>  <SCORE.INTER.POLAR>
-1.01333

>  <SCORE.INTER.ROT>
10

>  <SCORE.INTER.SOLV>
17.1036

>  <SCORE.INTER.VDW>
-16.5513

>  <SCORE.INTER.norm>
-0.247574

>  <SCORE.INTRA>
11.0763

>  <SCORE.INTRA.DIHEDRAL>
22.7441

>  <SCORE.INTRA.DIHEDRAL.0>
7.52971

>  <SCORE.INTRA.POLAR>
0

>  <SCORE.INTRA.POLAR.0>
0

>  <SCORE.INTRA.REPUL>
0

>  <SCORE.INTRA.REPUL.0>
0

>  <SCORE.INTRA.SOLV>
0.222786

>  <SCORE.INTRA.SOLV.lig_0>
-22.1084

>  <SCORE.INTRA.VDW>
-0.407105

>  <SCORE.INTRA.VDW.0>
2.4256

>  <SCORE.INTRA.norm>
0.461514

>  <SCORE.RESTR>
7.83628

>  <SCORE.RESTR.CAVITY>
7.83628

>  <SCORE.RESTR.norm>
0.326511

>  <SCORE.SYSTEM>
0

>  <SCORE.SYSTEM.CONST>
0

>  <SCORE.SYSTEM.DIHEDRAL>
0

>  <SCORE.SYSTEM.SOLV>
0

>  <SCORE.SYSTEM.norm>
0

>  <SCORE.heavy>
24

>  <SCORE.norm>
0.540451

>  <RMSD>
16.234

$$$$
lig.pdb
 OpenBabel11021811453D
libRbt.so/2013.1/901 2013/11/27
 24 24  0  0  0  0  0  0  0  0999 V2000
   -3.9663    7.4272    6.2218 C   0  0  0  0  0  0  0  0  0  0  0  0
   -3.6125    8.7364    5.7508 C   0  0  0  0  0  0  0  0  0  0  0  0
   -4.5383    9.5717    5.1717 C   0  0  0  0  0  0  0  0  0  0  0  0
   -5.9078    9.1848    5.0161 C   0  0  0  0  0  0  0  0  0  0  0  0
   -6.2523    7.8644    5.4562 C   0  0  0  0  0  0  0  0  0  0  0  0
   -5.3271    7.0267    6.0271 C   0  0  0  0  0  0  0  0  0  0  0  0
   -3.0620    6.6023    6.8272 C   0  0  0  0  0  0  0  0  0  0  0  0
   -1.7577    6.5674    6.4799 N   0  0  0  0  0  0  0  0  0  0  0  0
   -6.8651   10.3637    3.1716 N   0  0  0  0  0  0  0  0  0  0  0  0
   -6.8422   10.0188    4.4765 C   0  0  0  0  0  0  0  0  0  0  0  0
   -3.4070    5.7559    7.8291 N   0  0  0  0  0  0  0  0  0  0  0  0
   -7.8329   10.5766    5.2121 N   0  0  0  0  0  0  0  0  0  0  0  0
   -2.5899    5.3916    8.9848 C   0  0  0  0  0  0  0  0  0  0  0  0
   -9.0975   11.0958    4.7006 C   0  0  0  0  0  0  0  0  0  0  0  0
   -2.4788    6.6249    9.8956 C   0  0  0  0  0  0  0  0  0  0  0  0
  -10.1659   10.0013    4.8809 C   0  0  0  0  0  0  0  0  0  0  0  0
   -3.6994    6.7367   10.8195 C   0  0  0  0  0  0  0  0  0  0  0  0
   -9.6797    8.6153    4.4200 C   0  0  0  0  0  0  0  0  0  0  0  0
   -3.5737    5.7304   11.9346 N   0  0  0  0  0  0  0  0  0  0  0  0
  -10.1230    8.3137    3.0108 N   0  0  0  0  0  0  0  0  0  0  0  0
   -4.6573    4.6936   11.8149 C   0  0  0  0  0  0  0  0  0  0  0  0
   -9.4773    9.3014    2.0765 C   0  0  0  0  0  0  0  0  0  0  0  0
   -3.6656    6.4052   13.2808 C   0  0  0  0  0  0  0  0  0  0  0  0
  -11.6158    8.3981    2.8545 C   0  0  0  0  0  0  0  0  0  0  0  0
  1  6  2  0  0  0  0
  2  3  2  0  0  0  0
  2  1  1  0  0  0  0
  3  4  1  0  0  0  0
  4 10  1  0  0  0  0
  4  5  2  0  0  0  0
  6  5  1  0  0  0  0
  7  1  1  0  0  0  0
  7 11  1  0  0  0  0
  8  7  2  0  0  0  0
  9 10  2  0  0  0  0
 10 12  1  0  0  0  0
 12 14  1  0  0  0  0
 13 11  1  0  0  0  0
 13 15  1  0  0  0  0
 14 16  1  0  0  0  0
 16 18  1  0  0  0  0
 17 15  1  0  0  0  0
 17 19  1  0  0  0  0
 18 20  1  0  0  0  0
 19 23  1  0  0  0  0
 20 22  1  0  0  0  0
 20 24  1  0  0  0  0
 21 19  1  0  0  0  0
M  END
>  <CHROM.1>
70.02909092,-34.32045540,97.26203316,69.59016105,83.71211355,-46.22407009
-96.36015738,76.26143176,-114.08052793,63.85358790,-5.87411689,7.93405801
6.54059096,-0.89657841,0.12230740,-1.19018398

>  <Name>
lig.pdb

>  <RI>
0

>  <Rbt.Current_Directory>
/home/itssahil/PROJECTS/Mol_Feturizer/New_Systems/rnas/2l94

>  <Rbt.Executable>
rbdock ($Id: //depot/dev/client3/rdock/2013.1/src/exe/rbdock.cxx#4 $)

>  <Rbt.Library>
libRbt.so (2013.1, Build901 2013/11/27)

>  <Rbt.Parameter_File>
/export/apps/rDock/src/rDock_2013.1_src/data/scripts/dock_solv.prm

>  <Rbt.Receptor>
prm/blind_docking_100.prm

>  <SCORE>
-1.28419

>  <SCORE.INTER>
-18.2015

>  <SCORE.INTER.CONST>
1

>  <SCORE.INTER.POLAR>
-2.22851

>  <SCORE.INTER.ROT>
10

>  <SCORE.INTER.SOLV>
20.7113

>  <SCORE.INTER.VDW>
-21.8764

>  <SCORE.INTER.norm>
-0.758395

>  <SCORE.INTRA>
11.4808

>  <SCORE.INTRA.DIHEDRAL>
23.4227

>  <SCORE.INTRA.DIHEDRAL.0>
7.52971

>  <SCORE.INTRA.POLAR>
0

>  <SCORE.INTRA.POLAR.0>
0

>  <SCORE.INTRA.REPUL>
0

>  <SCORE.INTRA.REPUL.0>
0

>  <SCORE.INTRA.SOLV>
1.39721

>  <SCORE.INTRA.SOLV.lig_0>
-22.1084

>  <SCORE.INTRA.VDW>
-0.929145

>  <SCORE.INTRA.VDW.0>
2.4256

>  <SCORE.INTRA.norm>
0.478368

>  <SCORE.RESTR>
5.43646

>  <SCORE.RESTR.CAVITY>
5.43646

>  <SCORE.RESTR.norm>
0.226519

>  <SCORE.SYSTEM>
0

>  <SCORE.SYSTEM.CONST>
0

>  <SCORE.SYSTEM.DIHEDRAL>
0

>  <SCORE.SYSTEM.SOLV>
0

>  <SCORE.SYSTEM.norm>
0

>  <SCORE.heavy>
24

>  <SCORE.norm>
-0.053508

>  <RMSD>
16.235

$$$$
lig.pdb
 OpenBabel11021811453D
libRbt.so/2013.1/901 2013/11/27
 24 24  0  0  0  0  0  0  0  0999 V2000
   -4.0262    7.2320    6.2220 C   0  0  0  0  0  0  0  0  0  0  0  0
   -5.2003    6.5987    5.6914 C   0  0  0  0  0  0  0  0  0  0  0  0
   -6.1078    7.2866    4.9210 C   0  0  0  0  0  0  0  0  0  0  0  0
   -5.9258    8.6692    4.5978 C   0  0  0  0  0  0  0  0  0  0  0  0
   -4.7705    9.3088    5.1562 C   0  0  0  0  0  0  0  0  0  0  0  0
   -3.8681    8.6252    5.9322 C   0  0  0  0  0  0  0  0  0  0  0  0
   -3.1025    6.5503    6.9615 C   0  0  0  0  0  0  0  0  0  0  0  0
   -1.8313    6.9779    7.1175 N   0  0  0  0  0  0  0  0  0  0  0  0
   -6.5476   10.5803    3.3056 N   0  0  0  0  0  0  0  0  0  0  0  0
   -6.8003    9.3517    3.8046 C   0  0  0  0  0  0  0  0  0  0  0  0
   -3.3952    5.3904    7.6004 N   0  0  0  0  0  0  0  0  0  0  0  0
   -8.0069    8.8496    3.4497 N   0  0  0  0  0  0  0  0  0  0  0  0
   -2.8723    4.9486    8.8917 C   0  0  0  0  0  0  0  0  0  0  0  0
   -8.8051    9.2588    2.2982 C   0  0  0  0  0  0  0  0  0  0  0  0
   -3.7346    5.5824    9.9952 C   0  0  0  0  0  0  0  0  0  0  0  0
  -10.2434    9.5137    2.7861 C   0  0  0  0  0  0  0  0  0  0  0  0
   -3.4092    4.9712   11.3651 C   0  0  0  0  0  0  0  0  0  0  0  0
  -10.2914   10.1434    4.1900 C   0  0  0  0  0  0  0  0  0  0  0  0
   -4.1640    5.7175   12.4352 N   0  0  0  0  0  0  0  0  0  0  0  0
   -9.4716   11.4071    4.2581 N   0  0  0  0  0  0  0  0  0  0  0  0
   -3.6619    7.1329   12.5252 C   0  0  0  0  0  0  0  0  0  0  0  0
   -8.4922   11.2901    5.3951 C   0  0  0  0  0  0  0  0  0  0  0  0
   -4.0096    5.0399   13.7743 C   0  0  0  0  0  0  0  0  0  0  0  0
  -10.3243   12.6266    4.4719 C   0  0  0  0  0  0  0  0  0  0  0  0
  1  6  2  0  0  0  0
  2  3  2  0  0  0  0
  2  1  1  0  0  0  0
  3  4  1  0  0  0  0
  4 10  1  0  0  0  0
  4  5  2  0  0  0  0
  6  5  1  0  0  0  0
  7  1  1  0  0  0  0
  7 11  1  0  0  0  0
  8  7  2  0  0  0  0
  9 10  2  0  0  0  0
 10 12  1  0  0  0  0
 12 14  1  0  0  0  0
 13 11  1  0  0  0  0
 13 15  1  0  0  0  0
 14 16  1  0  0  0  0
 16 18  1  0  0  0  0
 17 15  1  0  0  0  0
 17 19  1  0  0  0  0
 18 20  1  0  0  0  0
 19 23  1  0  0  0  0
 20 22  1  0  0  0  0
 20 24  1  0  0  0  0
 21 19  1  0  0  0  0
M  END
>  <CHROM.1>
-168.78101889,158.91987248,-131.23665349,84.13004905,169.84067592,36.45056862
54.66693808,173.98651347,-65.83976763,-126.06790634,-5.82120516,8.06544378
6.60352982,-0.88740863,0.55868466,-1.39271590

>  <Name>
lig.pdb

>  <RI>
0

>  <Rbt.Current_Directory>
/home/itssahil/PROJECTS/Mol_Feturizer/New_Systems/rnas/2l94

>  <Rbt.Executable>
rbdock ($Id: //depot/dev/client3/rdock/2013.1/src/exe/rbdock.cxx#4 $)

>  <Rbt.Library>
libRbt.so (2013.1, Build901 2013/11/27)

>  <Rbt.Parameter_File>
/export/apps/rDock/src/rDock_2013.1_src/data/scripts/dock_solv.prm

>  <Rbt.Receptor>
prm/blind_docking_100.prm

>  <SCORE>
-8.11259

>  <SCORE.INTER>
-18.2864

>  <SCORE.INTER.CONST>
1

>  <SCORE.INTER.POLAR>
-3.08053

>  <SCORE.INTER.ROT>
10

>  <SCORE.INTER.SOLV>
19.2232

>  <SCORE.INTER.VDW>
-18.5969

>  <SCORE.INTER.norm>
-0.761932

>  <SCORE.INTRA>
3.85785

>  <SCORE.INTRA.DIHEDRAL>
5.53628

>  <SCORE.INTRA.DIHEDRAL.0>
7.52971

>  <SCORE.INTRA.POLAR>
0

>  <SCORE.INTRA.POLAR.0>
0

>  <SCORE.INTRA.REPUL>
0.102075

>  <SCORE.INTRA.REPUL.0>
0

>  <SCORE.INTRA.SOLV>
1.9666

>  <SCORE.INTRA.SOLV.lig_0>
-22.1084

>  <SCORE.INTRA.VDW>
-0.403971

>  <SCORE.INTRA.VDW.0>
2.4256

>  <SCORE.INTRA.norm>
0.160744

>  <SCORE.RESTR>
6.31593

>  <SCORE.RESTR.CAVITY>
6.31593

>  <SCORE.RESTR.norm>
0.263164

>  <SCORE.SYSTEM>
0

>  <SCORE.SYSTEM.CONST>
0

>  <SCORE.SYSTEM.DIHEDRAL>
0

>  <SCORE.SYSTEM.SOLV>
0

>  <SCORE.SYSTEM.norm>
0

>  <SCORE.heavy>
24

>  <SCORE.norm>
-0.338025

>  <RMSD>
16.237

$$$$
lig.pdb
 OpenBabel11021811453D
libRbt.so/2013.1/901 2013/11/27
 24 24  0  0  0  0  0  0  0  0999 V2000
   -5.9479    9.2428    4.8011 C   0  0  0  0  0  0  0  0  0  0  0  0
   -6.3035    7.8983    5.1574 C   0  0  0  0  0  0  0  0  0  0  0  0
   -5.4043    7.0459    5.7533 C   0  0  0  0  0  0  0  0  0  0  0  0
   -4.0675    7.4563    6.0599 C   0  0  0  0  0  0  0  0  0  0  0  0
   -3.7038    8.7881    5.6729 C   0  0  0  0  0  0  0  0  0  0  0  0
   -4.5982    9.6372    5.0706 C   0  0  0  0  0  0  0  0  0  0  0  0
   -6.8424   10.1076    4.2381 C   0  0  0  0  0  0  0  0  0  0  0  0
   -7.0409   10.1886    2.9050 N   0  0  0  0  0  0  0  0  0  0  0  0
   -1.8709    6.5645    6.3560 N   0  0  0  0  0  0  0  0  0  0  0  0
   -3.1787    6.6313    6.6835 C   0  0  0  0  0  0  0  0  0  0  0  0
   -7.6041   10.9501    4.9791 N   0  0  0  0  0  0  0  0  0  0  0  0
   -3.5380    5.8015    7.6917 N   0  0  0  0  0  0  0  0  0  0  0  0
   -8.9801   11.3568    4.7007 C   0  0  0  0  0  0  0  0  0  0  0  0
   -2.6462    5.2299    8.6959 C   0  0  0  0  0  0  0  0  0  0  0  0
   -9.8718   10.1079    4.7909 C   0  0  0  0  0  0  0  0  0  0  0  0
   -2.6145    6.1882    9.9010 C   0  0  0  0  0  0  0  0  0  0  0  0
   -9.6757    9.2038    3.5662 C   0  0  0  0  0  0  0  0  0  0  0  0
   -3.7157    5.8819   10.9323 C   0  0  0  0  0  0  0  0  0  0  0  0
  -10.5994    8.0173    3.6701 N   0  0  0  0  0  0  0  0  0  0  0  0
   -3.4960    6.6387   12.2178 N   0  0  0  0  0  0  0  0  0  0  0  0
  -10.0056    6.9835    4.5878 C   0  0  0  0  0  0  0  0  0  0  0  0
   -4.5954    6.2857   13.1833 C   0  0  0  0  0  0  0  0  0  0  0  0
  -10.8457    7.4069    2.3126 C   0  0  0  0  0  0  0  0  0  0  0  0
   -3.4907    8.1271   12.0070 C   0  0  0  0  0  0  0  0  0  0  0  0
  1  6  2  0  0  0  0
  2  3  2  0  0  0  0
  2  1  1  0  0  0  0
  3  4  1  0  0  0  0
  4 10  1  0  0  0  0
  4  5  2  0  0  0  0
  6  5  1  0  0  0  0
  7  1  1  0  0  0  0
  7 11  1  0  0  0  0
  8  7  2  0  0  0  0
  9 10  2  0  0  0  0
 10 12  1  0  0  0  0
 12 14  1  0  0  0  0
 13 11  1  0  0  0  0
 13 15  1  0  0  0  0
 14 16  1  0  0  0  0
 16 18  1  0  0  0  0
 17 15  1  0  0  0  0
 17 19  1  0  0  0  0
 18 20  1  0  0  0  0
 19 23  1  0  0  0  0
 20 22  1  0  0  0  0
 20 24  1  0  0  0  0
 21 19  1  0  0  0  0
M  END
>  <CHROM.1>
140.50783237,-88.08134894,91.08891969,64.23775928,-74.14111713,88.90541434
168.46556290,-178.09935191,-80.64521962,-179.47054676,-5.89469049,7.97010790
6.54043835,-2.26625616,-0.15842029,1.83650520

>  <Name>
lig.pdb

>  <RI>
0

>  <Rbt.Current_Directory>
/home/itssahil/PROJECTS/Mol_Feturizer/New_Systems/rnas/2l94

>  <Rbt.Executable>
rbdock ($Id: //depot/dev/client3/rdock/2013.1/src/exe/rbdock.cxx#4 $)

>  <Rbt.Library>
libRbt.so (2013.1, Build901 2013/11/27)

>  <Rbt.Parameter_File>
/export/apps/rDock/src/rDock_2013.1_src/data/scripts/dock_solv.prm

>  <Rbt.Receptor>
prm/blind_docking_100.prm

>  <SCORE>
-2.79756

>  <SCORE.INTER>
-15.9418

>  <SCORE.INTER.CONST>
1

>  <SCORE.INTER.POLAR>
-2.03275

>  <SCORE.INTER.ROT>
10

>  <SCORE.INTER.SOLV>
21.765

>  <SCORE.INTER.VDW>
-21.3737

>  <SCORE.INTER.norm>
-0.664241

>  <SCORE.INTRA>
7.05582

>  <SCORE.INTRA.DIHEDRAL>
20.091

>  <SCORE.INTRA.DIHEDRAL.0>
7.52971

>  <SCORE.INTRA.POLAR>
0

>  <SCORE.INTRA.POLAR.0>
0

>  <SCORE.INTRA.REPUL>
0

>  <SCORE.INTRA.REPUL.0>
0

>  <SCORE.INTRA.SOLV>
0.601739

>  <SCORE.INTRA.SOLV.lig_0>
-22.1084

>  <SCORE.INTRA.VDW>
-3.29055

>  <SCORE.INTRA.VDW.0>
2.4256

>  <SCORE.INTRA.norm>
0.293992

>  <SCORE.RESTR>
6.08842

>  <SCORE.RESTR.CAVITY>
6.08842

>  <SCORE.RESTR.norm>
0.253684

>  <SCORE.SYSTEM>
0

>  <SCORE.SYSTEM.CONST>
0

>  <SCORE.SYSTEM.DIHEDRAL>
0

>  <SCORE.SYSTEM.SOLV>
0

>  <SCORE.SYSTEM.norm>
0

>  <SCORE.heavy>
24

>  <SCORE.norm>
-0.116565

>  <RMSD>
16.243

$$$$
lig.pdb
 OpenBabel11021811453D
libRbt.so/2013.1/901 2013/11/27
 24 24  0  0  0  0  0  0  0  0999 V2000
   -3.9748    7.0738    5.9794 C   0  0  0  0  0  0  0  0  0  0  0  0
   -5.2285    6.5030    5.5750 C   0  0  0  0  0  0  0  0  0  0  0  0
   -6.1803    7.2423    4.9135 C   0  0  0  0  0  0  0  0  0  0  0  0
   -5.9687    8.6191    4.5832 C   0  0  0  0  0  0  0  0  0  0  0  0
   -4.7303    9.1968    5.0174 C   0  0  0  0  0  0  0  0  0  0  0  0
   -3.7827    8.4618    5.6850 C   0  0  0  0  0  0  0  0  0  0  0  0
   -3.0099    6.3403    6.6084 C   0  0  0  0  0  0  0  0  0  0  0  0
   -1.6921    6.5037    6.3642 N   0  0  0  0  0  0  0  0  0  0  0  0
   -6.6910   10.6329    3.5199 N   0  0  0  0  0  0  0  0  0  0  0  0
   -6.8905    9.3518    3.8956 C   0  0  0  0  0  0  0  0  0  0  0  0
   -3.3042    5.3919    7.5320 N   0  0  0  0  0  0  0  0  0  0  0  0
   -8.0945    8.8509    3.5304 N   0  0  0  0  0  0  0  0  0  0  0  0
   -2.5284    5.0663    8.7272 C   0  0  0  0  0  0  0  0  0  0  0  0
   -8.9454    9.3516    2.4554 C   0  0  0  0  0  0  0  0  0  0  0  0
   -2.4034    6.3427    9.5745 C   0  0  0  0  0  0  0  0  0  0  0  0
  -10.3976    8.9516    2.7761 C   0  0  0  0  0  0  0  0  0  0  0  0
   -3.7615    6.7436   10.1669 C   0  0  0  0  0  0  0  0  0  0  0  0
  -11.4216    9.9935    2.2908 C   0  0  0  0  0  0  0  0  0  0  0  0
   -3.5610    7.2561   11.5701 N   0  0  0  0  0  0  0  0  0  0  0  0
  -11.0282   11.3897    2.7026 N   0  0  0  0  0  0  0  0  0  0  0  0
   -3.7727    6.1418   12.5585 C   0  0  0  0  0  0  0  0  0  0  0  0
  -11.0875   11.4884    4.2033 C   0  0  0  0  0  0  0  0  0  0  0  0
   -4.5132    8.3869   11.8708 C   0  0  0  0  0  0  0  0  0  0  0  0
  -11.9326   12.4333    2.1086 C   0  0  0  0  0  0  0  0  0  0  0  0
  1  6  2  0  0  0  0
  2  3  2  0  0  0  0
  2  1  1  0  0  0  0
  3  4  1  0  0  0  0
  4 10  1  0  0  0  0
  4  5  2  0  0  0  0
  6  5  1  0  0  0  0
  7  1  1  0  0  0  0
  7 11  1  0  0  0  0
  8  7  2  0  0  0  0
  9 10  2  0  0  0  0
 10 12  1  0  0  0  0
 12 14  1  0  0  0  0
 13 11  1  0  0  0  0
 13 15  1  0  0  0  0
 14 16  1  0  0  0  0
 16 18  1  0  0  0  0
 17 15  1  0  0  0  0
 17 19  1  0  0  0  0
 18 20  1  0  0  0  0
 19 23  1  0  0  0  0
 20 22  1  0  0  0  0
 20 24  1  0  0  0  0
 21 19  1  0  0  0  0
M  END
>  <CHROM.1>
-176.94826989,142.04391772,-155.11865346,57.69702825,68.69498594,146.68088601
-48.26838811,141.33213946,-94.65337066,-65.70806943,-6.07513786,8.27324798
6.04526971,-0.68546199,0.53848470,-1.58801866

>  <Name>
lig.pdb

>  <RI>
0

>  <Rbt.Current_Directory>
/home/itssahil/PROJECTS/Mol_Feturizer/New_Systems/rnas/2l94

>  <Rbt.Executable>
rbdock ($Id: //depot/dev/client3/rdock/2013.1/src/exe/rbdock.cxx#4 $)

>  <Rbt.Library>
libRbt.so (2013.1, Build901 2013/11/27)

>  <Rbt.Parameter_File>
/export/apps/rDock/src/rDock_2013.1_src/data/scripts/dock_solv.prm

>  <Rbt.Receptor>
prm/blind_docking_100.prm

>  <SCORE>
-9.86795

>  <SCORE.INTER>
-25.3339

>  <SCORE.INTER.CONST>
1

>  <SCORE.INTER.POLAR>
-3.38224

>  <SCORE.INTER.ROT>
10

>  <SCORE.INTER.SOLV>
23.1237

>  <SCORE.INTER.VDW>
-23.5897

>  <SCORE.INTER.norm>
-1.05558

>  <SCORE.INTRA>
5.21025

>  <SCORE.INTRA.DIHEDRAL>
12.5808

>  <SCORE.INTRA.DIHEDRAL.0>
7.52971

>  <SCORE.INTRA.POLAR>
0

>  <SCORE.INTRA.POLAR.0>
0

>  <SCORE.INTRA.REPUL>
0

>  <SCORE.INTRA.REPUL.0>
0

>  <SCORE.INTRA.SOLV>
0.530855

>  <SCORE.INTRA.SOLV.lig_0>
-22.1084

>  <SCORE.INTRA.VDW>
-1.34556

>  <SCORE.INTRA.VDW.0>
2.4256

>  <SCORE.INTRA.norm>
0.217094

>  <SCORE.RESTR>
10.2557

>  <SCORE.RESTR.CAVITY>
10.2557

>  <SCORE.RESTR.norm>
0.427321

>  <SCORE.SYSTEM>
0

>  <SCORE.SYSTEM.CONST>
0

>  <SCORE.SYSTEM.DIHEDRAL>
0

>  <SCORE.SYSTEM.SOLV>
0

>  <SCORE.SYSTEM.norm>
0

>  <SCORE.heavy>
24

>  <SCORE.norm>
-0.411165

>  <RMSD>
16.271

$$$$
lig.pdb
 OpenBabel11021811453D
libRbt.so/2013.1/901 2013/11/27
 24 24  0  0  0  0  0  0  0  0999 V2000
   -6.1785    8.7365    4.6415 C   0  0  0  0  0  0  0  0  0  0  0  0
   -4.9504    9.3681    5.0336 C   0  0  0  0  0  0  0  0  0  0  0  0
   -3.9880    8.6965    5.7498 C   0  0  0  0  0  0  0  0  0  0  0  0
   -4.1543    7.3277    6.1348 C   0  0  0  0  0  0  0  0  0  0  0  0
   -5.3955    6.7086    5.7718 C   0  0  0  0  0  0  0  0  0  0  0  0
   -6.3604    7.3805    5.0638 C   0  0  0  0  0  0  0  0  0  0  0  0
   -7.1269    9.3844    3.9029 C   0  0  0  0  0  0  0  0  0  0  0  0
   -6.9096   10.5859    3.3265 N   0  0  0  0  0  0  0  0  0  0  0  0
   -1.8870    6.6504    6.4652 N   0  0  0  0  0  0  0  0  0  0  0  0
   -3.1912    6.6411    6.8136 C   0  0  0  0  0  0  0  0  0  0  0  0
   -8.3614    8.8655    3.6888 N   0  0  0  0  0  0  0  0  0  0  0  0
   -3.4660    5.8846    7.9026 N   0  0  0  0  0  0  0  0  0  0  0  0
   -9.1627    8.9907    2.4729 C   0  0  0  0  0  0  0  0  0  0  0  0
   -2.5157    5.4858    8.9363 C   0  0  0  0  0  0  0  0  0  0  0  0
  -10.5432    9.5391    2.8682 C   0  0  0  0  0  0  0  0  0  0  0  0
   -2.3178    6.6832    9.8843 C   0  0  0  0  0  0  0  0  0  0  0  0
  -10.4311   10.9727    3.4052 C   0  0  0  0  0  0  0  0  0  0  0  0
   -3.5334    6.9250   10.7974 C   0  0  0  0  0  0  0  0  0  0  0  0
   -9.8924   10.9366    4.8124 N   0  0  0  0  0  0  0  0  0  0  0  0
   -3.5251    5.9985   11.9870 N   0  0  0  0  0  0  0  0  0  0  0  0
  -11.0114   11.1469    5.7958 C   0  0  0  0  0  0  0  0  0  0  0  0
   -4.6740    5.0345   11.8600 C   0  0  0  0  0  0  0  0  0  0  0  0
   -8.8377   11.9966    5.0120 C   0  0  0  0  0  0  0  0  0  0  0  0
   -3.6534    6.7422   13.2871 C   0  0  0  0  0  0  0  0  0  0  0  0
  1  6  2  0  0  0  0
  2  3  2  0  0  0  0
  2  1  1  0  0  0  0
  3  4  1  0  0  0  0
  4 10  1  0  0  0  0
  4  5  2  0  0  0  0
  6  5  1  0  0  0  0
  7  1  1  0  0  0  0
  7 11  1  0  0  0  0
  8  7  2  0  0  0  0
  9 10  2  0  0  0  0
 10 12  1  0  0  0  0
 12 14  1  0  0  0  0
 13 11  1  0  0  0  0
 13 15  1  0  0  0  0
 14 16  1  0  0  0  0
 16 18  1  0  0  0  0
 17 15  1  0  0  0  0
 17 19  1  0  0  0  0
 18 20  1  0  0  0  0
 19 23  1  0  0  0  0
 20 22  1  0  0  0  0
 20 24  1  0  0  0  0
 21 19  1  0  0  0  0
M  END
>  <CHROM.1>
-47.00357522,9.70245640,79.00153837,-126.71124394,65.98119666,73.07949431
81.09186298,-76.38275005,-102.51333729,-112.27272085,-5.94317857,8.20511363
6.54281897,-2.33751115,-0.47469724,1.72391185

>  <Name>
lig.pdb

>  <RI>
0

>  <Rbt.Current_Directory>
/home/itssahil/PROJECTS/Mol_Feturizer/New_Systems/rnas/2l94

>  <Rbt.Executable>
rbdock ($Id: //depot/dev/client3/rdock/2013.1/src/exe/rbdock.cxx#4 $)

>  <Rbt.Library>
libRbt.so (2013.1, Build901 2013/11/27)

>  <Rbt.Parameter_File>
/export/apps/rDock/src/rDock_2013.1_src/data/scripts/dock_solv.prm

>  <Rbt.Receptor>
prm/blind_docking_100.prm

>  <SCORE>
-8.12561

>  <SCORE.INTER>
-20.8597

>  <SCORE.INTER.CONST>
1

>  <SCORE.INTER.POLAR>
-3.01086

>  <SCORE.INTER.ROT>
10

>  <SCORE.INTER.SOLV>
20.3977

>  <SCORE.INTER.VDW>
-20.9362

>  <SCORE.INTER.norm>
-0.869154

>  <SCORE.INTRA>
5.7046

>  <SCORE.INTRA.DIHEDRAL>
14.1509

>  <SCORE.INTRA.DIHEDRAL.0>
7.52971

>  <SCORE.INTRA.POLAR>
0

>  <SCORE.INTRA.POLAR.0>
0

>  <SCORE.INTRA.REPUL>
0

>  <SCORE.INTRA.REPUL.0>
0

>  <SCORE.INTRA.SOLV>
2.44

>  <SCORE.INTRA.SOLV.lig_0>
-22.1084

>  <SCORE.INTRA.VDW>
-2.59088

>  <SCORE.INTRA.VDW.0>
2.4256

>  <SCORE.INTRA.norm>
0.237691

>  <SCORE.RESTR>
7.02949

>  <SCORE.RESTR.CAVITY>
7.02949

>  <SCORE.RESTR.norm>
0.292896

>  <SCORE.SYSTEM>
0

>  <SCORE.SYSTEM.CONST>
0

>  <SCORE.SYSTEM.DIHEDRAL>
0

>  <SCORE.SYSTEM.SOLV>
0

>  <SCORE.SYSTEM.norm>
0

>  <SCORE.heavy>
24

>  <SCORE.norm>
-0.338567

>  <RMSD>
16.305

$$$$
lig.pdb
 OpenBabel11021811453D
libRbt.so/2013.1/901 2013/11/27
 24 24  0  0  0  0  0  0  0  0999 V2000
   -5.8543    9.1376    4.9143 C   0  0  0  0  0  0  0  0  0  0  0  0
   -6.2495    7.8573    5.4296 C   0  0  0  0  0  0  0  0  0  0  0  0
   -5.3682    7.0450    6.1031 C   0  0  0  0  0  0  0  0  0  0  0  0
   -4.0110    7.4364    6.3358 C   0  0  0  0  0  0  0  0  0  0  0  0
   -3.6087    8.7004    5.7914 C   0  0  0  0  0  0  0  0  0  0  0  0
   -4.4855    9.5085    5.1118 C   0  0  0  0  0  0  0  0  0  0  0  0
   -6.7297    9.9658    4.2720 C   0  0  0  0  0  0  0  0  0  0  0  0
   -6.8630    9.9881    2.9286 N   0  0  0  0  0  0  0  0  0  0  0  0
   -1.8280    6.5479    6.7276 N   0  0  0  0  0  0  0  0  0  0  0  0
   -3.1383    6.6549    7.0339 C   0  0  0  0  0  0  0  0  0  0  0  0
   -7.5368   10.8282    4.9384 N   0  0  0  0  0  0  0  0  0  0  0  0
   -3.5178    5.9131    8.1015 N   0  0  0  0  0  0  0  0  0  0  0  0
   -8.9019   11.2040    4.5760 C   0  0  0  0  0  0  0  0  0  0  0  0
   -2.6432    5.4148    9.1585 C   0  0  0  0  0  0  0  0  0  0  0  0
   -9.8586   10.1713    5.1933 C   0  0  0  0  0  0  0  0  0  0  0  0
   -3.5032    4.5915   10.1353 C   0  0  0  0  0  0  0  0  0  0  0  0
   -9.9042    8.8911    4.3477 C   0  0  0  0  0  0  0  0  0  0  0  0
   -4.3901    5.4728   11.0335 C   0  0  0  0  0  0  0  0  0  0  0  0
  -10.1899    9.2524    2.9125 N   0  0  0  0  0  0  0  0  0  0  0  0
   -3.5994    6.0852   12.1619 N   0  0  0  0  0  0  0  0  0  0  0  0
  -11.4358   10.0920    2.8329 C   0  0  0  0  0  0  0  0  0  0  0  0
   -4.3552    5.8868   13.4483 C   0  0  0  0  0  0  0  0  0  0  0  0
  -10.3605    8.0129    2.0696 C   0  0  0  0  0  0  0  0  0  0  0  0
   -3.3622    7.5554   11.9569 C   0  0  0  0  0  0  0  0  0  0  0  0
  1  6  2  0  0  0  0
  2  3  2  0  0  0  0
  2  1  1  0  0  0  0
  3  4  1  0  0  0  0
  4 10  1  0  0  0  0
  4  5  2  0  0  0  0
  6  5  1  0  0  0  0
  7  1  1  0  0  0  0
  7 11  1  0  0  0  0
  8  7  2  0  0  0  0
  9 10  2  0  0  0  0
 10 12  1  0  0  0  0
 12 14  1  0  0  0  0
 13 11  1  0  0  0  0
 13 15  1  0  0  0  0
 14 16  1  0  0  0  0
 16 18  1  0  0  0  0
 17 15  1  0  0  0  0
 17 19  1  0  0  0  0
 18 20  1  0  0  0  0
 19 23  1  0  0  0  0
 20 22  1  0  0  0  0
 20 24  1  0  0  0  0
 21 19  1  0  0  0  0
M  END
>  <CHROM.1>
143.56064195,-94.51974968,-178.43948275,86.67882625,-79.58419319,-74.36436107
-78.10332058,-51.92481235,-53.77565194,-132.42879689,-5.93564387,8.00104718
6.59176279,-2.23085832,-0.23904820,1.87817194

>  <Name>
lig.pdb

>  <RI>
0

>  <Rbt.Current_Directory>
/home/itssahil/PROJECTS/Mol_Feturizer/New_Systems/rnas/2l94

>  <Rbt.Executable>
rbdock ($Id: //depot/dev/client3/rdock/2013.1/src/exe/rbdock.cxx#4 $)

>  <Rbt.Library>
libRbt.so (2013.1, Build901 2013/11/27)

>  <Rbt.Parameter_File>
/export/apps/rDock/src/rDock_2013.1_src/data/scripts/dock_solv.prm

>  <Rbt.Receptor>
prm/blind_docking_100.prm

>  <SCORE>
-0.32116

>  <SCORE.INTER>
-17.102

>  <SCORE.INTER.CONST>
1

>  <SCORE.INTER.POLAR>
-2.07513

>  <SCORE.INTER.ROT>
10

>  <SCORE.INTER.SOLV>
20.7276

>  <SCORE.INTER.VDW>
-21.6601

>  <SCORE.INTER.norm>
-0.712583

>  <SCORE.INTRA>
10.187

>  <SCORE.INTRA.DIHEDRAL>
21.2427

>  <SCORE.INTRA.DIHEDRAL.0>
7.52971

>  <SCORE.INTRA.POLAR>
0

>  <SCORE.INTRA.POLAR.0>
0

>  <SCORE.INTRA.REPUL>
0

>  <SCORE.INTRA.REPUL.0>
0

>  <SCORE.INTRA.SOLV>
1.30364

>  <SCORE.INTRA.SOLV.lig_0>
-22.1084

>  <SCORE.INTRA.VDW>
-1.08619

>  <SCORE.INTRA.VDW.0>
2.4256

>  <SCORE.INTRA.norm>
0.424457

>  <SCORE.RESTR>
6.59388

>  <SCORE.RESTR.CAVITY>
6.59388

>  <SCORE.RESTR.norm>
0.274745

>  <SCORE.SYSTEM>
0

>  <SCORE.SYSTEM.CONST>
0

>  <SCORE.SYSTEM.DIHEDRAL>
0

>  <SCORE.SYSTEM.SOLV>
0

>  <SCORE.SYSTEM.norm>
0

>  <SCORE.heavy>
24

>  <SCORE.norm>
-0.0133817

>  <RMSD>
16.337

$$$$
lig.pdb
 OpenBabel11021811453D
libRbt.so/2013.1/901 2013/11/27
 24 24  0  0  0  0  0  0  0  0999 V2000
   -4.0217    7.3585    6.2633 C   0  0  0  0  0  0  0  0  0  0  0  0
   -4.7702    6.9445    5.1103 C   0  0  0  0  0  0  0  0  0  0  0  0
   -5.6557    7.7877    4.4815 C   0  0  0  0  0  0  0  0  0  0  0  0
   -5.8718    9.1276    4.9367 C   0  0  0  0  0  0  0  0  0  0  0  0
   -5.1488    9.5285    6.1082 C   0  0  0  0  0  0  0  0  0  0  0  0
   -4.2707    8.6849    6.7415 C   0  0  0  0  0  0  0  0  0  0  0  0
   -3.1164    6.5400    6.8759 C   0  0  0  0  0  0  0  0  0  0  0  0
   -1.8819    6.3135    6.3783 N   0  0  0  0  0  0  0  0  0  0  0  0
   -6.9138    9.9812    2.9634 N   0  0  0  0  0  0  0  0  0  0  0  0
   -6.7201    9.9841    4.2993 C   0  0  0  0  0  0  0  0  0  0  0  0
   -3.3894    5.8942    8.0367 N   0  0  0  0  0  0  0  0  0  0  0  0
   -7.4443   10.9187    4.9597 N   0  0  0  0  0  0  0  0  0  0  0  0
   -2.4527    5.6197    9.1246 C   0  0  0  0  0  0  0  0  0  0  0  0
   -8.6643   11.5605    4.4796 C   0  0  0  0  0  0  0  0  0  0  0  0
   -3.2707    5.2991   10.3860 C   0  0  0  0  0  0  0  0  0  0  0  0
   -9.8633   10.7439    4.9965 C   0  0  0  0  0  0  0  0  0  0  0  0
   -3.6368    6.5829   11.1437 C   0  0  0  0  0  0  0  0  0  0  0  0
  -10.5282    9.9016    3.8927 C   0  0  0  0  0  0  0  0  0  0  0  0
   -4.4194    6.2247   12.3811 N   0  0  0  0  0  0  0  0  0  0  0  0
   -9.5989    8.8319    3.3773 N   0  0  0  0  0  0  0  0  0  0  0  0
   -4.9729    7.4708   13.0169 C   0  0  0  0  0  0  0  0  0  0  0  0
  -10.3303    8.0046    2.3545 C   0  0  0  0  0  0  0  0  0  0  0  0
   -3.5504    5.4933   13.3741 C   0  0  0  0  0  0  0  0  0  0  0  0
   -9.1076    7.9293    4.4745 C   0  0  0  0  0  0  0  0  0  0  0  0
  1  6  2  0  0  0  0
  2  3  2  0  0  0  0
  2  1  1  0  0  0  0
  3  4  1  0  0  0  0
  4 10  1  0  0  0  0
  4  5  2  0  0  0  0
  6  5  1  0  0  0  0
  7  1  1  0  0  0  0
  7 11  1  0  0  0  0
  8  7  2  0  0  0  0
  9 10  2  0  0  0  0
 10 12  1  0  0  0  0
 12 14  1  0  0  0  0
 13 11  1  0  0  0  0
 13 15  1  0  0  0  0
 14 16  1  0  0  0  0
 16 18  1  0  0  0  0
 17 15  1  0  0  0  0
 17 19  1  0  0  0  0
 18 20  1  0  0  0  0
 19 23  1  0  0  0  0
 20 22  1  0  0  0  0
 20 24  1  0  0  0  0
 21 19  1  0  0  0  0
M  END
>  <CHROM.1>
-33.55837266,77.31161338,92.45215107,161.74008122,-86.57819355,-105.70862015
65.19542414,-179.19742527,-171.02598503,177.20168995,-5.84938392,8.01232669
6.71033196,-0.90224229,0.44757397,-1.43533251

>  <Name>
lig.pdb

>  <RI>
0

>  <Rbt.Current_Directory>
/home/itssahil/PROJECTS/Mol_Feturizer/New_Systems/rnas/2l94

>  <Rbt.Executable>
rbdock ($Id: //depot/dev/client3/rdock/2013.1/src/exe/rbdock.cxx#4 $)

>  <Rbt.Library>
libRbt.so (2013.1, Build901 2013/11/27)

>  <Rbt.Parameter_File>
/export/apps/rDock/src/rDock_2013.1_src/data/scripts/dock_solv.prm

>  <Rbt.Receptor>
prm/blind_docking_100.prm

>  <SCORE>
4.71008

>  <SCORE.INTER>
-8.27373

>  <SCORE.INTER.CONST>
1

>  <SCORE.INTER.POLAR>
-1.23591

>  <SCORE.INTER.ROT>
10

>  <SCORE.INTER.SOLV>
19.2207

>  <SCORE.INTER.VDW>
-18.0697

>  <SCORE.INTER.norm>
-0.344739

>  <SCORE.INTRA>
8.39265

>  <SCORE.INTRA.DIHEDRAL>
20.6715

>  <SCORE.INTRA.DIHEDRAL.0>
7.52971

>  <SCORE.INTRA.POLAR>
0

>  <SCORE.INTRA.POLAR.0>
0

>  <SCORE.INTRA.REPUL>
0

>  <SCORE.INTRA.REPUL.0>
0

>  <SCORE.INTRA.SOLV>
1.74655

>  <SCORE.INTRA.SOLV.lig_0>
-22.1084

>  <SCORE.INTRA.VDW>
-2.81636

>  <SCORE.INTRA.VDW.0>
2.4256

>  <SCORE.INTRA.norm>
0.349694

>  <SCORE.RESTR>
4.59116

>  <SCORE.RESTR.CAVITY>
4.59116

>  <SCORE.RESTR.norm>
0.191298

>  <SCORE.SYSTEM>
0

>  <SCORE.SYSTEM.CONST>
0

>  <SCORE.SYSTEM.DIHEDRAL>
0

>  <SCORE.SYSTEM.SOLV>
0

>  <SCORE.SYSTEM.norm>
0

>  <SCORE.heavy>
24

>  <SCORE.norm>
0.196253

>  <RMSD>
16.344

$$$$
lig.pdb
 OpenBabel11021811453D
libRbt.so/2013.1/901 2013/11/27
 24 24  0  0  0  0  0  0  0  0999 V2000
   -4.0098    7.3261    6.1054 C   0  0  0  0  0  0  0  0  0  0  0  0
   -3.9115    8.7376    5.8626 C   0  0  0  0  0  0  0  0  0  0  0  0
   -4.8332    9.4049    5.0910 C   0  0  0  0  0  0  0  0  0  0  0  0
   -5.9466    8.7299    4.4960 C   0  0  0  0  0  0  0  0  0  0  0  0
   -6.0248    7.3146    4.7115 C   0  0  0  0  0  0  0  0  0  0  0  0
   -5.1007    6.6460    5.4749 C   0  0  0  0  0  0  0  0  0  0  0  0
   -3.1181    6.6595    6.8961 C   0  0  0  0  0  0  0  0  0  0  0  0
   -1.7820    6.7383    6.7180 N   0  0  0  0  0  0  0  0  0  0  0  0
   -6.7275   10.6504    3.3084 N   0  0  0  0  0  0  0  0  0  0  0  0
   -6.8867    9.3880    3.7592 C   0  0  0  0  0  0  0  0  0  0  0  0
   -3.5092    5.8687    7.9260 N   0  0  0  0  0  0  0  0  0  0  0  0
   -8.0697    8.8249    3.4167 N   0  0  0  0  0  0  0  0  0  0  0  0
   -2.8217    5.6954    9.2041 C   0  0  0  0  0  0  0  0  0  0  0  0
   -8.9276    9.2307    2.3077 C   0  0  0  0  0  0  0  0  0  0  0  0
   -3.8036    6.0697   10.3261 C   0  0  0  0  0  0  0  0  0  0  0  0
  -10.2937    9.6376    2.8907 C   0  0  0  0  0  0  0  0  0  0  0  0
   -3.4985    5.2822   11.6078 C   0  0  0  0  0  0  0  0  0  0  0  0
  -10.2070   10.8800    3.7955 C   0  0  0  0  0  0  0  0  0  0  0  0
   -4.4213    5.7430   12.7068 N   0  0  0  0  0  0  0  0  0  0  0  0
   -9.5699   10.5545    5.1229 N   0  0  0  0  0  0  0  0  0  0  0  0
   -3.9869    7.0928   13.2095 C   0  0  0  0  0  0  0  0  0  0  0  0
  -10.6539   10.3841    6.1531 C   0  0  0  0  0  0  0  0  0  0  0  0
   -4.4319    4.7572   13.8489 C   0  0  0  0  0  0  0  0  0  0  0  0
   -8.6271   11.6325    5.5800 C   0  0  0  0  0  0  0  0  0  0  0  0
  1  6  2  0  0  0  0
  2  3  2  0  0  0  0
  2  1  1  0  0  0  0
  3  4  1  0  0  0  0
  4 10  1  0  0  0  0
  4  5  2  0  0  0  0
  6  5  1  0  0  0  0
  7  1  1  0  0  0  0
  7 11  1  0  0  0  0
  8  7  2  0  0  0  0
  9 10  2  0  0  0  0
 10 12  1  0  0  0  0
 12 14  1  0  0  0  0
 13 11  1  0  0  0  0
 13 15  1  0  0  0  0
 14 16  1  0  0  0  0
 16 18  1  0  0  0  0
 17 15  1  0  0  0  0
 17 19  1  0  0  0  0
 18 20  1  0  0  0  0
 19 23  1  0  0  0  0
 20 22  1  0  0  0  0
 20 24  1  0  0  0  0
 21 19  1  0  0  0  0
M  END
>  <CHROM.1>
13.30217768,-52.19357894,-120.34059349,122.69380529,150.63067531,64.79534236
-73.74825878,176.27056390,-74.53590818,-99.93649563,-5.91468369,8.05881211
6.75976753,-0.95774841,0.44114971,-1.33840746

>  <Name>
lig.pdb

>  <RI>
0

>  <Rbt.Current_Directory>
/home/itssahil/PROJECTS/Mol_Feturizer/New_Systems/rnas/2l94

>  <Rbt.Executable>
rbdock ($Id: //depot/dev/client3/rdock/2013.1/src/exe/rbdock.cxx#4 $)

>  <Rbt.Library>
libRbt.so (2013.1, Build901 2013/11/27)

>  <Rbt.Parameter_File>
/export/apps/rDock/src/rDock_2013.1_src/data/scripts/dock_solv.prm

>  <Rbt.Receptor>
prm/blind_docking_100.prm

>  <SCORE>
-4.96412

>  <SCORE.INTER>
-15.609

>  <SCORE.INTER.CONST>
1

>  <SCORE.INTER.POLAR>
-2.56923

>  <SCORE.INTER.ROT>
10

>  <SCORE.INTER.SOLV>
18.5989

>  <SCORE.INTER.VDW>
-18.3082

>  <SCORE.INTER.norm>
-0.650375

>  <SCORE.INTRA>
4.33087

>  <SCORE.INTRA.DIHEDRAL>
12.7505

>  <SCORE.INTRA.DIHEDRAL.0>
7.52971

>  <SCORE.INTRA.POLAR>
0

>  <SCORE.INTRA.POLAR.0>
0

>  <SCORE.INTRA.REPUL>
0

>  <SCORE.INTRA.REPUL.0>
0

>  <SCORE.INTRA.SOLV>
1.83739

>  <SCORE.INTRA.SOLV.lig_0>
-22.1084

>  <SCORE.INTRA.VDW>
-2.9631

>  <SCORE.INTRA.VDW.0>
2.4256

>  <SCORE.INTRA.norm>
0.180453

>  <SCORE.RESTR>
6.31403

>  <SCORE.RESTR.CAVITY>
6.31403

>  <SCORE.RESTR.norm>
0.263085

>  <SCORE.SYSTEM>
0

>  <SCORE.SYSTEM.CONST>
0

>  <SCORE.SYSTEM.DIHEDRAL>
0

>  <SCORE.SYSTEM.SOLV>
0

>  <SCORE.SYSTEM.norm>
0

>  <SCORE.heavy>
24

>  <SCORE.norm>
-0.206838

>  <RMSD>
16.369

$$$$
lig.pdb
 OpenBabel11021811453D
libRbt.so/2013.1/901 2013/11/27
 24 24  0  0  0  0  0  0  0  0999 V2000
   -5.4627    8.8375    6.2671 C   0  0  0  0  0  0  0  0  0  0  0  0
   -5.7872    8.3580    7.5808 C   0  0  0  0  0  0  0  0  0  0  0  0
   -4.9300    7.5483    8.2876 C   0  0  0  0  0  0  0  0  0  0  0  0
   -3.6628    7.1475    7.7558 C   0  0  0  0  0  0  0  0  0  0  0  0
   -3.3547    7.5995    6.4304 C   0  0  0  0  0  0  0  0  0  0  0  0
   -4.2133    8.4012    5.7206 C   0  0  0  0  0  0  0  0  0  0  0  0
   -6.2926    9.6679    5.5695 C   0  0  0  0  0  0  0  0  0  0  0  0
   -6.0184   10.0920    4.3173 N   0  0  0  0  0  0  0  0  0  0  0  0
   -1.7728    6.8803    9.1928 N   0  0  0  0  0  0  0  0  0  0  0  0
   -2.7892    6.3747    8.4624 C   0  0  0  0  0  0  0  0  0  0  0  0
   -7.4608   10.1271    6.0828 N   0  0  0  0  0  0  0  0  0  0  0  0
   -2.8687    5.0231    8.4890 N   0  0  0  0  0  0  0  0  0  0  0  0
   -8.7031   10.3647    5.3504 C   0  0  0  0  0  0  0  0  0  0  0  0
   -2.3075    4.1474    9.5131 C   0  0  0  0  0  0  0  0  0  0  0  0
   -9.0098    9.1106    4.5161 C   0  0  0  0  0  0  0  0  0  0  0  0
   -3.2274    4.2119   10.7466 C   0  0  0  0  0  0  0  0  0  0  0  0
   -8.5372    9.2867    3.0664 C   0  0  0  0  0  0  0  0  0  0  0  0
   -3.4352    5.6489   11.2579 C   0  0  0  0  0  0  0  0  0  0  0  0
   -9.7361    9.3340    2.1542 N   0  0  0  0  0  0  0  0  0  0  0  0
   -4.1880    5.6681   12.5643 N   0  0  0  0  0  0  0  0  0  0  0  0
  -10.6777   10.4195    2.6000 C   0  0  0  0  0  0  0  0  0  0  0  0
   -4.5096    7.0951   12.9186 C   0  0  0  0  0  0  0  0  0  0  0  0
  -10.4585    8.0096    2.1461 C   0  0  0  0  0  0  0  0  0  0  0  0
   -3.3968    5.0533   13.6849 C   0  0  0  0  0  0  0  0  0  0  0  0
  1  6  2  0  0  0  0
  2  3  2  0  0  0  0
  2  1  1  0  0  0  0
  3  4  1  0  0  0  0
  4 10  1  0  0  0  0
  4  5  2  0  0  0  0
  6  5  1  0  0  0  0
  7  1  1  0  0  0  0
  7 11  1  0  0  0  0
  8  7  2  0  0  0  0
  9 10  2  0  0  0  0
 10 12  1  0  0  0  0
 12 14  1  0  0  0  0
 13 11  1  0  0  0  0
 13 15  1  0  0  0  0
 14 16  1  0  0  0  0
 16 18  1  0  0  0  0
 17 15  1  0  0  0  0
 17 19  1  0  0  0  0
 18 20  1  0  0  0  0
 19 23  1  0  0  0  0
 20 22  1  0  0  0  0
 20 24  1  0  0  0  0
 21 19  1  0  0  0  0
M  END
>  <CHROM.1>
-95.45892271,-177.87218737,77.04710451,49.57778929,-97.74747766,-55.49601227
-172.58938747,-112.93001187,55.50552763,-172.89010598,-5.57613110,7.68015742
7.28503494,-2.20634634,-0.35160325,1.80330855

>  <Name>
lig.pdb

>  <RI>
0

>  <Rbt.Current_Directory>
/home/itssahil/PROJECTS/Mol_Feturizer/New_Systems/rnas/2l94

>  <Rbt.Executable>
rbdock ($Id: //depot/dev/client3/rdock/2013.1/src/exe/rbdock.cxx#4 $)

>  <Rbt.Library>
libRbt.so (2013.1, Build901 2013/11/27)

>  <Rbt.Parameter_File>
/export/apps/rDock/src/rDock_2013.1_src/data/scripts/dock_solv.prm

>  <Rbt.Receptor>
prm/blind_docking_100.prm

>  <SCORE>
8.1071

>  <SCORE.INTER>
-11.4243

>  <SCORE.INTER.CONST>
1

>  <SCORE.INTER.POLAR>
-1.91916

>  <SCORE.INTER.ROT>
10

>  <SCORE.INTER.SOLV>
19.7187

>  <SCORE.INTER.VDW>
-18.0585

>  <SCORE.INTER.norm>
-0.476012

>  <SCORE.INTRA>
12.1755

>  <SCORE.INTRA.DIHEDRAL>
19.6118

>  <SCORE.INTRA.DIHEDRAL.0>
7.52971

>  <SCORE.INTRA.POLAR>
0

>  <SCORE.INTRA.POLAR.0>
0

>  <SCORE.INTRA.REPUL>
0

>  <SCORE.INTRA.REPUL.0>
0

>  <SCORE.INTRA.SOLV>
1.10027

>  <SCORE.INTRA.SOLV.lig_0>
-22.1084

>  <SCORE.INTRA.VDW>
1.81947

>  <SCORE.INTRA.VDW.0>
2.4256

>  <SCORE.INTRA.norm>
0.507312

>  <SCORE.RESTR>
7.35589

>  <SCORE.RESTR.CAVITY>
7.35589

>  <SCORE.RESTR.norm>
0.306495

>  <SCORE.SYSTEM>
0

>  <SCORE.SYSTEM.CONST>
0

>  <SCORE.SYSTEM.DIHEDRAL>
0

>  <SCORE.SYSTEM.SOLV>
0

>  <SCORE.SYSTEM.norm>
0

>  <SCORE.heavy>
24

>  <SCORE.norm>
0.337796

>  <RMSD>
16.376

$$$$
lig.pdb
 OpenBabel11021811453D
libRbt.so/2013.1/901 2013/11/27
 24 24  0  0  0  0  0  0  0  0999 V2000
   -5.8797    9.1069    4.9456 C   0  0  0  0  0  0  0  0  0  0  0  0
   -5.4628    7.8084    4.4973 C   0  0  0  0  0  0  0  0  0  0  0  0
   -4.6256    7.0179    5.2486 C   0  0  0  0  0  0  0  0  0  0  0  0
   -4.1321    7.4430    6.5234 C   0  0  0  0  0  0  0  0  0  0  0  0
   -4.5221    8.7537    6.9544 C   0  0  0  0  0  0  0  0  0  0  0  0
   -5.3513    9.5469    6.2015 C   0  0  0  0  0  0  0  0  0  0  0  0
   -6.7361    9.8867    4.2221 C   0  0  0  0  0  0  0  0  0  0  0  0
   -6.8295    9.8161    2.8770 N   0  0  0  0  0  0  0  0  0  0  0  0
   -2.2912    5.9457    6.8016 N   0  0  0  0  0  0  0  0  0  0  0  0
   -3.3308    6.6525    7.2933 C   0  0  0  0  0  0  0  0  0  0  0  0
   -7.5629   10.7909    4.8033 N   0  0  0  0  0  0  0  0  0  0  0  0
   -3.5142    6.5084    8.6273 N   0  0  0  0  0  0  0  0  0  0  0  0
   -8.9169   11.1375    4.3756 C   0  0  0  0  0  0  0  0  0  0  0  0
   -2.5086    6.0768    9.5932 C   0  0  0  0  0  0  0  0  0  0  0  0
   -9.8662   10.0301    4.8608 C   0  0  0  0  0  0  0  0  0  0  0  0
   -2.5708    7.0320   10.7996 C   0  0  0  0  0  0  0  0  0  0  0  0
   -9.3694    8.6475    4.4161 C   0  0  0  0  0  0  0  0  0  0  0  0
   -3.7961    6.7774   11.6961 C   0  0  0  0  0  0  0  0  0  0  0  0
  -10.0363    8.2728    3.1174 N   0  0  0  0  0  0  0  0  0  0  0  0
   -3.5913    5.5772   12.5855 N   0  0  0  0  0  0  0  0  0  0  0  0
   -9.6618    9.2591    2.0449 C   0  0  0  0  0  0  0  0  0  0  0  0
   -4.7509    4.6349   12.4044 C   0  0  0  0  0  0  0  0  0  0  0  0
  -11.5366    8.2401    3.2730 C   0  0  0  0  0  0  0  0  0  0  0  0
   -3.4922    5.9560   14.0369 C   0  0  0  0  0  0  0  0  0  0  0  0
  1  6  2  0  0  0  0
  2  3  2  0  0  0  0
  2  1  1  0  0  0  0
  3  4  1  0  0  0  0
  4 10  1  0  0  0  0
  4  5  2  0  0  0  0
  6  5  1  0  0  0  0
  7  1  1  0  0  0  0
  7 11  1  0  0  0  0
  8  7  2  0  0  0  0
  9 10  2  0  0  0  0
 10 12  1  0  0  0  0
 12 14  1  0  0  0  0
 13 11  1  0  0  0  0
 13 15  1  0  0  0  0
 14 16  1  0  0  0  0
 16 18  1  0  0  0  0
 17 15  1  0  0  0  0
 17 19  1  0  0  0  0
 18 20  1  0  0  0  0
 19 23  1  0  0  0  0
 20 22  1  0  0  0  0
 20 24  1  0  0  0  0
 21 19  1  0  0  0  0
M  END
>  <CHROM.1>
44.02437205,-28.20320325,133.60169276,78.41334028,-52.62643216,74.63772695
77.98283930,-94.05416733,62.03404427,-126.86887796,-5.88002075,7.92538228
6.79008904,-2.17310456,-0.16023914,1.87944661

>  <Name>
lig.pdb

>  <RI>
0

>  <Rbt.Current_Directory>
/home/itssahil/PROJECTS/Mol_Feturizer/New_Systems/rnas/2l94

>  <Rbt.Executable>
rbdock ($Id: //depot/dev/client3/rdock/2013.1/src/exe/rbdock.cxx#4 $)

>  <Rbt.Library>
libRbt.so (2013.1, Build901 2013/11/27)

>  <Rbt.Parameter_File>
/export/apps/rDock/src/rDock_2013.1_src/data/scripts/dock_solv.prm

>  <Rbt.Receptor>
prm/blind_docking_100.prm

>  <SCORE>
12.0785

>  <SCORE.INTER>
-2.85623

>  <SCORE.INTER.CONST>
1

>  <SCORE.INTER.POLAR>
-0.872789

>  <SCORE.INTER.ROT>
10

>  <SCORE.INTER.SOLV>
20.9456

>  <SCORE.INTER.VDW>
-16.2434

>  <SCORE.INTER.norm>
-0.11901

>  <SCORE.INTRA>
10.2043

>  <SCORE.INTRA.DIHEDRAL>
15.2749

>  <SCORE.INTRA.DIHEDRAL.0>
7.52971

>  <SCORE.INTRA.POLAR>
0

>  <SCORE.INTRA.POLAR.0>
0

>  <SCORE.INTRA.REPUL>
0

>  <SCORE.INTRA.REPUL.0>
0

>  <SCORE.INTRA.SOLV>
1.47183

>  <SCORE.INTRA.SOLV.lig_0>
-22.1084

>  <SCORE.INTRA.VDW>
1.83091

>  <SCORE.INTRA.VDW.0>
2.4256

>  <SCORE.INTRA.norm>
0.425179

>  <SCORE.RESTR>
4.73048

>  <SCORE.RESTR.CAVITY>
4.73048

>  <SCORE.RESTR.norm>
0.197103

>  <SCORE.SYSTEM>
0

>  <SCORE.SYSTEM.CONST>
0

>  <SCORE.SYSTEM.DIHEDRAL>
0

>  <SCORE.SYSTEM.SOLV>
0

>  <SCORE.SYSTEM.norm>
0

>  <SCORE.heavy>
24

>  <SCORE.norm>
0.503272

>  <RMSD>
16.403

$$$$
lig.pdb
 OpenBabel11021811453D
libRbt.so/2013.1/901 2013/11/27
 24 24  0  0  0  0  0  0  0  0999 V2000
   -4.0770    7.3478    6.3393 C   0  0  0  0  0  0  0  0  0  0  0  0
   -4.7408    6.9568    5.1278 C   0  0  0  0  0  0  0  0  0  0  0  0
   -5.6337    7.7865    4.4919 C   0  0  0  0  0  0  0  0  0  0  0  0
   -5.9425    9.0895    4.9982 C   0  0  0  0  0  0  0  0  0  0  0  0
   -5.3046    9.4652    6.2260 C   0  0  0  0  0  0  0  0  0  0  0  0
   -4.4191    8.6345    6.8660 C   0  0  0  0  0  0  0  0  0  0  0  0
   -3.1647    6.5444    6.9615 C   0  0  0  0  0  0  0  0  0  0  0  0
   -1.9224    6.3361    6.4752 N   0  0  0  0  0  0  0  0  0  0  0  0
   -6.9397    9.9717    3.0143 N   0  0  0  0  0  0  0  0  0  0  0  0
   -6.7987    9.9348    4.3563 C   0  0  0  0  0  0  0  0  0  0  0  0
   -3.4379    5.8965    8.1210 N   0  0  0  0  0  0  0  0  0  0  0  0
   -7.5848   10.8169    5.0181 N   0  0  0  0  0  0  0  0  0  0  0  0
   -2.5067    5.6384    9.2177 C   0  0  0  0  0  0  0  0  0  0  0  0
   -8.8096   11.4279    4.5111 C   0  0  0  0  0  0  0  0  0  0  0  0
   -2.9940    6.4200   10.4483 C   0  0  0  0  0  0  0  0  0  0  0  0
   -9.9970   10.5655    4.9782 C   0  0  0  0  0  0  0  0  0  0  0  0
   -3.7816    5.5094   11.4004 C   0  0  0  0  0  0  0  0  0  0  0  0
   -9.8835    9.1003    4.5198 C   0  0  0  0  0  0  0  0  0  0  0  0
   -3.7075    6.0677   12.7985 N   0  0  0  0  0  0  0  0  0  0  0  0
  -10.5260    8.8908    3.1719 N   0  0  0  0  0  0  0  0  0  0  0  0
   -3.9941    4.9826   13.8004 C   0  0  0  0  0  0  0  0  0  0  0  0
  -10.8623    7.4320    3.0156 C   0  0  0  0  0  0  0  0  0  0  0  0
   -4.6919    7.1965   12.9797 C   0  0  0  0  0  0  0  0  0  0  0  0
   -9.6260    9.3079    2.0424 C   0  0  0  0  0  0  0  0  0  0  0  0
  1  6  2  0  0  0  0
  2  3  2  0  0  0  0
  2  1  1  0  0  0  0
  3  4  1  0  0  0  0
  4 10  1  0  0  0  0
  4  5  2  0  0  0  0
  6  5  1  0  0  0  0
  7  1  1  0  0  0  0
  7 11  1  0  0  0  0
  8  7  2  0  0  0  0
  9 10  2  0  0  0  0
 10 12  1  0  0  0  0
 12 14  1  0  0  0  0
 13 11  1  0  0  0  0
 13 15  1  0  0  0  0
 14 16  1  0  0  0  0
 16 18  1  0  0  0  0
 17 15  1  0  0  0  0
 17 19  1  0  0  0  0
 18 20  1  0  0  0  0
 19 23  1  0  0  0  0
 20 22  1  0  0  0  0
 20 24  1  0  0  0  0
 21 19  1  0  0  0  0
M  END
>  <CHROM.1>
-32.20705426,72.89882498,93.71981944,114.88292771,98.59954018,-57.21990814
-89.57687809,154.75281644,-158.59834063,-158.36744071,-5.92491597,7.95739117
6.73836138,-0.93348855,0.33716987,-1.36670996

>  <Name>
lig.pdb

>  <RI>
0

>  <Rbt.Current_Directory>
/home/itssahil/PROJECTS/Mol_Feturizer/New_Systems/rnas/2l94

>  <Rbt.Executable>
rbdock ($Id: //depot/dev/client3/rdock/2013.1/src/exe/rbdock.cxx#4 $)

>  <Rbt.Library>
libRbt.so (2013.1, Build901 2013/11/27)

>  <Rbt.Parameter_File>
/export/apps/rDock/src/rDock_2013.1_src/data/scripts/dock_solv.prm

>  <Rbt.Receptor>
prm/blind_docking_100.prm

>  <SCORE>
1.15723

>  <SCORE.INTER>
-12.7153

>  <SCORE.INTER.CONST>
1

>  <SCORE.INTER.POLAR>
-1.55246

>  <SCORE.INTER.ROT>
10

>  <SCORE.INTER.SOLV>
20.1159

>  <SCORE.INTER.VDW>
-20.274

>  <SCORE.INTER.norm>
-0.529805

>  <SCORE.INTRA>
8.68699

>  <SCORE.INTRA.DIHEDRAL>
23.2871

>  <SCORE.INTRA.DIHEDRAL.0>
7.52971

>  <SCORE.INTRA.POLAR>
0

>  <SCORE.INTRA.POLAR.0>
0

>  <SCORE.INTRA.REPUL>
0

>  <SCORE.INTRA.REPUL.0>
0

>  <SCORE.INTRA.SOLV>
1.04331

>  <SCORE.INTRA.SOLV.lig_0>
-22.1084

>  <SCORE.INTRA.VDW>
-3.47822

>  <SCORE.INTRA.VDW.0>
2.4256

>  <SCORE.INTRA.norm>
0.361958

>  <SCORE.RESTR>
5.18556

>  <SCORE.RESTR.CAVITY>
5.18556

>  <SCORE.RESTR.norm>
0.216065

>  <SCORE.SYSTEM>
0

>  <SCORE.SYSTEM.CONST>
0

>  <SCORE.SYSTEM.DIHEDRAL>
0

>  <SCORE.SYSTEM.SOLV>
0

>  <SCORE.SYSTEM.norm>
0

>  <SCORE.heavy>
24

>  <SCORE.norm>
0.0482178

>  <RMSD>
16.404

$$$$
lig.pdb
 OpenBabel11021811453D
libRbt.so/2013.1/901 2013/11/27
 24 24  0  0  0  0  0  0  0  0999 V2000
   -4.0083    7.3135    6.2026 C   0  0  0  0  0  0  0  0  0  0  0  0
   -3.8687    8.7075    5.8892 C   0  0  0  0  0  0  0  0  0  0  0  0
   -4.7989    9.3745    5.1275 C   0  0  0  0  0  0  0  0  0  0  0  0
   -5.9624    8.7171    4.6140 C   0  0  0  0  0  0  0  0  0  0  0  0
   -6.0832    7.3173    4.8995 C   0  0  0  0  0  0  0  0  0  0  0  0
   -5.1510    6.6486    5.6530 C   0  0  0  0  0  0  0  0  0  0  0  0
   -3.1071    6.6493    6.9846 C   0  0  0  0  0  0  0  0  0  0  0  0
   -1.7777    6.6736    6.7495 N   0  0  0  0  0  0  0  0  0  0  0  0
   -6.7400   10.6270    3.4073 N   0  0  0  0  0  0  0  0  0  0  0  0
   -6.9096    9.3772    3.8883 C   0  0  0  0  0  0  0  0  0  0  0  0
   -3.4811    5.9162    8.0624 N   0  0  0  0  0  0  0  0  0  0  0  0
   -8.1111    8.8290    3.5885 N   0  0  0  0  0  0  0  0  0  0  0  0
   -2.7469    5.7721    9.3180 C   0  0  0  0  0  0  0  0  0  0  0  0
   -8.9906    9.2277    2.4939 C   0  0  0  0  0  0  0  0  0  0  0  0
   -3.7639    5.8122   10.4700 C   0  0  0  0  0  0  0  0  0  0  0  0
  -10.1501   10.0455    3.0926 C   0  0  0  0  0  0  0  0  0  0  0  0
   -3.2488    6.6794   11.6270 C   0  0  0  0  0  0  0  0  0  0  0  0
   -9.6650   11.1599    4.0374 C   0  0  0  0  0  0  0  0  0  0  0  0
   -4.0603    6.3921   12.8642 N   0  0  0  0  0  0  0  0  0  0  0  0
   -9.9859   10.8441    5.4764 N   0  0  0  0  0  0  0  0  0  0  0  0
   -3.8627    7.4897   13.8740 C   0  0  0  0  0  0  0  0  0  0  0  0
   -9.5183   11.9847    6.3400 C   0  0  0  0  0  0  0  0  0  0  0  0
   -3.6649    5.0689   13.4715 C   0  0  0  0  0  0  0  0  0  0  0  0
   -9.3240    9.5769    5.9411 C   0  0  0  0  0  0  0  0  0  0  0  0
  1  6  2  0  0  0  0
  2  3  2  0  0  0  0
  2  1  1  0  0  0  0
  3  4  1  0  0  0  0
  4 10  1  0  0  0  0
  4  5  2  0  0  0  0
  6  5  1  0  0  0  0
  7  1  1  0  0  0  0
  7 11  1  0  0  0  0
  8  7  2  0  0  0  0
  9 10  2  0  0  0  0
 10 12  1  0  0  0  0
 12 14  1  0  0  0  0
 13 11  1  0  0  0  0
 13 15  1  0  0  0  0
 14 16  1  0  0  0  0
 16 18  1  0  0  0  0
 17 15  1  0  0  0  0
 17 19  1  0  0  0  0
 18 20  1  0  0  0  0
 19 23  1  0  0  0  0
 20 22  1  0  0  0  0
 20 24  1  0  0  0  0
 21 19  1  0  0  0  0
M  END
>  <CHROM.1>
11.14963912,-51.81395437,-103.98997036,139.43904033,-137.03157784,49.44468333
-108.92867495,-164.22470686,-163.22579788,-178.57940841,-5.82458118,8.18757304
6.91067976,-0.88381255,0.53800919,-1.47097637

>  <Name>
lig.pdb

>  <RI>
0

>  <Rbt.Current_Directory>
/home/itssahil/PROJECTS/Mol_Feturizer/New_Systems/rnas/2l94

>  <Rbt.Executable>
rbdock ($Id: //depot/dev/client3/rdock/2013.1/src/exe/rbdock.cxx#4 $)

>  <Rbt.Library>
libRbt.so (2013.1, Build901 2013/11/27)

>  <Rbt.Parameter_File>
/export/apps/rDock/src/rDock_2013.1_src/data/scripts/dock_solv.prm

>  <Rbt.Receptor>
prm/blind_docking_100.prm

>  <SCORE>
-2.07107

>  <SCORE.INTER>
-18.2211

>  <SCORE.INTER.CONST>
1

>  <SCORE.INTER.POLAR>
-2.62081

>  <SCORE.INTER.ROT>
10

>  <SCORE.INTER.SOLV>
18.7207

>  <SCORE.INTER.VDW>
-19.9182

>  <SCORE.INTER.norm>
-0.759211

>  <SCORE.INTRA>
9.32586

>  <SCORE.INTRA.DIHEDRAL>
17.0798

>  <SCORE.INTRA.DIHEDRAL.0>
7.52971

>  <SCORE.INTRA.POLAR>
0

>  <SCORE.INTRA.POLAR.0>
0

>  <SCORE.INTRA.REPUL>
0

>  <SCORE.INTRA.REPUL.0>
0

>  <SCORE.INTRA.SOLV>
1.45261

>  <SCORE.INTRA.SOLV.lig_0>
-22.1084

>  <SCORE.INTRA.VDW>
0.0596673

>  <SCORE.INTRA.VDW.0>
2.4256

>  <SCORE.INTRA.norm>
0.388577

>  <SCORE.RESTR>
6.82413

>  <SCORE.RESTR.CAVITY>
6.82413

>  <SCORE.RESTR.norm>
0.284339

>  <SCORE.SYSTEM>
0

>  <SCORE.SYSTEM.CONST>
0

>  <SCORE.SYSTEM.DIHEDRAL>
0

>  <SCORE.SYSTEM.SOLV>
0

>  <SCORE.SYSTEM.norm>
0

>  <SCORE.heavy>
24

>  <SCORE.norm>
-0.0862946

>  <RMSD>
16.412

$$$$
lig.pdb
 OpenBabel11021811453D
libRbt.so/2013.1/901 2013/11/27
 24 24  0  0  0  0  0  0  0  0999 V2000
   -5.5089    3.9582    5.0554 C   0  0  0  0  0  0  0  0  0  0  0  0
   -5.8283    3.0113    4.0248 C   0  0  0  0  0  0  0  0  0  0  0  0
   -6.7947    2.0493    4.2003 C   0  0  0  0  0  0  0  0  0  0  0  0
   -7.5418    1.9461    5.4171 C   0  0  0  0  0  0  0  0  0  0  0  0
   -7.1984    2.8708    6.4577 C   0  0  0  0  0  0  0  0  0  0  0  0
   -6.2282    3.8264    6.2864 C   0  0  0  0  0  0  0  0  0  0  0  0
   -4.5735    4.9375    4.8799 C   0  0  0  0  0  0  0  0  0  0  0  0
   -3.8327    5.0478    3.7564 N   0  0  0  0  0  0  0  0  0  0  0  0
   -8.7613    0.3919    6.7609 N   0  0  0  0  0  0  0  0  0  0  0  0
   -8.5274    1.0194    5.5888 C   0  0  0  0  0  0  0  0  0  0  0  0
   -4.3205    5.8786    5.8230 N   0  0  0  0  0  0  0  0  0  0  0  0
   -9.3601    0.6470    4.5878 N   0  0  0  0  0  0  0  0  0  0  0  0
   -3.9704    7.2781    5.5885 C   0  0  0  0  0  0  0  0  0  0  0  0
  -10.6762    0.0357    4.7450 C   0  0  0  0  0  0  0  0  0  0  0  0
   -5.2727    8.0604    5.3538 C   0  0  0  0  0  0  0  0  0  0  0  0
  -11.7124    0.9690    4.0915 C   0  0  0  0  0  0  0  0  0  0  0  0
   -6.0180    8.2945    6.6751 C   0  0  0  0  0  0  0  0  0  0  0  0
  -11.8936    2.2884    4.8636 C   0  0  0  0  0  0  0  0  0  0  0  0
   -6.7647    9.6017    6.6006 N   0  0  0  0  0  0  0  0  0  0  0  0
  -13.2307    2.9212    4.5718 N   0  0  0  0  0  0  0  0  0  0  0  0
   -7.2510    9.9936    7.9693 C   0  0  0  0  0  0  0  0  0  0  0  0
  -14.3091    1.8891    4.7649 C   0  0  0  0  0  0  0  0  0  0  0  0
   -7.9377    9.4982    5.6575 C   0  0  0  0  0  0  0  0  0  0  0  0
  -13.3122    3.4558    3.1692 C   0  0  0  0  0  0  0  0  0  0  0  0
  1  6  2  0  0  0  0
  2  3  2  0  0  0  0
  2  1  1  0  0  0  0
  3  4  1  0  0  0  0
  4 10  1  0  0  0  0
  4  5  2  0  0  0  0
  6  5  1  0  0  0  0
  7  1  1  0  0  0  0
  7 11  1  0  0  0  0
  8  7  2  0  0  0  0
  9 10  2  0  0  0  0
 10 12  1  0  0  0  0
 12 14  1  0  0  0  0
 13 11  1  0  0  0  0
 13 15  1  0  0  0  0
 14 16  1  0  0  0  0
 16 18  1  0  0  0  0
 17 15  1  0  0  0  0
 17 19  1  0  0  0  0
 18 20  1  0  0  0  0
 19 23  1  0  0  0  0
 20 22  1  0  0  0  0
 20 24  1  0  0  0  0
 21 19  1  0  0  0  0
M  END
>  <CHROM.1>
143.59441033,-3.48856981,119.59429279,82.79486099,75.73523463,-68.81486744
-157.26506978,148.36575369,-167.76785450,50.71317442,-8.01763173,4.22199850
5.29214716,-0.80683824,0.02953850,-2.96883579

>  <Name>
lig.pdb

>  <RI>
2.62193e+07

>  <Rbt.Current_Directory>
/home/itssahil/PROJECTS/Mol_Feturizer/New_Systems/rnas/2l94

>  <Rbt.Executable>
rbdock ($Id: //depot/dev/client3/rdock/2013.1/src/exe/rbdock.cxx#4 $)

>  <Rbt.Library>
libRbt.so (2013.1, Build901 2013/11/27)

>  <Rbt.Parameter_File>
/export/apps/rDock/src/rDock_2013.1_src/data/scripts/dock_solv.prm

>  <Rbt.Receptor>
prm/blind_docking_60.prm

>  <SCORE>
21.8602

>  <SCORE.INTER>
-0.638381

>  <SCORE.INTER.CONST>
1

>  <SCORE.INTER.POLAR>
-1.6336

>  <SCORE.INTER.ROT>
10

>  <SCORE.INTER.SOLV>
18.6618

>  <SCORE.INTER.VDW>
-11.4675

>  <SCORE.INTER.norm>
-0.0265992

>  <SCORE.INTRA>
4.98098

>  <SCORE.INTRA.DIHEDRAL>
8.28629

>  <SCORE.INTRA.DIHEDRAL.0>
7.52971

>  <SCORE.INTRA.POLAR>
0

>  <SCORE.INTRA.POLAR.0>
0

>  <SCORE.INTRA.REPUL>
0

>  <SCORE.INTRA.REPUL.0>
0

>  <SCORE.INTRA.SOLV>
0.291065

>  <SCORE.INTRA.SOLV.lig_0>
-22.1084

>  <SCORE.INTRA.VDW>
0.692305

>  <SCORE.INTRA.VDW.0>
2.4256

>  <SCORE.INTRA.norm>
0.207541

>  <SCORE.RESTR>
17.5176

>  <SCORE.RESTR.CAVITY>
17.5176

>  <SCORE.RESTR.norm>
0.729899

>  <SCORE.SYSTEM>
0

>  <SCORE.SYSTEM.CONST>
0

>  <SCORE.SYSTEM.DIHEDRAL>
0

>  <SCORE.SYSTEM.SOLV>
0

>  <SCORE.SYSTEM.norm>
0

>  <SCORE.heavy>
24

>  <SCORE.norm>
0.910841

>  <RMSD>
16.436

$$$$
lig.pdb
 OpenBabel11021811453D
libRbt.so/2013.1/901 2013/11/27
 24 24  0  0  0  0  0  0  0  0999 V2000
   -6.0720    8.7983    5.2889 C   0  0  0  0  0  0  0  0  0  0  0  0
   -6.0694    7.3675    5.4057 C   0  0  0  0  0  0  0  0  0  0  0  0
   -5.1052    6.7021    6.1253 C   0  0  0  0  0  0  0  0  0  0  0  0
   -4.0571    7.4008    6.8054 C   0  0  0  0  0  0  0  0  0  0  0  0
   -4.0415    8.8271    6.6600 C   0  0  0  0  0  0  0  0  0  0  0  0
   -4.9989    9.4919    5.9352 C   0  0  0  0  0  0  0  0  0  0  0  0
   -7.0427    9.4711    4.6035 C   0  0  0  0  0  0  0  0  0  0  0  0
   -7.4561   10.7094    4.9482 N   0  0  0  0  0  0  0  0  0  0  0  0
   -1.8099    7.0915    7.5556 N   0  0  0  0  0  0  0  0  0  0  0  0
   -3.1169    6.7538    7.5517 C   0  0  0  0  0  0  0  0  0  0  0  0
   -7.6637    8.9454    3.5186 N   0  0  0  0  0  0  0  0  0  0  0  0
   -3.4189    5.7079    8.3572 N   0  0  0  0  0  0  0  0  0  0  0  0
   -8.1149    9.6717    2.3332 C   0  0  0  0  0  0  0  0  0  0  0  0
   -2.6318    5.2415    9.4945 C   0  0  0  0  0  0  0  0  0  0  0  0
   -9.6516    9.7036    2.3522 C   0  0  0  0  0  0  0  0  0  0  0  0
   -3.0390    6.0736   10.7247 C   0  0  0  0  0  0  0  0  0  0  0  0
  -10.2199    8.4157    2.9640 C   0  0  0  0  0  0  0  0  0  0  0  0
   -3.5735    5.2055   11.8783 C   0  0  0  0  0  0  0  0  0  0  0  0
  -10.1693    8.5141    4.4672 N   0  0  0  0  0  0  0  0  0  0  0  0
   -3.7010    5.9984   13.1545 N   0  0  0  0  0  0  0  0  0  0  0  0
   -9.7354    7.1982    5.0534 C   0  0  0  0  0  0  0  0  0  0  0  0
   -4.0288    5.0559   14.2813 C   0  0  0  0  0  0  0  0  0  0  0  0
  -11.5169    8.8974    5.0268 C   0  0  0  0  0  0  0  0  0  0  0  0
   -4.7748    7.0469   13.0670 C   0  0  0  0  0  0  0  0  0  0  0  0
  1  6  2  0  0  0  0
  2  3  2  0  0  0  0
  2  1  1  0  0  0  0
  3  4  1  0  0  0  0
  4 10  1  0  0  0  0
  4  5  2  0  0  0  0
  6  5  1  0  0  0  0
  7  1  1  0  0  0  0
  7 11  1  0  0  0  0
  8  7  2  0  0  0  0
  9 10  2  0  0  0  0
 10 12  1  0  0  0  0
 12 14  1  0  0  0  0
 13 11  1  0  0  0  0
 13 15  1  0  0  0  0
 14 16  1  0  0  0  0
 16 18  1  0  0  0  0
 17 15  1  0  0  0  0
 17 19  1  0  0  0  0
 18 20  1  0  0  0  0
 19 23  1  0  0  0  0
 20 22  1  0  0  0  0
 20 24  1  0  0  0  0
 21 19  1  0  0  0  0
M  END
>  <CHROM.1>
139.72167889,148.30094014,85.19109542,-109.55239646,-33.99196140,121.46942895
168.50610529,80.99329944,-139.01542728,-171.71124695,-5.95145297,7.66857496
7.04081981,-2.16727043,-0.07520203,1.90891267

>  <Name>
lig.pdb

>  <RI>
0

>  <Rbt.Current_Directory>
/home/itssahil/PROJECTS/Mol_Feturizer/New_Systems/rnas/2l94

>  <Rbt.Executable>
rbdock ($Id: //depot/dev/client3/rdock/2013.1/src/exe/rbdock.cxx#4 $)

>  <Rbt.Library>
libRbt.so (2013.1, Build901 2013/11/27)

>  <Rbt.Parameter_File>
/export/apps/rDock/src/rDock_2013.1_src/data/scripts/dock_solv.prm

>  <Rbt.Receptor>
prm/blind_docking_100.prm

>  <SCORE>
7.67857

>  <SCORE.INTER>
-7.54967

>  <SCORE.INTER.CONST>
1

>  <SCORE.INTER.POLAR>
-2.73044

>  <SCORE.INTER.ROT>
10

>  <SCORE.INTER.SOLV>
17.4876

>  <SCORE.INTER.VDW>
-12.0275

>  <SCORE.INTER.norm>
-0.31457

>  <SCORE.INTRA>
8.55575

>  <SCORE.INTRA.DIHEDRAL>
18.6675

>  <SCORE.INTRA.DIHEDRAL.0>
7.52971

>  <SCORE.INTRA.POLAR>
0

>  <SCORE.INTRA.POLAR.0>
0

>  <SCORE.INTRA.REPUL>
0

>  <SCORE.INTRA.REPUL.0>
0

>  <SCORE.INTRA.SOLV>
2.02484

>  <SCORE.INTRA.SOLV.lig_0>
-22.1084

>  <SCORE.INTRA.VDW>
-1.79044

>  <SCORE.INTRA.VDW.0>
2.4256

>  <SCORE.INTRA.norm>
0.35649

>  <SCORE.RESTR>
6.67249

>  <SCORE.RESTR.CAVITY>
6.67249

>  <SCORE.RESTR.norm>
0.27802

>  <SCORE.SYSTEM>
0

>  <SCORE.SYSTEM.CONST>
0

>  <SCORE.SYSTEM.DIHEDRAL>
0

>  <SCORE.SYSTEM.SOLV>
0

>  <SCORE.SYSTEM.norm>
0

>  <SCORE.heavy>
24

>  <SCORE.norm>
0.31994

>  <RMSD>
16.438

$$$$
lig.pdb
 OpenBabel11021811453D
libRbt.so/2013.1/901 2013/11/27
 24 24  0  0  0  0  0  0  0  0999 V2000
   -4.1406    7.4138    6.2998 C   0  0  0  0  0  0  0  0  0  0  0  0
   -5.3584    6.7817    5.8774 C   0  0  0  0  0  0  0  0  0  0  0  0
   -6.2759    7.4338    5.0880 C   0  0  0  0  0  0  0  0  0  0  0  0
   -6.0618    8.7752    4.6362 C   0  0  0  0  0  0  0  0  0  0  0  0
   -4.8612    9.4167    5.0865 C   0  0  0  0  0  0  0  0  0  0  0  0
   -3.9484    8.7695    5.8813 C   0  0  0  0  0  0  0  0  0  0  0  0
   -3.2080    6.7645    7.0572 C   0  0  0  0  0  0  0  0  0  0  0  0
   -1.8857    6.8130    6.7884 N   0  0  0  0  0  0  0  0  0  0  0  0
   -6.7351   10.6546    3.3237 N   0  0  0  0  0  0  0  0  0  0  0  0
   -6.9476    9.4188    3.8233 C   0  0  0  0  0  0  0  0  0  0  0  0
   -3.5413    6.0230    8.1426 N   0  0  0  0  0  0  0  0  0  0  0  0
   -8.1259    8.8668    3.4476 N   0  0  0  0  0  0  0  0  0  0  0  0
   -2.7730    5.8899    9.3788 C   0  0  0  0  0  0  0  0  0  0  0  0
   -8.9175    9.2391    2.2791 C   0  0  0  0  0  0  0  0  0  0  0  0
   -3.7651    5.8471   10.5522 C   0  0  0  0  0  0  0  0  0  0  0  0
  -10.3462    9.5576    2.7576 C   0  0  0  0  0  0  0  0  0  0  0  0
   -3.2857    6.7348   11.7090 C   0  0  0  0  0  0  0  0  0  0  0  0
  -10.4067   10.8049    3.6578 C   0  0  0  0  0  0  0  0  0  0  0  0
   -4.0661    6.3959   12.9532 N   0  0  0  0  0  0  0  0  0  0  0  0
   -9.7547   10.5550    4.9942 N   0  0  0  0  0  0  0  0  0  0  0  0
   -3.9177    7.4968   13.9678 C   0  0  0  0  0  0  0  0  0  0  0  0
  -10.8135   10.5808    6.0637 C   0  0  0  0  0  0  0  0  0  0  0  0
   -3.5917    5.0929   13.5474 C   0  0  0  0  0  0  0  0  0  0  0  0
   -8.7090   11.5855    5.3177 C   0  0  0  0  0  0  0  0  0  0  0  0
  1  6  2  0  0  0  0
  2  3  2  0  0  0  0
  2  1  1  0  0  0  0
  3  4  1  0  0  0  0
  4 10  1  0  0  0  0
  4  5  2  0  0  0  0
  6  5  1  0  0  0  0
  7  1  1  0  0  0  0
  7 11  1  0  0  0  0
  8  7  2  0  0  0  0
  9 10  2  0  0  0  0
 10 12  1  0  0  0  0
 12 14  1  0  0  0  0
 13 11  1  0  0  0  0
 13 15  1  0  0  0  0
 14 16  1  0  0  0  0
 16 18  1  0  0  0  0
 17 15  1  0  0  0  0
 17 19  1  0  0  0  0
 18 20  1  0  0  0  0
 19 23  1  0  0  0  0
 20 22  1  0  0  0  0
 20 24  1  0  0  0  0
 21 19  1  0  0  0  0
M  END
>  <CHROM.1>
-176.21853217,134.58780040,-126.35078494,141.91134683,-135.95793762,65.88436566
-69.41887148,-165.25125051,-163.24852296,-112.61664233,-5.92089125,8.21397763
6.84455254,-0.91542270,0.46184304,-1.43485954

>  <Name>
lig.pdb

>  <RI>
0

>  <Rbt.Current_Directory>
/home/itssahil/PROJECTS/Mol_Feturizer/New_Systems/rnas/2l94

>  <Rbt.Executable>
rbdock ($Id: //depot/dev/client3/rdock/2013.1/src/exe/rbdock.cxx#4 $)

>  <Rbt.Library>
libRbt.so (2013.1, Build901 2013/11/27)

>  <Rbt.Parameter_File>
/export/apps/rDock/src/rDock_2013.1_src/data/scripts/dock_solv.prm

>  <Rbt.Receptor>
prm/blind_docking_100.prm

>  <SCORE>
-5.68131

>  <SCORE.INTER>
-18.1352

>  <SCORE.INTER.CONST>
1

>  <SCORE.INTER.POLAR>
-2.54091

>  <SCORE.INTER.ROT>
10

>  <SCORE.INTER.SOLV>
19.6261

>  <SCORE.INTER.VDW>
-20.4291

>  <SCORE.INTER.norm>
-0.755632

>  <SCORE.INTRA>
5.59935

>  <SCORE.INTRA.DIHEDRAL>
13.7278

>  <SCORE.INTRA.DIHEDRAL.0>
7.52971

>  <SCORE.INTRA.POLAR>
0

>  <SCORE.INTRA.POLAR.0>
0

>  <SCORE.INTRA.REPUL>
0

>  <SCORE.INTRA.REPUL.0>
0

>  <SCORE.INTRA.SOLV>
1.85343

>  <SCORE.INTRA.SOLV.lig_0>
-22.1084

>  <SCORE.INTRA.VDW>
-2.19126

>  <SCORE.INTRA.VDW.0>
2.4256

>  <SCORE.INTRA.norm>
0.233306

>  <SCORE.RESTR>
6.8545

>  <SCORE.RESTR.CAVITY>
6.8545

>  <SCORE.RESTR.norm>
0.285604

>  <SCORE.SYSTEM>
0

>  <SCORE.SYSTEM.CONST>
0

>  <SCORE.SYSTEM.DIHEDRAL>
0

>  <SCORE.SYSTEM.SOLV>
0

>  <SCORE.SYSTEM.norm>
0

>  <SCORE.heavy>
24

>  <SCORE.norm>
-0.236721

>  <RMSD>
16.491

$$$$
lig.pdb
 OpenBabel11021811453D
libRbt.so/2013.1/901 2013/11/27
 24 24  0  0  0  0  0  0  0  0999 V2000
   -4.0963    7.5674    6.5097 C   0  0  0  0  0  0  0  0  0  0  0  0
   -3.7044    8.8156    5.9184 C   0  0  0  0  0  0  0  0  0  0  0  0
   -4.5968    9.6004    5.2271 C   0  0  0  0  0  0  0  0  0  0  0  0
   -5.9677    9.2201    5.0678 C   0  0  0  0  0  0  0  0  0  0  0  0
   -6.3494    7.9574    5.6298 C   0  0  0  0  0  0  0  0  0  0  0  0
   -5.4575    7.1693    6.3132 C   0  0  0  0  0  0  0  0  0  0  0  0
   -3.2261    6.7959    7.2254 C   0  0  0  0  0  0  0  0  0  0  0  0
   -1.8882    6.9731    7.1844 N   0  0  0  0  0  0  0  0  0  0  0  0
   -6.8328   10.2349    3.0854 N   0  0  0  0  0  0  0  0  0  0  0  0
   -6.8697   10.0077    4.4155 C   0  0  0  0  0  0  0  0  0  0  0  0
   -3.6425    5.7927    8.0373 N   0  0  0  0  0  0  0  0  0  0  0  0
   -7.8860   10.6347    5.0543 N   0  0  0  0  0  0  0  0  0  0  0  0
   -3.0444    5.3936    9.3098 C   0  0  0  0  0  0  0  0  0  0  0  0
   -9.1222   11.1133    4.4435 C   0  0  0  0  0  0  0  0  0  0  0  0
   -3.9104    5.9681   10.4425 C   0  0  0  0  0  0  0  0  0  0  0  0
  -10.2128   10.0544    4.6905 C   0  0  0  0  0  0  0  0  0  0  0  0
   -3.0730    6.8473   11.3817 C   0  0  0  0  0  0  0  0  0  0  0  0
  -11.1945    9.9268    3.5116 C   0  0  0  0  0  0  0  0  0  0  0  0
   -3.4756    6.5757   12.8086 N   0  0  0  0  0  0  0  0  0  0  0  0
  -10.7408    8.8815    2.5242 N   0  0  0  0  0  0  0  0  0  0  0  0
   -3.3488    5.1065   13.1068 C   0  0  0  0  0  0  0  0  0  0  0  0
  -10.7275    7.5407    3.2079 C   0  0  0  0  0  0  0  0  0  0  0  0
   -4.8941    7.0227   13.0615 C   0  0  0  0  0  0  0  0  0  0  0  0
   -9.3671    9.1680    1.9847 C   0  0  0  0  0  0  0  0  0  0  0  0
  1  6  2  0  0  0  0
  2  3  2  0  0  0  0
  2  1  1  0  0  0  0
  3  4  1  0  0  0  0
  4 10  1  0  0  0  0
  4  5  2  0  0  0  0
  6  5  1  0  0  0  0
  7  1  1  0  0  0  0
  7 11  1  0  0  0  0
  8  7  2  0  0  0  0
  9 10  2  0  0  0  0
 10 12  1  0  0  0  0
 12 14  1  0  0  0  0
 13 11  1  0  0  0  0
 13 15  1  0  0  0  0
 14 16  1  0  0  0  0
 16 18  1  0  0  0  0
 17 15  1  0  0  0  0
 17 19  1  0  0  0  0
 18 20  1  0  0  0  0
 19 23  1  0  0  0  0
 20 22  1  0  0  0  0
 20 24  1  0  0  0  0
 21 19  1  0  0  0  0
M  END
>  <CHROM.1>
68.85718509,-15.43390446,98.04397289,101.57772720,-123.41006915,-144.51545692
91.12820790,-138.73512138,55.33265959,63.11539015,-6.01691167,8.08318569
6.70342750,-0.93211730,0.15633805,-1.26625329

>  <Name>
lig.pdb

>  <RI>
0

>  <Rbt.Current_Directory>
/home/itssahil/PROJECTS/Mol_Feturizer/New_Systems/rnas/2l94

>  <Rbt.Executable>
rbdock ($Id: //depot/dev/client3/rdock/2013.1/src/exe/rbdock.cxx#4 $)

>  <Rbt.Library>
libRbt.so (2013.1, Build901 2013/11/27)

>  <Rbt.Parameter_File>
/export/apps/rDock/src/rDock_2013.1_src/data/scripts/dock_solv.prm

>  <Rbt.Receptor>
prm/blind_docking_100.prm

>  <SCORE>
4.72687

>  <SCORE.INTER>
-18.9164

>  <SCORE.INTER.CONST>
1

>  <SCORE.INTER.POLAR>
-2.53748

>  <SCORE.INTER.ROT>
10

>  <SCORE.INTER.SOLV>
20.5636

>  <SCORE.INTER.VDW>
-21.2739

>  <SCORE.INTER.norm>
-0.788183

>  <SCORE.INTRA>
16.5389

>  <SCORE.INTRA.DIHEDRAL>
25.7046

>  <SCORE.INTRA.DIHEDRAL.0>
7.52971

>  <SCORE.INTRA.POLAR>
0

>  <SCORE.INTRA.POLAR.0>
0

>  <SCORE.INTRA.REPUL>
0

>  <SCORE.INTRA.REPUL.0>
0

>  <SCORE.INTRA.SOLV>
0.575869

>  <SCORE.INTRA.SOLV.lig_0>
-22.1084

>  <SCORE.INTRA.VDW>
3.39871

>  <SCORE.INTRA.VDW.0>
2.4256

>  <SCORE.INTRA.norm>
0.689123

>  <SCORE.RESTR>
7.10432

>  <SCORE.RESTR.CAVITY>
7.10432

>  <SCORE.RESTR.norm>
0.296013

>  <SCORE.SYSTEM>
0

>  <SCORE.SYSTEM.CONST>
0

>  <SCORE.SYSTEM.DIHEDRAL>
0

>  <SCORE.SYSTEM.SOLV>
0

>  <SCORE.SYSTEM.norm>
0

>  <SCORE.heavy>
24

>  <SCORE.norm>
0.196953

>  <RMSD>
16.533

$$$$
lig.pdb
 OpenBabel11021811453D
libRbt.so/2013.1/901 2013/11/27
 24 24  0  0  0  0  0  0  0  0999 V2000
   -4.4853    6.9385    6.2866 C   0  0  0  0  0  0  0  0  0  0  0  0
   -3.7064    5.7796    6.6202 C   0  0  0  0  0  0  0  0  0  0  0  0
   -3.2751    5.5428    7.9040 C   0  0  0  0  0  0  0  0  0  0  0  0
   -3.5879    6.4342    8.9796 C   0  0  0  0  0  0  0  0  0  0  0  0
   -4.3371    7.6082    8.6387 C   0  0  0  0  0  0  0  0  0  0  0  0
   -4.7613    7.8497    7.3560 C   0  0  0  0  0  0  0  0  0  0  0  0
   -4.9457    7.1667    5.0214 C   0  0  0  0  0  0  0  0  0  0  0  0
   -5.1290    6.1776    4.1207 N   0  0  0  0  0  0  0  0  0  0  0  0
   -2.7770    7.1563   11.1078 N   0  0  0  0  0  0  0  0  0  0  0  0
   -3.1964    6.1906   10.2630 C   0  0  0  0  0  0  0  0  0  0  0  0
   -5.2583    8.4084    4.5745 N   0  0  0  0  0  0  0  0  0  0  0  0
   -3.1942    4.9478   10.8009 N   0  0  0  0  0  0  0  0  0  0  0  0
   -6.3404    8.7597    3.6570 C   0  0  0  0  0  0  0  0  0  0  0  0
   -3.2307    4.6253   12.2240 C   0  0  0  0  0  0  0  0  0  0  0  0
   -7.2805    9.7355    4.3829 C   0  0  0  0  0  0  0  0  0  0  0  0
   -4.6245    5.0031   12.7591 C   0  0  0  0  0  0  0  0  0  0  0  0
   -8.4509   10.1455    3.4785 C   0  0  0  0  0  0  0  0  0  0  0  0
   -4.7576    6.5071   13.0595 C   0  0  0  0  0  0  0  0  0  0  0  0
   -9.7073    9.4575    3.9476 N   0  0  0  0  0  0  0  0  0  0  0  0
   -3.7530    6.9567   14.0901 N   0  0  0  0  0  0  0  0  0  0  0  0
   -9.4681    7.9769    4.0660 C   0  0  0  0  0  0  0  0  0  0  0  0
   -4.1526    6.4036   15.4317 C   0  0  0  0  0  0  0  0  0  0  0  0
  -10.8477    9.7109    2.9929 C   0  0  0  0  0  0  0  0  0  0  0  0
   -3.6683    8.4546   14.1852 C   0  0  0  0  0  0  0  0  0  0  0  0
  1  6  2  0  0  0  0
  2  3  2  0  0  0  0
  2  1  1  0  0  0  0
  3  4  1  0  0  0  0
  4 10  1  0  0  0  0
  4  5  2  0  0  0  0
  6  5  1  0  0  0  0
  7  1  1  0  0  0  0
  7 11  1  0  0  0  0
  8  7  2  0  0  0  0
  9 10  2  0  0  0  0
 10 12  1  0  0  0  0
 12 14  1  0  0  0  0
 13 11  1  0  0  0  0
 13 15  1  0  0  0  0
 14 16  1  0  0  0  0
 16 18  1  0  0  0  0
 17 15  1  0  0  0  0
 17 19  1  0  0  0  0
 18 20  1  0  0  0  0
 19 23  1  0  0  0  0
 20 22  1  0  0  0  0
 20 24  1  0  0  0  0
 21 19  1  0  0  0  0
M  END
>  <CHROM.1>
141.70174612,23.71611016,69.44492357,120.05659156,-179.73340534,-80.69746298
-59.62423522,106.40070269,-52.25228296,-71.41610083,-5.25332821,7.27345820
8.19231330,-2.09920025,-0.59035459,1.52983030

>  <Name>
lig.pdb

>  <RI>
0

>  <Rbt.Current_Directory>
/home/itssahil/PROJECTS/Mol_Feturizer/New_Systems/rnas/2l94

>  <Rbt.Executable>
rbdock ($Id: //depot/dev/client3/rdock/2013.1/src/exe/rbdock.cxx#4 $)

>  <Rbt.Library>
libRbt.so (2013.1, Build901 2013/11/27)

>  <Rbt.Parameter_File>
/export/apps/rDock/src/rDock_2013.1_src/data/scripts/dock_solv.prm

>  <Rbt.Receptor>
prm/blind_docking_100.prm

>  <SCORE>
12.5862

>  <SCORE.INTER>
-2.43344

>  <SCORE.INTER.CONST>
1

>  <SCORE.INTER.POLAR>
-1.86484

>  <SCORE.INTER.ROT>
10

>  <SCORE.INTER.SOLV>
17.174

>  <SCORE.INTER.VDW>
-11.3975

>  <SCORE.INTER.norm>
-0.101393

>  <SCORE.INTRA>
6.90622

>  <SCORE.INTRA.DIHEDRAL>
11.0191

>  <SCORE.INTRA.DIHEDRAL.0>
7.52971

>  <SCORE.INTRA.POLAR>
0

>  <SCORE.INTRA.POLAR.0>
0

>  <SCORE.INTRA.REPUL>
0

>  <SCORE.INTRA.REPUL.0>
0

>  <SCORE.INTRA.SOLV>
1.35528

>  <SCORE.INTRA.SOLV.lig_0>
-22.1084

>  <SCORE.INTRA.VDW>
0.719013

>  <SCORE.INTRA.VDW.0>
2.4256

>  <SCORE.INTRA.norm>
0.287759

>  <SCORE.RESTR>
8.11339

>  <SCORE.RESTR.CAVITY>
8.11339

>  <SCORE.RESTR.norm>
0.338058

>  <SCORE.SYSTEM>
0

>  <SCORE.SYSTEM.CONST>
0

>  <SCORE.SYSTEM.DIHEDRAL>
0

>  <SCORE.SYSTEM.SOLV>
0

>  <SCORE.SYSTEM.norm>
0

>  <SCORE.heavy>
24

>  <SCORE.norm>
0.524424

>  <RMSD>
16.653

$$$$
lig.pdb
 OpenBabel11021811453D
libRbt.so/2013.1/901 2013/11/27
 24 24  0  0  0  0  0  0  0  0999 V2000
  -11.3031    0.7707    4.2002 C   0  0  0  0  0  0  0  0  0  0  0  0
  -10.5385    1.3214    5.2832 C   0  0  0  0  0  0  0  0  0  0  0  0
   -9.1649    1.3677    5.2490 C   0  0  0  0  0  0  0  0  0  0  0  0
   -8.4229    0.8781    4.1268 C   0  0  0  0  0  0  0  0  0  0  0  0
   -9.1862    0.2978    3.0608 C   0  0  0  0  0  0  0  0  0  0  0  0
  -10.5571    0.2437    3.0974 C   0  0  0  0  0  0  0  0  0  0  0  0
  -12.6685    0.7489    4.2101 C   0  0  0  0  0  0  0  0  0  0  0  0
  -13.3804   -0.0913    4.9913 N   0  0  0  0  0  0  0  0  0  0  0  0
   -6.3346    0.4349    3.0540 N   0  0  0  0  0  0  0  0  0  0  0  0
   -7.0626    0.9521    4.0663 C   0  0  0  0  0  0  0  0  0  0  0  0
  -13.4144    1.5756    3.4360 N   0  0  0  0  0  0  0  0  0  0  0  0
   -6.3220    1.5547    5.0267 N   0  0  0  0  0  0  0  0  0  0  0  0
  -14.6953    2.1841    3.7899 C   0  0  0  0  0  0  0  0  0  0  0  0
   -4.9675    2.0754    4.8698 C   0  0  0  0  0  0  0  0  0  0  0  0
  -14.4284    3.2777    4.8368 C   0  0  0  0  0  0  0  0  0  0  0  0
   -4.8825    3.4105    5.6328 C   0  0  0  0  0  0  0  0  0  0  0  0
  -12.9877    3.7970    4.7329 C   0  0  0  0  0  0  0  0  0  0  0  0
   -5.6297    4.5513    4.9185 C   0  0  0  0  0  0  0  0  0  0  0  0
  -12.3069    3.6473    6.0692 N   0  0  0  0  0  0  0  0  0  0  0  0
   -5.6490    5.8075    5.7521 N   0  0  0  0  0  0  0  0  0  0  0  0
  -13.0836    4.3840    7.1263 C   0  0  0  0  0  0  0  0  0  0  0  0
   -7.0151    5.9633    6.3643 C   0  0  0  0  0  0  0  0  0  0  0  0
  -10.8956    4.1780    6.0163 C   0  0  0  0  0  0  0  0  0  0  0  0
   -5.3354    7.0331    4.9400 C   0  0  0  0  0  0  0  0  0  0  0  0
  1  6  2  0  0  0  0
  2  3  2  0  0  0  0
  2  1  1  0  0  0  0
  3  4  1  0  0  0  0
  4 10  1  0  0  0  0
  4  5  2  0  0  0  0
  6  5  1  0  0  0  0
  7  1  1  0  0  0  0
  7 11  1  0  0  0  0
  8  7  2  0  0  0  0
  9 10  2  0  0  0  0
 10 12  1  0  0  0  0
 12 14  1  0  0  0  0
 13 11  1  0  0  0  0
 13 15  1  0  0  0  0
 14 16  1  0  0  0  0
 16 18  1  0  0  0  0
 17 15  1  0  0  0  0
 17 19  1  0  0  0  0
 18 20  1  0  0  0  0
 19 23  1  0  0  0  0
 20 22  1  0  0  0  0
 20 24  1  0  0  0  0
 21 19  1  0  0  0  0
M  END
>  <CHROM.1>
176.34804890,-73.19995508,139.70363818,72.03693886,24.45326250,-73.14186873
174.24490271,-124.04035341,-57.31770547,-103.79970946,-9.57623372,2.58444850
4.82069791,-2.88676856,0.05184758,0.40858943

>  <Name>
lig.pdb

>  <RI>
2.62193e+07

>  <Rbt.Current_Directory>
/home/itssahil/PROJECTS/Mol_Feturizer/New_Systems/rnas/2l94

>  <Rbt.Executable>
rbdock ($Id: //depot/dev/client3/rdock/2013.1/src/exe/rbdock.cxx#4 $)

>  <Rbt.Library>
libRbt.so (2013.1, Build901 2013/11/27)

>  <Rbt.Parameter_File>
/export/apps/rDock/src/rDock_2013.1_src/data/scripts/dock_solv.prm

>  <Rbt.Receptor>
prm/blind_docking_60.prm

>  <SCORE>
33.8467

>  <SCORE.INTER>
8.09109

>  <SCORE.INTER.CONST>
1

>  <SCORE.INTER.POLAR>
-1.65062

>  <SCORE.INTER.ROT>
10

>  <SCORE.INTER.SOLV>
19.8568

>  <SCORE.INTER.VDW>
-5.98947

>  <SCORE.INTER.norm>
0.337129

>  <SCORE.INTRA>
11.7652

>  <SCORE.INTRA.DIHEDRAL>
21.8645

>  <SCORE.INTRA.DIHEDRAL.0>
7.52971

>  <SCORE.INTRA.POLAR>
0

>  <SCORE.INTRA.POLAR.0>
0

>  <SCORE.INTRA.REPUL>
0

>  <SCORE.INTRA.REPUL.0>
0

>  <SCORE.INTRA.SOLV>
1.23712

>  <SCORE.INTRA.SOLV.lig_0>
-22.1084

>  <SCORE.INTRA.VDW>
0.214426

>  <SCORE.INTRA.VDW.0>
2.4256

>  <SCORE.INTRA.norm>
0.490218

>  <SCORE.RESTR>
13.9904

>  <SCORE.RESTR.CAVITY>
13.9904

>  <SCORE.RESTR.norm>
0.582932

>  <SCORE.SYSTEM>
0

>  <SCORE.SYSTEM.CONST>
0

>  <SCORE.SYSTEM.DIHEDRAL>
0

>  <SCORE.SYSTEM.SOLV>
0

>  <SCORE.SYSTEM.norm>
0

>  <SCORE.heavy>
24

>  <SCORE.norm>
1.41028

>  <RMSD>
16.673

$$$$
lig.pdb
 OpenBabel11021811453D
libRbt.so/2013.1/901 2013/11/27
 24 24  0  0  0  0  0  0  0  0999 V2000
   -6.5605    9.2869    4.7900 C   0  0  0  0  0  0  0  0  0  0  0  0
   -6.3037    9.4885    6.1880 C   0  0  0  0  0  0  0  0  0  0  0  0
   -5.4742    8.6539    6.8989 C   0  0  0  0  0  0  0  0  0  0  0  0
   -4.8135    7.5443    6.2811 C   0  0  0  0  0  0  0  0  0  0  0  0
   -5.0974    7.3243    4.8930 C   0  0  0  0  0  0  0  0  0  0  0  0
   -5.9317    8.1521    4.1842 C   0  0  0  0  0  0  0  0  0  0  0  0
   -7.3573   10.1282    4.0673 C   0  0  0  0  0  0  0  0  0  0  0  0
   -7.5437    9.9951    2.7367 N   0  0  0  0  0  0  0  0  0  0  0  0
   -3.5905    5.5077    6.5355 N   0  0  0  0  0  0  0  0  0  0  0  0
   -3.9604    6.7318    6.9678 C   0  0  0  0  0  0  0  0  0  0  0  0
   -8.0267   11.1619    4.6352 N   0  0  0  0  0  0  0  0  0  0  0  0
   -3.4095    7.0882    8.1525 N   0  0  0  0  0  0  0  0  0  0  0  0
   -9.3513   11.6546    4.2625 C   0  0  0  0  0  0  0  0  0  0  0  0
   -2.1929    6.5338    8.7381 C   0  0  0  0  0  0  0  0  0  0  0  0
  -10.3989   10.7180    4.8856 C   0  0  0  0  0  0  0  0  0  0  0  0
   -2.1784    6.8999   10.2339 C   0  0  0  0  0  0  0  0  0  0  0  0
  -10.2633    9.2944    4.3279 C   0  0  0  0  0  0  0  0  0  0  0  0
   -3.4077    6.3626   10.9887 C   0  0  0  0  0  0  0  0  0  0  0  0
  -10.4947    9.3190    2.8387 N   0  0  0  0  0  0  0  0  0  0  0  0
   -3.5393    6.9931   12.3520 N   0  0  0  0  0  0  0  0  0  0  0  0
  -11.8663    9.8609    2.5413 C   0  0  0  0  0  0  0  0  0  0  0  0
   -4.5353    6.2036   13.1583 C   0  0  0  0  0  0  0  0  0  0  0  0
  -10.3584    7.9365    2.2503 C   0  0  0  0  0  0  0  0  0  0  0  0
   -3.9974    8.4228   12.2749 C   0  0  0  0  0  0  0  0  0  0  0  0
  1  6  2  0  0  0  0
  2  3  2  0  0  0  0
  2  1  1  0  0  0  0
  3  4  1  0  0  0  0
  4 10  1  0  0  0  0
  4  5  2  0  0  0  0
  6  5  1  0  0  0  0
  7  1  1  0  0  0  0
  7 11  1  0  0  0  0
  8  7  2  0  0  0  0
  9 10  2  0  0  0  0
 10 12  1  0  0  0  0
 12 14  1  0  0  0  0
 13 11  1  0  0  0  0
 13 15  1  0  0  0  0
 14 16  1  0  0  0  0
 16 18  1  0  0  0  0
 17 15  1  0  0  0  0
 17 19  1  0  0  0  0
 18 20  1  0  0  0  0
 19 23  1  0  0  0  0
 20 22  1  0  0  0  0
 20 24  1  0  0  0  0
 21 19  1  0  0  0  0
M  END
>  <CHROM.1>
162.62465012,176.00491925,-163.01225140,79.19887469,-62.47109380,58.79691180
-166.70630367,-61.25183935,-59.11367127,-166.40174974,-6.30288372,8.37913925
6.49703963,-2.38953403,-0.54221258,1.46472186

>  <Name>
lig.pdb

>  <RI>
0

>  <Rbt.Current_Directory>
/home/itssahil/PROJECTS/Mol_Feturizer/New_Systems/rnas/2l94

>  <Rbt.Executable>
rbdock ($Id: //depot/dev/client3/rdock/2013.1/src/exe/rbdock.cxx#4 $)

>  <Rbt.Library>
libRbt.so (2013.1, Build901 2013/11/27)

>  <Rbt.Parameter_File>
/export/apps/rDock/src/rDock_2013.1_src/data/scripts/dock_solv.prm

>  <Rbt.Receptor>
prm/blind_docking_100.prm

>  <SCORE>
8.02292

>  <SCORE.INTER>
-1.18357

>  <SCORE.INTER.CONST>
1

>  <SCORE.INTER.POLAR>
-1.52601

>  <SCORE.INTER.ROT>
10

>  <SCORE.INTER.SOLV>
20.9069

>  <SCORE.INTER.VDW>
-12.938

>  <SCORE.INTER.norm>
-0.0493153

>  <SCORE.INTRA>
0.942367

>  <SCORE.INTRA.DIHEDRAL>
-0.423474

>  <SCORE.INTRA.DIHEDRAL.0>
7.52971

>  <SCORE.INTRA.POLAR>
0

>  <SCORE.INTRA.POLAR.0>
0

>  <SCORE.INTRA.REPUL>
0

>  <SCORE.INTRA.REPUL.0>
0

>  <SCORE.INTRA.SOLV>
1.93671

>  <SCORE.INTRA.SOLV.lig_0>
-22.1084

>  <SCORE.INTRA.VDW>
0.185747

>  <SCORE.INTRA.VDW.0>
2.4256

>  <SCORE.INTRA.norm>
0.0392653

>  <SCORE.RESTR>
8.26412

>  <SCORE.RESTR.CAVITY>
8.26412

>  <SCORE.RESTR.norm>
0.344338

>  <SCORE.SYSTEM>
0

>  <SCORE.SYSTEM.CONST>
0

>  <SCORE.SYSTEM.DIHEDRAL>
0

>  <SCORE.SYSTEM.SOLV>
0

>  <SCORE.SYSTEM.norm>
0

>  <SCORE.heavy>
24

>  <SCORE.norm>
0.334288

>  <RMSD>
16.710

$$$$
lig.pdb
 OpenBabel11021811453D
libRbt.so/2013.1/901 2013/11/27
 24 24  0  0  0  0  0  0  0  0999 V2000
   -6.2185    8.5869    4.6874 C   0  0  0  0  0  0  0  0  0  0  0  0
   -5.5853    7.3145    4.4844 C   0  0  0  0  0  0  0  0  0  0  0  0
   -4.6684    6.8120    5.3771 C   0  0  0  0  0  0  0  0  0  0  0  0
   -4.3027    7.5261    6.5627 C   0  0  0  0  0  0  0  0  0  0  0  0
   -4.9104    8.8115    6.7470 C   0  0  0  0  0  0  0  0  0  0  0  0
   -5.8199    9.3178    5.8524 C   0  0  0  0  0  0  0  0  0  0  0  0
   -7.1539    9.0806    3.8238 C   0  0  0  0  0  0  0  0  0  0  0  0
   -6.8477    9.5055    2.5793 N   0  0  0  0  0  0  0  0  0  0  0  0
   -2.0991    6.8941    7.2359 N   0  0  0  0  0  0  0  0  0  0  0  0
   -3.4219    7.0211    7.4731 C   0  0  0  0  0  0  0  0  0  0  0  0
   -8.4663    9.1778    4.1514 N   0  0  0  0  0  0  0  0  0  0  0  0
   -3.8050    6.5995    8.7017 N   0  0  0  0  0  0  0  0  0  0  0  0
   -9.6064    8.9788    3.2587 C   0  0  0  0  0  0  0  0  0  0  0  0
   -2.9454    6.4685    9.8741 C   0  0  0  0  0  0  0  0  0  0  0  0
  -10.7891    9.7909    3.8106 C   0  0  0  0  0  0  0  0  0  0  0  0
   -3.5470    7.3295   11.0004 C   0  0  0  0  0  0  0  0  0  0  0  0
  -10.6111   11.2873    3.5189 C   0  0  0  0  0  0  0  0  0  0  0  0
   -3.3393    6.7121   12.3952 C   0  0  0  0  0  0  0  0  0  0  0  0
   -9.3923   11.7948    4.2460 N   0  0  0  0  0  0  0  0  0  0  0  0
   -4.2386    5.5216   12.6131 N   0  0  0  0  0  0  0  0  0  0  0  0
   -9.5679   11.6155    5.7294 C   0  0  0  0  0  0  0  0  0  0  0  0
   -4.7955    5.5827   14.0101 C   0  0  0  0  0  0  0  0  0  0  0  0
   -9.1498   13.2516    3.9378 C   0  0  0  0  0  0  0  0  0  0  0  0
   -3.5099    4.2189   12.4347 C   0  0  0  0  0  0  0  0  0  0  0  0
  1  6  2  0  0  0  0
  2  3  2  0  0  0  0
  2  1  1  0  0  0  0
  3  4  1  0  0  0  0
  4 10  1  0  0  0  0
  4  5  2  0  0  0  0
  6  5  1  0  0  0  0
  7  1  1  0  0  0  0
  7 11  1  0  0  0  0
  8  7  2  0  0  0  0
  9 10  2  0  0  0  0
 10 12  1  0  0  0  0
 12 14  1  0  0  0  0
 13 11  1  0  0  0  0
 13 15  1  0  0  0  0
 14 16  1  0  0  0  0
 16 18  1  0  0  0  0
 17 15  1  0  0  0  0
 17 19  1  0  0  0  0
 18 20  1  0  0  0  0
 19 23  1  0  0  0  0
 20 22  1  0  0  0  0
 20 24  1  0  0  0  0
 21 19  1  0  0  0  0
M  END
>  <CHROM.1>
70.51131248,-70.26961188,123.02584748,-153.85328897,75.81988481,145.63284999
-73.46082354,-63.79810382,-61.02170114,-138.19657169,-6.05560797,8.31068810
6.90498245,-2.23165068,-0.54580008,1.73901604

>  <Name>
lig.pdb

>  <RI>
0

>  <Rbt.Current_Directory>
/home/itssahil/PROJECTS/Mol_Feturizer/New_Systems/rnas/2l94

>  <Rbt.Executable>
rbdock ($Id: //depot/dev/client3/rdock/2013.1/src/exe/rbdock.cxx#4 $)

>  <Rbt.Library>
libRbt.so (2013.1, Build901 2013/11/27)

>  <Rbt.Parameter_File>
/export/apps/rDock/src/rDock_2013.1_src/data/scripts/dock_solv.prm

>  <Rbt.Receptor>
prm/blind_docking_100.prm

>  <SCORE>
14.6189

>  <SCORE.INTER>
-7.59911

>  <SCORE.INTER.CONST>
1

>  <SCORE.INTER.POLAR>
-1.46411

>  <SCORE.INTER.ROT>
10

>  <SCORE.INTER.SOLV>
16.7438

>  <SCORE.INTER.VDW>
-16.0337

>  <SCORE.INTER.norm>
-0.31663

>  <SCORE.INTRA>
13.8256

>  <SCORE.INTRA.DIHEDRAL>
27.8282

>  <SCORE.INTRA.DIHEDRAL.0>
7.52971

>  <SCORE.INTRA.POLAR>
0

>  <SCORE.INTRA.POLAR.0>
0

>  <SCORE.INTRA.REPUL>
0

>  <SCORE.INTRA.REPUL.0>
0

>  <SCORE.INTRA.SOLV>
1.45766

>  <SCORE.INTRA.SOLV.lig_0>
-22.1084

>  <SCORE.INTRA.VDW>
-0.817265

>  <SCORE.INTRA.VDW.0>
2.4256

>  <SCORE.INTRA.norm>
0.576069

>  <SCORE.RESTR>
8.39233

>  <SCORE.RESTR.CAVITY>
8.39233

>  <SCORE.RESTR.norm>
0.34968

>  <SCORE.SYSTEM>
0

>  <SCORE.SYSTEM.CONST>
0

>  <SCORE.SYSTEM.DIHEDRAL>
0

>  <SCORE.SYSTEM.SOLV>
0

>  <SCORE.SYSTEM.norm>
0

>  <SCORE.heavy>
24

>  <SCORE.norm>
0.609119

>  <RMSD>
16.711

$$$$
lig.pdb
 OpenBabel11021811453D
libRbt.so/2013.1/901 2013/11/27
 24 24  0  0  0  0  0  0  0  0999 V2000
   -8.4552    0.9777    4.2077 C   0  0  0  0  0  0  0  0  0  0  0  0
   -9.3118    1.4697    5.2494 C   0  0  0  0  0  0  0  0  0  0  0  0
  -10.6800    1.3563    5.1750 C   0  0  0  0  0  0  0  0  0  0  0  0
  -11.3240    0.7324    4.0591 C   0  0  0  0  0  0  0  0  0  0  0  0
  -10.4693    0.2718    3.0041 C   0  0  0  0  0  0  0  0  0  0  0  0
   -9.1038    0.3917    3.0736 C   0  0  0  0  0  0  0  0  0  0  0  0
   -7.0942    1.0565    4.2862 C   0  0  0  0  0  0  0  0  0  0  0  0
   -6.2757    0.1346    3.7356 N   0  0  0  0  0  0  0  0  0  0  0  0
  -13.3937   -0.1166    4.8981 N   0  0  0  0  0  0  0  0  0  0  0  0
  -12.6777    0.5819    3.9917 C   0  0  0  0  0  0  0  0  0  0  0  0
   -6.4604    2.0729    4.9221 N   0  0  0  0  0  0  0  0  0  0  0  0
  -13.4229    1.1247    2.9997 N   0  0  0  0  0  0  0  0  0  0  0  0
   -5.1960    2.6938    4.5321 C   0  0  0  0  0  0  0  0  0  0  0  0
  -14.8537    1.4081    3.0539 C   0  0  0  0  0  0  0  0  0  0  0  0
   -5.4673    4.1774    4.2350 C   0  0  0  0  0  0  0  0  0  0  0  0
  -15.0899    2.4377    4.1745 C   0  0  0  0  0  0  0  0  0  0  0  0
   -4.9427    5.0691    5.3689 C   0  0  0  0  0  0  0  0  0  0  0  0
  -14.0262    3.5503    4.1926 C   0  0  0  0  0  0  0  0  0  0  0  0
   -5.1662    6.5156    5.0087 N   0  0  0  0  0  0  0  0  0  0  0  0
  -13.1128    3.4234    5.3855 N   0  0  0  0  0  0  0  0  0  0  0  0
   -4.1273    7.3766    5.6741 C   0  0  0  0  0  0  0  0  0  0  0  0
  -13.8025    4.0064    6.5896 C   0  0  0  0  0  0  0  0  0  0  0  0
   -6.5427    6.9679    5.4289 C   0  0  0  0  0  0  0  0  0  0  0  0
  -11.8058    4.1368    5.1786 C   0  0  0  0  0  0  0  0  0  0  0  0
  1  6  2  0  0  0  0
  2  3  2  0  0  0  0
  2  1  1  0  0  0  0
  3  4  1  0  0  0  0
  4 10  1  0  0  0  0
  4  5  2  0  0  0  0
  6  5  1  0  0  0  0
  7  1  1  0  0  0  0
  7 11  1  0  0  0  0
  8  7  2  0  0  0  0
  9 10  2  0  0  0  0
 10 12  1  0  0  0  0
 12 14  1  0  0  0  0
 13 11  1  0  0  0  0
 13 15  1  0  0  0  0
 14 16  1  0  0  0  0
 16 18  1  0  0  0  0
 17 15  1  0  0  0  0
 17 19  1  0  0  0  0
 18 20  1  0  0  0  0
 19 23  1  0  0  0  0
 20 22  1  0  0  0  0
 20 24  1  0  0  0  0
 21 19  1  0  0  0  0
M  END
>  <CHROM.1>
-60.04143453,147.96222732,61.89462278,118.64723644,105.33625350,41.74464916
-109.39054034,177.22754737,-151.88187490,-80.46859284,-9.68430658,2.64750387
4.54242510,-0.36599493,-0.02930393,-2.84352627

>  <Name>
lig.pdb

>  <RI>
2.62193e+07

>  <Rbt.Current_Directory>
/home/itssahil/PROJECTS/Mol_Feturizer/New_Systems/rnas/2l94

>  <Rbt.Executable>
rbdock ($Id: //depot/dev/client3/rdock/2013.1/src/exe/rbdock.cxx#4 $)

>  <Rbt.Library>
libRbt.so (2013.1, Build901 2013/11/27)

>  <Rbt.Parameter_File>
/export/apps/rDock/src/rDock_2013.1_src/data/scripts/dock_solv.prm

>  <Rbt.Receptor>
prm/blind_docking_60.prm

>  <SCORE>
39.3831

>  <SCORE.INTER>
18.9853

>  <SCORE.INTER.CONST>
1

>  <SCORE.INTER.POLAR>
-2.45014

>  <SCORE.INTER.ROT>
10

>  <SCORE.INTER.SOLV>
21.7986

>  <SCORE.INTER.VDW>
3.29113

>  <SCORE.INTER.norm>
0.791052

>  <SCORE.INTRA>
9.30353

>  <SCORE.INTRA.DIHEDRAL>
24.0454

>  <SCORE.INTRA.DIHEDRAL.0>
7.52971

>  <SCORE.INTRA.POLAR>
0

>  <SCORE.INTRA.POLAR.0>
0

>  <SCORE.INTRA.REPUL>
0

>  <SCORE.INTRA.REPUL.0>
0

>  <SCORE.INTRA.SOLV>
1.55065

>  <SCORE.INTRA.SOLV.lig_0>
-22.1084

>  <SCORE.INTRA.VDW>
-3.4945

>  <SCORE.INTRA.VDW.0>
2.4256

>  <SCORE.INTRA.norm>
0.387647

>  <SCORE.RESTR>
11.0943

>  <SCORE.RESTR.CAVITY>
11.0943

>  <SCORE.RESTR.norm>
0.462262

>  <SCORE.SYSTEM>
0

>  <SCORE.SYSTEM.CONST>
0

>  <SCORE.SYSTEM.DIHEDRAL>
0

>  <SCORE.SYSTEM.SOLV>
0

>  <SCORE.SYSTEM.norm>
0

>  <SCORE.heavy>
24

>  <SCORE.norm>
1.64096

>  <RMSD>
16.737

$$$$
lig.pdb
 OpenBabel11021811453D
libRbt.so/2013.1/901 2013/11/27
 24 24  0  0  0  0  0  0  0  0999 V2000
  -11.3492    0.8235    4.0541 C   0  0  0  0  0  0  0  0  0  0  0  0
  -10.8045    1.5080    5.1925 C   0  0  0  0  0  0  0  0  0  0  0  0
   -9.4484    1.6203    5.3886 C   0  0  0  0  0  0  0  0  0  0  0  0
   -8.5058    1.0692    4.4629 C   0  0  0  0  0  0  0  0  0  0  0  0
   -9.0510    0.3569    3.3443 C   0  0  0  0  0  0  0  0  0  0  0  0
  -10.4046    0.2372    3.1518 C   0  0  0  0  0  0  0  0  0  0  0  0
  -12.6938    0.7338    3.8332 C   0  0  0  0  0  0  0  0  0  0  0  0
  -13.5906    0.5890    4.8321 N   0  0  0  0  0  0  0  0  0  0  0  0
   -6.2607    0.2988    4.1901 N   0  0  0  0  0  0  0  0  0  0  0  0
   -7.1591    1.2060    4.6283 C   0  0  0  0  0  0  0  0  0  0  0  0
  -13.2312    0.7878    2.5893 N   0  0  0  0  0  0  0  0  0  0  0  0
   -6.6061    2.2725    5.2534 N   0  0  0  0  0  0  0  0  0  0  0  0
  -14.5038    1.4006    2.2136 C   0  0  0  0  0  0  0  0  0  0  0  0
   -5.2315    2.7403    5.1049 C   0  0  0  0  0  0  0  0  0  0  0  0
  -14.6922    2.6653    3.0669 C   0  0  0  0  0  0  0  0  0  0  0  0
   -5.2774    4.1710    4.5366 C   0  0  0  0  0  0  0  0  0  0  0  0
  -13.3860    3.4666    3.1564 C   0  0  0  0  0  0  0  0  0  0  0  0
   -4.7310    5.2194    5.5225 C   0  0  0  0  0  0  0  0  0  0  0  0
  -13.4231    4.3439    4.3814 N   0  0  0  0  0  0  0  0  0  0  0  0
   -5.1016    6.6195    5.1032 N   0  0  0  0  0  0  0  0  0  0  0  0
  -13.4738    3.4928    5.6209 C   0  0  0  0  0  0  0  0  0  0  0  0
   -4.2164    7.5950    5.8314 C   0  0  0  0  0  0  0  0  0  0  0  0
  -14.6195    5.2624    4.3491 C   0  0  0  0  0  0  0  0  0  0  0  0
   -6.5379    6.9423    5.4077 C   0  0  0  0  0  0  0  0  0  0  0  0
  1  6  2  0  0  0  0
  2  3  2  0  0  0  0
  2  1  1  0  0  0  0
  3  4  1  0  0  0  0
  4 10  1  0  0  0  0
  4  5  2  0  0  0  0
  6  5  1  0  0  0  0
  7  1  1  0  0  0  0
  7 11  1  0  0  0  0
  8  7  2  0  0  0  0
  9 10  2  0  0  0  0
 10 12  1  0  0  0  0
 12 14  1  0  0  0  0
 13 11  1  0  0  0  0
 13 15  1  0  0  0  0
 14 16  1  0  0  0  0
 16 18  1  0  0  0  0
 17 15  1  0  0  0  0
 17 19  1  0  0  0  0
 18 20  1  0  0  0  0
 19 23  1  0  0  0  0
 20 22  1  0  0  0  0
 20 24  1  0  0  0  0
 21 19  1  0  0  0  0
M  END
>  <CHROM.1>
150.28446998,-36.45584584,118.60527124,36.56582120,43.20127147,114.84680668
-165.52269526,-157.60063889,64.01850613,-162.91195083,-9.75295004,2.80891737
4.39852664,-2.79878331,-0.12013085,0.17488285

>  <Name>
lig.pdb

>  <RI>
2.62193e+07

>  <Rbt.Current_Directory>
/home/itssahil/PROJECTS/Mol_Feturizer/New_Systems/rnas/2l94

>  <Rbt.Executable>
rbdock ($Id: //depot/dev/client3/rdock/2013.1/src/exe/rbdock.cxx#4 $)

>  <Rbt.Library>
libRbt.so (2013.1, Build901 2013/11/27)

>  <Rbt.Parameter_File>
/export/apps/rDock/src/rDock_2013.1_src/data/scripts/dock_solv.prm

>  <Rbt.Receptor>
prm/blind_docking_60.prm

>  <SCORE>
24.2161

>  <SCORE.INTER>
0.793176

>  <SCORE.INTER.CONST>
1

>  <SCORE.INTER.POLAR>
-1.3269

>  <SCORE.INTER.ROT>
10

>  <SCORE.INTER.SOLV>
19.5053

>  <SCORE.INTER.VDW>
-11.8167

>  <SCORE.INTER.norm>
0.033049

>  <SCORE.INTRA>
9.43502

>  <SCORE.INTRA.DIHEDRAL>
14.4014

>  <SCORE.INTRA.DIHEDRAL.0>
7.52971

>  <SCORE.INTRA.POLAR>
0

>  <SCORE.INTRA.POLAR.0>
0

>  <SCORE.INTRA.REPUL>
0

>  <SCORE.INTRA.REPUL.0>
0

>  <SCORE.INTRA.SOLV>
1.29708

>  <SCORE.INTRA.SOLV.lig_0>
-22.1084

>  <SCORE.INTRA.VDW>
1.58578

>  <SCORE.INTRA.VDW.0>
2.4256

>  <SCORE.INTRA.norm>
0.393126

>  <SCORE.RESTR>
13.9879

>  <SCORE.RESTR.CAVITY>
13.9879

>  <SCORE.RESTR.norm>
0.582831

>  <SCORE.SYSTEM>
0

>  <SCORE.SYSTEM.CONST>
0

>  <SCORE.SYSTEM.DIHEDRAL>
0

>  <SCORE.SYSTEM.SOLV>
0

>  <SCORE.SYSTEM.norm>
0

>  <SCORE.heavy>
24

>  <SCORE.norm>
1.00901

>  <RMSD>
16.799

$$$$
lig.pdb
 OpenBabel11021811453D
libRbt.so/2013.1/901 2013/11/27
 24 24  0  0  0  0  0  0  0  0999 V2000
   -6.5189    9.3789    6.9368 C   0  0  0  0  0  0  0  0  0  0  0  0
   -5.1145    9.1044    7.0521 C   0  0  0  0  0  0  0  0  0  0  0  0
   -4.5327    8.0313    6.4195 C   0  0  0  0  0  0  0  0  0  0  0  0
   -5.2944    7.1350    5.6035 C   0  0  0  0  0  0  0  0  0  0  0  0
   -6.7025    7.3908    5.5166 C   0  0  0  0  0  0  0  0  0  0  0  0
   -7.2857    8.4571    6.1542 C   0  0  0  0  0  0  0  0  0  0  0  0
   -7.1010   10.4599    7.5347 C   0  0  0  0  0  0  0  0  0  0  0  0
   -6.5251   11.1279    8.5570 N   0  0  0  0  0  0  0  0  0  0  0  0
   -3.3872    5.8993    4.8658 N   0  0  0  0  0  0  0  0  0  0  0  0
   -4.7215    6.0889    4.9423 C   0  0  0  0  0  0  0  0  0  0  0  0
   -8.3040   10.9476    7.1421 N   0  0  0  0  0  0  0  0  0  0  0  0
   -5.4506    5.1454    4.3002 N   0  0  0  0  0  0  0  0  0  0  0  0
   -8.7113   12.3511    7.1170 C   0  0  0  0  0  0  0  0  0  0  0  0
   -5.0054    3.7981    3.9582 C   0  0  0  0  0  0  0  0  0  0  0  0
   -8.8658   12.7744    5.6474 C   0  0  0  0  0  0  0  0  0  0  0  0
   -6.1393    3.1095    3.1759 C   0  0  0  0  0  0  0  0  0  0  0  0
  -10.3002   12.5362    5.1555 C   0  0  0  0  0  0  0  0  0  0  0  0
   -6.7274    1.8996    3.9243 C   0  0  0  0  0  0  0  0  0  0  0  0
  -10.4131   12.9757    3.7181 N   0  0  0  0  0  0  0  0  0  0  0  0
   -7.6506    1.0982    3.0416 N   0  0  0  0  0  0  0  0  0  0  0  0
  -10.3097   14.4741    3.6301 C   0  0  0  0  0  0  0  0  0  0  0  0
   -8.6411    0.3695    3.9095 C   0  0  0  0  0  0  0  0  0  0  0  0
  -11.7212   12.5228    3.1183 C   0  0  0  0  0  0  0  0  0  0  0  0
   -6.9070    0.0965    2.2028 C   0  0  0  0  0  0  0  0  0  0  0  0
  1  6  2  0  0  0  0
  2  3  2  0  0  0  0
  2  1  1  0  0  0  0
  3  4  1  0  0  0  0
  4 10  1  0  0  0  0
  4  5  2  0  0  0  0
  6  5  1  0  0  0  0
  7  1  1  0  0  0  0
  7 11  1  0  0  0  0
  8  7  2  0  0  0  0
  9 10  2  0  0  0  0
 10 12  1  0  0  0  0
 12 14  1  0  0  0  0
 13 11  1  0  0  0  0
 13 15  1  0  0  0  0
 14 16  1  0  0  0  0
 16 18  1  0  0  0  0
 17 15  1  0  0  0  0
 17 19  1  0  0  0  0
 18 20  1  0  0  0  0
 19 23  1  0  0  0  0
 20 22  1  0  0  0  0
 20 24  1  0  0  0  0
 21 19  1  0  0  0  0
M  END
>  <CHROM.1>
-8.17301030,-19.11658777,-177.22207097,111.57223674,90.41462163,-115.40113290
-169.62318237,179.44319929,-69.36102750,-154.36885715,-7.23500221,7.77708787
5.09614936,-1.88582011,0.58563947,-2.77854048

>  <Name>
lig.pdb

>  <RI>
2.62193e+07

>  <Rbt.Current_Directory>
/home/itssahil/PROJECTS/Mol_Feturizer/New_Systems/rnas/2l94

>  <Rbt.Executable>
rbdock ($Id: //depot/dev/client3/rdock/2013.1/src/exe/rbdock.cxx#4 $)

>  <Rbt.Library>
libRbt.so (2013.1, Build901 2013/11/27)

>  <Rbt.Parameter_File>
/export/apps/rDock/src/rDock_2013.1_src/data/scripts/dock_solv.prm

>  <Rbt.Receptor>
prm/blind_docking_60.prm

>  <SCORE>
8.2396

>  <SCORE.INTER>
-8.5817

>  <SCORE.INTER.CONST>
1

>  <SCORE.INTER.POLAR>
-1.54728

>  <SCORE.INTER.ROT>
10

>  <SCORE.INTER.SOLV>
17.142

>  <SCORE.INTER.VDW>
-16.5442

>  <SCORE.INTER.norm>
-0.357571

>  <SCORE.INTRA>
3.01612

>  <SCORE.INTRA.DIHEDRAL>
9.15784

>  <SCORE.INTRA.DIHEDRAL.0>
7.52971

>  <SCORE.INTRA.POLAR>
0

>  <SCORE.INTRA.POLAR.0>
0

>  <SCORE.INTRA.REPUL>
0

>  <SCORE.INTRA.REPUL.0>
0

>  <SCORE.INTRA.SOLV>
-0.141526

>  <SCORE.INTRA.SOLV.lig_0>
-22.1084

>  <SCORE.INTRA.VDW>
-1.49204

>  <SCORE.INTRA.VDW.0>
2.4256

>  <SCORE.INTRA.norm>
0.125672

>  <SCORE.RESTR>
13.8052

>  <SCORE.RESTR.CAVITY>
13.8052

>  <SCORE.RESTR.norm>
0.575216

>  <SCORE.SYSTEM>
0

>  <SCORE.SYSTEM.CONST>
0

>  <SCORE.SYSTEM.DIHEDRAL>
0

>  <SCORE.SYSTEM.SOLV>
0

>  <SCORE.SYSTEM.norm>
0

>  <SCORE.heavy>
24

>  <SCORE.norm>
0.343317

>  <RMSD>
16.826

$$$$
lig.pdb
 OpenBabel11021811453D
libRbt.so/2013.1/901 2013/11/27
 24 24  0  0  0  0  0  0  0  0999 V2000
   -4.9792    7.9829    6.2087 C   0  0  0  0  0  0  0  0  0  0  0  0
   -4.2884    6.7457    6.4392 C   0  0  0  0  0  0  0  0  0  0  0  0
   -3.9777    6.3160    7.7077 C   0  0  0  0  0  0  0  0  0  0  0  0
   -4.3351    7.0744    8.8680 C   0  0  0  0  0  0  0  0  0  0  0  0
   -4.9950    8.3257    8.6347 C   0  0  0  0  0  0  0  0  0  0  0  0
   -5.2985    8.7595    7.3684 C   0  0  0  0  0  0  0  0  0  0  0  0
   -5.3208    8.4034    4.9552 C   0  0  0  0  0  0  0  0  0  0  0  0
   -5.6383    7.5492    3.9589 N   0  0  0  0  0  0  0  0  0  0  0  0
   -3.3447    7.3534   11.0243 N   0  0  0  0  0  0  0  0  0  0  0  0
   -4.0643    6.6404   10.1322 C   0  0  0  0  0  0  0  0  0  0  0  0
   -5.3707    9.7158    4.6171 N   0  0  0  0  0  0  0  0  0  0  0  0
   -4.4976    5.4462   10.6012 N   0  0  0  0  0  0  0  0  0  0  0  0
   -6.3175   10.3458    3.6991 C   0  0  0  0  0  0  0  0  0  0  0  0
   -4.6570    5.0788   12.0049 C   0  0  0  0  0  0  0  0  0  0  0  0
   -7.6988   10.3547    4.3736 C   0  0  0  0  0  0  0  0  0  0  0  0
   -3.3153    4.5072   12.4996 C   0  0  0  0  0  0  0  0  0  0  0  0
   -8.5505    9.1704    3.8959 C   0  0  0  0  0  0  0  0  0  0  0  0
   -3.1835    4.5436   14.0329 C   0  0  0  0  0  0  0  0  0  0  0  0
   -9.4313    9.6178    2.7576 N   0  0  0  0  0  0  0  0  0  0  0  0
   -3.0479    5.9558   14.5434 N   0  0  0  0  0  0  0  0  0  0  0  0
  -10.4618   10.5928    3.2586 C   0  0  0  0  0  0  0  0  0  0  0  0
   -2.6083    5.9122   15.9823 C   0  0  0  0  0  0  0  0  0  0  0  0
  -10.1202    8.4393    2.1153 C   0  0  0  0  0  0  0  0  0  0  0  0
   -4.3391    6.7200   14.4505 C   0  0  0  0  0  0  0  0  0  0  0  0
  1  6  2  0  0  0  0
  2  3  2  0  0  0  0
  2  1  1  0  0  0  0
  3  4  1  0  0  0  0
  4 10  1  0  0  0  0
  4  5  2  0  0  0  0
  6  5  1  0  0  0  0
  7  1  1  0  0  0  0
  7 11  1  0  0  0  0
  8  7  2  0  0  0  0
  9 10  2  0  0  0  0
 10 12  1  0  0  0  0
 12 14  1  0  0  0  0
 13 11  1  0  0  0  0
 13 15  1  0  0  0  0
 14 16  1  0  0  0  0
 16 18  1  0  0  0  0
 17 15  1  0  0  0  0
 17 19  1  0  0  0  0
 18 20  1  0  0  0  0
 19 23  1  0  0  0  0
 20 22  1  0  0  0  0
 20 24  1  0  0  0  0
 21 19  1  0  0  0  0
M  END
>  <CHROM.1>
123.40767256,32.17098279,-88.40289576,70.43827499,-97.23926063,159.80827794
-69.38896139,-95.03094981,-67.72954041,-167.05230054,-5.43954758,7.57245957
8.10743145,-2.01473004,-0.35875990,1.76170136

>  <Name>
lig.pdb

>  <RI>
0

>  <Rbt.Current_Directory>
/home/itssahil/PROJECTS/Mol_Feturizer/New_Systems/rnas/2l94

>  <Rbt.Executable>
rbdock ($Id: //depot/dev/client3/rdock/2013.1/src/exe/rbdock.cxx#4 $)

>  <Rbt.Library>
libRbt.so (2013.1, Build901 2013/11/27)

>  <Rbt.Parameter_File>
/export/apps/rDock/src/rDock_2013.1_src/data/scripts/dock_solv.prm

>  <Rbt.Receptor>
prm/blind_docking_100.prm

>  <SCORE>
15.6659

>  <SCORE.INTER>
-2.51916

>  <SCORE.INTER.CONST>
1

>  <SCORE.INTER.POLAR>
-2.11366

>  <SCORE.INTER.ROT>
10

>  <SCORE.INTER.SOLV>
20.6917

>  <SCORE.INTER.VDW>
-11.7978

>  <SCORE.INTER.norm>
-0.104965

>  <SCORE.INTRA>
8.41017

>  <SCORE.INTRA.DIHEDRAL>
19.3229

>  <SCORE.INTRA.DIHEDRAL.0>
7.52971

>  <SCORE.INTRA.POLAR>
0

>  <SCORE.INTRA.POLAR.0>
0

>  <SCORE.INTRA.REPUL>
0

>  <SCORE.INTRA.REPUL.0>
0

>  <SCORE.INTRA.SOLV>
1.07423

>  <SCORE.INTRA.SOLV.lig_0>
-22.1084

>  <SCORE.INTRA.VDW>
-1.78839

>  <SCORE.INTRA.VDW.0>
2.4256

>  <SCORE.INTRA.norm>
0.350424

>  <SCORE.RESTR>
9.77488

>  <SCORE.RESTR.CAVITY>
9.77488

>  <SCORE.RESTR.norm>
0.407287

>  <SCORE.SYSTEM>
0

>  <SCORE.SYSTEM.CONST>
0

>  <SCORE.SYSTEM.DIHEDRAL>
0

>  <SCORE.SYSTEM.SOLV>
0

>  <SCORE.SYSTEM.norm>
0

>  <SCORE.heavy>
24

>  <SCORE.norm>
0.652745

>  <RMSD>
16.877

$$$$
lig.pdb
 OpenBabel11021811453D
libRbt.so/2013.1/901 2013/11/27
 24 24  0  0  0  0  0  0  0  0999 V2000
   -8.5064    1.0478    4.4796 C   0  0  0  0  0  0  0  0  0  0  0  0
   -9.0567    0.3213    3.3703 C   0  0  0  0  0  0  0  0  0  0  0  0
  -10.4134    0.2263    3.1693 C   0  0  0  0  0  0  0  0  0  0  0  0
  -11.3508    0.8552    4.0498 C   0  0  0  0  0  0  0  0  0  0  0  0
  -10.8008    1.5519    5.1758 C   0  0  0  0  0  0  0  0  0  0  0  0
   -9.4468    1.6406    5.3820 C   0  0  0  0  0  0  0  0  0  0  0  0
   -7.1602    1.1752    4.6706 C   0  0  0  0  0  0  0  0  0  0  0  0
   -6.2754    0.2284    4.2915 N   0  0  0  0  0  0  0  0  0  0  0  0
  -13.6051    0.7883    4.8385 N   0  0  0  0  0  0  0  0  0  0  0  0
  -12.6969    0.7980    3.8398 C   0  0  0  0  0  0  0  0  0  0  0  0
   -6.6090    2.2684    5.2539 N   0  0  0  0  0  0  0  0  0  0  0  0
  -13.2395    0.7441    2.6001 N   0  0  0  0  0  0  0  0  0  0  0  0
   -5.3276    2.8855    4.9170 C   0  0  0  0  0  0  0  0  0  0  0  0
  -14.6036    1.1184    2.2401 C   0  0  0  0  0  0  0  0  0  0  0  0
   -5.6000    4.3295    4.4659 C   0  0  0  0  0  0  0  0  0  0  0  0
  -14.6764    2.6561    2.1964 C   0  0  0  0  0  0  0  0  0  0  0  0
   -5.2572    5.3269    5.5812 C   0  0  0  0  0  0  0  0  0  0  0  0
  -13.6452    3.3260    3.1226 C   0  0  0  0  0  0  0  0  0  0  0  0
   -5.2598    6.7247    5.0172 N   0  0  0  0  0  0  0  0  0  0  0  0
  -14.2497    3.6840    4.4567 N   0  0  0  0  0  0  0  0  0  0  0  0
   -4.1582    7.5338    5.6458 C   0  0  0  0  0  0  0  0  0  0  0  0
  -14.7596    5.0988    4.3950 C   0  0  0  0  0  0  0  0  0  0  0  0
   -6.5863    7.4006    5.2612 C   0  0  0  0  0  0  0  0  0  0  0  0
  -13.2561    3.5717    5.5792 C   0  0  0  0  0  0  0  0  0  0  0  0
  1  6  2  0  0  0  0
  2  3  2  0  0  0  0
  2  1  1  0  0  0  0
  3  4  1  0  0  0  0
  4 10  1  0  0  0  0
  4  5  2  0  0  0  0
  6  5  1  0  0  0  0
  7  1  1  0  0  0  0
  7 11  1  0  0  0  0
  8  7  2  0  0  0  0
  9 10  2  0  0  0  0
 10 12  1  0  0  0  0
 12 14  1  0  0  0  0
 13 11  1  0  0  0  0
 13 15  1  0  0  0  0
 14 16  1  0  0  0  0
 16 18  1  0  0  0  0
 17 15  1  0  0  0  0
 17 19  1  0  0  0  0
 18 20  1  0  0  0  0
 19 23  1  0  0  0  0
 20 22  1  0  0  0  0
 20 24  1  0  0  0  0
 21 19  1  0  0  0  0
M  END
>  <CHROM.1>
147.98598369,-31.08875835,76.75136318,119.39819732,102.49769264,-27.13901346
-95.97407895,168.30290569,-142.49887870,-92.53763696,-9.85382634,2.79965614
4.34804700,-0.35623606,0.12616506,-2.98086151

>  <Name>
lig.pdb

>  <RI>
2.62193e+07

>  <Rbt.Current_Directory>
/home/itssahil/PROJECTS/Mol_Feturizer/New_Systems/rnas/2l94

>  <Rbt.Executable>
rbdock ($Id: //depot/dev/client3/rdock/2013.1/src/exe/rbdock.cxx#4 $)

>  <Rbt.Library>
libRbt.so (2013.1, Build901 2013/11/27)

>  <Rbt.Parameter_File>
/export/apps/rDock/src/rDock_2013.1_src/data/scripts/dock_solv.prm

>  <Rbt.Receptor>
prm/blind_docking_60.prm

>  <SCORE>
22.1785

>  <SCORE.INTER>
-1.15727

>  <SCORE.INTER.CONST>
1

>  <SCORE.INTER.POLAR>
-1.68751

>  <SCORE.INTER.ROT>
10

>  <SCORE.INTER.SOLV>
20.0942

>  <SCORE.INTER.VDW>
-12.1112

>  <SCORE.INTER.norm>
-0.0482194

>  <SCORE.INTRA>
9.55238

>  <SCORE.INTRA.DIHEDRAL>
20.5073

>  <SCORE.INTRA.DIHEDRAL.0>
7.52971

>  <SCORE.INTRA.POLAR>
0

>  <SCORE.INTRA.POLAR.0>
0

>  <SCORE.INTRA.REPUL>
0

>  <SCORE.INTRA.REPUL.0>
0

>  <SCORE.INTRA.SOLV>
1.84618

>  <SCORE.INTRA.SOLV.lig_0>
-22.1084

>  <SCORE.INTRA.VDW>
-1.62434

>  <SCORE.INTRA.VDW.0>
2.4256

>  <SCORE.INTRA.norm>
0.398016

>  <SCORE.RESTR>
13.7833

>  <SCORE.RESTR.CAVITY>
13.7833

>  <SCORE.RESTR.norm>
0.574306

>  <SCORE.SYSTEM>
0

>  <SCORE.SYSTEM.CONST>
0

>  <SCORE.SYSTEM.DIHEDRAL>
0

>  <SCORE.SYSTEM.SOLV>
0

>  <SCORE.SYSTEM.norm>
0

>  <SCORE.heavy>
24

>  <SCORE.norm>
0.924102

>  <RMSD>
16.885

$$$$
lig.pdb
 OpenBabel11021811453D
libRbt.so/2013.1/901 2013/11/27
 24 24  0  0  0  0  0  0  0  0999 V2000
   -5.8692    4.9315    6.0590 C   0  0  0  0  0  0  0  0  0  0  0  0
   -6.9747    4.8572    6.9719 C   0  0  0  0  0  0  0  0  0  0  0  0
   -7.7698    3.7387    7.0559 C   0  0  0  0  0  0  0  0  0  0  0  0
   -7.5322    2.5836    6.2444 C   0  0  0  0  0  0  0  0  0  0  0  0
   -6.4487    2.6719    5.3095 C   0  0  0  0  0  0  0  0  0  0  0  0
   -5.6593    3.7910    5.2191 C   0  0  0  0  0  0  0  0  0  0  0  0
   -5.0541    6.0249    5.9901 C   0  0  0  0  0  0  0  0  0  0  0  0
   -4.0348    6.1224    5.1099 N   0  0  0  0  0  0  0  0  0  0  0  0
   -8.5429    0.8309    7.5151 N   0  0  0  0  0  0  0  0  0  0  0  0
   -8.2917    1.4555    6.3451 C   0  0  0  0  0  0  0  0  0  0  0  0
   -5.2105    7.1005    6.8011 N   0  0  0  0  0  0  0  0  0  0  0  0
   -8.8611    0.8618    5.2693 N   0  0  0  0  0  0  0  0  0  0  0  0
   -4.9850    8.5007    6.4479 C   0  0  0  0  0  0  0  0  0  0  0  0
  -10.0092   -0.0392    5.2902 C   0  0  0  0  0  0  0  0  0  0  0  0
   -5.6928    8.7731    5.1108 C   0  0  0  0  0  0  0  0  0  0  0  0
  -10.9872    0.4152    4.1908 C   0  0  0  0  0  0  0  0  0  0  0  0
   -7.0473    9.4589    5.3365 C   0  0  0  0  0  0  0  0  0  0  0  0
  -11.7901    1.6664    4.5904 C   0  0  0  0  0  0  0  0  0  0  0  0
   -7.3068   10.4304    4.2137 N   0  0  0  0  0  0  0  0  0  0  0  0
  -13.0406    1.8101    3.7603 N   0  0  0  0  0  0  0  0  0  0  0  0
   -8.4517   11.3374    4.5741 C   0  0  0  0  0  0  0  0  0  0  0  0
  -13.2289    3.2625    3.4130 C   0  0  0  0  0  0  0  0  0  0  0  0
   -7.6242    9.6995    2.9326 C   0  0  0  0  0  0  0  0  0  0  0  0
  -14.2629    1.3190    4.4847 C   0  0  0  0  0  0  0  0  0  0  0  0
  1  6  2  0  0  0  0
  2  3  2  0  0  0  0
  2  1  1  0  0  0  0
  3  4  1  0  0  0  0
  4 10  1  0  0  0  0
  4  5  2  0  0  0  0
  6  5  1  0  0  0  0
  7  1  1  0  0  0  0
  7 11  1  0  0  0  0
  8  7  2  0  0  0  0
  9 10  2  0  0  0  0
 10 12  1  0  0  0  0
 12 14  1  0  0  0  0
 13 11  1  0  0  0  0
 13 15  1  0  0  0  0
 14 16  1  0  0  0  0
 16 18  1  0  0  0  0
 17 15  1  0  0  0  0
 17 19  1  0  0  0  0
 18 20  1  0  0  0  0
 19 23  1  0  0  0  0
 20 22  1  0  0  0  0
 20 24  1  0  0  0  0
 21 19  1  0  0  0  0
M  END
>  <CHROM.1>
-51.22830589,-178.06415023,132.94036179,47.91422834,99.45366474,-76.41483954
-159.95752208,145.14271852,-166.70655023,-139.66691728,-8.17497501,4.69310879
5.30149364,-0.93504958,0.36958180,2.91619200

>  <Name>
lig.pdb

>  <RI>
2.62193e+07

>  <Rbt.Current_Directory>
/home/itssahil/PROJECTS/Mol_Feturizer/New_Systems/rnas/2l94

>  <Rbt.Executable>
rbdock ($Id: //depot/dev/client3/rdock/2013.1/src/exe/rbdock.cxx#4 $)

>  <Rbt.Library>
libRbt.so (2013.1, Build901 2013/11/27)

>  <Rbt.Parameter_File>
/export/apps/rDock/src/rDock_2013.1_src/data/scripts/dock_solv.prm

>  <Rbt.Receptor>
prm/blind_docking_60.prm

>  <SCORE>
24.1133

>  <SCORE.INTER>
1.01451

>  <SCORE.INTER.CONST>
1

>  <SCORE.INTER.POLAR>
-0.927624

>  <SCORE.INTER.ROT>
10

>  <SCORE.INTER.SOLV>
19.9958

>  <SCORE.INTER.VDW>
-13.1635

>  <SCORE.INTER.norm>
0.0422714

>  <SCORE.INTRA>
6.24284

>  <SCORE.INTRA.DIHEDRAL>
17.9133

>  <SCORE.INTRA.DIHEDRAL.0>
7.52971

>  <SCORE.INTRA.POLAR>
0

>  <SCORE.INTRA.POLAR.0>
0

>  <SCORE.INTRA.REPUL>
0

>  <SCORE.INTRA.REPUL.0>
0

>  <SCORE.INTRA.SOLV>
0.242487

>  <SCORE.INTRA.SOLV.lig_0>
-22.1084

>  <SCORE.INTRA.VDW>
-2.83503

>  <SCORE.INTRA.VDW.0>
2.4256

>  <SCORE.INTRA.norm>
0.260118

>  <SCORE.RESTR>
16.856

>  <SCORE.RESTR.CAVITY>
16.856

>  <SCORE.RESTR.norm>
0.702333

>  <SCORE.SYSTEM>
0

>  <SCORE.SYSTEM.CONST>
0

>  <SCORE.SYSTEM.DIHEDRAL>
0

>  <SCORE.SYSTEM.SOLV>
0

>  <SCORE.SYSTEM.norm>
0

>  <SCORE.heavy>
24

>  <SCORE.norm>
1.00472

>  <RMSD>
16.978

$$$$
lig.pdb
 OpenBabel11021811453D
libRbt.so/2013.1/901 2013/11/27
 24 24  0  0  0  0  0  0  0  0999 V2000
   -9.2521    0.8329    4.5351 C   0  0  0  0  0  0  0  0  0  0  0  0
  -10.2074    0.2210    3.6554 C   0  0  0  0  0  0  0  0  0  0  0  0
  -11.5296    0.5976    3.6487 C   0  0  0  0  0  0  0  0  0  0  0  0
  -12.0235    1.6274    4.5118 C   0  0  0  0  0  0  0  0  0  0  0  0
  -11.0754    2.2140    5.4133 C   0  0  0  0  0  0  0  0  0  0  0  0
   -9.7568    1.8333    5.4266 C   0  0  0  0  0  0  0  0  0  0  0  0
   -7.9306    0.4889    4.5275 C   0  0  0  0  0  0  0  0  0  0  0  0
   -7.4188   -0.4277    3.6783 N   0  0  0  0  0  0  0  0  0  0  0  0
  -14.1617    1.9092    5.5398 N   0  0  0  0  0  0  0  0  0  0  0  0
  -13.3249    2.0340    4.4880 C   0  0  0  0  0  0  0  0  0  0  0  0
   -7.0291    1.0472    5.3730 N   0  0  0  0  0  0  0  0  0  0  0  0
  -13.8916    2.6006    3.3963 N   0  0  0  0  0  0  0  0  0  0  0  0
   -5.6328    1.3620    5.0772 C   0  0  0  0  0  0  0  0  0  0  0  0
  -15.0788    3.4497    3.3850 C   0  0  0  0  0  0  0  0  0  0  0  0
   -5.4855    1.4804    3.5517 C   0  0  0  0  0  0  0  0  0  0  0  0
  -14.7708    4.7048    4.2226 C   0  0  0  0  0  0  0  0  0  0  0  0
   -6.6112    2.3376    2.9565 C   0  0  0  0  0  0  0  0  0  0  0  0
  -13.2935    5.1289    4.1356 C   0  0  0  0  0  0  0  0  0  0  0  0
   -6.9135    1.8615    1.5587 N   0  0  0  0  0  0  0  0  0  0  0  0
  -12.7638    5.5677    5.4774 N   0  0  0  0  0  0  0  0  0  0  0  0
   -6.9363    3.0307    0.6121 C   0  0  0  0  0  0  0  0  0  0  0  0
  -11.3055    5.9120    5.3350 C   0  0  0  0  0  0  0  0  0  0  0  0
   -8.2401    1.1449    1.5097 C   0  0  0  0  0  0  0  0  0  0  0  0
  -12.9131    4.4992    6.5242 C   0  0  0  0  0  0  0  0  0  0  0  0
  1  6  2  0  0  0  0
  2  3  2  0  0  0  0
  2  1  1  0  0  0  0
  3  4  1  0  0  0  0
  4 10  1  0  0  0  0
  4  5  2  0  0  0  0
  6  5  1  0  0  0  0
  7  1  1  0  0  0  0
  7 11  1  0  0  0  0
  8  7  2  0  0  0  0
  9 10  2  0  0  0  0
 10 12  1  0  0  0  0
 12 14  1  0  0  0  0
 13 11  1  0  0  0  0
 13 15  1  0  0  0  0
 14 16  1  0  0  0  0
 16 18  1  0  0  0  0
 17 15  1  0  0  0  0
 17 19  1  0  0  0  0
 18 20  1  0  0  0  0
 19 23  1  0  0  0  0
 20 22  1  0  0  0  0
 20 24  1  0  0  0  0
 21 19  1  0  0  0  0
M  END
>  <CHROM.1>
117.27076916,1.40596044,61.86272837,21.83572760,46.41641806,32.75855647,-139.21760973
-149.39605013,-130.51403599,177.63514871,-10.30072903,2.35050171,4.08827609
0.34699207,-0.22865064,3.09872760

>  <Name>
lig.pdb

>  <RI>
2.62193e+07

>  <Rbt.Current_Directory>
/home/itssahil/PROJECTS/Mol_Feturizer/New_Systems/rnas/2l94

>  <Rbt.Executable>
rbdock ($Id: //depot/dev/client3/rdock/2013.1/src/exe/rbdock.cxx#4 $)

>  <Rbt.Library>
libRbt.so (2013.1, Build901 2013/11/27)

>  <Rbt.Parameter_File>
/export/apps/rDock/src/rDock_2013.1_src/data/scripts/dock_solv.prm

>  <Rbt.Receptor>
prm/blind_docking_60.prm

>  <SCORE>
45.9414

>  <SCORE.INTER>
17.4791

>  <SCORE.INTER.CONST>
1

>  <SCORE.INTER.POLAR>
-1.89117

>  <SCORE.INTER.ROT>
10

>  <SCORE.INTER.SOLV>
20.5265

>  <SCORE.INTER.VDW>
0.847783

>  <SCORE.INTER.norm>
0.728295

>  <SCORE.INTRA>
16.6919

>  <SCORE.INTRA.DIHEDRAL>
20.765

>  <SCORE.INTRA.DIHEDRAL.0>
7.52971

>  <SCORE.INTRA.POLAR>
0

>  <SCORE.INTRA.POLAR.0>
0

>  <SCORE.INTRA.REPUL>
0

>  <SCORE.INTRA.REPUL.0>
0

>  <SCORE.INTRA.SOLV>
3.22836

>  <SCORE.INTRA.SOLV.lig_0>
-22.1084

>  <SCORE.INTRA.VDW>
4.69527

>  <SCORE.INTRA.VDW.0>
2.4256

>  <SCORE.INTRA.norm>
0.695497

>  <SCORE.RESTR>
11.7704

>  <SCORE.RESTR.CAVITY>
11.7704

>  <SCORE.RESTR.norm>
0.490435

>  <SCORE.SYSTEM>
0

>  <SCORE.SYSTEM.CONST>
0

>  <SCORE.SYSTEM.DIHEDRAL>
0

>  <SCORE.SYSTEM.SOLV>
0

>  <SCORE.SYSTEM.norm>
0

>  <SCORE.heavy>
24

>  <SCORE.norm>
1.91423

>  <RMSD>
17.043

$$$$
lig.pdb
 OpenBabel11021811453D
libRbt.so/2013.1/901 2013/11/27
 24 24  0  0  0  0  0  0  0  0999 V2000
   -7.1568    9.2720    4.8875 C   0  0  0  0  0  0  0  0  0  0  0  0
   -5.7491    9.0085    4.7877 C   0  0  0  0  0  0  0  0  0  0  0  0
   -5.2335    7.7486    4.9802 C   0  0  0  0  0  0  0  0  0  0  0  0
   -6.0736    6.6292    5.2809 C   0  0  0  0  0  0  0  0  0  0  0  0
   -7.4753    6.9003    5.4135 C   0  0  0  0  0  0  0  0  0  0  0  0
   -7.9903    8.1592    5.2295 C   0  0  0  0  0  0  0  0  0  0  0  0
   -7.6826   10.5128    4.6668 C   0  0  0  0  0  0  0  0  0  0  0  0
   -7.2630   11.3173    3.6669 N   0  0  0  0  0  0  0  0  0  0  0  0
   -4.6762    5.0381    6.3871 N   0  0  0  0  0  0  0  0  0  0  0  0
   -5.5772    5.3689    5.4379 C   0  0  0  0  0  0  0  0  0  0  0  0
   -8.6723   11.0303    5.4361 N   0  0  0  0  0  0  0  0  0  0  0  0
   -5.9490    4.3352    4.6460 N   0  0  0  0  0  0  0  0  0  0  0  0
   -9.7681   11.8880    4.9891 C   0  0  0  0  0  0  0  0  0  0  0  0
   -5.8453    2.9170    4.9757 C   0  0  0  0  0  0  0  0  0  0  0  0
   -9.3432   13.3501    5.2005 C   0  0  0  0  0  0  0  0  0  0  0  0
   -6.6266    2.1253    3.9106 C   0  0  0  0  0  0  0  0  0  0  0  0
  -10.4218   14.3147    4.6882 C   0  0  0  0  0  0  0  0  0  0  0  0
   -7.3748    0.9159    4.4998 C   0  0  0  0  0  0  0  0  0  0  0  0
  -10.5723   14.1471    3.1979 N   0  0  0  0  0  0  0  0  0  0  0  0
   -8.5626    1.3470    5.3225 N   0  0  0  0  0  0  0  0  0  0  0  0
  -10.8619   15.4778    2.5585 C   0  0  0  0  0  0  0  0  0  0  0  0
   -8.2595    1.1058    6.7769 C   0  0  0  0  0  0  0  0  0  0  0  0
  -11.6829   13.1784    2.8751 C   0  0  0  0  0  0  0  0  0  0  0  0
   -9.8118    0.5967    4.9532 C   0  0  0  0  0  0  0  0  0  0  0  0
  1  6  2  0  0  0  0
  2  3  2  0  0  0  0
  2  1  1  0  0  0  0
  3  4  1  0  0  0  0
  4 10  1  0  0  0  0
  4  5  2  0  0  0  0
  6  5  1  0  0  0  0
  7  1  1  0  0  0  0
  7 11  1  0  0  0  0
  8  7  2  0  0  0  0
  9 10  2  0  0  0  0
 10 12  1  0  0  0  0
 12 14  1  0  0  0  0
 13 11  1  0  0  0  0
 13 15  1  0  0  0  0
 14 16  1  0  0  0  0
 16 18  1  0  0  0  0
 17 15  1  0  0  0  0
 17 19  1  0  0  0  0
 18 20  1  0  0  0  0
 19 23  1  0  0  0  0
 20 22  1  0  0  0  0
 20 24  1  0  0  0  0
 21 19  1  0  0  0  0
M  END
>  <CHROM.1>
60.67709453,41.17077246,169.26461959,-94.10666827,177.24725795,-142.51675488
71.92402471,-63.92316613,-144.26362318,-108.50666777,-7.91192660,7.77712559
4.76529758,-1.81327648,0.19744926,3.07160492

>  <Name>
lig.pdb

>  <RI>
2.62193e+07

>  <Rbt.Current_Directory>
/home/itssahil/PROJECTS/Mol_Feturizer/New_Systems/rnas/2l94

>  <Rbt.Executable>
rbdock ($Id: //depot/dev/client3/rdock/2013.1/src/exe/rbdock.cxx#4 $)

>  <Rbt.Library>
libRbt.so (2013.1, Build901 2013/11/27)

>  <Rbt.Parameter_File>
/export/apps/rDock/src/rDock_2013.1_src/data/scripts/dock_solv.prm

>  <Rbt.Receptor>
prm/blind_docking_60.prm

>  <SCORE>
11.9488

>  <SCORE.INTER>
-11.0183

>  <SCORE.INTER.CONST>
1

>  <SCORE.INTER.POLAR>
-2.00582

>  <SCORE.INTER.ROT>
10

>  <SCORE.INTER.SOLV>
19.3201

>  <SCORE.INTER.VDW>
-17.3661

>  <SCORE.INTER.norm>
-0.459094

>  <SCORE.INTRA>
8.69363

>  <SCORE.INTRA.DIHEDRAL>
22.512

>  <SCORE.INTRA.DIHEDRAL.0>
7.52971

>  <SCORE.INTRA.POLAR>
0

>  <SCORE.INTRA.POLAR.0>
0

>  <SCORE.INTRA.REPUL>
0.0547765

>  <SCORE.INTRA.REPUL.0>
0

>  <SCORE.INTRA.SOLV>
0.108316

>  <SCORE.INTRA.SOLV.lig_0>
-22.1084

>  <SCORE.INTRA.VDW>
-2.89041

>  <SCORE.INTRA.VDW.0>
2.4256

>  <SCORE.INTRA.norm>
0.362235

>  <SCORE.RESTR>
14.2735

>  <SCORE.RESTR.CAVITY>
14.2735

>  <SCORE.RESTR.norm>
0.594727

>  <SCORE.SYSTEM>
0

>  <SCORE.SYSTEM.CONST>
0

>  <SCORE.SYSTEM.DIHEDRAL>
0

>  <SCORE.SYSTEM.SOLV>
0

>  <SCORE.SYSTEM.norm>
0

>  <SCORE.heavy>
24

>  <SCORE.norm>
0.497868

>  <RMSD>
17.214

$$$$
lig.pdb
 OpenBabel11021811453D
libRbt.so/2013.1/901 2013/11/27
 24 24  0  0  0  0  0  0  0  0999 V2000
   -9.6234    0.6299    4.1556 C   0  0  0  0  0  0  0  0  0  0  0  0
  -10.1264    1.3137    5.3134 C   0  0  0  0  0  0  0  0  0  0  0  0
  -11.4630    1.5999    5.4607 C   0  0  0  0  0  0  0  0  0  0  0  0
  -12.4271    1.2225    4.4721 C   0  0  0  0  0  0  0  0  0  0  0  0
  -11.9189    0.5698    3.3010 C   0  0  0  0  0  0  0  0  0  0  0  0
  -10.5836    0.2908    3.1491 C   0  0  0  0  0  0  0  0  0  0  0  0
   -8.3027    0.3126    4.0140 C   0  0  0  0  0  0  0  0  0  0  0  0
   -7.8530   -0.9606    4.0125 N   0  0  0  0  0  0  0  0  0  0  0  0
  -14.3348    1.7322    5.8171 N   0  0  0  0  0  0  0  0  0  0  0  0
  -13.7596    1.4689    4.6246 C   0  0  0  0  0  0  0  0  0  0  0  0
   -7.3409    1.2560    3.8596 N   0  0  0  0  0  0  0  0  0  0  0  0
  -14.6249    1.4682    3.5829 N   0  0  0  0  0  0  0  0  0  0  0  0
   -6.1377    1.1501    3.0367 C   0  0  0  0  0  0  0  0  0  0  0  0
  -15.9262    2.1283    3.5438 C   0  0  0  0  0  0  0  0  0  0  0  0
   -6.5759    0.8967    1.5852 C   0  0  0  0  0  0  0  0  0  0  0  0
  -15.6979    3.6014    3.1571 C   0  0  0  0  0  0  0  0  0  0  0  0
   -7.5497    1.9831    1.1083 C   0  0  0  0  0  0  0  0  0  0  0  0
  -14.3828    3.8161    2.3861 C   0  0  0  0  0  0  0  0  0  0  0  0
   -6.7904    3.0234    0.3253 N   0  0  0  0  0  0  0  0  0  0  0  0
  -13.4936    4.8187    3.0770 N   0  0  0  0  0  0  0  0  0  0  0  0
   -6.2728    4.0880    1.2539 C   0  0  0  0  0  0  0  0  0  0  0  0
  -12.6951    5.5577    2.0370 C   0  0  0  0  0  0  0  0  0  0  0  0
   -7.6699    3.6533   -0.7261 C   0  0  0  0  0  0  0  0  0  0  0  0
  -12.5475    4.1662    4.0461 C   0  0  0  0  0  0  0  0  0  0  0  0
  1  6  2  0  0  0  0
  2  3  2  0  0  0  0
  2  1  1  0  0  0  0
  3  4  1  0  0  0  0
  4 10  1  0  0  0  0
  4  5  2  0  0  0  0
  6  5  1  0  0  0  0
  7  1  1  0  0  0  0
  7 11  1  0  0  0  0
  8  7  2  0  0  0  0
  9 10  2  0  0  0  0
 10 12  1  0  0  0  0
 12 14  1  0  0  0  0
 13 11  1  0  0  0  0
 13 15  1  0  0  0  0
 14 16  1  0  0  0  0
 16 18  1  0  0  0  0
 17 15  1  0  0  0  0
 17 19  1  0  0  0  0
 18 20  1  0  0  0  0
 19 23  1  0  0  0  0
 20 22  1  0  0  0  0
 20 24  1  0  0  0  0
 21 19  1  0  0  0  0
M  END
>  <CHROM.1>
-18.94166733,113.01422419,83.77581931,58.89297390,55.02835448,23.76108087
-122.95717838,97.49336696,-88.58456177,-148.32096504,-10.73379491,2.12947672
3.14933342,-0.06191662,-0.27719345,2.43459251

>  <Name>
lig.pdb

>  <RI>
2.62193e+07

>  <Rbt.Current_Directory>
/home/itssahil/PROJECTS/Mol_Feturizer/New_Systems/rnas/2l94

>  <Rbt.Executable>
rbdock ($Id: //depot/dev/client3/rdock/2013.1/src/exe/rbdock.cxx#4 $)

>  <Rbt.Library>
libRbt.so (2013.1, Build901 2013/11/27)

>  <Rbt.Parameter_File>
/export/apps/rDock/src/rDock_2013.1_src/data/scripts/dock_solv.prm

>  <Rbt.Receptor>
prm/blind_docking_60.prm

>  <SCORE>
159.339

>  <SCORE.INTER>
137.035

>  <SCORE.INTER.CONST>
1

>  <SCORE.INTER.POLAR>
-1.92739

>  <SCORE.INTER.ROT>
10

>  <SCORE.INTER.SOLV>
27.9361

>  <SCORE.INTER.VDW>
78.2024

>  <SCORE.INTER.norm>
5.70978

>  <SCORE.INTRA>
11.9102

>  <SCORE.INTRA.DIHEDRAL>
26.1526

>  <SCORE.INTRA.DIHEDRAL.0>
7.52971

>  <SCORE.INTRA.POLAR>
0

>  <SCORE.INTRA.POLAR.0>
0

>  <SCORE.INTRA.REPUL>
0

>  <SCORE.INTRA.REPUL.0>
0

>  <SCORE.INTRA.SOLV>
1.7795

>  <SCORE.INTRA.SOLV.lig_0>
-22.1084

>  <SCORE.INTRA.VDW>
-2.05582

>  <SCORE.INTRA.VDW.0>
2.4256

>  <SCORE.INTRA.norm>
0.49626

>  <SCORE.RESTR>
10.3943

>  <SCORE.RESTR.CAVITY>
10.3943

>  <SCORE.RESTR.norm>
0.433097

>  <SCORE.SYSTEM>
0

>  <SCORE.SYSTEM.CONST>
0

>  <SCORE.SYSTEM.DIHEDRAL>
0

>  <SCORE.SYSTEM.SOLV>
0

>  <SCORE.SYSTEM.norm>
0

>  <SCORE.heavy>
24

>  <SCORE.norm>
6.63914

>  <RMSD>
17.293

$$$$
lig.pdb
 OpenBabel11021811453D
libRbt.so/2013.1/901 2013/11/27
 24 24  0  0  0  0  0  0  0  0999 V2000
   -7.8636    8.3060    4.6447 C   0  0  0  0  0  0  0  0  0  0  0  0
   -7.5586    7.3424    5.6642 C   0  0  0  0  0  0  0  0  0  0  0  0
   -8.4514    6.3599    6.0215 C   0  0  0  0  0  0  0  0  0  0  0  0
   -9.7299    6.2384    5.3891 C   0  0  0  0  0  0  0  0  0  0  0  0
  -10.0465    7.2217    4.3949 C   0  0  0  0  0  0  0  0  0  0  0  0
   -9.1592    8.2080    4.0431 C   0  0  0  0  0  0  0  0  0  0  0  0
   -6.9718    9.2660    4.2600 C   0  0  0  0  0  0  0  0  0  0  0  0
   -7.3539   10.4814    3.8129 N   0  0  0  0  0  0  0  0  0  0  0  0
  -11.5905    4.8273    4.8839 N   0  0  0  0  0  0  0  0  0  0  0  0
  -10.6084    5.2460    5.7099 C   0  0  0  0  0  0  0  0  0  0  0  0
   -5.6305    9.0710    4.3023 N   0  0  0  0  0  0  0  0  0  0  0  0
  -10.5692    4.5931    6.8958 N   0  0  0  0  0  0  0  0  0  0  0  0
   -4.6128   10.0681    4.6286 C   0  0  0  0  0  0  0  0  0  0  0  0
  -11.1308    3.2744    7.1718 C   0  0  0  0  0  0  0  0  0  0  0  0
   -3.7692    9.5225    5.7920 C   0  0  0  0  0  0  0  0  0  0  0  0
  -10.0483    2.2244    6.8597 C   0  0  0  0  0  0  0  0  0  0  0  0
   -4.5368    9.6164    7.1179 C   0  0  0  0  0  0  0  0  0  0  0  0
  -10.2072    1.6060    5.4589 C   0  0  0  0  0  0  0  0  0  0  0  0
   -5.2093    8.2970    7.3984 N   0  0  0  0  0  0  0  0  0  0  0  0
   -9.1644    0.5483    5.1993 N   0  0  0  0  0  0  0  0  0  0  0  0
   -6.4120    8.5105    8.2767 C   0  0  0  0  0  0  0  0  0  0  0  0
   -7.8253    1.2161    5.0363 C   0  0  0  0  0  0  0  0  0  0  0  0
   -4.2561    7.3396    8.0699 C   0  0  0  0  0  0  0  0  0  0  0  0
   -9.4637   -0.2533    3.9633 C   0  0  0  0  0  0  0  0  0  0  0  0
  1  6  2  0  0  0  0
  2  3  2  0  0  0  0
  2  1  1  0  0  0  0
  3  4  1  0  0  0  0
  4 10  1  0  0  0  0
  4  5  2  0  0  0  0
  6  5  1  0  0  0  0
  7  1  1  0  0  0  0
  7 11  1  0  0  0  0
  8  7  2  0  0  0  0
  9 10  2  0  0  0  0
 10 12  1  0  0  0  0
 12 14  1  0  0  0  0
 13 11  1  0  0  0  0
 13 15  1  0  0  0  0
 14 16  1  0  0  0  0
 16 18  1  0  0  0  0
 17 15  1  0  0  0  0
 17 19  1  0  0  0  0
 18 20  1  0  0  0  0
 19 23  1  0  0  0  0
 20 22  1  0  0  0  0
 20 24  1  0  0  0  0
 21 19  1  0  0  0  0
M  END
>  <CHROM.1>
-157.58902557,-149.17520897,89.28112057,124.58581914,-75.38843474,-97.33445141
-178.00775365,95.77015646,-154.38446154,-70.76768812,-7.98118577,6.15920426
5.64253335,0.95762282,-0.42531713,-0.24967207

>  <Name>
lig.pdb

>  <RI>
2.62193e+07

>  <Rbt.Current_Directory>
/home/itssahil/PROJECTS/Mol_Feturizer/New_Systems/rnas/2l94

>  <Rbt.Executable>
rbdock ($Id: //depot/dev/client3/rdock/2013.1/src/exe/rbdock.cxx#4 $)

>  <Rbt.Library>
libRbt.so (2013.1, Build901 2013/11/27)

>  <Rbt.Parameter_File>
/export/apps/rDock/src/rDock_2013.1_src/data/scripts/dock_solv.prm

>  <Rbt.Receptor>
prm/blind_docking_60.prm

>  <SCORE>
14.5386

>  <SCORE.INTER>
1.56165

>  <SCORE.INTER.CONST>
1

>  <SCORE.INTER.POLAR>
-1.40293

>  <SCORE.INTER.ROT>
10

>  <SCORE.INTER.SOLV>
21.649

>  <SCORE.INTER.VDW>
-11.7655

>  <SCORE.INTER.norm>
0.0650687

>  <SCORE.INTRA>
3.7925

>  <SCORE.INTRA.DIHEDRAL>
12.3761

>  <SCORE.INTRA.DIHEDRAL.0>
7.52971

>  <SCORE.INTRA.POLAR>
0

>  <SCORE.INTRA.POLAR.0>
0

>  <SCORE.INTRA.REPUL>
0

>  <SCORE.INTRA.REPUL.0>
0

>  <SCORE.INTRA.SOLV>
1.31388

>  <SCORE.INTRA.SOLV.lig_0>
-22.1084

>  <SCORE.INTRA.VDW>
-3.0525

>  <SCORE.INTRA.VDW.0>
2.4256

>  <SCORE.INTRA.norm>
0.158021

>  <SCORE.RESTR>
9.18446

>  <SCORE.RESTR.CAVITY>
9.18446

>  <SCORE.RESTR.norm>
0.382686

>  <SCORE.SYSTEM>
0

>  <SCORE.SYSTEM.CONST>
0

>  <SCORE.SYSTEM.DIHEDRAL>
0

>  <SCORE.SYSTEM.SOLV>
0

>  <SCORE.SYSTEM.norm>
0

>  <SCORE.heavy>
24

>  <SCORE.norm>
0.605775

>  <RMSD>
17.304

$$$$
lig.pdb
 OpenBabel11021811453D
libRbt.so/2013.1/901 2013/11/27
 24 24  0  0  0  0  0  0  0  0999 V2000
   -6.4152    7.5415    5.0823 C   0  0  0  0  0  0  0  0  0  0  0  0
   -7.7194    7.0278    5.3923 C   0  0  0  0  0  0  0  0  0  0  0  0
   -8.8577    7.5586    4.8332 C   0  0  0  0  0  0  0  0  0  0  0  0
   -8.8033    8.6460    3.9037 C   0  0  0  0  0  0  0  0  0  0  0  0
   -7.5030    9.1799    3.6210 C   0  0  0  0  0  0  0  0  0  0  0  0
   -6.3666    8.6561    4.1849 C   0  0  0  0  0  0  0  0  0  0  0  0
   -5.2762    7.0013    5.6073 C   0  0  0  0  0  0  0  0  0  0  0  0
   -4.0404    7.4089    5.2469 N   0  0  0  0  0  0  0  0  0  0  0  0
  -11.0639    8.4534    3.1546 N   0  0  0  0  0  0  0  0  0  0  0  0
   -9.9227    9.1564    3.3154 C   0  0  0  0  0  0  0  0  0  0  0  0
   -5.3012    6.0138    6.5365 N   0  0  0  0  0  0  0  0  0  0  0  0
   -9.9824   10.4221    2.8376 N   0  0  0  0  0  0  0  0  0  0  0  0
   -4.3707    5.8383    7.6498 C   0  0  0  0  0  0  0  0  0  0  0  0
  -11.1963   11.1995    2.6080 C   0  0  0  0  0  0  0  0  0  0  0  0
   -4.2233    7.1918    8.3634 C   0  0  0  0  0  0  0  0  0  0  0  0
  -11.1304   12.4538    3.4991 C   0  0  0  0  0  0  0  0  0  0  0  0
   -5.5285    7.9963    8.2893 C   0  0  0  0  0  0  0  0  0  0  0  0
  -11.0372   12.1135    4.9975 C   0  0  0  0  0  0  0  0  0  0  0  0
   -5.2030    9.4616    8.1518 N   0  0  0  0  0  0  0  0  0  0  0  0
   -9.7499   12.6165    5.6003 N   0  0  0  0  0  0  0  0  0  0  0  0
   -6.4728   10.2668    8.1010 C   0  0  0  0  0  0  0  0  0  0  0  0
   -9.6788   14.1089    5.4181 C   0  0  0  0  0  0  0  0  0  0  0  0
   -4.3914    9.7177    6.9062 C   0  0  0  0  0  0  0  0  0  0  0  0
   -8.5412   11.9889    4.9639 C   0  0  0  0  0  0  0  0  0  0  0  0
  1  6  2  0  0  0  0
  2  3  2  0  0  0  0
  2  1  1  0  0  0  0
  3  4  1  0  0  0  0
  4 10  1  0  0  0  0
  4  5  2  0  0  0  0
  6  5  1  0  0  0  0
  7  1  1  0  0  0  0
  7 11  1  0  0  0  0
  8  7  2  0  0  0  0
  9 10  2  0  0  0  0
 10 12  1  0  0  0  0
 12 14  1  0  0  0  0
 13 11  1  0  0  0  0
 13 15  1  0  0  0  0
 14 16  1  0  0  0  0
 16 18  1  0  0  0  0
 17 15  1  0  0  0  0
 17 19  1  0  0  0  0
 18 20  1  0  0  0  0
 19 23  1  0  0  0  0
 20 22  1  0  0  0  0
 20 24  1  0  0  0  0
 21 19  1  0  0  0  0
M  END
>  <CHROM.1>
-24.27740560,174.88022521,119.12440973,48.08419623,32.20816543,-59.94407303
117.63008946,-144.34432153,-179.05716246,59.05803532,-7.60815918,9.30732823
5.38216845,0.29637985,0.69885919,-2.66340162

>  <Name>
lig.pdb

>  <RI>
2.62193e+07

>  <Rbt.Current_Directory>
/home/itssahil/PROJECTS/Mol_Feturizer/New_Systems/rnas/2l94

>  <Rbt.Executable>
rbdock ($Id: //depot/dev/client3/rdock/2013.1/src/exe/rbdock.cxx#4 $)

>  <Rbt.Library>
libRbt.so (2013.1, Build901 2013/11/27)

>  <Rbt.Parameter_File>
/export/apps/rDock/src/rDock_2013.1_src/data/scripts/dock_solv.prm

>  <Rbt.Receptor>
prm/blind_docking_60.prm

>  <SCORE>
14.9912

>  <SCORE.INTER>
-3.68886

>  <SCORE.INTER.CONST>
1

>  <SCORE.INTER.POLAR>
-1.15196

>  <SCORE.INTER.ROT>
10

>  <SCORE.INTER.SOLV>
15.9091

>  <SCORE.INTER.VDW>
-14.1891

>  <SCORE.INTER.norm>
-0.153702

>  <SCORE.INTRA>
9.38807

>  <SCORE.INTRA.DIHEDRAL>
11.0122

>  <SCORE.INTRA.DIHEDRAL.0>
7.52971

>  <SCORE.INTRA.POLAR>
0

>  <SCORE.INTRA.POLAR.0>
0

>  <SCORE.INTRA.REPUL>
0

>  <SCORE.INTRA.REPUL.0>
0

>  <SCORE.INTRA.SOLV>
2.43414

>  <SCORE.INTRA.SOLV.lig_0>
-22.1084

>  <SCORE.INTRA.VDW>
2.66489

>  <SCORE.INTRA.VDW.0>
2.4256

>  <SCORE.INTRA.norm>
0.39117

>  <SCORE.RESTR>
9.29199

>  <SCORE.RESTR.CAVITY>
9.29199

>  <SCORE.RESTR.norm>
0.387166

>  <SCORE.SYSTEM>
0

>  <SCORE.SYSTEM.CONST>
0

>  <SCORE.SYSTEM.DIHEDRAL>
0

>  <SCORE.SYSTEM.SOLV>
0

>  <SCORE.SYSTEM.norm>
0

>  <SCORE.heavy>
24

>  <SCORE.norm>
0.624634

>  <RMSD>
17.499

$$$$
lig.pdb
 OpenBabel11021811453D
libRbt.so/2013.1/901 2013/11/27
 24 24  0  0  0  0  0  0  0  0999 V2000
  -11.5984    4.1443    4.5948 C   0  0  0  0  0  0  0  0  0  0  0  0
  -12.0749    4.8414    3.4338 C   0  0  0  0  0  0  0  0  0  0  0  0
  -11.7131    6.1416    3.1713 C   0  0  0  0  0  0  0  0  0  0  0  0
  -10.8334    6.8674    4.0366 C   0  0  0  0  0  0  0  0  0  0  0  0
  -10.3854    6.1813    5.2131 C   0  0  0  0  0  0  0  0  0  0  0  0
  -10.7524    4.8860    5.4803 C   0  0  0  0  0  0  0  0  0  0  0  0
  -11.9259    2.8430    4.8481 C   0  0  0  0  0  0  0  0  0  0  0  0
  -13.1994    2.3945    4.8378 N   0  0  0  0  0  0  0  0  0  0  0  0
  -11.2881    9.1166    3.3713 N   0  0  0  0  0  0  0  0  0  0  0  0
  -10.4391    8.1448    3.7672 C   0  0  0  0  0  0  0  0  0  0  0  0
  -10.9925    1.8993    5.1260 N   0  0  0  0  0  0  0  0  0  0  0  0
   -9.1505    8.5475    3.8738 N   0  0  0  0  0  0  0  0  0  0  0  0
  -11.0260    0.4936    4.7271 C   0  0  0  0  0  0  0  0  0  0  0  0
   -8.6892    9.9216    4.0461 C   0  0  0  0  0  0  0  0  0  0  0  0
   -9.5822    0.0434    4.4521 C   0  0  0  0  0  0  0  0  0  0  0  0
   -7.7079    9.9459    5.2327 C   0  0  0  0  0  0  0  0  0  0  0  0
   -9.1479    0.4301    3.0316 C   0  0  0  0  0  0  0  0  0  0  0  0
   -6.4223    9.1454    4.9566 C   0  0  0  0  0  0  0  0  0  0  0  0
   -7.7043    0.8632    3.0528 N   0  0  0  0  0  0  0  0  0  0  0  0
   -5.4400    9.2662    6.0941 N   0  0  0  0  0  0  0  0  0  0  0  0
   -7.3909    1.6652    1.8191 C   0  0  0  0  0  0  0  0  0  0  0  0
   -4.1133    8.7100    5.6514 C   0  0  0  0  0  0  0  0  0  0  0  0
   -6.7855   -0.3311    3.1267 C   0  0  0  0  0  0  0  0  0  0  0  0
   -5.8959    8.5243    7.3195 C   0  0  0  0  0  0  0  0  0  0  0  0
  1  6  2  0  0  0  0
  2  3  2  0  0  0  0
  2  1  1  0  0  0  0
  3  4  1  0  0  0  0
  4 10  1  0  0  0  0
  4  5  2  0  0  0  0
  6  5  1  0  0  0  0
  7  1  1  0  0  0  0
  7 11  1  0  0  0  0
  8  7  2  0  0  0  0
  9 10  2  0  0  0  0
 10 12  1  0  0  0  0
 12 14  1  0  0  0  0
 13 11  1  0  0  0  0
 13 15  1  0  0  0  0
 14 16  1  0  0  0  0
 16 18  1  0  0  0  0
 17 15  1  0  0  0  0
 17 19  1  0  0  0  0
 18 20  1  0  0  0  0
 19 23  1  0  0  0  0
 20 22  1  0  0  0  0
 20 24  1  0  0  0  0
 21 19  1  0  0  0  0
M  END
>  <CHROM.1>
45.82716022,-51.11742747,129.66556087,145.56761436,-83.10184836,65.41570919
175.99571506,142.02227392,-161.10874917,-168.43853460,-9.25943086,5.18833215
4.39179571,1.88167005,0.08609975,-3.01534344

>  <Name>
lig.pdb

>  <RI>
2.62193e+07

>  <Rbt.Current_Directory>
/home/itssahil/PROJECTS/Mol_Feturizer/New_Systems/rnas/2l94

>  <Rbt.Executable>
rbdock ($Id: //depot/dev/client3/rdock/2013.1/src/exe/rbdock.cxx#4 $)

>  <Rbt.Library>
libRbt.so (2013.1, Build901 2013/11/27)

>  <Rbt.Parameter_File>
/export/apps/rDock/src/rDock_2013.1_src/data/scripts/dock_solv.prm

>  <Rbt.Receptor>
prm/blind_docking_60.prm

>  <SCORE>
3.29713

>  <SCORE.INTER>
-11.57

>  <SCORE.INTER.CONST>
1

>  <SCORE.INTER.POLAR>
-1.44969

>  <SCORE.INTER.ROT>
10

>  <SCORE.INTER.SOLV>
18.7531

>  <SCORE.INTER.VDW>
-19.3987

>  <SCORE.INTER.norm>
-0.482084

>  <SCORE.INTRA>
6.08507

>  <SCORE.INTRA.DIHEDRAL>
18.4608

>  <SCORE.INTRA.DIHEDRAL.0>
7.52971

>  <SCORE.INTRA.POLAR>
0

>  <SCORE.INTRA.POLAR.0>
0

>  <SCORE.INTRA.REPUL>
0

>  <SCORE.INTRA.REPUL.0>
0

>  <SCORE.INTRA.SOLV>
0.0138562

>  <SCORE.INTRA.SOLV.lig_0>
-22.1084

>  <SCORE.INTRA.VDW>
-3.15224

>  <SCORE.INTRA.VDW.0>
2.4256

>  <SCORE.INTRA.norm>
0.253545

>  <SCORE.RESTR>
8.78207

>  <SCORE.RESTR.CAVITY>
8.78207

>  <SCORE.RESTR.norm>
0.36592

>  <SCORE.SYSTEM>
0

>  <SCORE.SYSTEM.CONST>
0

>  <SCORE.SYSTEM.DIHEDRAL>
0

>  <SCORE.SYSTEM.SOLV>
0

>  <SCORE.SYSTEM.norm>
0

>  <SCORE.heavy>
24

>  <SCORE.norm>
0.13738

>  <RMSD>
17.576

$$$$
lig.pdb
 OpenBabel11021811453D
libRbt.so/2013.1/901 2013/11/27
 24 24  0  0  0  0  0  0  0  0999 V2000
   -8.2219    2.3037    6.3395 C   0  0  0  0  0  0  0  0  0  0  0  0
   -8.9560    3.3056    7.0594 C   0  0  0  0  0  0  0  0  0  0  0  0
   -8.4030    4.5260    7.3676 C   0  0  0  0  0  0  0  0  0  0  0  0
   -7.0683    4.8676    6.9786 C   0  0  0  0  0  0  0  0  0  0  0  0
   -6.3249    3.8536    6.2894 C   0  0  0  0  0  0  0  0  0  0  0  0
   -6.8732    2.6320    5.9883 C   0  0  0  0  0  0  0  0  0  0  0  0
   -8.7722    1.1008    6.0005 C   0  0  0  0  0  0  0  0  0  0  0  0
   -9.3579    0.2848    6.9028 N   0  0  0  0  0  0  0  0  0  0  0  0
   -5.2147    6.3722    7.0706 N   0  0  0  0  0  0  0  0  0  0  0  0
   -6.5225    6.0880    7.2471 C   0  0  0  0  0  0  0  0  0  0  0  0
   -8.7752    0.6360    4.7266 N   0  0  0  0  0  0  0  0  0  0  0  0
   -7.2537    7.1256    7.7192 N   0  0  0  0  0  0  0  0  0  0  0  0
   -9.8298   -0.1465    4.0848 C   0  0  0  0  0  0  0  0  0  0  0  0
   -6.9044    8.5395    7.6232 C   0  0  0  0  0  0  0  0  0  0  0  0
  -11.1691    0.2404    4.7325 C   0  0  0  0  0  0  0  0  0  0  0  0
   -6.6831    8.8722    6.1359 C   0  0  0  0  0  0  0  0  0  0  0  0
  -12.0100    1.1029    3.7812 C   0  0  0  0  0  0  0  0  0  0  0  0
   -7.9679    9.3531    5.4374 C   0  0  0  0  0  0  0  0  0  0  0  0
  -12.9590    1.9526    4.5870 N   0  0  0  0  0  0  0  0  0  0  0  0
   -7.9145    9.1081    3.9506 N   0  0  0  0  0  0  0  0  0  0  0  0
  -14.3803    1.5648    4.2821 C   0  0  0  0  0  0  0  0  0  0  0  0
   -6.8092    9.9419    3.3603 C   0  0  0  0  0  0  0  0  0  0  0  0
  -12.7583    3.4171    4.2852 C   0  0  0  0  0  0  0  0  0  0  0  0
   -9.2079    9.4598    3.2701 C   0  0  0  0  0  0  0  0  0  0  0  0
  1  6  2  0  0  0  0
  2  3  2  0  0  0  0
  2  1  1  0  0  0  0
  3  4  1  0  0  0  0
  4 10  1  0  0  0  0
  4  5  2  0  0  0  0
  6  5  1  0  0  0  0
  7  1  1  0  0  0  0
  7 11  1  0  0  0  0
  8  7  2  0  0  0  0
  9 10  2  0  0  0  0
 10 12  1  0  0  0  0
 12 14  1  0  0  0  0
 13 11  1  0  0  0  0
 13 15  1  0  0  0  0
 14 16  1  0  0  0  0
 16 18  1  0  0  0  0
 17 15  1  0  0  0  0
 17 19  1  0  0  0  0
 18 20  1  0  0  0  0
 19 23  1  0  0  0  0
 20 22  1  0  0  0  0
 20 24  1  0  0  0  0
 21 19  1  0  0  0  0
M  END
>  <CHROM.1>
169.97873750,-53.44091434,55.97071407,29.34012933,106.76063847,90.92885952
-155.46324391,-154.80029139,-115.76277268,-64.40538671,-8.81382985,4.47332152
5.59090254,-2.16740809,-0.54876957,-0.23914057

>  <Name>
lig.pdb

>  <RI>
2.62193e+07

>  <Rbt.Current_Directory>
/home/itssahil/PROJECTS/Mol_Feturizer/New_Systems/rnas/2l94

>  <Rbt.Executable>
rbdock ($Id: //depot/dev/client3/rdock/2013.1/src/exe/rbdock.cxx#4 $)

>  <Rbt.Library>
libRbt.so (2013.1, Build901 2013/11/27)

>  <Rbt.Parameter_File>
/export/apps/rDock/src/rDock_2013.1_src/data/scripts/dock_solv.prm

>  <Rbt.Receptor>
prm/blind_docking_60.prm

>  <SCORE>
23.4919

>  <SCORE.INTER>
-2.99251

>  <SCORE.INTER.CONST>
1

>  <SCORE.INTER.POLAR>
-1.96176

>  <SCORE.INTER.ROT>
10

>  <SCORE.INTER.SOLV>
18.1689

>  <SCORE.INTER.VDW>
-11.7787

>  <SCORE.INTER.norm>
-0.124688

>  <SCORE.INTRA>
10.1922

>  <SCORE.INTRA.DIHEDRAL>
21.3421

>  <SCORE.INTRA.DIHEDRAL.0>
7.52971

>  <SCORE.INTRA.POLAR>
0

>  <SCORE.INTRA.POLAR.0>
0

>  <SCORE.INTRA.REPUL>
0

>  <SCORE.INTRA.REPUL.0>
0

>  <SCORE.INTRA.SOLV>
0.549421

>  <SCORE.INTRA.SOLV.lig_0>
-22.1084

>  <SCORE.INTRA.VDW>
-0.753602

>  <SCORE.INTRA.VDW.0>
2.4256

>  <SCORE.INTRA.norm>
0.424674

>  <SCORE.RESTR>
16.2922

>  <SCORE.RESTR.CAVITY>
16.2922

>  <SCORE.RESTR.norm>
0.678842

>  <SCORE.SYSTEM>
0

>  <SCORE.SYSTEM.CONST>
0

>  <SCORE.SYSTEM.DIHEDRAL>
0

>  <SCORE.SYSTEM.SOLV>
0

>  <SCORE.SYSTEM.norm>
0

>  <SCORE.heavy>
24

>  <SCORE.norm>
0.978828

>  <RMSD>
17.579

$$$$
lig.pdb
 OpenBabel11021811453D
libRbt.so/2013.1/901 2013/11/27
 24 24  0  0  0  0  0  0  0  0999 V2000
  -11.9448    4.4322    4.0013 C   0  0  0  0  0  0  0  0  0  0  0  0
  -12.1838    5.2303    2.8321 C   0  0  0  0  0  0  0  0  0  0  0  0
  -11.6119    6.4704    2.6733 C   0  0  0  0  0  0  0  0  0  0  0  0
  -10.7390    7.0289    3.6610 C   0  0  0  0  0  0  0  0  0  0  0  0
  -10.5281    6.2454    4.8431 C   0  0  0  0  0  0  0  0  0  0  0  0
  -11.1049    5.0107    5.0063 C   0  0  0  0  0  0  0  0  0  0  0  0
  -12.4821    3.1862    4.1546 C   0  0  0  0  0  0  0  0  0  0  0  0
  -13.7393    2.8798    3.7690 N   0  0  0  0  0  0  0  0  0  0  0  0
  -10.7668    9.3199    2.9836 N   0  0  0  0  0  0  0  0  0  0  0  0
  -10.1376    8.2419    3.4976 C   0  0  0  0  0  0  0  0  0  0  0  0
  -11.7889    2.1582    4.7041 N   0  0  0  0  0  0  0  0  0  0  0  0
   -8.8467    8.4672    3.8390 N   0  0  0  0  0  0  0  0  0  0  0  0
  -11.8674    0.7494    4.3229 C   0  0  0  0  0  0  0  0  0  0  0  0
   -8.2456    9.7663    4.1244 C   0  0  0  0  0  0  0  0  0  0  0  0
  -10.4952    0.1088    4.5870 C   0  0  0  0  0  0  0  0  0  0  0  0
   -6.7217    9.5698    4.2289 C   0  0  0  0  0  0  0  0  0  0  0  0
   -9.5598    0.2998    3.3852 C   0  0  0  0  0  0  0  0  0  0  0  0
   -6.3233    8.6086    5.3634 C   0  0  0  0  0  0  0  0  0  0  0  0
   -8.1298    0.1574    3.8396 N   0  0  0  0  0  0  0  0  0  0  0  0
   -4.8427    8.3235    5.3529 N   0  0  0  0  0  0  0  0  0  0  0  0
   -7.7679    1.2923    4.7586 C   0  0  0  0  0  0  0  0  0  0  0  0
   -4.5158    7.4096    6.5033 C   0  0  0  0  0  0  0  0  0  0  0  0
   -7.1895    0.1421    2.6600 C   0  0  0  0  0  0  0  0  0  0  0  0
   -4.0219    9.5769    5.4768 C   0  0  0  0  0  0  0  0  0  0  0  0
  1  6  2  0  0  0  0
  2  3  2  0  0  0  0
  2  1  1  0  0  0  0
  3  4  1  0  0  0  0
  4 10  1  0  0  0  0
  4  5  2  0  0  0  0
  6  5  1  0  0  0  0
  7  1  1  0  0  0  0
  7 11  1  0  0  0  0
  8  7  2  0  0  0  0
  9 10  2  0  0  0  0
 10 12  1  0  0  0  0
 12 14  1  0  0  0  0
 13 11  1  0  0  0  0
 13 15  1  0  0  0  0
 14 16  1  0  0  0  0
 16 18  1  0  0  0  0
 17 15  1  0  0  0  0
 17 19  1  0  0  0  0
 18 20  1  0  0  0  0
 19 23  1  0  0  0  0
 20 22  1  0  0  0  0
 20 24  1  0  0  0  0
 21 19  1  0  0  0  0
M  END
>  <CHROM.1>
41.51784554,-39.34867037,-170.53118019,149.50824343,-86.19595460,-61.15750044
174.12290393,158.47545746,-66.73382930,178.57105420,-9.30794273,5.17040566
4.20357030,2.07390180,0.20885823,3.13590394

>  <Name>
lig.pdb

>  <RI>
2.62193e+07

>  <Rbt.Current_Directory>
/home/itssahil/PROJECTS/Mol_Feturizer/New_Systems/rnas/2l94

>  <Rbt.Executable>
rbdock ($Id: //depot/dev/client3/rdock/2013.1/src/exe/rbdock.cxx#4 $)

>  <Rbt.Library>
libRbt.so (2013.1, Build901 2013/11/27)

>  <Rbt.Parameter_File>
/export/apps/rDock/src/rDock_2013.1_src/data/scripts/dock_solv.prm

>  <Rbt.Receptor>
prm/blind_docking_60.prm

>  <SCORE>
-7.27877

>  <SCORE.INTER>
-20.7593

>  <SCORE.INTER.CONST>
1

>  <SCORE.INTER.POLAR>
-2.40822

>  <SCORE.INTER.ROT>
10

>  <SCORE.INTER.SOLV>
19.3857

>  <SCORE.INTER.VDW>
-22.5407

>  <SCORE.INTER.norm>
-0.864969

>  <SCORE.INTRA>
5.40506

>  <SCORE.INTRA.DIHEDRAL>
12.1245

>  <SCORE.INTRA.DIHEDRAL.0>
7.52971

>  <SCORE.INTRA.POLAR>
0

>  <SCORE.INTRA.POLAR.0>
0

>  <SCORE.INTRA.REPUL>
0

>  <SCORE.INTRA.REPUL.0>
0

>  <SCORE.INTRA.SOLV>
0.0651117

>  <SCORE.INTRA.SOLV.lig_0>
-22.1084

>  <SCORE.INTRA.VDW>
-0.689749

>  <SCORE.INTRA.VDW.0>
2.4256

>  <SCORE.INTRA.norm>
0.225211

>  <SCORE.RESTR>
8.07542

>  <SCORE.RESTR.CAVITY>
8.07542

>  <SCORE.RESTR.norm>
0.336476

>  <SCORE.SYSTEM>
0

>  <SCORE.SYSTEM.CONST>
0

>  <SCORE.SYSTEM.DIHEDRAL>
0

>  <SCORE.SYSTEM.SOLV>
0

>  <SCORE.SYSTEM.norm>
0

>  <SCORE.heavy>
24

>  <SCORE.norm>
-0.303282

>  <RMSD>
17.688

$$$$
lig.pdb
 OpenBabel11021811453D
libRbt.so/2013.1/901 2013/11/27
 24 24  0  0  0  0  0  0  0  0999 V2000
  -11.0143    6.9082    4.4446 C   0  0  0  0  0  0  0  0  0  0  0  0
  -11.7277    6.1909    3.4260 C   0  0  0  0  0  0  0  0  0  0  0  0
  -11.9875    4.8453    3.5359 C   0  0  0  0  0  0  0  0  0  0  0  0
  -11.5693    4.0886    4.6769 C   0  0  0  0  0  0  0  0  0  0  0  0
  -10.8277    4.7991    5.6774 C   0  0  0  0  0  0  0  0  0  0  0  0
  -10.5607    6.1407    5.5649 C   0  0  0  0  0  0  0  0  0  0  0  0
  -10.7787    8.2507    4.3603 C   0  0  0  0  0  0  0  0  0  0  0  0
  -11.0491    9.1050    5.3704 N   0  0  0  0  0  0  0  0  0  0  0  0
  -13.0988    2.2533    4.7036 N   0  0  0  0  0  0  0  0  0  0  0  0
  -11.8532    2.7618    4.8133 C   0  0  0  0  0  0  0  0  0  0  0  0
  -10.2499    8.8279    3.2530 N   0  0  0  0  0  0  0  0  0  0  0  0
  -10.9002    1.8357    5.0742 N   0  0  0  0  0  0  0  0  0  0  0  0
   -9.3246    9.9587    3.2147 C   0  0  0  0  0  0  0  0  0  0  0  0
  -10.9952    0.4037    4.8078 C   0  0  0  0  0  0  0  0  0  0  0  0
   -7.9198    9.4345    3.5538 C   0  0  0  0  0  0  0  0  0  0  0  0
  -10.2406    0.1153    3.4966 C   0  0  0  0  0  0  0  0  0  0  0  0
   -7.8830    8.8384    4.9677 C   0  0  0  0  0  0  0  0  0  0  0  0
   -8.7498   -0.1935    3.7250 C   0  0  0  0  0  0  0  0  0  0  0  0
   -6.5556    9.1559    5.6074 N   0  0  0  0  0  0  0  0  0  0  0  0
   -7.8729    0.9465    3.2722 N   0  0  0  0  0  0  0  0  0  0  0  0
   -5.4923    8.2404    5.0646 C   0  0  0  0  0  0  0  0  0  0  0  0
   -7.9788    1.0765    1.7765 C   0  0  0  0  0  0  0  0  0  0  0  0
   -6.6324    9.0090    7.1069 C   0  0  0  0  0  0  0  0  0  0  0  0
   -6.4313    0.7361    3.6430 C   0  0  0  0  0  0  0  0  0  0  0  0
  1  6  2  0  0  0  0
  2  3  2  0  0  0  0
  2  1  1  0  0  0  0
  3  4  1  0  0  0  0
  4 10  1  0  0  0  0
  4  5  2  0  0  0  0
  6  5  1  0  0  0  0
  7  1  1  0  0  0  0
  7 11  1  0  0  0  0
  8  7  2  0  0  0  0
  9 10  2  0  0  0  0
 10 12  1  0  0  0  0
 12 14  1  0  0  0  0
 13 11  1  0  0  0  0
 13 15  1  0  0  0  0
 14 16  1  0  0  0  0
 16 18  1  0  0  0  0
 17 15  1  0  0  0  0
 17 19  1  0  0  0  0
 18 20  1  0  0  0  0
 19 23  1  0  0  0  0
 20 22  1  0  0  0  0
 20 24  1  0  0  0  0
 21 19  1  0  0  0  0
M  END
>  <CHROM.1>
-52.62493276,130.16189883,99.55746156,78.39074514,-61.79264326,89.23069031
-107.45706899,-143.48201651,-77.51923017,-66.47807280,-9.58046360,5.15110339
4.38234977,1.40153528,0.02960505,0.12098502

>  <Name>
lig.pdb

>  <RI>
2.62193e+07

>  <Rbt.Current_Directory>
/home/itssahil/PROJECTS/Mol_Feturizer/New_Systems/rnas/2l94

>  <Rbt.Executable>
rbdock ($Id: //depot/dev/client3/rdock/2013.1/src/exe/rbdock.cxx#4 $)

>  <Rbt.Library>
libRbt.so (2013.1, Build901 2013/11/27)

>  <Rbt.Parameter_File>
/export/apps/rDock/src/rDock_2013.1_src/data/scripts/dock_solv.prm

>  <Rbt.Receptor>
prm/blind_docking_60.prm

>  <SCORE>
14.8087

>  <SCORE.INTER>
-4.78431

>  <SCORE.INTER.CONST>
1

>  <SCORE.INTER.POLAR>
-0.730555

>  <SCORE.INTER.ROT>
10

>  <SCORE.INTER.SOLV>
16.7028

>  <SCORE.INTER.VDW>
-16.5886

>  <SCORE.INTER.norm>
-0.199346

>  <SCORE.INTRA>
9.33834

>  <SCORE.INTRA.DIHEDRAL>
25.0445

>  <SCORE.INTRA.DIHEDRAL.0>
7.52971

>  <SCORE.INTRA.POLAR>
0

>  <SCORE.INTRA.POLAR.0>
0

>  <SCORE.INTRA.REPUL>
0

>  <SCORE.INTRA.REPUL.0>
0

>  <SCORE.INTRA.SOLV>
0.823073

>  <SCORE.INTRA.SOLV.lig_0>
-22.1084

>  <SCORE.INTRA.VDW>
-3.59543

>  <SCORE.INTRA.VDW.0>
2.4256

>  <SCORE.INTRA.norm>
0.389098

>  <SCORE.RESTR>
10.2547

>  <SCORE.RESTR.CAVITY>
10.2547

>  <SCORE.RESTR.norm>
0.427279

>  <SCORE.SYSTEM>
0

>  <SCORE.SYSTEM.CONST>
0

>  <SCORE.SYSTEM.DIHEDRAL>
0

>  <SCORE.SYSTEM.SOLV>
0

>  <SCORE.SYSTEM.norm>
0

>  <SCORE.heavy>
24

>  <SCORE.norm>
0.61703

>  <RMSD>
17.729

$$$$
lig.pdb
 OpenBabel11021811453D
libRbt.so/2013.1/901 2013/11/27
 24 24  0  0  0  0  0  0  0  0999 V2000
   -7.9922    8.8630    3.8173 C   0  0  0  0  0  0  0  0  0  0  0  0
   -8.3014    7.9018    4.8379 C   0  0  0  0  0  0  0  0  0  0  0  0
   -9.4779    7.1905    4.8294 C   0  0  0  0  0  0  0  0  0  0  0  0
  -10.4541    7.3627    3.7966 C   0  0  0  0  0  0  0  0  0  0  0  0
  -10.1591    8.3471    2.7967 C   0  0  0  0  0  0  0  0  0  0  0  0
   -8.9885    9.0636    2.8087 C   0  0  0  0  0  0  0  0  0  0  0  0
   -6.8131    9.5515    3.7988 C   0  0  0  0  0  0  0  0  0  0  0  0
   -6.7124   10.8163    3.3371 N   0  0  0  0  0  0  0  0  0  0  0  0
  -12.5620    6.8068    2.8186 N   0  0  0  0  0  0  0  0  0  0  0  0
  -11.6078    6.6366    3.7582 C   0  0  0  0  0  0  0  0  0  0  0  0
   -5.6512    9.0157    4.2483 N   0  0  0  0  0  0  0  0  0  0  0  0
  -11.8955    5.6767    4.6691 N   0  0  0  0  0  0  0  0  0  0  0  0
   -4.5766    9.7199    4.9450 C   0  0  0  0  0  0  0  0  0  0  0  0
  -12.8336    4.5729    4.4899 C   0  0  0  0  0  0  0  0  0  0  0  0
   -4.6611    9.3587    6.4368 C   0  0  0  0  0  0  0  0  0  0  0  0
  -12.1871    3.3030    5.0740 C   0  0  0  0  0  0  0  0  0  0  0  0
   -4.1753    7.9236    6.6824 C   0  0  0  0  0  0  0  0  0  0  0  0
  -12.3854    2.0687    4.1756 C   0  0  0  0  0  0  0  0  0  0  0  0
   -4.2387    7.6221    8.1579 N   0  0  0  0  0  0  0  0  0  0  0  0
  -13.8306    1.8981    3.7806 N   0  0  0  0  0  0  0  0  0  0  0  0
   -3.5454    6.3182    8.4456 C   0  0  0  0  0  0  0  0  0  0  0  0
  -14.6096    1.4280    4.9797 C   0  0  0  0  0  0  0  0  0  0  0  0
   -5.6694    7.5494    8.6310 C   0  0  0  0  0  0  0  0  0  0  0  0
  -14.0014    0.9031    2.6668 C   0  0  0  0  0  0  0  0  0  0  0  0
  1  6  2  0  0  0  0
  2  3  2  0  0  0  0
  2  1  1  0  0  0  0
  3  4  1  0  0  0  0
  4 10  1  0  0  0  0
  4  5  2  0  0  0  0
  6  5  1  0  0  0  0
  7  1  1  0  0  0  0
  7 11  1  0  0  0  0
  8  7  2  0  0  0  0
  9 10  2  0  0  0  0
 10 12  1  0  0  0  0
 12 14  1  0  0  0  0
 13 11  1  0  0  0  0
 13 15  1  0  0  0  0
 14 16  1  0  0  0  0
 16 18  1  0  0  0  0
 17 15  1  0  0  0  0
 17 19  1  0  0  0  0
 18 20  1  0  0  0  0
 19 23  1  0  0  0  0
 20 22  1  0  0  0  0
 20 24  1  0  0  0  0
 21 19  1  0  0  0  0
M  END
>  <CHROM.1>
177.98040761,-147.16909840,137.79723656,103.86934228,73.52082173,-137.01247502
-50.14533253,178.48304973,-170.11626471,-72.39777632,-9.05915772,6.60287716
4.78569492,0.34677069,-0.55250020,-0.61208170

>  <Name>
lig.pdb

>  <RI>
2.62193e+07

>  <Rbt.Current_Directory>
/home/itssahil/PROJECTS/Mol_Feturizer/New_Systems/rnas/2l94

>  <Rbt.Executable>
rbdock ($Id: //depot/dev/client3/rdock/2013.1/src/exe/rbdock.cxx#4 $)

>  <Rbt.Library>
libRbt.so (2013.1, Build901 2013/11/27)

>  <Rbt.Parameter_File>
/export/apps/rDock/src/rDock_2013.1_src/data/scripts/dock_solv.prm

>  <Rbt.Receptor>
prm/blind_docking_60.prm

>  <SCORE>
-5.77093

>  <SCORE.INTER>
-20.5784

>  <SCORE.INTER.CONST>
1

>  <SCORE.INTER.POLAR>
-2.91662

>  <SCORE.INTER.ROT>
10

>  <SCORE.INTER.SOLV>
21.6705

>  <SCORE.INTER.VDW>
-21.4871

>  <SCORE.INTER.norm>
-0.857435

>  <SCORE.INTRA>
2.32415

>  <SCORE.INTRA.DIHEDRAL>
7.1826

>  <SCORE.INTRA.DIHEDRAL.0>
7.52971

>  <SCORE.INTRA.POLAR>
0

>  <SCORE.INTRA.POLAR.0>
0

>  <SCORE.INTRA.REPUL>
0

>  <SCORE.INTRA.REPUL.0>
0

>  <SCORE.INTRA.SOLV>
-0.00100088

>  <SCORE.INTRA.SOLV.lig_0>
-22.1084

>  <SCORE.INTRA.VDW>
-1.26665

>  <SCORE.INTRA.VDW.0>
2.4256

>  <SCORE.INTRA.norm>
0.0968395

>  <SCORE.RESTR>
12.4834

>  <SCORE.RESTR.CAVITY>
12.4834

>  <SCORE.RESTR.norm>
0.52014

>  <SCORE.SYSTEM>
0

>  <SCORE.SYSTEM.CONST>
0

>  <SCORE.SYSTEM.DIHEDRAL>
0

>  <SCORE.SYSTEM.SOLV>
0

>  <SCORE.SYSTEM.norm>
0

>  <SCORE.heavy>
24

>  <SCORE.norm>
-0.240455

>  <RMSD>
17.733

$$$$
lig.pdb
 OpenBabel11021811453D
libRbt.so/2013.1/901 2013/11/27
 24 24  0  0  0  0  0  0  0  0999 V2000
  -11.1118    6.2551    4.1017 C   0  0  0  0  0  0  0  0  0  0  0  0
  -11.0629    7.0891    2.9342 C   0  0  0  0  0  0  0  0  0  0  0  0
  -10.1380    8.0979    2.8039 C   0  0  0  0  0  0  0  0  0  0  0  0
   -9.1669    8.3649    3.8213 C   0  0  0  0  0  0  0  0  0  0  0  0
   -9.2385    7.5532    5.0011 C   0  0  0  0  0  0  0  0  0  0  0  0
  -10.1666    6.5511    5.1357 C   0  0  0  0  0  0  0  0  0  0  0  0
  -12.0054    5.2302    4.2275 C   0  0  0  0  0  0  0  0  0  0  0  0
  -12.5597    4.6092    3.1644 N   0  0  0  0  0  0  0  0  0  0  0  0
   -8.5185   10.6501    3.5655 N   0  0  0  0  0  0  0  0  0  0  0  0
   -8.2220    9.3388    3.6869 C   0  0  0  0  0  0  0  0  0  0  0  0
  -12.4013    4.7549    5.4343 N   0  0  0  0  0  0  0  0  0  0  0  0
   -6.8952    9.0686    3.6621 N   0  0  0  0  0  0  0  0  0  0  0  0
  -12.7065    3.3650    5.7682 C   0  0  0  0  0  0  0  0  0  0  0  0
   -5.8193   10.0077    3.9643 C   0  0  0  0  0  0  0  0  0  0  0  0
  -11.6462    2.4729    5.1028 C   0  0  0  0  0  0  0  0  0  0  0  0
   -4.8825    9.3402    4.9883 C   0  0  0  0  0  0  0  0  0  0  0  0
  -10.3518    2.4506    5.9275 C   0  0  0  0  0  0  0  0  0  0  0  0
   -5.5446    9.1535    6.3655 C   0  0  0  0  0  0  0  0  0  0  0  0
   -9.7528    1.0684    5.8767 N   0  0  0  0  0  0  0  0  0  0  0  0
   -4.9624    7.9751    7.1043 N   0  0  0  0  0  0  0  0  0  0  0  0
   -8.9629    0.8050    7.1298 C   0  0  0  0  0  0  0  0  0  0  0  0
   -5.4647    7.9949    8.5230 C   0  0  0  0  0  0  0  0  0  0  0  0
   -8.8573    0.9142    4.6724 C   0  0  0  0  0  0  0  0  0  0  0  0
   -3.4594    7.9996    7.1183 C   0  0  0  0  0  0  0  0  0  0  0  0
  1  6  2  0  0  0  0
  2  3  2  0  0  0  0
  2  1  1  0  0  0  0
  3  4  1  0  0  0  0
  4 10  1  0  0  0  0
  4  5  2  0  0  0  0
  6  5  1  0  0  0  0
  7  1  1  0  0  0  0
  7 11  1  0  0  0  0
  8  7  2  0  0  0  0
  9 10  2  0  0  0  0
 10 12  1  0  0  0  0
 12 14  1  0  0  0  0
 13 11  1  0  0  0  0
 13 15  1  0  0  0  0
 14 16  1  0  0  0  0
 16 18  1  0  0  0  0
 17 15  1  0  0  0  0
 17 19  1  0  0  0  0
 18 20  1  0  0  0  0
 19 23  1  0  0  0  0
 20 22  1  0  0  0  0
 20 24  1  0  0  0  0
 21 19  1  0  0  0  0
M  END
>  <CHROM.1>
62.57802474,24.40384417,129.53185215,41.88180419,80.27567033,-68.03842985
152.01253265,142.87427511,-151.54721579,169.87261575,-8.86089212,6.24269587
5.04684464,2.35860939,0.47829767,2.73971920

>  <Name>
lig.pdb

>  <RI>
2.62193e+07

>  <Rbt.Current_Directory>
/home/itssahil/PROJECTS/Mol_Feturizer/New_Systems/rnas/2l94

>  <Rbt.Executable>
rbdock ($Id: //depot/dev/client3/rdock/2013.1/src/exe/rbdock.cxx#4 $)

>  <Rbt.Library>
libRbt.so (2013.1, Build901 2013/11/27)

>  <Rbt.Parameter_File>
/export/apps/rDock/src/rDock_2013.1_src/data/scripts/dock_solv.prm

>  <Rbt.Receptor>
prm/blind_docking_60.prm

>  <SCORE>
15.331

>  <SCORE.INTER>
-2.71315

>  <SCORE.INTER.CONST>
1

>  <SCORE.INTER.POLAR>
-0.823108

>  <SCORE.INTER.ROT>
10

>  <SCORE.INTER.SOLV>
20.5901

>  <SCORE.INTER.VDW>
-16.1951

>  <SCORE.INTER.norm>
-0.113048

>  <SCORE.INTRA>
8.18796

>  <SCORE.INTRA.DIHEDRAL>
19.264

>  <SCORE.INTRA.DIHEDRAL.0>
7.52971

>  <SCORE.INTRA.POLAR>
0

>  <SCORE.INTRA.POLAR.0>
0

>  <SCORE.INTRA.REPUL>
0

>  <SCORE.INTRA.REPUL.0>
0

>  <SCORE.INTRA.SOLV>
0.469065

>  <SCORE.INTRA.SOLV.lig_0>
-22.1084

>  <SCORE.INTRA.VDW>
-1.6786

>  <SCORE.INTRA.VDW.0>
2.4256

>  <SCORE.INTRA.norm>
0.341165

>  <SCORE.RESTR>
9.8562

>  <SCORE.RESTR.CAVITY>
9.8562

>  <SCORE.RESTR.norm>
0.410675

>  <SCORE.SYSTEM>
0

>  <SCORE.SYSTEM.CONST>
0

>  <SCORE.SYSTEM.DIHEDRAL>
0

>  <SCORE.SYSTEM.SOLV>
0

>  <SCORE.SYSTEM.norm>
0

>  <SCORE.heavy>
24

>  <SCORE.norm>
0.638792

>  <RMSD>
17.740

$$$$
lig.pdb
 OpenBabel11021811453D
libRbt.so/2013.1/901 2013/11/27
 24 24  0  0  0  0  0  0  0  0999 V2000
  -10.6361    7.4718    3.9593 C   0  0  0  0  0  0  0  0  0  0  0  0
  -10.6136    6.6549    5.1396 C   0  0  0  0  0  0  0  0  0  0  0  0
  -11.1625    5.3946    5.1578 C   0  0  0  0  0  0  0  0  0  0  0  0
  -11.7776    4.8246    3.9976 C   0  0  0  0  0  0  0  0  0  0  0  0
  -11.8293    5.6544    2.8295 C   0  0  0  0  0  0  0  0  0  0  0  0
  -11.2888    6.9159    2.8125 C   0  0  0  0  0  0  0  0  0  0  0  0
  -10.0658    8.7120    3.9211 C   0  0  0  0  0  0  0  0  0  0  0  0
  -10.2836    9.6462    4.8714 N   0  0  0  0  0  0  0  0  0  0  0  0
  -13.4323    3.2263    3.3529 N   0  0  0  0  0  0  0  0  0  0  0  0
  -12.2928    3.5620    3.9938 C   0  0  0  0  0  0  0  0  0  0  0  0
   -9.2315    9.0982    2.9242 N   0  0  0  0  0  0  0  0  0  0  0  0
  -11.6991    2.5307    4.6403 N   0  0  0  0  0  0  0  0  0  0  0  0
   -8.0631    9.9671    3.0505 C   0  0  0  0  0  0  0  0  0  0  0  0
  -11.8893    1.1118    4.3555 C   0  0  0  0  0  0  0  0  0  0  0  0
   -7.3329    9.5950    4.3510 C   0  0  0  0  0  0  0  0  0  0  0  0
  -10.6115    0.3675    4.7854 C   0  0  0  0  0  0  0  0  0  0  0  0
   -6.2410    8.5490    4.0875 C   0  0  0  0  0  0  0  0  0  0  0  0
   -9.6897    0.0355    3.5980 C   0  0  0  0  0  0  0  0  0  0  0  0
   -5.6233    8.1330    5.3980 N   0  0  0  0  0  0  0  0  0  0  0  0
   -8.3936    0.8023    3.6723 N   0  0  0  0  0  0  0  0  0  0  0  0
   -4.5916    9.1425    5.8224 C   0  0  0  0  0  0  0  0  0  0  0  0
   -7.2974   -0.0374    3.0734 C   0  0  0  0  0  0  0  0  0  0  0  0
   -4.9821    6.7723    5.2824 C   0  0  0  0  0  0  0  0  0  0  0  0
   -8.0219    1.1543    5.0858 C   0  0  0  0  0  0  0  0  0  0  0  0
  1  6  2  0  0  0  0
  2  3  2  0  0  0  0
  2  1  1  0  0  0  0
  3  4  1  0  0  0  0
  4 10  1  0  0  0  0
  4  5  2  0  0  0  0
  6  5  1  0  0  0  0
  7  1  1  0  0  0  0
  7 11  1  0  0  0  0
  8  7  2  0  0  0  0
  9 10  2  0  0  0  0
 10 12  1  0  0  0  0
 12 14  1  0  0  0  0
 13 11  1  0  0  0  0
 13 15  1  0  0  0  0
 14 16  1  0  0  0  0
 16 18  1  0  0  0  0
 17 15  1  0  0  0  0
 17 19  1  0  0  0  0
 18 20  1  0  0  0  0
 19 23  1  0  0  0  0
 20 22  1  0  0  0  0
 20 24  1  0  0  0  0
 21 19  1  0  0  0  0
M  END
>  <CHROM.1>
141.54357751,-48.53337035,152.87004730,40.09796126,92.47442037,-100.73801507
113.31084458,-175.63964497,-81.54187570,147.78231254,-9.38326905,5.35908669
4.18810922,1.18837362,-0.16148202,-0.00843162

>  <Name>
lig.pdb

>  <RI>
2.62193e+07

>  <Rbt.Current_Directory>
/home/itssahil/PROJECTS/Mol_Feturizer/New_Systems/rnas/2l94

>  <Rbt.Executable>
rbdock ($Id: //depot/dev/client3/rdock/2013.1/src/exe/rbdock.cxx#4 $)

>  <Rbt.Library>
libRbt.so (2013.1, Build901 2013/11/27)

>  <Rbt.Parameter_File>
/export/apps/rDock/src/rDock_2013.1_src/data/scripts/dock_solv.prm

>  <Rbt.Receptor>
prm/blind_docking_60.prm

>  <SCORE>
16.2903

>  <SCORE.INTER>
-8.18044

>  <SCORE.INTER.CONST>
1

>  <SCORE.INTER.POLAR>
0

>  <SCORE.INTER.ROT>
10

>  <SCORE.INTER.SOLV>
18.3305

>  <SCORE.INTER.VDW>
-21.8305

>  <SCORE.INTER.norm>
-0.340852

>  <SCORE.INTRA>
15.1974

>  <SCORE.INTRA.DIHEDRAL>
25.2926

>  <SCORE.INTRA.DIHEDRAL.0>
7.52971

>  <SCORE.INTRA.POLAR>
0

>  <SCORE.INTRA.POLAR.0>
0

>  <SCORE.INTRA.REPUL>
0

>  <SCORE.INTRA.REPUL.0>
0

>  <SCORE.INTRA.SOLV>
0.428997

>  <SCORE.INTRA.SOLV.lig_0>
-22.1084

>  <SCORE.INTRA.VDW>
2.33661

>  <SCORE.INTRA.VDW.0>
2.4256

>  <SCORE.INTRA.norm>
0.633226

>  <SCORE.RESTR>
9.27329

>  <SCORE.RESTR.CAVITY>
9.27329

>  <SCORE.RESTR.norm>
0.386387

>  <SCORE.SYSTEM>
0

>  <SCORE.SYSTEM.CONST>
0

>  <SCORE.SYSTEM.DIHEDRAL>
0

>  <SCORE.SYSTEM.SOLV>
0

>  <SCORE.SYSTEM.norm>
0

>  <SCORE.heavy>
24

>  <SCORE.norm>
0.678762

>  <RMSD>
17.768

$$$$
lig.pdb
 OpenBabel11021811453D
libRbt.so/2013.1/901 2013/11/27
 24 24  0  0  0  0  0  0  0  0999 V2000
  -11.7836    4.5186    4.1339 C   0  0  0  0  0  0  0  0  0  0  0  0
  -11.0598    4.9604    5.2923 C   0  0  0  0  0  0  0  0  0  0  0  0
  -10.4504    6.1919    5.3384 C   0  0  0  0  0  0  0  0  0  0  0  0
  -10.5132    7.1046    4.2373 C   0  0  0  0  0  0  0  0  0  0  0  0
  -11.2076    6.6485    3.0687 C   0  0  0  0  0  0  0  0  0  0  0  0
  -11.8095    5.4160    3.0186 C   0  0  0  0  0  0  0  0  0  0  0  0
  -12.4193    3.3108    4.0895 C   0  0  0  0  0  0  0  0  0  0  0  0
  -13.5924    3.1254    3.4472 N   0  0  0  0  0  0  0  0  0  0  0  0
  -10.0412    9.1644    5.3521 N   0  0  0  0  0  0  0  0  0  0  0  0
   -9.9436    8.3427    4.2856 C   0  0  0  0  0  0  0  0  0  0  0  0
  -11.9159    2.2019    4.6863 N   0  0  0  0  0  0  0  0  0  0  0  0
   -9.2273    8.8561    3.2574 N   0  0  0  0  0  0  0  0  0  0  0  0
  -12.0075    0.8282    4.1957 C   0  0  0  0  0  0  0  0  0  0  0  0
   -8.2356    9.9234    3.3469 C   0  0  0  0  0  0  0  0  0  0  0  0
  -10.6211    0.4166    3.6745 C   0  0  0  0  0  0  0  0  0  0  0  0
   -6.8396    9.2733    3.3477 C   0  0  0  0  0  0  0  0  0  0  0  0
   -9.5893    0.4035    4.8109 C   0  0  0  0  0  0  0  0  0  0  0  0
   -6.5977    8.3875    4.5833 C   0  0  0  0  0  0  0  0  0  0  0  0
   -8.2748    0.9316    4.2960 N   0  0  0  0  0  0  0  0  0  0  0  0
   -5.9602    9.1661    5.7062 N   0  0  0  0  0  0  0  0  0  0  0  0
   -7.6459   -0.0729    3.3691 C   0  0  0  0  0  0  0  0  0  0  0  0
   -4.4715    8.9483    5.6643 C   0  0  0  0  0  0  0  0  0  0  0  0
   -7.3314    1.2290    5.4350 C   0  0  0  0  0  0  0  0  0  0  0  0
   -6.4773    8.7461    7.0538 C   0  0  0  0  0  0  0  0  0  0  0  0
  1  6  2  0  0  0  0
  2  3  2  0  0  0  0
  2  1  1  0  0  0  0
  3  4  1  0  0  0  0
  4 10  1  0  0  0  0
  4  5  2  0  0  0  0
  6  5  1  0  0  0  0
  7  1  1  0  0  0  0
  7 11  1  0  0  0  0
  8  7  2  0  0  0  0
  9 10  2  0  0  0  0
 10 12  1  0  0  0  0
 12 14  1  0  0  0  0
 13 11  1  0  0  0  0
 13 15  1  0  0  0  0
 14 16  1  0  0  0  0
 16 18  1  0  0  0  0
 17 15  1  0  0  0  0
 17 19  1  0  0  0  0
 18 20  1  0  0  0  0
 19 23  1  0  0  0  0
 20 22  1  0  0  0  0
 20 24  1  0  0  0  0
 21 19  1  0  0  0  0
M  END
>  <CHROM.1>
-43.77561658,144.01108013,100.33216440,106.76384960,63.73678359,-64.11655822
-91.60579492,-141.56028191,-71.46730971,-96.38258322,-9.42785196,5.32499672
4.42313444,1.98693569,0.22260117,3.13445235

>  <Name>
lig.pdb

>  <RI>
2.62193e+07

>  <Rbt.Current_Directory>
/home/itssahil/PROJECTS/Mol_Feturizer/New_Systems/rnas/2l94

>  <Rbt.Executable>
rbdock ($Id: //depot/dev/client3/rdock/2013.1/src/exe/rbdock.cxx#4 $)

>  <Rbt.Library>
libRbt.so (2013.1, Build901 2013/11/27)

>  <Rbt.Parameter_File>
/export/apps/rDock/src/rDock_2013.1_src/data/scripts/dock_solv.prm

>  <Rbt.Receptor>
prm/blind_docking_60.prm

>  <SCORE>
7.27182

>  <SCORE.INTER>
-7.46212

>  <SCORE.INTER.CONST>
1

>  <SCORE.INTER.POLAR>
-0.684013

>  <SCORE.INTER.ROT>
10

>  <SCORE.INTER.SOLV>
18.1476

>  <SCORE.INTER.VDW>
-19.0106

>  <SCORE.INTER.norm>
-0.310922

>  <SCORE.INTRA>
5.25189

>  <SCORE.INTRA.DIHEDRAL>
17.6964

>  <SCORE.INTRA.DIHEDRAL.0>
7.52971

>  <SCORE.INTRA.POLAR>
0

>  <SCORE.INTRA.POLAR.0>
0

>  <SCORE.INTRA.REPUL>
0

>  <SCORE.INTRA.REPUL.0>
0

>  <SCORE.INTRA.SOLV>
0.830983

>  <SCORE.INTRA.SOLV.lig_0>
-22.1084

>  <SCORE.INTRA.VDW>
-4.01183

>  <SCORE.INTRA.VDW.0>
2.4256

>  <SCORE.INTRA.norm>
0.218829

>  <SCORE.RESTR>
9.48205

>  <SCORE.RESTR.CAVITY>
9.48205

>  <SCORE.RESTR.norm>
0.395086

>  <SCORE.SYSTEM>
0

>  <SCORE.SYSTEM.CONST>
0

>  <SCORE.SYSTEM.DIHEDRAL>
0

>  <SCORE.SYSTEM.SOLV>
0

>  <SCORE.SYSTEM.norm>
0

>  <SCORE.heavy>
24

>  <SCORE.norm>
0.302992

>  <RMSD>
17.786

$$$$
lig.pdb
 OpenBabel11021811453D
libRbt.so/2013.1/901 2013/11/27
 24 24  0  0  0  0  0  0  0  0999 V2000
   -9.0586    9.1629    3.3606 C   0  0  0  0  0  0  0  0  0  0  0  0
   -7.9835    9.9656    2.8499 C   0  0  0  0  0  0  0  0  0  0  0  0
   -6.7021    9.8520    3.3350 C   0  0  0  0  0  0  0  0  0  0  0  0
   -6.3686    8.9198    4.3691 C   0  0  0  0  0  0  0  0  0  0  0  0
   -7.4497    8.1429    4.9014 C   0  0  0  0  0  0  0  0  0  0  0  0
   -8.7308    8.2612    4.4235 C   0  0  0  0  0  0  0  0  0  0  0  0
  -10.3280    9.2450    2.8640 C   0  0  0  0  0  0  0  0  0  0  0  0
  -11.3028    8.3739    3.2017 N   0  0  0  0  0  0  0  0  0  0  0  0
   -4.1285    9.6994    4.6564 N   0  0  0  0  0  0  0  0  0  0  0  0
   -5.0945    8.7731    4.8324 C   0  0  0  0  0  0  0  0  0  0  0  0
  -10.7071   10.2140    1.9943 N   0  0  0  0  0  0  0  0  0  0  0  0
   -4.6883    7.6747    5.5126 N   0  0  0  0  0  0  0  0  0  0  0  0
  -12.0108   10.8719    1.9337 C   0  0  0  0  0  0  0  0  0  0  0  0
   -3.5403    7.5934    6.4104 C   0  0  0  0  0  0  0  0  0  0  0  0
  -12.1207   11.8203    3.1385 C   0  0  0  0  0  0  0  0  0  0  0  0
   -3.4089    8.9465    7.1341 C   0  0  0  0  0  0  0  0  0  0  0  0
  -10.9881   12.8562    3.1266 C   0  0  0  0  0  0  0  0  0  0  0  0
   -4.7717    9.6075    7.4092 C   0  0  0  0  0  0  0  0  0  0  0  0
  -10.5271   13.1061    4.5397 N   0  0  0  0  0  0  0  0  0  0  0  0
   -5.4426    9.0095    8.6198 N   0  0  0  0  0  0  0  0  0  0  0  0
   -9.5767   14.2720    4.5709 C   0  0  0  0  0  0  0  0  0  0  0  0
   -6.2841    7.8411    8.1812 C   0  0  0  0  0  0  0  0  0  0  0  0
   -9.8480   11.8846    5.1079 C   0  0  0  0  0  0  0  0  0  0  0  0
   -6.3188   10.0019    9.3321 C   0  0  0  0  0  0  0  0  0  0  0  0
  1  6  2  0  0  0  0
  2  3  2  0  0  0  0
  2  1  1  0  0  0  0
  3  4  1  0  0  0  0
  4 10  1  0  0  0  0
  4  5  2  0  0  0  0
  6  5  1  0  0  0  0
  7  1  1  0  0  0  0
  7 11  1  0  0  0  0
  8  7  2  0  0  0  0
  9 10  2  0  0  0  0
 10 12  1  0  0  0  0
 12 14  1  0  0  0  0
 13 11  1  0  0  0  0
 13 15  1  0  0  0  0
 14 16  1  0  0  0  0
 16 18  1  0  0  0  0
 17 15  1  0  0  0  0
 17 19  1  0  0  0  0
 18 20  1  0  0  0  0
 19 23  1  0  0  0  0
 20 22  1  0  0  0  0
 20 24  1  0  0  0  0
 21 19  1  0  0  0  0
M  END
>  <CHROM.1>
19.00898176,170.57496008,34.63358953,72.72441509,58.46429439,33.90108541
79.88283437,-142.26665631,-170.97328077,-89.41806155,-7.81242607,9.87069111
4.87853128,-3.06615696,-0.64035446,0.73837955

>  <Name>
lig.pdb

>  <RI>
2.62193e+07

>  <Rbt.Current_Directory>
/home/itssahil/PROJECTS/Mol_Feturizer/New_Systems/rnas/2l94

>  <Rbt.Executable>
rbdock ($Id: //depot/dev/client3/rdock/2013.1/src/exe/rbdock.cxx#4 $)

>  <Rbt.Library>
libRbt.so (2013.1, Build901 2013/11/27)

>  <Rbt.Parameter_File>
/export/apps/rDock/src/rDock_2013.1_src/data/scripts/dock_solv.prm

>  <Rbt.Receptor>
prm/blind_docking_60.prm

>  <SCORE>
4.50797

>  <SCORE.INTER>
-12.9888

>  <SCORE.INTER.CONST>
1

>  <SCORE.INTER.POLAR>
-2.28411

>  <SCORE.INTER.ROT>
10

>  <SCORE.INTER.SOLV>
21.5196

>  <SCORE.INTER.VDW>
-18.4853

>  <SCORE.INTER.norm>
-0.541199

>  <SCORE.INTRA>
8.54986

>  <SCORE.INTRA.DIHEDRAL>
8.38592

>  <SCORE.INTRA.DIHEDRAL.0>
7.52971

>  <SCORE.INTRA.POLAR>
0

>  <SCORE.INTRA.POLAR.0>
0

>  <SCORE.INTRA.REPUL>
0

>  <SCORE.INTRA.REPUL.0>
0

>  <SCORE.INTRA.SOLV>
2.32299

>  <SCORE.INTRA.SOLV.lig_0>
-22.1084

>  <SCORE.INTRA.VDW>
3.19541

>  <SCORE.INTRA.VDW.0>
2.4256

>  <SCORE.INTRA.norm>
0.356244

>  <SCORE.RESTR>
8.94688

>  <SCORE.RESTR.CAVITY>
8.94688

>  <SCORE.RESTR.norm>
0.372787

>  <SCORE.SYSTEM>
0

>  <SCORE.SYSTEM.CONST>
0

>  <SCORE.SYSTEM.DIHEDRAL>
0

>  <SCORE.SYSTEM.SOLV>
0

>  <SCORE.SYSTEM.norm>
0

>  <SCORE.heavy>
24

>  <SCORE.norm>
0.187832

>  <RMSD>
17.823

$$$$
lig.pdb
 OpenBabel11021811453D
libRbt.so/2013.1/901 2013/11/27
 24 24  0  0  0  0  0  0  0  0999 V2000
  -10.7385    7.1998    3.2401 C   0  0  0  0  0  0  0  0  0  0  0  0
  -10.5674    6.4739    4.4668 C   0  0  0  0  0  0  0  0  0  0  0  0
  -11.1691    5.2557    4.6765 C   0  0  0  0  0  0  0  0  0  0  0  0
  -11.9910    4.6403    3.6789 C   0  0  0  0  0  0  0  0  0  0  0  0
  -12.1882    5.3818    2.4677 C   0  0  0  0  0  0  0  0  0  0  0  0
  -11.5945    6.6017    2.2604 C   0  0  0  0  0  0  0  0  0  0  0  0
  -10.1199    8.3951    3.0090 C   0  0  0  0  0  0  0  0  0  0  0  0
  -10.6188    9.3256    2.1674 N   0  0  0  0  0  0  0  0  0  0  0  0
  -13.8168    3.1145    3.4628 N   0  0  0  0  0  0  0  0  0  0  0  0
  -12.5630    3.4160    3.8620 C   0  0  0  0  0  0  0  0  0  0  0  0
   -8.9558    8.7399    3.6131 N   0  0  0  0  0  0  0  0  0  0  0  0
  -11.9152    2.3919    4.4667 N   0  0  0  0  0  0  0  0  0  0  0  0
   -8.5632   10.0770    4.0541 C   0  0  0  0  0  0  0  0  0  0  0  0
  -12.2281    0.9730    4.3275 C   0  0  0  0  0  0  0  0  0  0  0  0
   -7.6174    9.9220    5.2559 C   0  0  0  0  0  0  0  0  0  0  0  0
  -10.9490    0.1738    4.6390 C   0  0  0  0  0  0  0  0  0  0  0  0
   -6.3459    9.1592    4.8589 C   0  0  0  0  0  0  0  0  0  0  0  0
   -9.9128    0.2451    3.5028 C   0  0  0  0  0  0  0  0  0  0  0  0
   -6.2283    7.9150    5.7014 N   0  0  0  0  0  0  0  0  0  0  0  0
   -8.5045    0.1357    4.0304 N   0  0  0  0  0  0  0  0  0  0  0  0
   -5.7771    8.2764    7.0903 C   0  0  0  0  0  0  0  0  0  0  0  0
   -8.2686    1.2459    5.0190 C   0  0  0  0  0  0  0  0  0  0  0  0
   -5.2517    6.9414    5.0894 C   0  0  0  0  0  0  0  0  0  0  0  0
   -7.4787    0.2308    2.9357 C   0  0  0  0  0  0  0  0  0  0  0  0
  1  6  2  0  0  0  0
  2  3  2  0  0  0  0
  2  1  1  0  0  0  0
  3  4  1  0  0  0  0
  4 10  1  0  0  0  0
  4  5  2  0  0  0  0
  6  5  1  0  0  0  0
  7  1  1  0  0  0  0
  7 11  1  0  0  0  0
  8  7  2  0  0  0  0
  9 10  2  0  0  0  0
 10 12  1  0  0  0  0
 12 14  1  0  0  0  0
 13 11  1  0  0  0  0
 13 15  1  0  0  0  0
 14 16  1  0  0  0  0
 16 18  1  0  0  0  0
 17 15  1  0  0  0  0
 17 19  1  0  0  0  0
 18 20  1  0  0  0  0
 19 23  1  0  0  0  0
 20 22  1  0  0  0  0
 20 24  1  0  0  0  0
 21 19  1  0  0  0  0
M  END
>  <CHROM.1>
140.09687842,-153.47738940,155.42525335,150.88482771,61.73308001,-74.31188977
149.90401154,-120.70404183,-75.48413673,-58.23316820,-9.65042869,5.22475887
4.10255362,1.17453172,-0.34228337,-0.05379255

>  <Name>
lig.pdb

>  <RI>
2.62193e+07

>  <Rbt.Current_Directory>
/home/itssahil/PROJECTS/Mol_Feturizer/New_Systems/rnas/2l94

>  <Rbt.Executable>
rbdock ($Id: //depot/dev/client3/rdock/2013.1/src/exe/rbdock.cxx#4 $)

>  <Rbt.Library>
libRbt.so (2013.1, Build901 2013/11/27)

>  <Rbt.Parameter_File>
/export/apps/rDock/src/rDock_2013.1_src/data/scripts/dock_solv.prm

>  <Rbt.Receptor>
prm/blind_docking_60.prm

>  <SCORE>
1.59455

>  <SCORE.INTER>
-14.1648

>  <SCORE.INTER.CONST>
1

>  <SCORE.INTER.POLAR>
-1.681

>  <SCORE.INTER.ROT>
10

>  <SCORE.INTER.SOLV>
20.4669

>  <SCORE.INTER.VDW>
-20.9289

>  <SCORE.INTER.norm>
-0.590201

>  <SCORE.INTRA>
6.87538

>  <SCORE.INTRA.DIHEDRAL>
14.6803

>  <SCORE.INTRA.DIHEDRAL.0>
7.52971

>  <SCORE.INTRA.POLAR>
0

>  <SCORE.INTRA.POLAR.0>
0

>  <SCORE.INTRA.REPUL>
0

>  <SCORE.INTRA.REPUL.0>
0

>  <SCORE.INTRA.SOLV>
0.589754

>  <SCORE.INTRA.SOLV.lig_0>
-22.1084

>  <SCORE.INTRA.VDW>
-0.759657

>  <SCORE.INTRA.VDW.0>
2.4256

>  <SCORE.INTRA.norm>
0.286474

>  <SCORE.RESTR>
8.88398

>  <SCORE.RESTR.CAVITY>
8.88398

>  <SCORE.RESTR.norm>
0.370166

>  <SCORE.SYSTEM>
0

>  <SCORE.SYSTEM.CONST>
0

>  <SCORE.SYSTEM.DIHEDRAL>
0

>  <SCORE.SYSTEM.SOLV>
0

>  <SCORE.SYSTEM.norm>
0

>  <SCORE.heavy>
24

>  <SCORE.norm>
0.0664395

>  <RMSD>
17.873

$$$$
lig.pdb
 OpenBabel11021811453D
libRbt.so/2013.1/901 2013/11/27
 24 24  0  0  0  0  0  0  0  0999 V2000
   -8.9363    9.2204    3.2187 C   0  0  0  0  0  0  0  0  0  0  0  0
   -8.6798    8.2851    4.2772 C   0  0  0  0  0  0  0  0  0  0  0  0
   -7.4227    8.1218    4.8095 C   0  0  0  0  0  0  0  0  0  0  0  0
   -6.3033    8.8829    4.3437 C   0  0  0  0  0  0  0  0  0  0  0  0
   -6.5542    9.7921    3.2638 C   0  0  0  0  0  0  0  0  0  0  0  0
   -7.8071    9.9501    2.7261 C   0  0  0  0  0  0  0  0  0  0  0  0
  -10.1867    9.4133    2.7047 C   0  0  0  0  0  0  0  0  0  0  0  0
  -11.0350    8.3956    2.4444 N   0  0  0  0  0  0  0  0  0  0  0  0
   -4.1396    9.7428    4.8795 N   0  0  0  0  0  0  0  0  0  0  0  0
   -5.0599    8.7553    4.8888 C   0  0  0  0  0  0  0  0  0  0  0  0
  -10.6733   10.6467    2.4202 N   0  0  0  0  0  0  0  0  0  0  0  0
   -4.6406    7.6160    5.4890 N   0  0  0  0  0  0  0  0  0  0  0  0
  -12.0562   11.0958    2.5692 C   0  0  0  0  0  0  0  0  0  0  0  0
   -3.5582    7.5032    6.4618 C   0  0  0  0  0  0  0  0  0  0  0  0
  -12.2279   11.6386    3.9972 C   0  0  0  0  0  0  0  0  0  0  0  0
   -4.1703    7.6382    7.8685 C   0  0  0  0  0  0  0  0  0  0  0  0
  -11.5859   13.0256    4.1381 C   0  0  0  0  0  0  0  0  0  0  0  0
   -4.9737    8.9396    8.0441 C   0  0  0  0  0  0  0  0  0  0  0  0
  -10.1051   12.8675    4.3706 N   0  0  0  0  0  0  0  0  0  0  0  0
   -6.4489    8.7124    7.8305 N   0  0  0  0  0  0  0  0  0  0  0  0
   -9.8647   12.0515    5.6115 C   0  0  0  0  0  0  0  0  0  0  0  0
   -7.1105   10.0374    7.5618 C   0  0  0  0  0  0  0  0  0  0  0  0
   -9.4362   14.2123    4.5120 C   0  0  0  0  0  0  0  0  0  0  0  0
   -7.1037    8.0727    9.0229 C   0  0  0  0  0  0  0  0  0  0  0  0
  1  6  2  0  0  0  0
  2  3  2  0  0  0  0
  2  1  1  0  0  0  0
  3  4  1  0  0  0  0
  4 10  1  0  0  0  0
  4  5  2  0  0  0  0
  6  5  1  0  0  0  0
  7  1  1  0  0  0  0
  7 11  1  0  0  0  0
  8  7  2  0  0  0  0
  9 10  2  0  0  0  0
 10 12  1  0  0  0  0
 12 14  1  0  0  0  0
 13 11  1  0  0  0  0
 13 15  1  0  0  0  0
 14 16  1  0  0  0  0
 16 18  1  0  0  0  0
 17 15  1  0  0  0  0
 17 19  1  0  0  0  0
 18 20  1  0  0  0  0
 19 23  1  0  0  0  0
 20 22  1  0  0  0  0
 20 24  1  0  0  0  0
 21 19  1  0  0  0  0
M  END
>  <CHROM.1>
-153.26589007,-42.41099624,91.99766683,88.62093317,75.71092607,-55.69581261
97.00569309,-82.07056885,-58.75359336,-161.46162255,-7.93133221,9.80715902
4.93491964,-3.01987123,-0.65197506,0.95893491

>  <Name>
lig.pdb

>  <RI>
2.62193e+07

>  <Rbt.Current_Directory>
/home/itssahil/PROJECTS/Mol_Feturizer/New_Systems/rnas/2l94

>  <Rbt.Executable>
rbdock ($Id: //depot/dev/client3/rdock/2013.1/src/exe/rbdock.cxx#4 $)

>  <Rbt.Library>
libRbt.so (2013.1, Build901 2013/11/27)

>  <Rbt.Parameter_File>
/export/apps/rDock/src/rDock_2013.1_src/data/scripts/dock_solv.prm

>  <Rbt.Receptor>
prm/blind_docking_60.prm

>  <SCORE>
-4.92965

>  <SCORE.INTER>
-17.3258

>  <SCORE.INTER.CONST>
1

>  <SCORE.INTER.POLAR>
-2.68399

>  <SCORE.INTER.ROT>
10

>  <SCORE.INTER.SOLV>
19.3773

>  <SCORE.INTER.VDW>
-19.3297

>  <SCORE.INTER.norm>
-0.72191

>  <SCORE.INTRA>
3.95531

>  <SCORE.INTRA.DIHEDRAL>
12.8422

>  <SCORE.INTRA.DIHEDRAL.0>
7.52971

>  <SCORE.INTRA.POLAR>
0

>  <SCORE.INTRA.POLAR.0>
0

>  <SCORE.INTRA.REPUL>
0

>  <SCORE.INTRA.REPUL.0>
0

>  <SCORE.INTRA.SOLV>
2.77907

>  <SCORE.INTRA.SOLV.lig_0>
-22.1084

>  <SCORE.INTRA.VDW>
-3.8553

>  <SCORE.INTRA.VDW.0>
2.4256

>  <SCORE.INTRA.norm>
0.164805

>  <SCORE.RESTR>
8.44087

>  <SCORE.RESTR.CAVITY>
8.44087

>  <SCORE.RESTR.norm>
0.351703

>  <SCORE.SYSTEM>
0

>  <SCORE.SYSTEM.CONST>
0

>  <SCORE.SYSTEM.DIHEDRAL>
0

>  <SCORE.SYSTEM.SOLV>
0

>  <SCORE.SYSTEM.norm>
0

>  <SCORE.heavy>
24

>  <SCORE.norm>
-0.205402

>  <RMSD>
17.907

$$$$
lig.pdb
 OpenBabel11021811453D
libRbt.so/2013.1/901 2013/11/27
 24 24  0  0  0  0  0  0  0  0999 V2000
  -11.9651    5.4743    3.1807 C   0  0  0  0  0  0  0  0  0  0  0  0
  -11.2285    5.8523    4.3536 C   0  0  0  0  0  0  0  0  0  0  0  0
  -10.4236    6.9667    4.3745 C   0  0  0  0  0  0  0  0  0  0  0  0
  -10.2842    7.8162    3.2308 C   0  0  0  0  0  0  0  0  0  0  0  0
  -10.9938    7.4188    2.0499 C   0  0  0  0  0  0  0  0  0  0  0  0
  -11.7912    6.3021    2.0254 C   0  0  0  0  0  0  0  0  0  0  0  0
  -12.7920    4.3878    3.1590 C   0  0  0  0  0  0  0  0  0  0  0  0
  -13.6575    4.1480    2.1508 N   0  0  0  0  0  0  0  0  0  0  0  0
   -9.9664   10.1549    2.8597 N   0  0  0  0  0  0  0  0  0  0  0  0
   -9.5174    8.9437    3.2516 C   0  0  0  0  0  0  0  0  0  0  0  0
  -12.8028    3.4626    4.1504 N   0  0  0  0  0  0  0  0  0  0  0  0
   -8.2293    8.9416    3.6695 N   0  0  0  0  0  0  0  0  0  0  0  0
  -13.0115    2.0238    4.0001 C   0  0  0  0  0  0  0  0  0  0  0  0
   -7.4767   10.0977    4.1464 C   0  0  0  0  0  0  0  0  0  0  0  0
  -11.7764    1.3032    4.5643 C   0  0  0  0  0  0  0  0  0  0  0  0
   -6.0314    9.6415    4.4196 C   0  0  0  0  0  0  0  0  0  0  0  0
  -11.0505    0.5157    3.4648 C   0  0  0  0  0  0  0  0  0  0  0  0
   -5.9621    8.4006    5.3280 C   0  0  0  0  0  0  0  0  0  0  0  0
   -9.6554    0.1838    3.9286 N   0  0  0  0  0  0  0  0  0  0  0  0
   -4.5430    7.9227    5.5048 N   0  0  0  0  0  0  0  0  0  0  0  0
   -8.6547    0.6030    2.8864 C   0  0  0  0  0  0  0  0  0  0  0  0
   -4.5652    6.4714    5.9029 C   0  0  0  0  0  0  0  0  0  0  0  0
   -9.5156   -1.2940    4.1986 C   0  0  0  0  0  0  0  0  0  0  0  0
   -3.8066    8.7059    6.5557 C   0  0  0  0  0  0  0  0  0  0  0  0
  1  6  2  0  0  0  0
  2  3  2  0  0  0  0
  2  1  1  0  0  0  0
  3  4  1  0  0  0  0
  4 10  1  0  0  0  0
  4  5  2  0  0  0  0
  6  5  1  0  0  0  0
  7  1  1  0  0  0  0
  7 11  1  0  0  0  0
  8  7  2  0  0  0  0
  9 10  2  0  0  0  0
 10 12  1  0  0  0  0
 12 14  1  0  0  0  0
 13 11  1  0  0  0  0
 13 15  1  0  0  0  0
 14 16  1  0  0  0  0
 16 18  1  0  0  0  0
 17 15  1  0  0  0  0
 17 19  1  0  0  0  0
 18 20  1  0  0  0  0
 19 23  1  0  0  0  0
 20 22  1  0  0  0  0
 20 24  1  0  0  0  0
 21 19  1  0  0  0  0
M  END
>  <CHROM.1>
-128.38009651,168.50006283,-176.17895750,121.38163202,-116.81846989,-51.96518918
176.26588773,162.74262991,-128.73099416,-157.63792546,-9.49627124,5.55578737
3.91441161,2.21282901,0.35271320,3.04586930

>  <Name>
lig.pdb

>  <RI>
2.62193e+07

>  <Rbt.Current_Directory>
/home/itssahil/PROJECTS/Mol_Feturizer/New_Systems/rnas/2l94

>  <Rbt.Executable>
rbdock ($Id: //depot/dev/client3/rdock/2013.1/src/exe/rbdock.cxx#4 $)

>  <Rbt.Library>
libRbt.so (2013.1, Build901 2013/11/27)

>  <Rbt.Parameter_File>
/export/apps/rDock/src/rDock_2013.1_src/data/scripts/dock_solv.prm

>  <Rbt.Receptor>
prm/blind_docking_60.prm

>  <SCORE>
21.6927

>  <SCORE.INTER>
3.68693

>  <SCORE.INTER.CONST>
1

>  <SCORE.INTER.POLAR>
-2.51053

>  <SCORE.INTER.ROT>
10

>  <SCORE.INTER.SOLV>
20.6983

>  <SCORE.INTER.VDW>
-6.33972

>  <SCORE.INTER.norm>
0.153622

>  <SCORE.INTRA>
6.50135

>  <SCORE.INTRA.DIHEDRAL>
16.9154

>  <SCORE.INTRA.DIHEDRAL.0>
7.52971

>  <SCORE.INTRA.POLAR>
0

>  <SCORE.INTRA.POLAR.0>
0

>  <SCORE.INTRA.REPUL>
0

>  <SCORE.INTRA.REPUL.0>
0

>  <SCORE.INTRA.SOLV>
-0.0430462

>  <SCORE.INTRA.SOLV.lig_0>
-22.1084

>  <SCORE.INTRA.VDW>
-1.9348

>  <SCORE.INTRA.VDW.0>
2.4256

>  <SCORE.INTRA.norm>
0.27089

>  <SCORE.RESTR>
11.5044

>  <SCORE.RESTR.CAVITY>
11.5044

>  <SCORE.RESTR.norm>
0.479351

>  <SCORE.SYSTEM>
0

>  <SCORE.SYSTEM.CONST>
0

>  <SCORE.SYSTEM.DIHEDRAL>
0

>  <SCORE.SYSTEM.SOLV>
0

>  <SCORE.SYSTEM.norm>
0

>  <SCORE.heavy>
24

>  <SCORE.norm>
0.903863

>  <RMSD>
17.910

$$$$
lig.pdb
 OpenBabel11021811453D
libRbt.so/2013.1/901 2013/11/27
 24 24  0  0  0  0  0  0  0  0999 V2000
   -9.2896    8.6030    3.9527 C   0  0  0  0  0  0  0  0  0  0  0  0
  -10.0703    7.8536    4.8961 C   0  0  0  0  0  0  0  0  0  0  0  0
  -11.1089    7.0463    4.4963 C   0  0  0  0  0  0  0  0  0  0  0  0
  -11.4617    6.9016    3.1165 C   0  0  0  0  0  0  0  0  0  0  0  0
  -10.7030    7.6766    2.1787 C   0  0  0  0  0  0  0  0  0  0  0  0
   -9.6712    8.4891    2.5774 C   0  0  0  0  0  0  0  0  0  0  0  0
   -8.2361    9.3827    4.3360 C   0  0  0  0  0  0  0  0  0  0  0  0
   -8.3090   10.2568    5.3625 N   0  0  0  0  0  0  0  0  0  0  0  0
  -12.4544    5.4221    1.5246 N   0  0  0  0  0  0  0  0  0  0  0  0
  -12.4662    6.0758    2.7056 C   0  0  0  0  0  0  0  0  0  0  0  0
   -7.0318    9.3341    3.7145 N   0  0  0  0  0  0  0  0  0  0  0  0
  -13.5700    5.8422    3.4545 N   0  0  0  0  0  0  0  0  0  0  0  0
   -5.7193    9.4837    4.3401 C   0  0  0  0  0  0  0  0  0  0  0  0
  -14.4590    4.6900    3.3420 C   0  0  0  0  0  0  0  0  0  0  0  0
   -5.4079    8.1878    5.1060 C   0  0  0  0  0  0  0  0  0  0  0  0
  -13.9690    3.6160    4.3311 C   0  0  0  0  0  0  0  0  0  0  0  0
   -3.8950    8.0140    5.2982 C   0  0  0  0  0  0  0  0  0  0  0  0
  -12.8682    2.7191    3.7364 C   0  0  0  0  0  0  0  0  0  0  0  0
   -3.5175    8.4441    6.6926 N   0  0  0  0  0  0  0  0  0  0  0  0
  -12.1395    1.9516    4.8104 N   0  0  0  0  0  0  0  0  0  0  0  0
   -4.0513    7.4582    7.6959 C   0  0  0  0  0  0  0  0  0  0  0  0
  -11.1987    2.8864    5.5221 C   0  0  0  0  0  0  0  0  0  0  0  0
   -4.0594    9.8188    6.9966 C   0  0  0  0  0  0  0  0  0  0  0  0
  -11.3523    0.7997    4.2505 C   0  0  0  0  0  0  0  0  0  0  0  0
  1  6  2  0  0  0  0
  2  3  2  0  0  0  0
  2  1  1  0  0  0  0
  3  4  1  0  0  0  0
  4 10  1  0  0  0  0
  4  5  2  0  0  0  0
  6  5  1  0  0  0  0
  7  1  1  0  0  0  0
  7 11  1  0  0  0  0
  8  7  2  0  0  0  0
  9 10  2  0  0  0  0
 10 12  1  0  0  0  0
 12 14  1  0  0  0  0
 13 11  1  0  0  0  0
 13 15  1  0  0  0  0
 14 16  1  0  0  0  0
 16 18  1  0  0  0  0
 17 15  1  0  0  0  0
 17 19  1  0  0  0  0
 18 20  1  0  0  0  0
 19 23  1  0  0  0  0
 20 22  1  0  0  0  0
 20 24  1  0  0  0  0
 21 19  1  0  0  0  0
M  END
>  <CHROM.1>
-147.63271634,-47.60947081,92.60254563,74.57434009,156.83263121,-85.80033026
163.91055456,99.99693979,69.91730296,-75.79429066,-9.41057519,6.66209027
4.39620099,0.43732663,-0.44962240,-0.35658811

>  <Name>
lig.pdb

>  <RI>
2.62193e+07

>  <Rbt.Current_Directory>
/home/itssahil/PROJECTS/Mol_Feturizer/New_Systems/rnas/2l94

>  <Rbt.Executable>
rbdock ($Id: //depot/dev/client3/rdock/2013.1/src/exe/rbdock.cxx#4 $)

>  <Rbt.Library>
libRbt.so (2013.1, Build901 2013/11/27)

>  <Rbt.Parameter_File>
/export/apps/rDock/src/rDock_2013.1_src/data/scripts/dock_solv.prm

>  <Rbt.Receptor>
prm/blind_docking_60.prm

>  <SCORE>
15.2487

>  <SCORE.INTER>
-8.60629

>  <SCORE.INTER.CONST>
1

>  <SCORE.INTER.POLAR>
-1.82446

>  <SCORE.INTER.ROT>
10

>  <SCORE.INTER.SOLV>
18.6641

>  <SCORE.INTER.VDW>
-16.144

>  <SCORE.INTER.norm>
-0.358595

>  <SCORE.INTRA>
9.38545

>  <SCORE.INTRA.DIHEDRAL>
17.832

>  <SCORE.INTRA.DIHEDRAL.0>
7.52971

>  <SCORE.INTRA.POLAR>
0

>  <SCORE.INTRA.POLAR.0>
0

>  <SCORE.INTRA.REPUL>
0

>  <SCORE.INTRA.REPUL.0>
0

>  <SCORE.INTRA.SOLV>
0.407534

>  <SCORE.INTRA.SOLV.lig_0>
-22.1084

>  <SCORE.INTRA.VDW>
0.265667

>  <SCORE.INTRA.VDW.0>
2.4256

>  <SCORE.INTRA.norm>
0.39106

>  <SCORE.RESTR>
14.4695

>  <SCORE.RESTR.CAVITY>
14.4695

>  <SCORE.RESTR.norm>
0.602897

>  <SCORE.SYSTEM>
0

>  <SCORE.SYSTEM.CONST>
0

>  <SCORE.SYSTEM.DIHEDRAL>
0

>  <SCORE.SYSTEM.SOLV>
0

>  <SCORE.SYSTEM.norm>
0

>  <SCORE.heavy>
24

>  <SCORE.norm>
0.635362

>  <RMSD>
17.945

$$$$
lig.pdb
 OpenBabel11021811453D
libRbt.so/2013.1/901 2013/11/27
 24 24  0  0  0  0  0  0  0  0999 V2000
   -8.8765    9.3361    3.4894 C   0  0  0  0  0  0  0  0  0  0  0  0
   -7.7120   10.1261    3.2051 C   0  0  0  0  0  0  0  0  0  0  0  0
   -6.4855    9.8294    3.7509 C   0  0  0  0  0  0  0  0  0  0  0  0
   -6.3012    8.7105    4.6246 C   0  0  0  0  0  0  0  0  0  0  0  0
   -7.4717    7.9425    4.9343 C   0  0  0  0  0  0  0  0  0  0  0  0
   -8.6982    8.2426    4.3965 C   0  0  0  0  0  0  0  0  0  0  0  0
  -10.0923    9.6029    2.9277 C   0  0  0  0  0  0  0  0  0  0  0  0
  -10.9515    8.6324    2.5495 N   0  0  0  0  0  0  0  0  0  0  0  0
   -4.0034    9.1933    5.0668 N   0  0  0  0  0  0  0  0  0  0  0  0
   -5.0823    8.3855    5.1426 C   0  0  0  0  0  0  0  0  0  0  0  0
  -10.5309   10.8676    2.7106 N   0  0  0  0  0  0  0  0  0  0  0  0
   -4.8504    7.2137    5.7807 N   0  0  0  0  0  0  0  0  0  0  0  0
  -11.9077   11.3456    2.8214 C   0  0  0  0  0  0  0  0  0  0  0  0
   -3.7733    6.9481    6.7292 C   0  0  0  0  0  0  0  0  0  0  0  0
  -11.8736   12.8810    2.8859 C   0  0  0  0  0  0  0  0  0  0  0  0
   -4.2067    7.4943    8.1023 C   0  0  0  0  0  0  0  0  0  0  0  0
  -10.6038   13.3725    3.5944 C   0  0  0  0  0  0  0  0  0  0  0  0
   -4.9525    8.8370    7.9988 C   0  0  0  0  0  0  0  0  0  0  0  0
  -10.7217   13.1016    5.0724 N   0  0  0  0  0  0  0  0  0  0  0  0
   -6.4465    8.6381    7.9541 N   0  0  0  0  0  0  0  0  0  0  0  0
  -10.2768   14.3087    5.8525 C   0  0  0  0  0  0  0  0  0  0  0  0
   -7.1044    9.9617    7.6699 C   0  0  0  0  0  0  0  0  0  0  0  0
   -9.8886   11.9079    5.4686 C   0  0  0  0  0  0  0  0  0  0  0  0
   -6.9860    8.0925    9.2468 C   0  0  0  0  0  0  0  0  0  0  0  0
  1  6  2  0  0  0  0
  2  3  2  0  0  0  0
  2  1  1  0  0  0  0
  3  4  1  0  0  0  0
  4 10  1  0  0  0  0
  4  5  2  0  0  0  0
  6  5  1  0  0  0  0
  7  1  1  0  0  0  0
  7 11  1  0  0  0  0
  8  7  2  0  0  0  0
  9 10  2  0  0  0  0
 10 12  1  0  0  0  0
 12 14  1  0  0  0  0
 13 11  1  0  0  0  0
 13 15  1  0  0  0  0
 14 16  1  0  0  0  0
 16 18  1  0  0  0  0
 17 15  1  0  0  0  0
 17 19  1  0  0  0  0
 18 20  1  0  0  0  0
 19 23  1  0  0  0  0
 20 22  1  0  0  0  0
 20 24  1  0  0  0  0
 21 19  1  0  0  0  0
M  END
>  <CHROM.1>
11.31616750,142.93254315,81.29955493,163.99392329,-32.38219441,-39.39670339
94.27824362,-72.96716240,-135.07524439,-172.55487999,-7.92810187,9.82193554
5.12729343,-3.07796142,-0.72017700,0.96582215

>  <Name>
lig.pdb

>  <RI>
2.62193e+07

>  <Rbt.Current_Directory>
/home/itssahil/PROJECTS/Mol_Feturizer/New_Systems/rnas/2l94

>  <Rbt.Executable>
rbdock ($Id: //depot/dev/client3/rdock/2013.1/src/exe/rbdock.cxx#4 $)

>  <Rbt.Library>
libRbt.so (2013.1, Build901 2013/11/27)

>  <Rbt.Parameter_File>
/export/apps/rDock/src/rDock_2013.1_src/data/scripts/dock_solv.prm

>  <Rbt.Receptor>
prm/blind_docking_60.prm

>  <SCORE>
7.77207

>  <SCORE.INTER>
-9.20866

>  <SCORE.INTER.CONST>
1

>  <SCORE.INTER.POLAR>
-1.31391

>  <SCORE.INTER.ROT>
10

>  <SCORE.INTER.SOLV>
16.0631

>  <SCORE.INTER.VDW>
-17.3804

>  <SCORE.INTER.norm>
-0.383694

>  <SCORE.INTRA>
8.29785

>  <SCORE.INTRA.DIHEDRAL>
13.3938

>  <SCORE.INTRA.DIHEDRAL.0>
7.52971

>  <SCORE.INTRA.POLAR>
0

>  <SCORE.INTRA.POLAR.0>
0

>  <SCORE.INTRA.REPUL>
0

>  <SCORE.INTRA.REPUL.0>
0

>  <SCORE.INTRA.SOLV>
2.80711

>  <SCORE.INTRA.SOLV.lig_0>
-22.1084

>  <SCORE.INTRA.VDW>
0.197422

>  <SCORE.INTRA.VDW.0>
2.4256

>  <SCORE.INTRA.norm>
0.345744

>  <SCORE.RESTR>
8.68287

>  <SCORE.RESTR.CAVITY>
8.68287

>  <SCORE.RESTR.norm>
0.361786

>  <SCORE.SYSTEM>
0

>  <SCORE.SYSTEM.CONST>
0

>  <SCORE.SYSTEM.DIHEDRAL>
0

>  <SCORE.SYSTEM.SOLV>
0

>  <SCORE.SYSTEM.norm>
0

>  <SCORE.heavy>
24

>  <SCORE.norm>
0.323836

>  <RMSD>
17.952

$$$$
lig.pdb
 OpenBabel11021811453D
libRbt.so/2013.1/901 2013/11/27
 24 24  0  0  0  0  0  0  0  0999 V2000
  -11.9335    4.6250    4.0076 C   0  0  0  0  0  0  0  0  0  0  0  0
  -11.1552    5.1176    5.1087 C   0  0  0  0  0  0  0  0  0  0  0  0
  -10.5340    6.3433    5.0646 C   0  0  0  0  0  0  0  0  0  0  0  0
  -10.6381    7.1992    3.9218 C   0  0  0  0  0  0  0  0  0  0  0  0
  -11.3877    6.6916    2.8100 C   0  0  0  0  0  0  0  0  0  0  0  0
  -12.0015    5.4646    2.8498 C   0  0  0  0  0  0  0  0  0  0  0  0
  -12.5807    3.4233    4.0534 C   0  0  0  0  0  0  0  0  0  0  0  0
  -13.8065    3.2326    3.5204 N   0  0  0  0  0  0  0  0  0  0  0  0
  -10.2769    9.3883    4.8081 N   0  0  0  0  0  0  0  0  0  0  0  0
  -10.0565    8.4320    3.8813 C   0  0  0  0  0  0  0  0  0  0  0  0
  -12.0367    2.3264    4.6364 N   0  0  0  0  0  0  0  0  0  0  0  0
   -9.2029    8.8032    2.8977 N   0  0  0  0  0  0  0  0  0  0  0  0
  -12.1818    0.9404    4.1957 C   0  0  0  0  0  0  0  0  0  0  0  0
   -8.2115    9.8717    2.9756 C   0  0  0  0  0  0  0  0  0  0  0  0
  -10.7784    0.3858    3.9027 C   0  0  0  0  0  0  0  0  0  0  0  0
   -7.5489    9.8019    4.3641 C   0  0  0  0  0  0  0  0  0  0  0  0
  -10.0217    0.0911    5.2052 C   0  0  0  0  0  0  0  0  0  0  0  0
   -6.3785    8.8031    4.4140 C   0  0  0  0  0  0  0  0  0  0  0  0
   -9.0826    1.2314    5.5045 N   0  0  0  0  0  0  0  0  0  0  0  0
   -5.5672    8.9639    5.6747 N   0  0  0  0  0  0  0  0  0  0  0  0
   -7.8507    1.1199    4.6481 C   0  0  0  0  0  0  0  0  0  0  0  0
   -4.2797    8.1988    5.5247 C   0  0  0  0  0  0  0  0  0  0  0  0
   -8.6879    1.2352    6.9606 C   0  0  0  0  0  0  0  0  0  0  0  0
   -6.2967    8.4586    6.8881 C   0  0  0  0  0  0  0  0  0  0  0  0
  1  6  2  0  0  0  0
  2  3  2  0  0  0  0
  2  1  1  0  0  0  0
  3  4  1  0  0  0  0
  4 10  1  0  0  0  0
  4  5  2  0  0  0  0
  6  5  1  0  0  0  0
  7  1  1  0  0  0  0
  7 11  1  0  0  0  0
  8  7  2  0  0  0  0
  9 10  2  0  0  0  0
 10 12  1  0  0  0  0
 12 14  1  0  0  0  0
 13 11  1  0  0  0  0
 13 15  1  0  0  0  0
 14 16  1  0  0  0  0
 16 18  1  0  0  0  0
 17 15  1  0  0  0  0
 17 19  1  0  0  0  0
 18 20  1  0  0  0  0
 19 23  1  0  0  0  0
 20 22  1  0  0  0  0
 20 24  1  0  0  0  0
 21 19  1  0  0  0  0
M  END
>  <CHROM.1>
-54.89418703,141.26279233,41.29729164,120.89093856,74.77829355,85.07701955
167.82784502,-99.13423491,-78.44022978,-167.16488173,-9.61687869,5.41303112
4.52832377,2.07881452,0.37329836,2.95235651

>  <Name>
lig.pdb

>  <RI>
2.62193e+07

>  <Rbt.Current_Directory>
/home/itssahil/PROJECTS/Mol_Feturizer/New_Systems/rnas/2l94

>  <Rbt.Executable>
rbdock ($Id: //depot/dev/client3/rdock/2013.1/src/exe/rbdock.cxx#4 $)

>  <Rbt.Library>
libRbt.so (2013.1, Build901 2013/11/27)

>  <Rbt.Parameter_File>
/export/apps/rDock/src/rDock_2013.1_src/data/scripts/dock_solv.prm

>  <Rbt.Receptor>
prm/blind_docking_60.prm

>  <SCORE>
2.36399

>  <SCORE.INTER>
-14.6865

>  <SCORE.INTER.CONST>
1

>  <SCORE.INTER.POLAR>
-0.727652

>  <SCORE.INTER.ROT>
10

>  <SCORE.INTER.SOLV>
18.5069

>  <SCORE.INTER.VDW>
-23.8011

>  <SCORE.INTER.norm>
-0.611937

>  <SCORE.INTRA>
7.96656

>  <SCORE.INTRA.DIHEDRAL>
19.4274

>  <SCORE.INTRA.DIHEDRAL.0>
7.52971

>  <SCORE.INTRA.POLAR>
0

>  <SCORE.INTRA.POLAR.0>
0

>  <SCORE.INTRA.REPUL>
0

>  <SCORE.INTRA.REPUL.0>
0

>  <SCORE.INTRA.SOLV>
1.05454

>  <SCORE.INTRA.SOLV.lig_0>
-22.1084

>  <SCORE.INTRA.VDW>
-2.27441

>  <SCORE.INTRA.VDW.0>
2.4256

>  <SCORE.INTRA.norm>
0.33194

>  <SCORE.RESTR>
9.08392

>  <SCORE.RESTR.CAVITY>
9.08392

>  <SCORE.RESTR.norm>
0.378497

>  <SCORE.SYSTEM>
0

>  <SCORE.SYSTEM.CONST>
0

>  <SCORE.SYSTEM.DIHEDRAL>
0

>  <SCORE.SYSTEM.SOLV>
0

>  <SCORE.SYSTEM.norm>
0

>  <SCORE.heavy>
24

>  <SCORE.norm>
0.0984996

>  <RMSD>
18.043

$$$$
lig.pdb
 OpenBabel11021811453D
libRbt.so/2013.1/901 2013/11/27
 24 24  0  0  0  0  0  0  0  0999 V2000
   -8.2355    8.8198    3.6211 C   0  0  0  0  0  0  0  0  0  0  0  0
   -9.1936    8.8970    2.5547 C   0  0  0  0  0  0  0  0  0  0  0  0
  -10.3067    8.0907    2.5225 C   0  0  0  0  0  0  0  0  0  0  0  0
  -10.5759    7.1373    3.5559 C   0  0  0  0  0  0  0  0  0  0  0  0
   -9.6010    7.0379    4.6025 C   0  0  0  0  0  0  0  0  0  0  0  0
   -8.4852    7.8366    4.6316 C   0  0  0  0  0  0  0  0  0  0  0  0
   -7.1435    9.6377    3.6794 C   0  0  0  0  0  0  0  0  0  0  0  0
   -7.2140   10.9679    3.4586 N   0  0  0  0  0  0  0  0  0  0  0  0
  -12.7174    6.5297    2.6882 N   0  0  0  0  0  0  0  0  0  0  0  0
  -11.6951    6.3583    3.5529 C   0  0  0  0  0  0  0  0  0  0  0  0
   -5.9024    9.1738    3.9685 N   0  0  0  0  0  0  0  0  0  0  0  0
  -11.8762    5.3394    4.4264 N   0  0  0  0  0  0  0  0  0  0  0  0
   -4.8685    9.8651    4.7362 C   0  0  0  0  0  0  0  0  0  0  0  0
  -12.7729    4.2015    4.2483 C   0  0  0  0  0  0  0  0  0  0  0  0
   -4.5680    9.0276    5.9897 C   0  0  0  0  0  0  0  0  0  0  0  0
  -12.2307    3.0349    5.0949 C   0  0  0  0  0  0  0  0  0  0  0  0
   -5.7273    9.1053    6.9926 C   0  0  0  0  0  0  0  0  0  0  0  0
  -12.1486    1.7160    4.3052 C   0  0  0  0  0  0  0  0  0  0  0  0
   -6.0703    7.7159    7.4657 N   0  0  0  0  0  0  0  0  0  0  0  0
  -13.5197    1.1827    3.9745 N   0  0  0  0  0  0  0  0  0  0  0  0
   -7.4223    7.7176    8.1257 C   0  0  0  0  0  0  0  0  0  0  0  0
  -14.0193    1.8657    2.7298 C   0  0  0  0  0  0  0  0  0  0  0  0
   -5.0339    7.2073    8.4369 C   0  0  0  0  0  0  0  0  0  0  0  0
  -14.5033    1.4154    5.0872 C   0  0  0  0  0  0  0  0  0  0  0  0
  1  6  2  0  0  0  0
  2  3  2  0  0  0  0
  2  1  1  0  0  0  0
  3  4  1  0  0  0  0
  4 10  1  0  0  0  0
  4  5  2  0  0  0  0
  6  5  1  0  0  0  0
  7  1  1  0  0  0  0
  7 11  1  0  0  0  0
  8  7  2  0  0  0  0
  9 10  2  0  0  0  0
 10 12  1  0  0  0  0
 12 14  1  0  0  0  0
 13 11  1  0  0  0  0
 13 15  1  0  0  0  0
 14 16  1  0  0  0  0
 16 18  1  0  0  0  0
 17 15  1  0  0  0  0
 17 19  1  0  0  0  0
 18 20  1  0  0  0  0
 19 23  1  0  0  0  0
 20 22  1  0  0  0  0
 20 24  1  0  0  0  0
 21 19  1  0  0  0  0
M  END
>  <CHROM.1>
-8.75008925,45.58301260,154.96724815,117.70104173,-71.78673876,-131.28041592
-68.51160939,132.50398709,-163.97419523,83.43261120,-9.42568898,6.60009670
4.63823225,0.38293980,-0.64638493,-0.73875998

>  <Name>
lig.pdb

>  <RI>
2.62193e+07

>  <Rbt.Current_Directory>
/home/itssahil/PROJECTS/Mol_Feturizer/New_Systems/rnas/2l94

>  <Rbt.Executable>
rbdock ($Id: //depot/dev/client3/rdock/2013.1/src/exe/rbdock.cxx#4 $)

>  <Rbt.Library>
libRbt.so (2013.1, Build901 2013/11/27)

>  <Rbt.Parameter_File>
/export/apps/rDock/src/rDock_2013.1_src/data/scripts/dock_solv.prm

>  <Rbt.Receptor>
prm/blind_docking_60.prm

>  <SCORE>
1.58715

>  <SCORE.INTER>
-20.55

>  <SCORE.INTER.CONST>
1

>  <SCORE.INTER.POLAR>
-3.66692

>  <SCORE.INTER.ROT>
10

>  <SCORE.INTER.SOLV>
22.0604

>  <SCORE.INTER.VDW>
-19.0971

>  <SCORE.INTER.norm>
-0.85625

>  <SCORE.INTRA>
10.3909

>  <SCORE.INTRA.DIHEDRAL>
16.5194

>  <SCORE.INTRA.DIHEDRAL.0>
7.52971

>  <SCORE.INTRA.POLAR>
0

>  <SCORE.INTRA.POLAR.0>
0

>  <SCORE.INTRA.REPUL>
0

>  <SCORE.INTRA.REPUL.0>
0

>  <SCORE.INTRA.SOLV>
0.304576

>  <SCORE.INTRA.SOLV.lig_0>
-22.1084

>  <SCORE.INTRA.VDW>
1.97894

>  <SCORE.INTRA.VDW.0>
2.4256

>  <SCORE.INTRA.norm>
0.432955

>  <SCORE.RESTR>
11.7462

>  <SCORE.RESTR.CAVITY>
11.7462

>  <SCORE.RESTR.norm>
0.489426

>  <SCORE.SYSTEM>
0

>  <SCORE.SYSTEM.CONST>
0

>  <SCORE.SYSTEM.DIHEDRAL>
0

>  <SCORE.SYSTEM.SOLV>
0

>  <SCORE.SYSTEM.norm>
0

>  <SCORE.heavy>
24

>  <SCORE.norm>
0.0661312

>  <RMSD>
18.048

$$$$
lig.pdb
 OpenBabel11021811453D
libRbt.so/2013.1/901 2013/11/27
 24 24  0  0  0  0  0  0  0  0999 V2000
   -9.1132    9.9591    3.7609 C   0  0  0  0  0  0  0  0  0  0  0  0
   -8.1337    9.6803    2.7490 C   0  0  0  0  0  0  0  0  0  0  0  0
   -6.8348    9.3621    3.0677 C   0  0  0  0  0  0  0  0  0  0  0  0
   -6.3910    9.2817    4.4263 C   0  0  0  0  0  0  0  0  0  0  0  0
   -7.3616    9.5933    5.4346 C   0  0  0  0  0  0  0  0  0  0  0  0
   -8.6566    9.9191    5.1174 C   0  0  0  0  0  0  0  0  0  0  0  0
  -10.4134   10.2449    3.4565 C   0  0  0  0  0  0  0  0  0  0  0  0
  -11.4040    9.3323    3.5517 N   0  0  0  0  0  0  0  0  0  0  0  0
   -4.0882    9.8077    4.7853 N   0  0  0  0  0  0  0  0  0  0  0  0
   -5.1146    8.9316    4.7549 C   0  0  0  0  0  0  0  0  0  0  0  0
  -10.8092   11.4727    3.0382 N   0  0  0  0  0  0  0  0  0  0  0  0
   -4.7674    7.6635    5.0793 N   0  0  0  0  0  0  0  0  0  0  0  0
  -12.0739   12.1358    3.3495 C   0  0  0  0  0  0  0  0  0  0  0  0
   -3.5946    7.2622    5.8501 C   0  0  0  0  0  0  0  0  0  0  0  0
  -11.8188   13.1331    4.4911 C   0  0  0  0  0  0  0  0  0  0  0  0
   -3.5486    8.1247    7.1251 C   0  0  0  0  0  0  0  0  0  0  0  0
  -10.9870   14.3267    4.0015 C   0  0  0  0  0  0  0  0  0  0  0  0
   -4.6118    7.7127    8.1594 C   0  0  0  0  0  0  0  0  0  0  0  0
   -9.5216   13.9960    4.1242 N   0  0  0  0  0  0  0  0  0  0  0  0
   -5.9315    8.3937    7.8980 N   0  0  0  0  0  0  0  0  0  0  0  0
   -9.1421   13.8769    5.5751 C   0  0  0  0  0  0  0  0  0  0  0  0
   -5.7695    9.8720    8.1296 C   0  0  0  0  0  0  0  0  0  0  0  0
   -8.6741   15.0559    3.4650 C   0  0  0  0  0  0  0  0  0  0  0  0
   -7.0244    7.8765    8.7912 C   0  0  0  0  0  0  0  0  0  0  0  0
  1  6  2  0  0  0  0
  2  3  2  0  0  0  0
  2  1  1  0  0  0  0
  3  4  1  0  0  0  0
  4 10  1  0  0  0  0
  4  5  2  0  0  0  0
  6  5  1  0  0  0  0
  7  1  1  0  0  0  0
  7 11  1  0  0  0  0
  8  7  2  0  0  0  0
  9 10  2  0  0  0  0
 10 12  1  0  0  0  0
 12 14  1  0  0  0  0
 13 11  1  0  0  0  0
 13 15  1  0  0  0  0
 14 16  1  0  0  0  0
 16 18  1  0  0  0  0
 17 15  1  0  0  0  0
 17 19  1  0  0  0  0
 18 20  1  0  0  0  0
 19 23  1  0  0  0  0
 20 22  1  0  0  0  0
 20 24  1  0  0  0  0
 21 19  1  0  0  0  0
M  END
>  <CHROM.1>
84.08071156,100.55761967,49.43295750,99.45312918,70.63513611,73.79735025
-86.10272748,-87.48810208,-67.10911761,-66.41811644,-7.73986874,10.32161004
5.04169834,2.72700479,-0.64179777,0.36777689

>  <Name>
lig.pdb

>  <RI>
2.62193e+07

>  <Rbt.Current_Directory>
/home/itssahil/PROJECTS/Mol_Feturizer/New_Systems/rnas/2l94

>  <Rbt.Executable>
rbdock ($Id: //depot/dev/client3/rdock/2013.1/src/exe/rbdock.cxx#4 $)

>  <Rbt.Library>
libRbt.so (2013.1, Build901 2013/11/27)

>  <Rbt.Parameter_File>
/export/apps/rDock/src/rDock_2013.1_src/data/scripts/dock_solv.prm

>  <Rbt.Receptor>
prm/blind_docking_60.prm

>  <SCORE>
8.29401

>  <SCORE.INTER>
-13.4929

>  <SCORE.INTER.CONST>
1

>  <SCORE.INTER.POLAR>
-2.30836

>  <SCORE.INTER.ROT>
10

>  <SCORE.INTER.SOLV>
17.9008

>  <SCORE.INTER.VDW>
-17.5343

>  <SCORE.INTER.norm>
-0.562203

>  <SCORE.INTRA>
12.9382

>  <SCORE.INTRA.DIHEDRAL>
28.3186

>  <SCORE.INTRA.DIHEDRAL.0>
7.52971

>  <SCORE.INTRA.POLAR>
0

>  <SCORE.INTRA.POLAR.0>
0

>  <SCORE.INTRA.REPUL>
0

>  <SCORE.INTRA.REPUL.0>
0

>  <SCORE.INTRA.SOLV>
2.60192

>  <SCORE.INTRA.SOLV.lig_0>
-22.1084

>  <SCORE.INTRA.VDW>
-2.52207

>  <SCORE.INTRA.VDW.0>
2.4256

>  <SCORE.INTRA.norm>
0.539091

>  <SCORE.RESTR>
8.84869

>  <SCORE.RESTR.CAVITY>
8.84869

>  <SCORE.RESTR.norm>
0.368696

>  <SCORE.SYSTEM>
0

>  <SCORE.SYSTEM.CONST>
0

>  <SCORE.SYSTEM.DIHEDRAL>
0

>  <SCORE.SYSTEM.SOLV>
0

>  <SCORE.SYSTEM.norm>
0

>  <SCORE.heavy>
24

>  <SCORE.norm>
0.345584

>  <RMSD>
18.065

$$$$
lig.pdb
 OpenBabel11021811453D
libRbt.so/2013.1/901 2013/11/27
 24 24  0  0  0  0  0  0  0  0999 V2000
  -10.6643    7.3551    4.0028 C   0  0  0  0  0  0  0  0  0  0  0  0
  -10.6619    6.4528    5.1194 C   0  0  0  0  0  0  0  0  0  0  0  0
  -11.2512    5.2127    5.0487 C   0  0  0  0  0  0  0  0  0  0  0  0
  -11.8905    4.7500    3.8543 C   0  0  0  0  0  0  0  0  0  0  0  0
  -11.9216    5.6652    2.7511 C   0  0  0  0  0  0  0  0  0  0  0  0
  -11.3407    6.9067    2.8232 C   0  0  0  0  0  0  0  0  0  0  0  0
  -10.0544    8.5759    4.0520 C   0  0  0  0  0  0  0  0  0  0  0  0
  -10.3101    9.4823    5.0195 N   0  0  0  0  0  0  0  0  0  0  0  0
  -13.4378    3.2006    2.8986 N   0  0  0  0  0  0  0  0  0  0  0  0
  -12.4462    3.5082    3.7613 C   0  0  0  0  0  0  0  0  0  0  0  0
   -9.1396    8.9692    3.1313 N   0  0  0  0  0  0  0  0  0  0  0  0
  -12.0468    2.4711    4.5352 N   0  0  0  0  0  0  0  0  0  0  0  0
   -7.9566    9.7931    3.3721 C   0  0  0  0  0  0  0  0  0  0  0  0
  -12.2325    1.0540    4.2390 C   0  0  0  0  0  0  0  0  0  0  0  0
   -6.7784    8.8543    3.6781 C   0  0  0  0  0  0  0  0  0  0  0  0
  -10.8650    0.4719    3.8353 C   0  0  0  0  0  0  0  0  0  0  0  0
   -6.1867    9.1497    5.0632 C   0  0  0  0  0  0  0  0  0  0  0  0
  -10.1478   -0.2257    5.0052 C   0  0  0  0  0  0  0  0  0  0  0  0
   -7.0705    8.5418    6.1221 N   0  0  0  0  0  0  0  0  0  0  0  0
   -8.8995    0.5164    5.4107 N   0  0  0  0  0  0  0  0  0  0  0  0
   -6.6712    9.0532    7.4795 C   0  0  0  0  0  0  0  0  0  0  0  0
   -9.2928    1.7221    6.2214 C   0  0  0  0  0  0  0  0  0  0  0  0
   -6.9773    7.0362    6.1012 C   0  0  0  0  0  0  0  0  0  0  0  0
   -8.0959    0.9677    4.2231 C   0  0  0  0  0  0  0  0  0  0  0  0
  1  6  2  0  0  0  0
  2  3  2  0  0  0  0
  2  1  1  0  0  0  0
  3  4  1  0  0  0  0
  4 10  1  0  0  0  0
  4  5  2  0  0  0  0
  6  5  1  0  0  0  0
  7  1  1  0  0  0  0
  7 11  1  0  0  0  0
  8  7  2  0  0  0  0
  9 10  2  0  0  0  0
 10 12  1  0  0  0  0
 12 14  1  0  0  0  0
 13 11  1  0  0  0  0
 13 15  1  0  0  0  0
 14 16  1  0  0  0  0
 16 18  1  0  0  0  0
 17 15  1  0  0  0  0
 17 19  1  0  0  0  0
 18 20  1  0  0  0  0
 19 23  1  0  0  0  0
 20 22  1  0  0  0  0
 20 24  1  0  0  0  0
 21 19  1  0  0  0  0
M  END
>  <CHROM.1>
155.25720591,-53.43661335,106.65892072,91.51691419,-121.09431710,97.06421001
-113.12406613,78.12268957,-168.43387043,77.27755642,-9.79173317,5.37134237
4.52657446,1.14913422,-0.46644335,-0.13814167

>  <Name>
lig.pdb

>  <RI>
2.62193e+07

>  <Rbt.Current_Directory>
/home/itssahil/PROJECTS/Mol_Feturizer/New_Systems/rnas/2l94

>  <Rbt.Executable>
rbdock ($Id: //depot/dev/client3/rdock/2013.1/src/exe/rbdock.cxx#4 $)

>  <Rbt.Library>
libRbt.so (2013.1, Build901 2013/11/27)

>  <Rbt.Parameter_File>
/export/apps/rDock/src/rDock_2013.1_src/data/scripts/dock_solv.prm

>  <Rbt.Receptor>
prm/blind_docking_60.prm

>  <SCORE>
12.4437

>  <SCORE.INTER>
-8.76328

>  <SCORE.INTER.CONST>
1

>  <SCORE.INTER.POLAR>
-0.503929

>  <SCORE.INTER.ROT>
10

>  <SCORE.INTER.SOLV>
17.7955

>  <SCORE.INTER.VDW>
-20.3609

>  <SCORE.INTER.norm>
-0.365137

>  <SCORE.INTRA>
11.7335

>  <SCORE.INTRA.DIHEDRAL>
24.4794

>  <SCORE.INTRA.DIHEDRAL.0>
7.52971

>  <SCORE.INTRA.POLAR>
0

>  <SCORE.INTRA.POLAR.0>
0

>  <SCORE.INTRA.REPUL>
0

>  <SCORE.INTRA.REPUL.0>
0

>  <SCORE.INTRA.SOLV>
1.58035

>  <SCORE.INTRA.SOLV.lig_0>
-22.1084

>  <SCORE.INTRA.VDW>
-1.29633

>  <SCORE.INTRA.VDW.0>
2.4256

>  <SCORE.INTRA.norm>
0.488897

>  <SCORE.RESTR>
9.4735

>  <SCORE.RESTR.CAVITY>
9.4735

>  <SCORE.RESTR.norm>
0.394729

>  <SCORE.SYSTEM>
0

>  <SCORE.SYSTEM.CONST>
0

>  <SCORE.SYSTEM.DIHEDRAL>
0

>  <SCORE.SYSTEM.SOLV>
0

>  <SCORE.SYSTEM.norm>
0

>  <SCORE.heavy>
24

>  <SCORE.norm>
0.518489

>  <RMSD>
18.094

$$$$
lig.pdb
 OpenBabel11021811453D
libRbt.so/2013.1/901 2013/11/27
 24 24  0  0  0  0  0  0  0  0999 V2000
   -7.9936    8.8013    3.7848 C   0  0  0  0  0  0  0  0  0  0  0  0
   -8.9646    9.0419    2.7551 C   0  0  0  0  0  0  0  0  0  0  0  0
  -10.1674    8.3766    2.7251 C   0  0  0  0  0  0  0  0  0  0  0  0
  -10.5209    7.4150    3.7250 C   0  0  0  0  0  0  0  0  0  0  0  0
   -9.5365    7.1513    4.7336 C   0  0  0  0  0  0  0  0  0  0  0  0
   -8.3320    7.8089    4.7598 C   0  0  0  0  0  0  0  0  0  0  0  0
   -6.8097    9.4794    3.8419 C   0  0  0  0  0  0  0  0  0  0  0  0
   -6.6785   10.7573    3.4262 N   0  0  0  0  0  0  0  0  0  0  0  0
  -12.7180    7.0605    2.8559 N   0  0  0  0  0  0  0  0  0  0  0  0
  -11.7256    6.7761    3.7257 C   0  0  0  0  0  0  0  0  0  0  0  0
   -5.6736    8.9191    4.3261 N   0  0  0  0  0  0  0  0  0  0  0  0
  -12.0298    5.7951    4.6083 N   0  0  0  0  0  0  0  0  0  0  0  0
   -4.6265    9.5911    5.0931 C   0  0  0  0  0  0  0  0  0  0  0  0
  -13.0563    4.7714    4.4381 C   0  0  0  0  0  0  0  0  0  0  0  0
   -4.0292    8.5713    6.0761 C   0  0  0  0  0  0  0  0  0  0  0  0
  -12.7041    3.5902    5.3612 C   0  0  0  0  0  0  0  0  0  0  0  0
   -5.1342    7.8685    6.8767 C   0  0  0  0  0  0  0  0  0  0  0  0
  -13.9287    2.7264    5.7137 C   0  0  0  0  0  0  0  0  0  0  0  0
   -5.4785    8.6998    8.0859 N   0  0  0  0  0  0  0  0  0  0  0  0
  -14.3168    1.8236    4.5701 N   0  0  0  0  0  0  0  0  0  0  0  0
   -6.0724    7.8261    9.1571 C   0  0  0  0  0  0  0  0  0  0  0  0
  -13.0863    1.1142    4.0720 C   0  0  0  0  0  0  0  0  0  0  0  0
   -6.4537    9.7935    7.7268 C   0  0  0  0  0  0  0  0  0  0  0  0
  -14.9365    2.5842    3.4310 C   0  0  0  0  0  0  0  0  0  0  0  0
  1  6  2  0  0  0  0
  2  3  2  0  0  0  0
  2  1  1  0  0  0  0
  3  4  1  0  0  0  0
  4 10  1  0  0  0  0
  4  5  2  0  0  0  0
  6  5  1  0  0  0  0
  7  1  1  0  0  0  0
  7 11  1  0  0  0  0
  8  7  2  0  0  0  0
  9 10  2  0  0  0  0
 10 12  1  0  0  0  0
 12 14  1  0  0  0  0
 13 11  1  0  0  0  0
 13 15  1  0  0  0  0
 14 16  1  0  0  0  0
 16 18  1  0  0  0  0
 17 15  1  0  0  0  0
 17 19  1  0  0  0  0
 18 20  1  0  0  0  0
 19 23  1  0  0  0  0
 20 22  1  0  0  0  0
 20 24  1  0  0  0  0
 21 19  1  0  0  0  0
M  END
>  <CHROM.1>
-5.08177168,32.13375044,158.26112400,147.52341989,-50.66022923,156.91771183
76.80730808,-86.11434670,-155.72145840,48.78836173,-9.39047669,6.88525860
4.86933062,0.27358982,-0.60500548,-0.84502580

>  <Name>
lig.pdb

>  <RI>
2.62193e+07

>  <Rbt.Current_Directory>
/home/itssahil/PROJECTS/Mol_Feturizer/New_Systems/rnas/2l94

>  <Rbt.Executable>
rbdock ($Id: //depot/dev/client3/rdock/2013.1/src/exe/rbdock.cxx#4 $)

>  <Rbt.Library>
libRbt.so (2013.1, Build901 2013/11/27)

>  <Rbt.Parameter_File>
/export/apps/rDock/src/rDock_2013.1_src/data/scripts/dock_solv.prm

>  <Rbt.Receptor>
prm/blind_docking_60.prm

>  <SCORE>
-5.80507

>  <SCORE.INTER>
-23.6284

>  <SCORE.INTER.CONST>
1

>  <SCORE.INTER.POLAR>
-2.89631

>  <SCORE.INTER.ROT>
10

>  <SCORE.INTER.SOLV>
21.2185

>  <SCORE.INTER.VDW>
-23.4374

>  <SCORE.INTER.norm>
-0.984518

>  <SCORE.INTRA>
7.02918

>  <SCORE.INTRA.DIHEDRAL>
7.7685

>  <SCORE.INTRA.DIHEDRAL.0>
7.52971

>  <SCORE.INTRA.POLAR>
0

>  <SCORE.INTRA.POLAR.0>
0

>  <SCORE.INTRA.REPUL>
0

>  <SCORE.INTRA.REPUL.0>
0

>  <SCORE.INTRA.SOLV>
0.40993

>  <SCORE.INTRA.SOLV.lig_0>
-22.1084

>  <SCORE.INTRA.VDW>
2.93996

>  <SCORE.INTRA.VDW.0>
2.4256

>  <SCORE.INTRA.norm>
0.292882

>  <SCORE.RESTR>
10.7942

>  <SCORE.RESTR.CAVITY>
10.7942

>  <SCORE.RESTR.norm>
0.449758

>  <SCORE.SYSTEM>
0

>  <SCORE.SYSTEM.CONST>
0

>  <SCORE.SYSTEM.DIHEDRAL>
0

>  <SCORE.SYSTEM.SOLV>
0

>  <SCORE.SYSTEM.norm>
0

>  <SCORE.heavy>
24

>  <SCORE.norm>
-0.241878

>  <RMSD>
18.107

$$$$
lig.pdb
 OpenBabel11021811453D
libRbt.so/2013.1/901 2013/11/27
 24 24  0  0  0  0  0  0  0  0999 V2000
  -12.0132    5.1749    3.8147 C   0  0  0  0  0  0  0  0  0  0  0  0
  -11.0585    5.5868    4.8045 C   0  0  0  0  0  0  0  0  0  0  0  0
  -10.2725    6.7015    4.6319 C   0  0  0  0  0  0  0  0  0  0  0  0
  -10.3706    7.5176    3.4598 C   0  0  0  0  0  0  0  0  0  0  0  0
  -11.3003    7.0860    2.4572 C   0  0  0  0  0  0  0  0  0  0  0  0
  -12.0798    5.9688    2.6250 C   0  0  0  0  0  0  0  0  0  0  0  0
  -12.8211    4.0880    3.9902 C   0  0  0  0  0  0  0  0  0  0  0  0
  -14.0741    4.0205    3.4917 N   0  0  0  0  0  0  0  0  0  0  0  0
  -10.0670    9.7443    2.6488 N   0  0  0  0  0  0  0  0  0  0  0  0
   -9.6221    8.6454    3.2942 C   0  0  0  0  0  0  0  0  0  0  0  0
  -12.4222    2.9892    4.6777 N   0  0  0  0  0  0  0  0  0  0  0  0
   -8.3578    8.7569    3.7667 N   0  0  0  0  0  0  0  0  0  0  0  0
  -12.7708    1.6006    4.3834 C   0  0  0  0  0  0  0  0  0  0  0  0
   -7.6478   10.0023    4.0412 C   0  0  0  0  0  0  0  0  0  0  0  0
  -11.4728    0.8438    4.0584 C   0  0  0  0  0  0  0  0  0  0  0  0
   -6.1372    9.7120    3.9668 C   0  0  0  0  0  0  0  0  0  0  0  0
  -10.4292    1.0431    5.1662 C   0  0  0  0  0  0  0  0  0  0  0  0
   -5.6853    8.6520    4.9877 C   0  0  0  0  0  0  0  0  0  0  0  0
   -9.2193    0.1949    4.8688 N   0  0  0  0  0  0  0  0  0  0  0  0
   -5.4680    9.2552    6.3524 N   0  0  0  0  0  0  0  0  0  0  0  0
   -8.2309    0.9798    4.0501 C   0  0  0  0  0  0  0  0  0  0  0  0
   -3.9887    9.3353    6.6181 C   0  0  0  0  0  0  0  0  0  0  0  0
   -9.6105   -1.0580    4.1249 C   0  0  0  0  0  0  0  0  0  0  0  0
   -6.1163    8.4460    7.4409 C   0  0  0  0  0  0  0  0  0  0  0  0
  1  6  2  0  0  0  0
  2  3  2  0  0  0  0
  2  1  1  0  0  0  0
  3  4  1  0  0  0  0
  4 10  1  0  0  0  0
  4  5  2  0  0  0  0
  6  5  1  0  0  0  0
  7  1  1  0  0  0  0
  7 11  1  0  0  0  0
  8  7  2  0  0  0  0
  9 10  2  0  0  0  0
 10 12  1  0  0  0  0
 12 14  1  0  0  0  0
 13 11  1  0  0  0  0
 13 15  1  0  0  0  0
 14 16  1  0  0  0  0
 16 18  1  0  0  0  0
 17 15  1  0  0  0  0
 17 19  1  0  0  0  0
 18 20  1  0  0  0  0
 19 23  1  0  0  0  0
 20 22  1  0  0  0  0
 20 24  1  0  0  0  0
 21 19  1  0  0  0  0
M  END
>  <CHROM.1>
-145.86931437,147.12645383,-156.02782553,117.78337691,52.45118081,-60.03822216
-82.00805318,175.25080161,90.58572834,-106.52822746,-9.56725052,5.61001312
4.35631418,2.16224309,0.39023630,2.99364052

>  <Name>
lig.pdb

>  <RI>
2.62193e+07

>  <Rbt.Current_Directory>
/home/itssahil/PROJECTS/Mol_Feturizer/New_Systems/rnas/2l94

>  <Rbt.Executable>
rbdock ($Id: //depot/dev/client3/rdock/2013.1/src/exe/rbdock.cxx#4 $)

>  <Rbt.Library>
libRbt.so (2013.1, Build901 2013/11/27)

>  <Rbt.Parameter_File>
/export/apps/rDock/src/rDock_2013.1_src/data/scripts/dock_solv.prm

>  <Rbt.Receptor>
prm/blind_docking_60.prm

>  <SCORE>
7.87408

>  <SCORE.INTER>
-13.2229

>  <SCORE.INTER.CONST>
1

>  <SCORE.INTER.POLAR>
-2.08102

>  <SCORE.INTER.ROT>
10

>  <SCORE.INTER.SOLV>
21.408

>  <SCORE.INTER.VDW>
-19.2812

>  <SCORE.INTER.norm>
-0.550953

>  <SCORE.INTRA>
11.8235

>  <SCORE.INTRA.DIHEDRAL>
12.0359

>  <SCORE.INTRA.DIHEDRAL.0>
7.52971

>  <SCORE.INTRA.POLAR>
0

>  <SCORE.INTRA.POLAR.0>
0

>  <SCORE.INTRA.REPUL>
0

>  <SCORE.INTRA.REPUL.0>
0

>  <SCORE.INTRA.SOLV>
0.334392

>  <SCORE.INTRA.SOLV.lig_0>
-22.1084

>  <SCORE.INTRA.VDW>
5.63832

>  <SCORE.INTRA.VDW.0>
2.4256

>  <SCORE.INTRA.norm>
0.492645

>  <SCORE.RESTR>
9.27347

>  <SCORE.RESTR.CAVITY>
9.27347

>  <SCORE.RESTR.norm>
0.386395

>  <SCORE.SYSTEM>
0

>  <SCORE.SYSTEM.CONST>
0

>  <SCORE.SYSTEM.DIHEDRAL>
0

>  <SCORE.SYSTEM.SOLV>
0

>  <SCORE.SYSTEM.norm>
0

>  <SCORE.heavy>
24

>  <SCORE.norm>
0.328086

>  <RMSD>
18.133

$$$$
lig.pdb
 OpenBabel11021811453D
libRbt.so/2013.1/901 2013/11/27
 24 24  0  0  0  0  0  0  0  0999 V2000
  -11.9270    5.5220    3.2647 C   0  0  0  0  0  0  0  0  0  0  0  0
  -11.3100    5.6026    4.5585 C   0  0  0  0  0  0  0  0  0  0  0  0
  -10.4421    6.6179    4.8842 C   0  0  0  0  0  0  0  0  0  0  0  0
  -10.1144    7.6555    3.9539 C   0  0  0  0  0  0  0  0  0  0  0  0
  -10.7050    7.5551    2.6513 C   0  0  0  0  0  0  0  0  0  0  0  0
  -11.5652    6.5375    2.3224 C   0  0  0  0  0  0  0  0  0  0  0  0
  -12.8147    4.5359    2.9416 C   0  0  0  0  0  0  0  0  0  0  0  0
  -13.5419    4.5512    1.8040 N   0  0  0  0  0  0  0  0  0  0  0  0
   -8.8536    8.9279    5.5349 N   0  0  0  0  0  0  0  0  0  0  0  0
   -9.2834    8.6870    4.2782 C   0  0  0  0  0  0  0  0  0  0  0  0
  -13.0303    3.4614    3.7404 N   0  0  0  0  0  0  0  0  0  0  0  0
   -8.8175    9.5645    3.3580 N   0  0  0  0  0  0  0  0  0  0  0  0
  -13.3134    2.0944    3.3079 C   0  0  0  0  0  0  0  0  0  0  0  0
   -7.6248   10.3959    3.4874 C   0  0  0  0  0  0  0  0  0  0  0  0
  -12.5265    1.1361    4.2164 C   0  0  0  0  0  0  0  0  0  0  0  0
   -6.3936    9.4872    3.3139 C   0  0  0  0  0  0  0  0  0  0  0  0
  -11.0239    1.4465    4.1709 C   0  0  0  0  0  0  0  0  0  0  0  0
   -6.1958    8.5228    4.4975 C   0  0  0  0  0  0  0  0  0  0  0  0
  -10.2611    0.1756    3.8975 N   0  0  0  0  0  0  0  0  0  0  0  0
   -5.6024    9.2266    5.6916 N   0  0  0  0  0  0  0  0  0  0  0  0
  -10.0207   -0.5657    5.1844 C   0  0  0  0  0  0  0  0  0  0  0  0
   -4.1040    9.2428    5.5508 C   0  0  0  0  0  0  0  0  0  0  0  0
   -8.9408    0.4736    3.2311 C   0  0  0  0  0  0  0  0  0  0  0  0
   -5.9638    8.5524    6.9858 C   0  0  0  0  0  0  0  0  0  0  0  0
  1  6  2  0  0  0  0
  2  3  2  0  0  0  0
  2  1  1  0  0  0  0
  3  4  1  0  0  0  0
  4 10  1  0  0  0  0
  4  5  2  0  0  0  0
  6  5  1  0  0  0  0
  7  1  1  0  0  0  0
  7 11  1  0  0  0  0
  8  7  2  0  0  0  0
  9 10  2  0  0  0  0
 10 12  1  0  0  0  0
 12 14  1  0  0  0  0
 13 11  1  0  0  0  0
 13 15  1  0  0  0  0
 14 16  1  0  0  0  0
 16 18  1  0  0  0  0
 17 15  1  0  0  0  0
 17 19  1  0  0  0  0
 18 20  1  0  0  0  0
 19 23  1  0  0  0  0
 20 22  1  0  0  0  0
 20 24  1  0  0  0  0
 21 19  1  0  0  0  0
M  END
>  <CHROM.1>
-9.69182619,170.44953888,73.98408495,139.06307840,-57.25198190,-69.86734015
-77.10219527,-129.38637767,-84.74691696,-85.48627698,-9.70817711,5.77499674
4.06039499,2.20894806,0.40072474,3.00937002

>  <Name>
lig.pdb

>  <RI>
2.62193e+07

>  <Rbt.Current_Directory>
/home/itssahil/PROJECTS/Mol_Feturizer/New_Systems/rnas/2l94

>  <Rbt.Executable>
rbdock ($Id: //depot/dev/client3/rdock/2013.1/src/exe/rbdock.cxx#4 $)

>  <Rbt.Library>
libRbt.so (2013.1, Build901 2013/11/27)

>  <Rbt.Parameter_File>
/export/apps/rDock/src/rDock_2013.1_src/data/scripts/dock_solv.prm

>  <Rbt.Receptor>
prm/blind_docking_60.prm

>  <SCORE>
18.8218

>  <SCORE.INTER>
5.39026

>  <SCORE.INTER.CONST>
1

>  <SCORE.INTER.POLAR>
-1.44871

>  <SCORE.INTER.ROT>
10

>  <SCORE.INTER.SOLV>
19.937

>  <SCORE.INTER.VDW>
-8.4898

>  <SCORE.INTER.norm>
0.224594

>  <SCORE.INTRA>
1.792

>  <SCORE.INTRA.DIHEDRAL>
7.41487

>  <SCORE.INTRA.DIHEDRAL.0>
7.52971

>  <SCORE.INTRA.POLAR>
0

>  <SCORE.INTRA.POLAR.0>
0

>  <SCORE.INTRA.REPUL>
0

>  <SCORE.INTRA.REPUL.0>
0

>  <SCORE.INTRA.SOLV>
1.46059

>  <SCORE.INTRA.SOLV.lig_0>
-22.1084

>  <SCORE.INTRA.VDW>
-2.64572

>  <SCORE.INTRA.VDW.0>
2.4256

>  <SCORE.INTRA.norm>
0.0746669

>  <SCORE.RESTR>
11.6395

>  <SCORE.RESTR.CAVITY>
11.6395

>  <SCORE.RESTR.norm>
0.484979

>  <SCORE.SYSTEM>
0

>  <SCORE.SYSTEM.CONST>
0

>  <SCORE.SYSTEM.DIHEDRAL>
0

>  <SCORE.SYSTEM.SOLV>
0

>  <SCORE.SYSTEM.norm>
0

>  <SCORE.heavy>
24

>  <SCORE.norm>
0.78424

>  <RMSD>
18.168

$$$$
lig.pdb
 OpenBabel11021811453D
libRbt.so/2013.1/901 2013/11/27
 24 24  0  0  0  0  0  0  0  0999 V2000
   -8.2115    8.8710    3.5611 C   0  0  0  0  0  0  0  0  0  0  0  0
   -9.1523    9.0289    2.4884 C   0  0  0  0  0  0  0  0  0  0  0  0
  -10.3168    8.3000    2.4341 C   0  0  0  0  0  0  0  0  0  0  0  0
  -10.6588    7.3509    3.4498 C   0  0  0  0  0  0  0  0  0  0  0  0
   -9.7025    7.1699    4.5027 C   0  0  0  0  0  0  0  0  0  0  0  0
   -8.5359    7.8912    4.5536 C   0  0  0  0  0  0  0  0  0  0  0  0
   -7.0676    9.6125    3.6415 C   0  0  0  0  0  0  0  0  0  0  0  0
   -7.0267   10.9280    3.3399 N   0  0  0  0  0  0  0  0  0  0  0  0
  -12.8557    6.9462    2.6023 N   0  0  0  0  0  0  0  0  0  0  0  0
  -11.8277    6.6490    3.4252 C   0  0  0  0  0  0  0  0  0  0  0  0
   -5.8834    9.0820    4.0356 N   0  0  0  0  0  0  0  0  0  0  0  0
  -12.0571    5.5866    4.2330 N   0  0  0  0  0  0  0  0  0  0  0  0
   -4.8490    9.7459    4.8263 C   0  0  0  0  0  0  0  0  0  0  0  0
  -13.0322    4.5249    4.0035 C   0  0  0  0  0  0  0  0  0  0  0  0
   -4.3158    8.7356    5.8548 C   0  0  0  0  0  0  0  0  0  0  0  0
  -12.7902    3.4252    5.0541 C   0  0  0  0  0  0  0  0  0  0  0  0
   -5.4281    8.2901    6.8142 C   0  0  0  0  0  0  0  0  0  0  0  0
  -12.2524    2.1217    4.4363 C   0  0  0  0  0  0  0  0  0  0  0  0
   -6.0952    9.5070    7.4024 N   0  0  0  0  0  0  0  0  0  0  0  0
  -13.3723    1.1867    4.0553 N   0  0  0  0  0  0  0  0  0  0  0  0
   -5.9842    9.4784    8.9025 C   0  0  0  0  0  0  0  0  0  0  0  0
  -13.9335    1.6169    2.7266 C   0  0  0  0  0  0  0  0  0  0  0  0
   -7.5489    9.5689    7.0037 C   0  0  0  0  0  0  0  0  0  0  0  0
  -14.4784    1.1805    5.0734 C   0  0  0  0  0  0  0  0  0  0  0  0
  1  6  2  0  0  0  0
  2  3  2  0  0  0  0
  2  1  1  0  0  0  0
  3  4  1  0  0  0  0
  4 10  1  0  0  0  0
  4  5  2  0  0  0  0
  6  5  1  0  0  0  0
  7  1  1  0  0  0  0
  7 11  1  0  0  0  0
  8  7  2  0  0  0  0
  9 10  2  0  0  0  0
 10 12  1  0  0  0  0
 12 14  1  0  0  0  0
 13 11  1  0  0  0  0
 13 15  1  0  0  0  0
 14 16  1  0  0  0  0
 16 18  1  0  0  0  0
 17 15  1  0  0  0  0
 17 19  1  0  0  0  0
 18 20  1  0  0  0  0
 19 23  1  0  0  0  0
 20 22  1  0  0  0  0
 20 24  1  0  0  0  0
 21 19  1  0  0  0  0
M  END
>  <CHROM.1>
-12.31497465,40.25751738,171.19329910,138.35462995,-61.99479451,-111.87440178
-90.81237006,-52.12246073,-121.42310935,81.08856603,-9.48908587,6.90700837
4.55486758,0.35463833,-0.68667128,-0.79810260

>  <Name>
lig.pdb

>  <RI>
2.62193e+07

>  <Rbt.Current_Directory>
/home/itssahil/PROJECTS/Mol_Feturizer/New_Systems/rnas/2l94

>  <Rbt.Executable>
rbdock ($Id: //depot/dev/client3/rdock/2013.1/src/exe/rbdock.cxx#4 $)

>  <Rbt.Library>
libRbt.so (2013.1, Build901 2013/11/27)

>  <Rbt.Parameter_File>
/export/apps/rDock/src/rDock_2013.1_src/data/scripts/dock_solv.prm

>  <Rbt.Receptor>
prm/blind_docking_60.prm

>  <SCORE>
-6.20912

>  <SCORE.INTER>
-26.7343

>  <SCORE.INTER.CONST>
1

>  <SCORE.INTER.POLAR>
-4.39527

>  <SCORE.INTER.ROT>
10

>  <SCORE.INTER.SOLV>
22.685

>  <SCORE.INTER.VDW>
-21.0003

>  <SCORE.INTER.norm>
-1.11393

>  <SCORE.INTRA>
10.74

>  <SCORE.INTRA.DIHEDRAL>
16.0633

>  <SCORE.INTRA.DIHEDRAL.0>
7.52971

>  <SCORE.INTRA.POLAR>
0

>  <SCORE.INTRA.POLAR.0>
0

>  <SCORE.INTRA.REPUL>
0

>  <SCORE.INTRA.REPUL.0>
0

>  <SCORE.INTRA.SOLV>
0.810392

>  <SCORE.INTRA.SOLV.lig_0>
-22.1084

>  <SCORE.INTRA.VDW>
2.30319

>  <SCORE.INTRA.VDW.0>
2.4256

>  <SCORE.INTRA.norm>
0.447501

>  <SCORE.RESTR>
9.78518

>  <SCORE.RESTR.CAVITY>
9.78518

>  <SCORE.RESTR.norm>
0.407716

>  <SCORE.SYSTEM>
0

>  <SCORE.SYSTEM.CONST>
0

>  <SCORE.SYSTEM.DIHEDRAL>
0

>  <SCORE.SYSTEM.SOLV>
0

>  <SCORE.SYSTEM.norm>
0

>  <SCORE.heavy>
24

>  <SCORE.norm>
-0.258714

>  <RMSD>
18.208

$$$$
lig.pdb
 OpenBabel11021811453D
libRbt.so/2013.1/901 2013/11/27
 24 24  0  0  0  0  0  0  0  0999 V2000
  -12.3242    5.3473    3.6443 C   0  0  0  0  0  0  0  0  0  0  0  0
  -12.3789    6.1415    2.4496 C   0  0  0  0  0  0  0  0  0  0  0  0
  -11.5041    7.1791    2.2300 C   0  0  0  0  0  0  0  0  0  0  0  0
  -10.4849    7.5176    3.1765 C   0  0  0  0  0  0  0  0  0  0  0  0
  -10.4531    6.7454    4.3842 C   0  0  0  0  0  0  0  0  0  0  0  0
  -11.3310    5.7144    4.6081 C   0  0  0  0  0  0  0  0  0  0  0  0
  -13.1674    4.2946    3.8579 C   0  0  0  0  0  0  0  0  0  0  0  0
  -14.4347    4.2671    3.3930 N   0  0  0  0  0  0  0  0  0  0  0  0
   -9.7733    9.4897    2.0307 N   0  0  0  0  0  0  0  0  0  0  0  0
   -9.5890    8.5211    2.9528 C   0  0  0  0  0  0  0  0  0  0  0  0
  -12.7920    3.1919    4.5524 N   0  0  0  0  0  0  0  0  0  0  0  0
   -8.4285    8.6293    3.6423 N   0  0  0  0  0  0  0  0  0  0  0  0
  -13.2001    1.8133    4.2894 C   0  0  0  0  0  0  0  0  0  0  0  0
   -7.6367    9.8440    3.8104 C   0  0  0  0  0  0  0  0  0  0  0  0
  -11.9288    0.9672    4.1131 C   0  0  0  0  0  0  0  0  0  0  0  0
   -6.2474    9.4344    4.3336 C   0  0  0  0  0  0  0  0  0  0  0  0
  -10.8337    1.4113    5.0927 C   0  0  0  0  0  0  0  0  0  0  0  0
   -6.3088    8.7583    5.7153 C   0  0  0  0  0  0  0  0  0  0  0  0
   -9.8992    0.2573    5.3514 N   0  0  0  0  0  0  0  0  0  0  0  0
   -5.2119    9.2542    6.6233 N   0  0  0  0  0  0  0  0  0  0  0  0
   -8.9286    0.6177    6.4429 C   0  0  0  0  0  0  0  0  0  0  0  0
   -3.9489    8.4941    6.3194 C   0  0  0  0  0  0  0  0  0  0  0  0
   -9.1401   -0.1108    4.1007 C   0  0  0  0  0  0  0  0  0  0  0  0
   -5.5525    9.0740    8.0764 C   0  0  0  0  0  0  0  0  0  0  0  0
  1  6  2  0  0  0  0
  2  3  2  0  0  0  0
  2  1  1  0  0  0  0
  3  4  1  0  0  0  0
  4 10  1  0  0  0  0
  4  5  2  0  0  0  0
  6  5  1  0  0  0  0
  7  1  1  0  0  0  0
  7 11  1  0  0  0  0
  8  7  2  0  0  0  0
  9 10  2  0  0  0  0
 10 12  1  0  0  0  0
 12 14  1  0  0  0  0
 13 11  1  0  0  0  0
 13 15  1  0  0  0  0
 14 16  1  0  0  0  0
 16 18  1  0  0  0  0
 17 15  1  0  0  0  0
 17 19  1  0  0  0  0
 18 20  1  0  0  0  0
 19 23  1  0  0  0  0
 20 22  1  0  0  0  0
 20 24  1  0  0  0  0
 21 19  1  0  0  0  0
M  END
>  <CHROM.1>
17.75699396,-32.54177773,-165.40442174,124.60600697,38.26459858,-62.73372642
-137.40555396,154.60750485,-172.63097855,-82.73515480,-9.74055569,5.67226801
4.42878174,2.30419752,0.48775105,2.85849770

>  <Name>
lig.pdb

>  <RI>
2.62193e+07

>  <Rbt.Current_Directory>
/home/itssahil/PROJECTS/Mol_Feturizer/New_Systems/rnas/2l94

>  <Rbt.Executable>
rbdock ($Id: //depot/dev/client3/rdock/2013.1/src/exe/rbdock.cxx#4 $)

>  <Rbt.Library>
libRbt.so (2013.1, Build901 2013/11/27)

>  <Rbt.Parameter_File>
/export/apps/rDock/src/rDock_2013.1_src/data/scripts/dock_solv.prm

>  <Rbt.Receptor>
prm/blind_docking_60.prm

>  <SCORE>
0.189518

>  <SCORE.INTER>
-17.1006

>  <SCORE.INTER.CONST>
1

>  <SCORE.INTER.POLAR>
-2.33671

>  <SCORE.INTER.ROT>
10

>  <SCORE.INTER.SOLV>
23.3558

>  <SCORE.INTER.VDW>
-21.6633

>  <SCORE.INTER.norm>
-0.712525

>  <SCORE.INTRA>
6.78452

>  <SCORE.INTRA.DIHEDRAL>
11.6654

>  <SCORE.INTRA.DIHEDRAL.0>
7.52971

>  <SCORE.INTRA.POLAR>
0

>  <SCORE.INTRA.POLAR.0>
0

>  <SCORE.INTRA.REPUL>
0

>  <SCORE.INTRA.REPUL.0>
0

>  <SCORE.INTRA.SOLV>
0.199318

>  <SCORE.INTRA.SOLV.lig_0>
-22.1084

>  <SCORE.INTRA.VDW>
0.85216

>  <SCORE.INTRA.VDW.0>
2.4256

>  <SCORE.INTRA.norm>
0.282688

>  <SCORE.RESTR>
10.5056

>  <SCORE.RESTR.CAVITY>
10.5056

>  <SCORE.RESTR.norm>
0.437733

>  <SCORE.SYSTEM>
0

>  <SCORE.SYSTEM.CONST>
0

>  <SCORE.SYSTEM.DIHEDRAL>
0

>  <SCORE.SYSTEM.SOLV>
0

>  <SCORE.SYSTEM.norm>
0

>  <SCORE.heavy>
24

>  <SCORE.norm>
0.00789659

>  <RMSD>
18.241

$$$$
lig.pdb
 OpenBabel11021811453D
libRbt.so/2013.1/901 2013/11/27
 24 24  0  0  0  0  0  0  0  0999 V2000
  -10.9210    5.6325    4.8061 C   0  0  0  0  0  0  0  0  0  0  0  0
  -11.1626    6.4304    3.6374 C   0  0  0  0  0  0  0  0  0  0  0  0
  -10.3847    7.5225    3.3335 C   0  0  0  0  0  0  0  0  0  0  0  0
   -9.2852    7.9173    4.1609 C   0  0  0  0  0  0  0  0  0  0  0  0
   -9.0661    7.1397    5.3454 C   0  0  0  0  0  0  0  0  0  0  0  0
   -9.8470    6.0541    5.6541 C   0  0  0  0  0  0  0  0  0  0  0  0
  -11.6673    4.5274    5.1003 C   0  0  0  0  0  0  0  0  0  0  0  0
  -11.2818    3.6055    6.0084 N   0  0  0  0  0  0  0  0  0  0  0  0
   -8.9582   10.2118    3.5808 N   0  0  0  0  0  0  0  0  0  0  0  0
   -8.4848    8.9766    3.8499 C   0  0  0  0  0  0  0  0  0  0  0  0
  -12.8582    4.2743    4.5029 N   0  0  0  0  0  0  0  0  0  0  0  0
   -7.1360    8.8760    3.7829 N   0  0  0  0  0  0  0  0  0  0  0  0
  -14.0306    3.6564    5.1192 C   0  0  0  0  0  0  0  0  0  0  0  0
   -6.1835    9.9757    3.9010 C   0  0  0  0  0  0  0  0  0  0  0  0
  -14.9804    3.2135    3.9946 C   0  0  0  0  0  0  0  0  0  0  0  0
   -5.0896    9.5491    4.8976 C   0  0  0  0  0  0  0  0  0  0  0  0
  -14.7662    1.7341    3.6460 C   0  0  0  0  0  0  0  0  0  0  0  0
   -5.6507    9.2332    6.2959 C   0  0  0  0  0  0  0  0  0  0  0  0
  -13.4624    1.5808    2.9054 N   0  0  0  0  0  0  0  0  0  0  0  0
   -4.9599    8.0439    6.9137 N   0  0  0  0  0  0  0  0  0  0  0  0
  -13.6508    0.6792    1.7159 C   0  0  0  0  0  0  0  0  0  0  0  0
   -5.4992    7.8368    8.3036 C   0  0  0  0  0  0  0  0  0  0  0  0
  -12.3951    1.0120    3.8073 C   0  0  0  0  0  0  0  0  0  0  0  0
   -3.4700    8.2290    6.9908 C   0  0  0  0  0  0  0  0  0  0  0  0
  1  6  2  0  0  0  0
  2  3  2  0  0  0  0
  2  1  1  0  0  0  0
  3  4  1  0  0  0  0
  4 10  1  0  0  0  0
  4  5  2  0  0  0  0
  6  5  1  0  0  0  0
  7  1  1  0  0  0  0
  7 11  1  0  0  0  0
  8  7  2  0  0  0  0
  9 10  2  0  0  0  0
 10 12  1  0  0  0  0
 12 14  1  0  0  0  0
 13 11  1  0  0  0  0
 13 15  1  0  0  0  0
 14 16  1  0  0  0  0
 16 18  1  0  0  0  0
 17 15  1  0  0  0  0
 17 19  1  0  0  0  0
 18 20  1  0  0  0  0
 19 23  1  0  0  0  0
 20 22  1  0  0  0  0
 20 24  1  0  0  0  0
 21 19  1  0  0  0  0
M  END
>  <CHROM.1>
52.92960200,164.79633635,132.06673756,-164.25882899,95.76946150,-60.11916762
141.05561549,-72.58888541,-134.96559087,176.88153732,-9.77690533,6.03951439
4.68556309,2.68272764,0.58398067,2.59137618

>  <Name>
lig.pdb

>  <RI>
2.62193e+07

>  <Rbt.Current_Directory>
/home/itssahil/PROJECTS/Mol_Feturizer/New_Systems/rnas/2l94

>  <Rbt.Executable>
rbdock ($Id: //depot/dev/client3/rdock/2013.1/src/exe/rbdock.cxx#4 $)

>  <Rbt.Library>
libRbt.so (2013.1, Build901 2013/11/27)

>  <Rbt.Parameter_File>
/export/apps/rDock/src/rDock_2013.1_src/data/scripts/dock_solv.prm

>  <Rbt.Receptor>
prm/blind_docking_60.prm

>  <SCORE>
8.89772

>  <SCORE.INTER>
-7.80627

>  <SCORE.INTER.CONST>
1

>  <SCORE.INTER.POLAR>
-1.73732

>  <SCORE.INTER.ROT>
10

>  <SCORE.INTER.SOLV>
17.9172

>  <SCORE.INTER.VDW>
-15.6522

>  <SCORE.INTER.norm>
-0.325261

>  <SCORE.INTRA>
6.73745

>  <SCORE.INTRA.DIHEDRAL>
17.5558

>  <SCORE.INTRA.DIHEDRAL.0>
7.52971

>  <SCORE.INTRA.POLAR>
0

>  <SCORE.INTRA.POLAR.0>
0

>  <SCORE.INTRA.REPUL>
0

>  <SCORE.INTRA.REPUL.0>
0

>  <SCORE.INTRA.SOLV>
1.24358

>  <SCORE.INTRA.SOLV.lig_0>
-22.1084

>  <SCORE.INTRA.VDW>
-2.66223

>  <SCORE.INTRA.VDW.0>
2.4256

>  <SCORE.INTRA.norm>
0.280727

>  <SCORE.RESTR>
9.96655

>  <SCORE.RESTR.CAVITY>
9.96655

>  <SCORE.RESTR.norm>
0.415273

>  <SCORE.SYSTEM>
0

>  <SCORE.SYSTEM.CONST>
0

>  <SCORE.SYSTEM.DIHEDRAL>
0

>  <SCORE.SYSTEM.SOLV>
0

>  <SCORE.SYSTEM.norm>
0

>  <SCORE.heavy>
24

>  <SCORE.norm>
0.370738

>  <RMSD>
18.242

$$$$
lig.pdb
 OpenBabel11021811453D
libRbt.so/2013.1/901 2013/11/27
 24 24  0  0  0  0  0  0  0  0999 V2000
  -10.5201    7.4248    3.1027 C   0  0  0  0  0  0  0  0  0  0  0  0
  -11.3188    6.9524    2.0073 C   0  0  0  0  0  0  0  0  0  0  0  0
  -12.1358    5.8533    2.1288 C   0  0  0  0  0  0  0  0  0  0  0  0
  -12.2419    5.1264    3.3575 C   0  0  0  0  0  0  0  0  0  0  0  0
  -11.4183    5.5790    4.4403 C   0  0  0  0  0  0  0  0  0  0  0  0
  -10.5962    6.6711    4.3177 C   0  0  0  0  0  0  0  0  0  0  0  0
   -9.7298    8.5339    3.0023 C   0  0  0  0  0  0  0  0  0  0  0  0
   -9.9796    9.5328    2.1289 N   0  0  0  0  0  0  0  0  0  0  0  0
  -13.8961    3.6188    2.5213 N   0  0  0  0  0  0  0  0  0  0  0  0
  -13.0762    4.0571    3.5000 C   0  0  0  0  0  0  0  0  0  0  0  0
   -8.6328    8.7175    3.7782 N   0  0  0  0  0  0  0  0  0  0  0  0
  -13.1534    3.3407    4.6466 N   0  0  0  0  0  0  0  0  0  0  0  0
   -8.1449    9.9865    4.3147 C   0  0  0  0  0  0  0  0  0  0  0  0
  -13.6430    1.9716    4.7753 C   0  0  0  0  0  0  0  0  0  0  0  0
   -7.2666    9.6786    5.5380 C   0  0  0  0  0  0  0  0  0  0  0  0
  -12.6724    1.0487    4.0152 C   0  0  0  0  0  0  0  0  0  0  0  0
   -5.8808    9.1790    5.1069 C   0  0  0  0  0  0  0  0  0  0  0  0
  -11.2200    1.1787    4.5088 C   0  0  0  0  0  0  0  0  0  0  0  0
   -5.3817    8.1693    6.1086 N   0  0  0  0  0  0  0  0  0  0  0  0
  -10.3611    0.0461    4.0058 N   0  0  0  0  0  0  0  0  0  0  0  0
   -3.9078    7.9387    5.9141 C   0  0  0  0  0  0  0  0  0  0  0  0
   -9.9886   -0.8344    5.1683 C   0  0  0  0  0  0  0  0  0  0  0  0
   -6.1212    6.8618    5.9685 C   0  0  0  0  0  0  0  0  0  0  0  0
   -9.1043    0.5373    3.3431 C   0  0  0  0  0  0  0  0  0  0  0  0
  1  6  2  0  0  0  0
  2  3  2  0  0  0  0
  2  1  1  0  0  0  0
  3  4  1  0  0  0  0
  4 10  1  0  0  0  0
  4  5  2  0  0  0  0
  6  5  1  0  0  0  0
  7  1  1  0  0  0  0
  7 11  1  0  0  0  0
  8  7  2  0  0  0  0
  9 10  2  0  0  0  0
 10 12  1  0  0  0  0
 12 14  1  0  0  0  0
 13 11  1  0  0  0  0
 13 15  1  0  0  0  0
 14 16  1  0  0  0  0
 16 18  1  0  0  0  0
 17 15  1  0  0  0  0
 17 19  1  0  0  0  0
 18 20  1  0  0  0  0
 19 23  1  0  0  0  0
 20 22  1  0  0  0  0
 20 24  1  0  0  0  0
 21 19  1  0  0  0  0
M  END
>  <CHROM.1>
-2.05313722,25.57120783,65.55043709,157.75142688,77.32637630,56.40067314
165.87268854,-146.39683434,-165.25878509,-110.84446338,-9.95176637,5.42226539
4.09884978,0.90156186,-0.40135543,-0.18471611

>  <Name>
lig.pdb

>  <RI>
2.62193e+07

>  <Rbt.Current_Directory>
/home/itssahil/PROJECTS/Mol_Feturizer/New_Systems/rnas/2l94

>  <Rbt.Executable>
rbdock ($Id: //depot/dev/client3/rdock/2013.1/src/exe/rbdock.cxx#4 $)

>  <Rbt.Library>
libRbt.so (2013.1, Build901 2013/11/27)

>  <Rbt.Parameter_File>
/export/apps/rDock/src/rDock_2013.1_src/data/scripts/dock_solv.prm

>  <Rbt.Receptor>
prm/blind_docking_60.prm

>  <SCORE>
13.9715

>  <SCORE.INTER>
1.45611

>  <SCORE.INTER.CONST>
1

>  <SCORE.INTER.POLAR>
-1.63785

>  <SCORE.INTER.ROT>
10

>  <SCORE.INTER.SOLV>
21.1754

>  <SCORE.INTER.VDW>
-10.8949

>  <SCORE.INTER.norm>
0.0606712

>  <SCORE.INTRA>
2.11202

>  <SCORE.INTRA.DIHEDRAL>
8.62501

>  <SCORE.INTRA.DIHEDRAL.0>
7.52971

>  <SCORE.INTRA.POLAR>
0

>  <SCORE.INTRA.POLAR.0>
0

>  <SCORE.INTRA.REPUL>
0

>  <SCORE.INTRA.REPUL.0>
0

>  <SCORE.INTRA.SOLV>
0.611479

>  <SCORE.INTRA.SOLV.lig_0>
-22.1084

>  <SCORE.INTRA.VDW>
-2.50622

>  <SCORE.INTRA.VDW.0>
2.4256

>  <SCORE.INTRA.norm>
0.0880009

>  <SCORE.RESTR>
10.4034

>  <SCORE.RESTR.CAVITY>
10.4034

>  <SCORE.RESTR.norm>
0.433475

>  <SCORE.SYSTEM>
0

>  <SCORE.SYSTEM.CONST>
0

>  <SCORE.SYSTEM.DIHEDRAL>
0

>  <SCORE.SYSTEM.SOLV>
0

>  <SCORE.SYSTEM.norm>
0

>  <SCORE.heavy>
24

>  <SCORE.norm>
0.582147

>  <RMSD>
18.250

$$$$
lig.pdb
 OpenBabel11021811453D
libRbt.so/2013.1/901 2013/11/27
 24 24  0  0  0  0  0  0  0  0999 V2000
  -10.1833    7.8028    3.2865 C   0  0  0  0  0  0  0  0  0  0  0  0
  -10.9472    7.3761    2.1483 C   0  0  0  0  0  0  0  0  0  0  0  0
  -11.7242    6.2424    2.1823 C   0  0  0  0  0  0  0  0  0  0  0  0
  -11.8215    5.4314    3.3579 C   0  0  0  0  0  0  0  0  0  0  0  0
  -11.0318    5.8401    4.4827 C   0  0  0  0  0  0  0  0  0  0  0  0
  -10.2494    6.9672    4.4473 C   0  0  0  0  0  0  0  0  0  0  0  0
   -9.4336    8.9441    3.2738 C   0  0  0  0  0  0  0  0  0  0  0  0
   -9.8720   10.1006    2.7320 N   0  0  0  0  0  0  0  0  0  0  0  0
  -13.4430    3.9522    2.4141 N   0  0  0  0  0  0  0  0  0  0  0  0
  -12.6172    4.3254    3.4145 C   0  0  0  0  0  0  0  0  0  0  0  0
   -8.1894    9.0027    3.8101 N   0  0  0  0  0  0  0  0  0  0  0  0
  -12.6465    3.5028    4.4899 N   0  0  0  0  0  0  0  0  0  0  0  0
   -7.5904   10.1407    4.5045 C   0  0  0  0  0  0  0  0  0  0  0  0
  -13.0883    2.1117    4.4983 C   0  0  0  0  0  0  0  0  0  0  0  0
   -7.5767    9.8254    6.0090 C   0  0  0  0  0  0  0  0  0  0  0  0
  -11.8374    1.2176    4.4108 C   0  0  0  0  0  0  0  0  0  0  0  0
   -6.9645    8.4431    6.2745 C   0  0  0  0  0  0  0  0  0  0  0  0
  -10.5741    1.9088    4.9550 C   0  0  0  0  0  0  0  0  0  0  0  0
   -5.5138    8.6049    6.6499 N   0  0  0  0  0  0  0  0  0  0  0  0
   -9.4237    0.9419    5.0783 N   0  0  0  0  0  0  0  0  0  0  0  0
   -5.3950    9.4560    7.8848 C   0  0  0  0  0  0  0  0  0  0  0  0
   -9.4706   -0.0190    3.9207 C   0  0  0  0  0  0  0  0  0  0  0  0
   -4.7339    9.2363    5.5233 C   0  0  0  0  0  0  0  0  0  0  0  0
   -9.4724    0.1618    6.3624 C   0  0  0  0  0  0  0  0  0  0  0  0
  1  6  2  0  0  0  0
  2  3  2  0  0  0  0
  2  1  1  0  0  0  0
  3  4  1  0  0  0  0
  4 10  1  0  0  0  0
  4  5  2  0  0  0  0
  6  5  1  0  0  0  0
  7  1  1  0  0  0  0
  7 11  1  0  0  0  0
  8  7  2  0  0  0  0
  9 10  2  0  0  0  0
 10 12  1  0  0  0  0
 12 14  1  0  0  0  0
 13 11  1  0  0  0  0
 13 15  1  0  0  0  0
 14 16  1  0  0  0  0
 16 18  1  0  0  0  0
 17 15  1  0  0  0  0
 17 19  1  0  0  0  0
 18 20  1  0  0  0  0
 19 23  1  0  0  0  0
 20 22  1  0  0  0  0
 20 24  1  0  0  0  0
 21 19  1  0  0  0  0
M  END
>  <CHROM.1>
-4.64680080,42.44523757,98.13469206,105.34327316,50.41206571,25.45105554
170.22753747,97.31146218,59.62178391,37.06480377,-9.67637432,5.86444418,4.46290399
0.91507750,-0.58258983,-0.25715946

>  <Name>
lig.pdb

>  <RI>
2.62193e+07

>  <Rbt.Current_Directory>
/home/itssahil/PROJECTS/Mol_Feturizer/New_Systems/rnas/2l94

>  <Rbt.Executable>
rbdock ($Id: //depot/dev/client3/rdock/2013.1/src/exe/rbdock.cxx#4 $)

>  <Rbt.Library>
libRbt.so (2013.1, Build901 2013/11/27)

>  <Rbt.Parameter_File>
/export/apps/rDock/src/rDock_2013.1_src/data/scripts/dock_solv.prm

>  <Rbt.Receptor>
prm/blind_docking_60.prm

>  <SCORE>
31.8733

>  <SCORE.INTER>
7.34072

>  <SCORE.INTER.CONST>
1

>  <SCORE.INTER.POLAR>
-1.48907

>  <SCORE.INTER.ROT>
10

>  <SCORE.INTER.SOLV>
21.1439

>  <SCORE.INTER.VDW>
-7.45726

>  <SCORE.INTER.norm>
0.305863

>  <SCORE.INTRA>
14.8388

>  <SCORE.INTRA.DIHEDRAL>
12.3265

>  <SCORE.INTRA.DIHEDRAL.0>
7.52971

>  <SCORE.INTRA.POLAR>
0

>  <SCORE.INTRA.POLAR.0>
0

>  <SCORE.INTRA.REPUL>
0

>  <SCORE.INTRA.REPUL.0>
0

>  <SCORE.INTRA.SOLV>
0.710965

>  <SCORE.INTRA.SOLV.lig_0>
-22.1084

>  <SCORE.INTRA.VDW>
8.3201

>  <SCORE.INTRA.VDW.0>
2.4256

>  <SCORE.INTRA.norm>
0.618284

>  <SCORE.RESTR>
9.69373

>  <SCORE.RESTR.CAVITY>
9.69373

>  <SCORE.RESTR.norm>
0.403905

>  <SCORE.SYSTEM>
0

>  <SCORE.SYSTEM.CONST>
0

>  <SCORE.SYSTEM.DIHEDRAL>
0

>  <SCORE.SYSTEM.SOLV>
0

>  <SCORE.SYSTEM.norm>
0

>  <SCORE.heavy>
24

>  <SCORE.norm>
1.32805

>  <RMSD>
18.275

$$$$
lig.pdb
 OpenBabel11021811453D
libRbt.so/2013.1/901 2013/11/27
 24 24  0  0  0  0  0  0  0  0999 V2000
  -10.7762    7.3669    3.2120 C   0  0  0  0  0  0  0  0  0  0  0  0
  -10.6319    6.5817    4.4052 C   0  0  0  0  0  0  0  0  0  0  0  0
  -11.5150    5.5765    4.7210 C   0  0  0  0  0  0  0  0  0  0  0  0
  -12.6209    5.2518    3.8719 C   0  0  0  0  0  0  0  0  0  0  0  0
  -12.7832    6.0589    2.6980 C   0  0  0  0  0  0  0  0  0  0  0  0
  -11.9068    7.0679    2.3859 C   0  0  0  0  0  0  0  0  0  0  0  0
   -9.8868    8.3461    2.8728 C   0  0  0  0  0  0  0  0  0  0  0  0
  -10.0820    9.1815    1.8302 N   0  0  0  0  0  0  0  0  0  0  0  0
  -14.7701    4.2148    3.7540 N   0  0  0  0  0  0  0  0  0  0  0  0
  -13.4819    4.2333    4.1568 C   0  0  0  0  0  0  0  0  0  0  0  0
   -8.7385    8.5560    3.5630 N   0  0  0  0  0  0  0  0  0  0  0  0
  -13.1128    3.1466    4.8757 N   0  0  0  0  0  0  0  0  0  0  0  0
   -8.1011    9.8446    3.8267 C   0  0  0  0  0  0  0  0  0  0  0  0
  -13.7707    1.8436    4.8660 C   0  0  0  0  0  0  0  0  0  0  0  0
   -6.6316    9.5814    4.1931 C   0  0  0  0  0  0  0  0  0  0  0  0
  -12.7648    0.8098    4.3263 C   0  0  0  0  0  0  0  0  0  0  0  0
   -6.5250    8.8223    5.5229 C   0  0  0  0  0  0  0  0  0  0  0  0
  -11.3015    1.2305    4.5532 C   0  0  0  0  0  0  0  0  0  0  0  0
   -5.9892    7.4375    5.2641 N   0  0  0  0  0  0  0  0  0  0  0  0
  -10.4643    0.0776    5.0466 N   0  0  0  0  0  0  0  0  0  0  0  0
   -6.6149    6.4582    6.2196 C   0  0  0  0  0  0  0  0  0  0  0  0
   -9.4693    0.5946    6.0507 C   0  0  0  0  0  0  0  0  0  0  0  0
   -4.4886    7.4043    5.4161 C   0  0  0  0  0  0  0  0  0  0  0  0
   -9.7225   -0.6042    3.9309 C   0  0  0  0  0  0  0  0  0  0  0  0
  1  6  2  0  0  0  0
  2  3  2  0  0  0  0
  2  1  1  0  0  0  0
  3  4  1  0  0  0  0
  4 10  1  0  0  0  0
  4  5  2  0  0  0  0
  6  5  1  0  0  0  0
  7  1  1  0  0  0  0
  7 11  1  0  0  0  0
  8  7  2  0  0  0  0
  9 10  2  0  0  0  0
 10 12  1  0  0  0  0
 12 14  1  0  0  0  0
 13 11  1  0  0  0  0
 13 15  1  0  0  0  0
 14 16  1  0  0  0  0
 16 18  1  0  0  0  0
 17 15  1  0  0  0  0
 17 19  1  0  0  0  0
 18 20  1  0  0  0  0
 19 23  1  0  0  0  0
 20 22  1  0  0  0  0
 20 24  1  0  0  0  0
 21 19  1  0  0  0  0
M  END
>  <CHROM.1>
152.03937398,-173.04440303,117.05250161,-160.68448973,-66.09721052,25.59106737
136.22544580,112.55448795,-145.42890342,-142.89077631,-10.19229029,5.32783192
4.25718401,0.92779463,-0.30457965,-0.25541541

>  <Name>
lig.pdb

>  <RI>
2.62193e+07

>  <Rbt.Current_Directory>
/home/itssahil/PROJECTS/Mol_Feturizer/New_Systems/rnas/2l94

>  <Rbt.Executable>
rbdock ($Id: //depot/dev/client3/rdock/2013.1/src/exe/rbdock.cxx#4 $)

>  <Rbt.Library>
libRbt.so (2013.1, Build901 2013/11/27)

>  <Rbt.Parameter_File>
/export/apps/rDock/src/rDock_2013.1_src/data/scripts/dock_solv.prm

>  <Rbt.Receptor>
prm/blind_docking_60.prm

>  <SCORE>
-0.160154

>  <SCORE.INTER>
-20.3175

>  <SCORE.INTER.CONST>
1

>  <SCORE.INTER.POLAR>
-3.64673

>  <SCORE.INTER.ROT>
10

>  <SCORE.INTER.SOLV>
22.1785

>  <SCORE.INTER.VDW>
-19.0487

>  <SCORE.INTER.norm>
-0.846562

>  <SCORE.INTRA>
8.41704

>  <SCORE.INTRA.DIHEDRAL>
18.2425

>  <SCORE.INTRA.DIHEDRAL.0>
7.52971

>  <SCORE.INTRA.POLAR>
0

>  <SCORE.INTRA.POLAR.0>
0

>  <SCORE.INTRA.REPUL>
0

>  <SCORE.INTRA.REPUL.0>
0

>  <SCORE.INTRA.SOLV>
0.849249

>  <SCORE.INTRA.SOLV.lig_0>
-22.1084

>  <SCORE.INTRA.VDW>
-1.12883

>  <SCORE.INTRA.VDW.0>
2.4256

>  <SCORE.INTRA.norm>
0.35071

>  <SCORE.RESTR>
11.7403

>  <SCORE.RESTR.CAVITY>
11.7403

>  <SCORE.RESTR.norm>
0.489179

>  <SCORE.SYSTEM>
0

>  <SCORE.SYSTEM.CONST>
0

>  <SCORE.SYSTEM.DIHEDRAL>
0

>  <SCORE.SYSTEM.SOLV>
0

>  <SCORE.SYSTEM.norm>
0

>  <SCORE.heavy>
24

>  <SCORE.norm>
-0.0066731

>  <RMSD>
18.435

$$$$
lig.pdb
 OpenBabel11021811453D
libRbt.so/2013.1/901 2013/11/27
 24 24  0  0  0  0  0  0  0  0999 V2000
  -11.9166    4.9164    3.9294 C   0  0  0  0  0  0  0  0  0  0  0  0
  -12.0540    5.6507    2.7034 C   0  0  0  0  0  0  0  0  0  0  0  0
  -11.3433    6.8036    2.4670 C   0  0  0  0  0  0  0  0  0  0  0  0
  -10.4201    7.3289    3.4268 C   0  0  0  0  0  0  0  0  0  0  0  0
  -10.3091    6.6132    4.6642 C   0  0  0  0  0  0  0  0  0  0  0  0
  -11.0242    5.4666    4.9045 C   0  0  0  0  0  0  0  0  0  0  0  0
  -12.5937    3.7534    4.1613 C   0  0  0  0  0  0  0  0  0  0  0  0
  -13.9167    3.6188    3.9276 N   0  0  0  0  0  0  0  0  0  0  0  0
  -10.1110    9.4703    2.4132 N   0  0  0  0  0  0  0  0  0  0  0  0
   -9.6831    8.4512    3.1881 C   0  0  0  0  0  0  0  0  0  0  0  0
  -11.9846    2.6411    4.6416 N   0  0  0  0  0  0  0  0  0  0  0  0
   -8.4484    8.6375    3.7123 N   0  0  0  0  0  0  0  0  0  0  0  0
  -12.2938    1.2560    4.2920 C   0  0  0  0  0  0  0  0  0  0  0  0
   -7.7757    9.9196    3.8971 C   0  0  0  0  0  0  0  0  0  0  0  0
  -10.9671    0.5242    4.0325 C   0  0  0  0  0  0  0  0  0  0  0  0
   -8.4806   10.6623    5.0474 C   0  0  0  0  0  0  0  0  0  0  0  0
   -9.9052    0.9308    5.0635 C   0  0  0  0  0  0  0  0  0  0  0  0
   -9.5424   11.6589    4.5482 C   0  0  0  0  0  0  0  0  0  0  0  0
   -8.5496    0.4738    4.5888 N   0  0  0  0  0  0  0  0  0  0  0  0
   -9.1952   13.0754    4.9309 N   0  0  0  0  0  0  0  0  0  0  0  0
   -7.4702    1.2397    5.3040 C   0  0  0  0  0  0  0  0  0  0  0  0
   -9.4092   13.2451    6.4111 C   0  0  0  0  0  0  0  0  0  0  0  0
   -8.4070    0.6697    3.0997 C   0  0  0  0  0  0  0  0  0  0  0  0
  -10.0347   14.0841    4.1976 C   0  0  0  0  0  0  0  0  0  0  0  0
  1  6  2  0  0  0  0
  2  3  2  0  0  0  0
  2  1  1  0  0  0  0
  3  4  1  0  0  0  0
  4 10  1  0  0  0  0
  4  5  2  0  0  0  0
  6  5  1  0  0  0  0
  7  1  1  0  0  0  0
  7 11  1  0  0  0  0
  8  7  2  0  0  0  0
  9 10  2  0  0  0  0
 10 12  1  0  0  0  0
 12 14  1  0  0  0  0
 13 11  1  0  0  0  0
 13 15  1  0  0  0  0
 14 16  1  0  0  0  0
 16 18  1  0  0  0  0
 17 15  1  0  0  0  0
 17 19  1  0  0  0  0
 18 20  1  0  0  0  0
 19 23  1  0  0  0  0
 20 22  1  0  0  0  0
 20 24  1  0  0  0  0
 21 19  1  0  0  0  0
M  END
>  <CHROM.1>
30.94578111,-47.65415672,71.55663350,134.41476602,41.17470206,-95.96732592
-117.45164205,-166.09097320,160.80299565,-72.39611726,-10.20290957,6.31338823
4.16483247,1.68242624,0.19062292,-3.14133833

>  <Name>
lig.pdb

>  <RI>
2.62193e+07

>  <Rbt.Current_Directory>
/home/itssahil/PROJECTS/Mol_Feturizer/New_Systems/rnas/2l94

>  <Rbt.Executable>
rbdock ($Id: //depot/dev/client3/rdock/2013.1/src/exe/rbdock.cxx#4 $)

>  <Rbt.Library>
libRbt.so (2013.1, Build901 2013/11/27)

>  <Rbt.Parameter_File>
/export/apps/rDock/src/rDock_2013.1_src/data/scripts/dock_solv.prm

>  <Rbt.Receptor>
prm/blind_docking_60.prm

>  <SCORE>
7.95003

>  <SCORE.INTER>
-15.666

>  <SCORE.INTER.CONST>
1

>  <SCORE.INTER.POLAR>
-1.53971

>  <SCORE.INTER.ROT>
10

>  <SCORE.INTER.SOLV>
20.8484

>  <SCORE.INTER.VDW>
-22.5278

>  <SCORE.INTER.norm>
-0.652752

>  <SCORE.INTRA>
14.6474

>  <SCORE.INTRA.DIHEDRAL>
20.0181

>  <SCORE.INTRA.DIHEDRAL.0>
7.52971

>  <SCORE.INTRA.POLAR>
0

>  <SCORE.INTRA.POLAR.0>
0

>  <SCORE.INTRA.REPUL>
0

>  <SCORE.INTRA.REPUL.0>
0

>  <SCORE.INTRA.SOLV>
0.640756

>  <SCORE.INTRA.SOLV.lig_0>
-22.1084

>  <SCORE.INTRA.VDW>
4.31797

>  <SCORE.INTRA.VDW.0>
2.4256

>  <SCORE.INTRA.norm>
0.610308

>  <SCORE.RESTR>
8.96867

>  <SCORE.RESTR.CAVITY>
8.96867

>  <SCORE.RESTR.norm>
0.373695

>  <SCORE.SYSTEM>
0

>  <SCORE.SYSTEM.CONST>
0

>  <SCORE.SYSTEM.DIHEDRAL>
0

>  <SCORE.SYSTEM.SOLV>
0

>  <SCORE.SYSTEM.norm>
0

>  <SCORE.heavy>
24

>  <SCORE.norm>
0.331251

>  <RMSD>
18.468

$$$$
lig.pdb
 OpenBabel11021811453D
libRbt.so/2013.1/901 2013/11/27
 24 24  0  0  0  0  0  0  0  0999 V2000
  -12.1419    5.6153    3.8958 C   0  0  0  0  0  0  0  0  0  0  0  0
  -12.1961    6.3856    2.6855 C   0  0  0  0  0  0  0  0  0  0  0  0
  -11.2639    7.3559    2.4032 C   0  0  0  0  0  0  0  0  0  0  0  0
  -10.1828    7.6438    3.2964 C   0  0  0  0  0  0  0  0  0  0  0  0
  -10.1494    6.8972    4.5199 C   0  0  0  0  0  0  0  0  0  0  0  0
  -11.0841    5.9339    4.8066 C   0  0  0  0  0  0  0  0  0  0  0  0
  -13.0439    4.6277    4.1711 C   0  0  0  0  0  0  0  0  0  0  0  0
  -13.0621    3.9610    5.3452 N   0  0  0  0  0  0  0  0  0  0  0  0
   -9.4041    9.5574    2.0963 N   0  0  0  0  0  0  0  0  0  0  0  0
   -9.2321    8.5785    3.0098 C   0  0  0  0  0  0  0  0  0  0  0  0
  -13.9952    4.2439    3.2840 N   0  0  0  0  0  0  0  0  0  0  0  0
   -8.0246    8.6015    3.6224 N   0  0  0  0  0  0  0  0  0  0  0  0
  -15.3568    3.8132    3.5952 C   0  0  0  0  0  0  0  0  0  0  0  0
   -7.1366    9.7547    3.7324 C   0  0  0  0  0  0  0  0  0  0  0  0
  -15.4607    2.3101    3.2908 C   0  0  0  0  0  0  0  0  0  0  0  0
   -6.3894    9.6500    5.0750 C   0  0  0  0  0  0  0  0  0  0  0  0
  -14.6162    1.4908    4.2765 C   0  0  0  0  0  0  0  0  0  0  0  0
   -5.2718    8.5915    5.0517 C   0  0  0  0  0  0  0  0  0  0  0  0
  -13.5709    0.7178    3.5139 N   0  0  0  0  0  0  0  0  0  0  0  0
   -4.6065    8.4594    6.3983 N   0  0  0  0  0  0  0  0  0  0  0  0
  -12.1968    1.1152    3.9803 C   0  0  0  0  0  0  0  0  0  0  0  0
   -3.9065    9.7517    6.7231 C   0  0  0  0  0  0  0  0  0  0  0  0
  -13.6934    0.9666    2.0309 C   0  0  0  0  0  0  0  0  0  0  0  0
   -3.6036    7.3399    6.4291 C   0  0  0  0  0  0  0  0  0  0  0  0
  1  6  2  0  0  0  0
  2  3  2  0  0  0  0
  2  1  1  0  0  0  0
  3  4  1  0  0  0  0
  4 10  1  0  0  0  0
  4  5  2  0  0  0  0
  6  5  1  0  0  0  0
  7  1  1  0  0  0  0
  7 11  1  0  0  0  0
  8  7  2  0  0  0  0
  9 10  2  0  0  0  0
 10 12  1  0  0  0  0
 12 14  1  0  0  0  0
 13 11  1  0  0  0  0
 13 15  1  0  0  0  0
 14 16  1  0  0  0  0
 16 18  1  0  0  0  0
 17 15  1  0  0  0  0
 17 19  1  0  0  0  0
 18 20  1  0  0  0  0
 19 23  1  0  0  0  0
 20 22  1  0  0  0  0
 20 24  1  0  0  0  0
 21 19  1  0  0  0  0
M  END
>  <CHROM.1>
19.43074180,-175.16248820,147.02404755,-110.66155751,68.26160552,75.40850820
-176.99568959,-119.69637269,120.31660255,-64.83046585,-10.35479460,5.93437059
4.07614274,2.61497918,0.45158989,2.74557003

>  <Name>
lig.pdb

>  <RI>
2.62193e+07

>  <Rbt.Current_Directory>
/home/itssahil/PROJECTS/Mol_Feturizer/New_Systems/rnas/2l94

>  <Rbt.Executable>
rbdock ($Id: //depot/dev/client3/rdock/2013.1/src/exe/rbdock.cxx#4 $)

>  <Rbt.Library>
libRbt.so (2013.1, Build901 2013/11/27)

>  <Rbt.Parameter_File>
/export/apps/rDock/src/rDock_2013.1_src/data/scripts/dock_solv.prm

>  <Rbt.Receptor>
prm/blind_docking_60.prm

>  <SCORE>
18.1923

>  <SCORE.INTER>
-11.5632

>  <SCORE.INTER.CONST>
1

>  <SCORE.INTER.POLAR>
-1.16227

>  <SCORE.INTER.ROT>
10

>  <SCORE.INTER.SOLV>
20.4331

>  <SCORE.INTER.VDW>
-20.9122

>  <SCORE.INTER.norm>
-0.4818

>  <SCORE.INTRA>
16.1522

>  <SCORE.INTRA.DIHEDRAL>
9.092

>  <SCORE.INTRA.DIHEDRAL.0>
7.52971

>  <SCORE.INTRA.POLAR>
0

>  <SCORE.INTRA.POLAR.0>
0

>  <SCORE.INTRA.REPUL>
0

>  <SCORE.INTRA.REPUL.0>
0

>  <SCORE.INTRA.SOLV>
1.54503

>  <SCORE.INTRA.SOLV.lig_0>
-22.1084

>  <SCORE.INTRA.VDW>
10.8337

>  <SCORE.INTRA.VDW.0>
2.4256

>  <SCORE.INTRA.norm>
0.673007

>  <SCORE.RESTR>
13.6033

>  <SCORE.RESTR.CAVITY>
13.6033

>  <SCORE.RESTR.norm>
0.566804

>  <SCORE.SYSTEM>
0

>  <SCORE.SYSTEM.CONST>
0

>  <SCORE.SYSTEM.DIHEDRAL>
0

>  <SCORE.SYSTEM.SOLV>
0

>  <SCORE.SYSTEM.norm>
0

>  <SCORE.heavy>
24

>  <SCORE.norm>
0.758011

>  <RMSD>
18.504

$$$$
lig.pdb
 OpenBabel11021811453D
libRbt.so/2013.1/901 2013/11/27
 24 24  0  0  0  0  0  0  0  0999 V2000
  -12.2912    5.3336    4.1264 C   0  0  0  0  0  0  0  0  0  0  0  0
  -12.5238    6.1976    3.0037 C   0  0  0  0  0  0  0  0  0  0  0  0
  -11.6773    7.2388    2.7045 C   0  0  0  0  0  0  0  0  0  0  0  0
  -10.5124    7.5116    3.4906 C   0  0  0  0  0  0  0  0  0  0  0  0
  -10.2998    6.6689    4.6309 C   0  0  0  0  0  0  0  0  0  0  0  0
  -11.1487    5.6342    4.9353 C   0  0  0  0  0  0  0  0  0  0  0  0
  -13.1078    4.2775    4.4137 C   0  0  0  0  0  0  0  0  0  0  0  0
  -14.4510    4.3371    4.2895 N   0  0  0  0  0  0  0  0  0  0  0  0
   -9.9708    9.5599    2.3864 N   0  0  0  0  0  0  0  0  0  0  0  0
   -9.6463    8.5187    3.1818 C   0  0  0  0  0  0  0  0  0  0  0  0
  -12.6285    3.0838    4.8432 N   0  0  0  0  0  0  0  0  0  0  0  0
   -8.3764    8.5573    3.6507 N   0  0  0  0  0  0  0  0  0  0  0  0
  -13.1617    1.7616    4.5210 C   0  0  0  0  0  0  0  0  0  0  0  0
   -7.5350    9.7449    3.7613 C   0  0  0  0  0  0  0  0  0  0  0  0
  -12.0279    0.9313    3.8980 C   0  0  0  0  0  0  0  0  0  0  0  0
   -7.3633   10.0654    5.2578 C   0  0  0  0  0  0  0  0  0  0  0  0
  -10.7887    0.9276    4.8037 C   0  0  0  0  0  0  0  0  0  0  0  0
   -6.6775    8.9266    6.0341 C   0  0  0  0  0  0  0  0  0  0  0  0
   -9.6080    0.3994    4.0299 N   0  0  0  0  0  0  0  0  0  0  0  0
   -6.8483    9.0907    7.5232 N   0  0  0  0  0  0  0  0  0  0  0  0
   -9.5645   -1.1017    4.1213 C   0  0  0  0  0  0  0  0  0  0  0  0
   -5.7962   10.0396    8.0312 C   0  0  0  0  0  0  0  0  0  0  0  0
   -8.3176    0.9759    4.5577 C   0  0  0  0  0  0  0  0  0  0  0  0
   -6.7227    7.7845    8.2567 C   0  0  0  0  0  0  0  0  0  0  0  0
  1  6  2  0  0  0  0
  2  3  2  0  0  0  0
  2  1  1  0  0  0  0
  3  4  1  0  0  0  0
  4 10  1  0  0  0  0
  4  5  2  0  0  0  0
  6  5  1  0  0  0  0
  7  1  1  0  0  0  0
  7 11  1  0  0  0  0
  8  7  2  0  0  0  0
  9 10  2  0  0  0  0
 10 12  1  0  0  0  0
 12 14  1  0  0  0  0
 13 11  1  0  0  0  0
 13 15  1  0  0  0  0
 14 16  1  0  0  0  0
 16 18  1  0  0  0  0
 17 15  1  0  0  0  0
 17 19  1  0  0  0  0
 18 20  1  0  0  0  0
 19 23  1  0  0  0  0
 20 22  1  0  0  0  0
 20 24  1  0  0  0  0
 21 19  1  0  0  0  0
M  END
>  <CHROM.1>
19.53093377,-39.57355628,110.23055867,123.70068018,53.13603480,61.02280082
-164.77522029,-166.47333442,-86.69865837,-83.26594796,-9.98669992,5.65684883
4.63833921,2.11874442,0.51824175,3.02522721

>  <Name>
lig.pdb

>  <RI>
2.62193e+07

>  <Rbt.Current_Directory>
/home/itssahil/PROJECTS/Mol_Feturizer/New_Systems/rnas/2l94

>  <Rbt.Executable>
rbdock ($Id: //depot/dev/client3/rdock/2013.1/src/exe/rbdock.cxx#4 $)

>  <Rbt.Library>
libRbt.so (2013.1, Build901 2013/11/27)

>  <Rbt.Parameter_File>
/export/apps/rDock/src/rDock_2013.1_src/data/scripts/dock_solv.prm

>  <Rbt.Receptor>
prm/blind_docking_60.prm

>  <SCORE>
13.3488

>  <SCORE.INTER>
0.693397

>  <SCORE.INTER.CONST>
1

>  <SCORE.INTER.POLAR>
-1.20709

>  <SCORE.INTER.ROT>
10

>  <SCORE.INTER.SOLV>
19.7707

>  <SCORE.INTER.VDW>
-12.371

>  <SCORE.INTER.norm>
0.0288915

>  <SCORE.INTRA>
1.98937

>  <SCORE.INTRA.DIHEDRAL>
8.41022

>  <SCORE.INTRA.DIHEDRAL.0>
7.52971

>  <SCORE.INTRA.POLAR>
0

>  <SCORE.INTRA.POLAR.0>
0

>  <SCORE.INTRA.REPUL>
0

>  <SCORE.INTRA.REPUL.0>
0

>  <SCORE.INTRA.SOLV>
0.253022

>  <SCORE.INTRA.SOLV.lig_0>
-22.1084

>  <SCORE.INTRA.VDW>
-2.34225

>  <SCORE.INTRA.VDW.0>
2.4256

>  <SCORE.INTRA.norm>
0.0828905

>  <SCORE.RESTR>
10.666

>  <SCORE.RESTR.CAVITY>
10.666

>  <SCORE.RESTR.norm>
0.444417

>  <SCORE.SYSTEM>
0

>  <SCORE.SYSTEM.CONST>
0

>  <SCORE.SYSTEM.DIHEDRAL>
0

>  <SCORE.SYSTEM.SOLV>
0

>  <SCORE.SYSTEM.norm>
0

>  <SCORE.heavy>
24

>  <SCORE.norm>
0.556199

>  <RMSD>
18.516

$$$$
lig.pdb
 OpenBabel11021811453D
libRbt.so/2013.1/901 2013/11/27
 24 24  0  0  0  0  0  0  0  0999 V2000
  -11.1770    5.0156    4.9979 C   0  0  0  0  0  0  0  0  0  0  0  0
  -10.2484    5.5893    5.9303 C   0  0  0  0  0  0  0  0  0  0  0  0
   -9.6287    6.7922    5.6869 C   0  0  0  0  0  0  0  0  0  0  0  0
   -9.8835    7.5426    4.4947 C   0  0  0  0  0  0  0  0  0  0  0  0
  -10.7853    6.9523    3.5492 C   0  0  0  0  0  0  0  0  0  0  0  0
  -11.3984    5.7476    3.7875 C   0  0  0  0  0  0  0  0  0  0  0  0
  -11.8220    3.8374    5.2443 C   0  0  0  0  0  0  0  0  0  0  0  0
  -11.1728    2.7110    5.6087 N   0  0  0  0  0  0  0  0  0  0  0  0
   -9.2152    9.7288    5.1891 N   0  0  0  0  0  0  0  0  0  0  0  0
   -9.3025    8.7537    4.2597 C   0  0  0  0  0  0  0  0  0  0  0  0
  -13.1686    3.7112    5.1451 N   0  0  0  0  0  0  0  0  0  0  0  0
   -8.7612    9.0824    3.0626 N   0  0  0  0  0  0  0  0  0  0  0  0
  -14.0325    2.8837    5.9847 C   0  0  0  0  0  0  0  0  0  0  0  0
   -7.7587   10.1164    2.8256 C   0  0  0  0  0  0  0  0  0  0  0  0
  -14.3784    1.6087    5.1987 C   0  0  0  0  0  0  0  0  0  0  0  0
   -6.4032    9.5853    3.3281 C   0  0  0  0  0  0  0  0  0  0  0  0
  -14.9370    1.9537    3.8113 C   0  0  0  0  0  0  0  0  0  0  0  0
   -6.4495    9.1386    4.8006 C   0  0  0  0  0  0  0  0  0  0  0  0
  -13.8005    2.0441    2.8254 N   0  0  0  0  0  0  0  0  0  0  0  0
   -5.3816    8.1179    5.1030 N   0  0  0  0  0  0  0  0  0  0  0  0
  -13.9052    3.3214    2.0373 C   0  0  0  0  0  0  0  0  0  0  0  0
   -5.9540    7.0746    6.0247 C   0  0  0  0  0  0  0  0  0  0  0  0
  -13.8109    0.8660    1.8832 C   0  0  0  0  0  0  0  0  0  0  0  0
   -4.1745    8.7343    5.7533 C   0  0  0  0  0  0  0  0  0  0  0  0
  1  6  2  0  0  0  0
  2  3  2  0  0  0  0
  2  1  1  0  0  0  0
  3  4  1  0  0  0  0
  4 10  1  0  0  0  0
  4  5  2  0  0  0  0
  6  5  1  0  0  0  0
  7  1  1  0  0  0  0
  7 11  1  0  0  0  0
  8  7  2  0  0  0  0
  9 10  2  0  0  0  0
 10 12  1  0  0  0  0
 12 14  1  0  0  0  0
 13 11  1  0  0  0  0
 13 15  1  0  0  0  0
 14 16  1  0  0  0  0
 16 18  1  0  0  0  0
 17 15  1  0  0  0  0
 17 19  1  0  0  0  0
 18 20  1  0  0  0  0
 19 23  1  0  0  0  0
 20 22  1  0  0  0  0
 20 24  1  0  0  0  0
 21 19  1  0  0  0  0
M  END
>  <CHROM.1>
-44.96823582,-51.63761512,74.79310044,-101.60432389,-52.40395886,-55.28299493
155.44722099,89.79943745,-130.56783367,-140.54593881,-10.29155786,5.84696049
4.42561370,-2.64766251,-0.59683473,-0.70563300

>  <Name>
lig.pdb

>  <RI>
2.62193e+07

>  <Rbt.Current_Directory>
/home/itssahil/PROJECTS/Mol_Feturizer/New_Systems/rnas/2l94

>  <Rbt.Executable>
rbdock ($Id: //depot/dev/client3/rdock/2013.1/src/exe/rbdock.cxx#4 $)

>  <Rbt.Library>
libRbt.so (2013.1, Build901 2013/11/27)

>  <Rbt.Parameter_File>
/export/apps/rDock/src/rDock_2013.1_src/data/scripts/dock_solv.prm

>  <Rbt.Receptor>
prm/blind_docking_60.prm

>  <SCORE>
0.766749

>  <SCORE.INTER>
-18.7327

>  <SCORE.INTER.CONST>
1

>  <SCORE.INTER.POLAR>
-1.81747

>  <SCORE.INTER.ROT>
10

>  <SCORE.INTER.SOLV>
18.4788

>  <SCORE.INTER.VDW>
-22.8565

>  <SCORE.INTER.norm>
-0.780529

>  <SCORE.INTRA>
8.28097

>  <SCORE.INTRA.DIHEDRAL>
22.3889

>  <SCORE.INTRA.DIHEDRAL.0>
7.52971

>  <SCORE.INTRA.POLAR>
0

>  <SCORE.INTRA.POLAR.0>
0

>  <SCORE.INTRA.REPUL>
0

>  <SCORE.INTRA.REPUL.0>
0

>  <SCORE.INTRA.SOLV>
2.44265

>  <SCORE.INTRA.SOLV.lig_0>
-22.1084

>  <SCORE.INTRA.VDW>
-4.1348

>  <SCORE.INTRA.VDW.0>
2.4256

>  <SCORE.INTRA.norm>
0.34504

>  <SCORE.RESTR>
11.2185

>  <SCORE.RESTR.CAVITY>
11.2185

>  <SCORE.RESTR.norm>
0.467437

>  <SCORE.SYSTEM>
0

>  <SCORE.SYSTEM.CONST>
0

>  <SCORE.SYSTEM.DIHEDRAL>
0

>  <SCORE.SYSTEM.SOLV>
0

>  <SCORE.SYSTEM.norm>
0

>  <SCORE.heavy>
24

>  <SCORE.norm>
0.0319479

>  <RMSD>
18.555

$$$$
lig.pdb
 OpenBabel11021811453D
libRbt.so/2013.1/901 2013/11/27
 24 24  0  0  0  0  0  0  0  0999 V2000
   -9.9255    8.8049    3.7922 C   0  0  0  0  0  0  0  0  0  0  0  0
  -10.6871    8.3170    4.9070 C   0  0  0  0  0  0  0  0  0  0  0  0
  -11.5751    7.2756    4.7762 C   0  0  0  0  0  0  0  0  0  0  0  0
  -11.7810    6.6148    3.5231 C   0  0  0  0  0  0  0  0  0  0  0  0
  -11.0448    7.1250    2.4036 C   0  0  0  0  0  0  0  0  0  0  0  0
  -10.1640    8.1699    2.5313 C   0  0  0  0  0  0  0  0  0  0  0  0
   -9.0177    9.8173    3.9179 C   0  0  0  0  0  0  0  0  0  0  0  0
   -9.0110   10.6669    4.9673 N   0  0  0  0  0  0  0  0  0  0  0  0
  -13.2191    4.9397    4.4366 N   0  0  0  0  0  0  0  0  0  0  0  0
  -12.6320    5.5575    3.3898 C   0  0  0  0  0  0  0  0  0  0  0  0
   -8.0486   10.0433    2.9965 N   0  0  0  0  0  0  0  0  0  0  0  0
  -12.9605    5.0337    2.1849 N   0  0  0  0  0  0  0  0  0  0  0  0
   -6.6877   10.5086    3.2566 C   0  0  0  0  0  0  0  0  0  0  0  0
  -14.1475    4.2386    1.8863 C   0  0  0  0  0  0  0  0  0  0  0  0
   -5.9495    9.4068    4.0339 C   0  0  0  0  0  0  0  0  0  0  0  0
  -13.7055    2.7726    1.7207 C   0  0  0  0  0  0  0  0  0  0  0  0
   -6.5023    9.2769    5.4600 C   0  0  0  0  0  0  0  0  0  0  0  0
  -13.3602    2.1013    3.0623 C   0  0  0  0  0  0  0  0  0  0  0  0
   -5.6684    8.2841    6.2286 N   0  0  0  0  0  0  0  0  0  0  0  0
  -14.5474    1.3712    3.6376 N   0  0  0  0  0  0  0  0  0  0  0  0
   -5.9970    6.8848    5.7842 C   0  0  0  0  0  0  0  0  0  0  0  0
  -15.7920    2.1688    3.3545 C   0  0  0  0  0  0  0  0  0  0  0  0
   -5.9098    8.4135    7.7122 C   0  0  0  0  0  0  0  0  0  0  0  0
  -14.4248    1.1685    5.1221 C   0  0  0  0  0  0  0  0  0  0  0  0
  1  6  2  0  0  0  0
  2  3  2  0  0  0  0
  2  1  1  0  0  0  0
  3  4  1  0  0  0  0
  4 10  1  0  0  0  0
  4  5  2  0  0  0  0
  6  5  1  0  0  0  0
  7  1  1  0  0  0  0
  7 11  1  0  0  0  0
  8  7  2  0  0  0  0
  9 10  2  0  0  0  0
 10 12  1  0  0  0  0
 12 14  1  0  0  0  0
 13 11  1  0  0  0  0
 13 15  1  0  0  0  0
 14 16  1  0  0  0  0
 16 18  1  0  0  0  0
 17 15  1  0  0  0  0
 17 19  1  0  0  0  0
 18 20  1  0  0  0  0
 19 23  1  0  0  0  0
 20 22  1  0  0  0  0
 20 24  1  0  0  0  0
 21 19  1  0  0  0  0
M  END
>  <CHROM.1>
-8.54464301,-18.22705999,-106.09640685,66.46362083,-69.74778954,74.02253627
93.49443395,-174.57643587,-74.99332878,-37.44429080,-10.52190524,6.56802025
3.99537108,0.48100407,-0.60226072,-0.57150804

>  <Name>
lig.pdb

>  <RI>
2.62193e+07

>  <Rbt.Current_Directory>
/home/itssahil/PROJECTS/Mol_Feturizer/New_Systems/rnas/2l94

>  <Rbt.Executable>
rbdock ($Id: //depot/dev/client3/rdock/2013.1/src/exe/rbdock.cxx#4 $)

>  <Rbt.Library>
libRbt.so (2013.1, Build901 2013/11/27)

>  <Rbt.Parameter_File>
/export/apps/rDock/src/rDock_2013.1_src/data/scripts/dock_solv.prm

>  <Rbt.Receptor>
prm/blind_docking_60.prm

>  <SCORE>
20.8348

>  <SCORE.INTER>
-2.24557

>  <SCORE.INTER.CONST>
1

>  <SCORE.INTER.POLAR>
-0.88963

>  <SCORE.INTER.ROT>
10

>  <SCORE.INTER.SOLV>
17.2305

>  <SCORE.INTER.VDW>
-14.5418

>  <SCORE.INTER.norm>
-0.0935655

>  <SCORE.INTRA>
7.9262

>  <SCORE.INTRA.DIHEDRAL>
4.88285

>  <SCORE.INTRA.DIHEDRAL.0>
7.52971

>  <SCORE.INTRA.POLAR>
0

>  <SCORE.INTRA.POLAR.0>
0

>  <SCORE.INTRA.REPUL>
0

>  <SCORE.INTRA.REPUL.0>
0

>  <SCORE.INTRA.SOLV>
1.60457

>  <SCORE.INTRA.SOLV.lig_0>
-22.1084

>  <SCORE.INTRA.VDW>
4.68249

>  <SCORE.INTRA.VDW.0>
2.4256

>  <SCORE.INTRA.norm>
0.330258

>  <SCORE.RESTR>
15.1542

>  <SCORE.RESTR.CAVITY>
15.1542

>  <SCORE.RESTR.norm>
0.631426

>  <SCORE.SYSTEM>
0

>  <SCORE.SYSTEM.CONST>
0

>  <SCORE.SYSTEM.DIHEDRAL>
0

>  <SCORE.SYSTEM.SOLV>
0

>  <SCORE.SYSTEM.norm>
0

>  <SCORE.heavy>
24

>  <SCORE.norm>
0.868119

>  <RMSD>
18.822

$$$$
lig.pdb
 OpenBabel11021811453D
libRbt.so/2013.1/901 2013/11/27
 24 24  0  0  0  0  0  0  0  0999 V2000
  -10.7367    7.3395    3.2868 C   0  0  0  0  0  0  0  0  0  0  0  0
  -11.9027    7.0587    2.4977 C   0  0  0  0  0  0  0  0  0  0  0  0
  -12.8238    6.1122    2.8795 C   0  0  0  0  0  0  0  0  0  0  0  0
  -12.6752    5.3623    4.0899 C   0  0  0  0  0  0  0  0  0  0  0  0
  -11.4933    5.6200    4.8596 C   0  0  0  0  0  0  0  0  0  0  0  0
  -10.5689    6.5589    4.4753 C   0  0  0  0  0  0  0  0  0  0  0  0
   -9.8322    8.2996    2.9332 C   0  0  0  0  0  0  0  0  0  0  0  0
  -10.0157    9.1241    1.8798 N   0  0  0  0  0  0  0  0  0  0  0  0
  -14.9056    4.5083    4.1558 N   0  0  0  0  0  0  0  0  0  0  0  0
  -13.6009    4.4472    4.4966 C   0  0  0  0  0  0  0  0  0  0  0  0
   -8.6795    8.5002    3.6188 N   0  0  0  0  0  0  0  0  0  0  0  0
  -13.2853    3.3923    5.2849 N   0  0  0  0  0  0  0  0  0  0  0  0
   -8.0211    9.7818    3.8643 C   0  0  0  0  0  0  0  0  0  0  0  0
  -14.0477    2.1541    5.4126 C   0  0  0  0  0  0  0  0  0  0  0  0
   -7.3130    9.6987    5.2262 C   0  0  0  0  0  0  0  0  0  0  0  0
  -13.4468    1.1258    4.4362 C   0  0  0  0  0  0  0  0  0  0  0  0
   -6.1266    8.7266    5.1696 C   0  0  0  0  0  0  0  0  0  0  0  0
  -13.4074    1.6375    2.9849 C   0  0  0  0  0  0  0  0  0  0  0  0
   -5.1791    9.0309    6.3017 N   0  0  0  0  0  0  0  0  0  0  0  0
  -14.6662    1.2778    2.2368 N   0  0  0  0  0  0  0  0  0  0  0  0
   -3.8725    8.3178    6.0831 C   0  0  0  0  0  0  0  0  0  0  0  0
  -14.3474    1.1778    0.7692 C   0  0  0  0  0  0  0  0  0  0  0  0
   -5.7695    8.6108    7.6249 C   0  0  0  0  0  0  0  0  0  0  0  0
  -15.7538    2.2971    2.4317 C   0  0  0  0  0  0  0  0  0  0  0  0
  1  6  2  0  0  0  0
  2  3  2  0  0  0  0
  2  1  1  0  0  0  0
  3  4  1  0  0  0  0
  4 10  1  0  0  0  0
  4  5  2  0  0  0  0
  6  5  1  0  0  0  0
  7  1  1  0  0  0  0
  7 11  1  0  0  0  0
  8  7  2  0  0  0  0
  9 10  2  0  0  0  0
 10 12  1  0  0  0  0
 12 14  1  0  0  0  0
 13 11  1  0  0  0  0
 13 15  1  0  0  0  0
 14 16  1  0  0  0  0
 16 18  1  0  0  0  0
 17 15  1  0  0  0  0
 17 19  1  0  0  0  0
 18 20  1  0  0  0  0
 19 23  1  0  0  0  0
 20 22  1  0  0  0  0
 20 24  1  0  0  0  0
 21 19  1  0  0  0  0
M  END
>  <CHROM.1>
-26.70291339,5.29635456,94.53702620,148.01700653,68.62120034,-55.58330004
-90.43304531,159.55090025,-166.90490930,-152.95676036,-10.90909501,5.82095457
4.04860432,0.39620451,-0.62228817,-0.64021535

>  <Name>
lig.pdb

>  <RI>
2.62193e+07

>  <Rbt.Current_Directory>
/home/itssahil/PROJECTS/Mol_Feturizer/New_Systems/rnas/2l94

>  <Rbt.Executable>
rbdock ($Id: //depot/dev/client3/rdock/2013.1/src/exe/rbdock.cxx#4 $)

>  <Rbt.Library>
libRbt.so (2013.1, Build901 2013/11/27)

>  <Rbt.Parameter_File>
/export/apps/rDock/src/rDock_2013.1_src/data/scripts/dock_solv.prm

>  <Rbt.Receptor>
prm/blind_docking_60.prm

>  <SCORE>
-14.1529

>  <SCORE.INTER>
-32.0387

>  <SCORE.INTER.CONST>
1

>  <SCORE.INTER.POLAR>
-3.8095

>  <SCORE.INTER.ROT>
10

>  <SCORE.INTER.SOLV>
19.291

>  <SCORE.INTER.VDW>
-25.3578

>  <SCORE.INTER.norm>
-1.33495

>  <SCORE.INTRA>
1.83478

>  <SCORE.INTRA.DIHEDRAL>
6.3476

>  <SCORE.INTRA.DIHEDRAL.0>
7.52971

>  <SCORE.INTRA.POLAR>
0

>  <SCORE.INTRA.POLAR.0>
0

>  <SCORE.INTRA.REPUL>
0

>  <SCORE.INTRA.REPUL.0>
0

>  <SCORE.INTRA.SOLV>
1.20651

>  <SCORE.INTRA.SOLV.lig_0>
-22.1084

>  <SCORE.INTRA.VDW>
-1.94227

>  <SCORE.INTRA.VDW.0>
2.4256

>  <SCORE.INTRA.norm>
0.076449

>  <SCORE.RESTR>
16.051

>  <SCORE.RESTR.CAVITY>
16.051

>  <SCORE.RESTR.norm>
0.668792

>  <SCORE.SYSTEM>
0

>  <SCORE.SYSTEM.CONST>
0

>  <SCORE.SYSTEM.DIHEDRAL>
0

>  <SCORE.SYSTEM.SOLV>
0

>  <SCORE.SYSTEM.norm>
0

>  <SCORE.heavy>
24

>  <SCORE.norm>
-0.589704

>  <RMSD>
18.954

$$$$
lig.pdb
 OpenBabel11021811453D
libRbt.so/2013.1/901 2013/11/27
 24 24  0  0  0  0  0  0  0  0999 V2000
   -9.0921    6.0825    6.0967 C   0  0  0  0  0  0  0  0  0  0  0  0
   -9.1931    4.8909    6.8909 C   0  0  0  0  0  0  0  0  0  0  0  0
  -10.2205    3.9932    6.7212 C   0  0  0  0  0  0  0  0  0  0  0  0
  -11.2399    4.1933    5.7362 C   0  0  0  0  0  0  0  0  0  0  0  0
  -11.1564    5.4004    4.9669 C   0  0  0  0  0  0  0  0  0  0  0  0
  -10.1356    6.3012    5.1411 C   0  0  0  0  0  0  0  0  0  0  0  0
   -8.0586    6.9644    6.2353 C   0  0  0  0  0  0  0  0  0  0  0  0
   -6.7901    6.5713    6.4790 N   0  0  0  0  0  0  0  0  0  0  0  0
  -13.5143    3.4912    5.9420 N   0  0  0  0  0  0  0  0  0  0  0  0
  -12.2430    3.2918    5.5344 C   0  0  0  0  0  0  0  0  0  0  0  0
   -8.2292    8.3059    6.1339 N   0  0  0  0  0  0  0  0  0  0  0  0
  -12.0447    2.1098    4.9039 N   0  0  0  0  0  0  0  0  0  0  0  0
   -7.2878    9.2651    5.5596 C   0  0  0  0  0  0  0  0  0  0  0  0
  -13.0691    1.2978    4.2544 C   0  0  0  0  0  0  0  0  0  0  0  0
   -6.9726    8.8190    4.1227 C   0  0  0  0  0  0  0  0  0  0  0  0
  -13.4838    2.0108    2.9539 C   0  0  0  0  0  0  0  0  0  0  0  0
   -7.8175    9.6009    3.1074 C   0  0  0  0  0  0  0  0  0  0  0  0
  -14.3203    3.2772    3.2118 C   0  0  0  0  0  0  0  0  0  0  0  0
   -9.2791    9.3934    3.4112 N   0  0  0  0  0  0  0  0  0  0  0  0
  -13.4972    4.5287    3.0397 N   0  0  0  0  0  0  0  0  0  0  0  0
  -10.0412    9.1648    2.1343 C   0  0  0  0  0  0  0  0  0  0  0  0
  -14.1342    5.6413    3.8283 C   0  0  0  0  0  0  0  0  0  0  0  0
   -9.8525   10.5860    4.1358 C   0  0  0  0  0  0  0  0  0  0  0  0
  -13.3946    4.9477    1.5997 C   0  0  0  0  0  0  0  0  0  0  0  0
  1  6  2  0  0  0  0
  2  3  2  0  0  0  0
  2  1  1  0  0  0  0
  3  4  1  0  0  0  0
  4 10  1  0  0  0  0
  4  5  2  0  0  0  0
  6  5  1  0  0  0  0
  7  1  1  0  0  0  0
  7 11  1  0  0  0  0
  8  7  2  0  0  0  0
  9 10  2  0  0  0  0
 10 12  1  0  0  0  0
 12 14  1  0  0  0  0
 13 11  1  0  0  0  0
 13 15  1  0  0  0  0
 14 16  1  0  0  0  0
 16 18  1  0  0  0  0
 17 15  1  0  0  0  0
 17 19  1  0  0  0  0
 18 20  1  0  0  0  0
 19 23  1  0  0  0  0
 20 22  1  0  0  0  0
 20 24  1  0  0  0  0
 21 19  1  0  0  0  0
M  END
>  <CHROM.1>
105.61042669,37.54854968,72.45405190,55.88945156,98.36993244,-72.13538194
102.93206993,-58.13211465,-137.11146730,-156.49150091,-10.65234637,5.87471467
4.62713983,-0.59679645,0.63615702,2.52884128

>  <Name>
lig.pdb

>  <RI>
2.62193e+07

>  <Rbt.Current_Directory>
/home/itssahil/PROJECTS/Mol_Feturizer/New_Systems/rnas/2l94

>  <Rbt.Executable>
rbdock ($Id: //depot/dev/client3/rdock/2013.1/src/exe/rbdock.cxx#4 $)

>  <Rbt.Library>
libRbt.so (2013.1, Build901 2013/11/27)

>  <Rbt.Parameter_File>
/export/apps/rDock/src/rDock_2013.1_src/data/scripts/dock_solv.prm

>  <Rbt.Receptor>
prm/blind_docking_60.prm

>  <SCORE>
24.6562

>  <SCORE.INTER>
-2.17044

>  <SCORE.INTER.CONST>
1

>  <SCORE.INTER.POLAR>
0

>  <SCORE.INTER.ROT>
10

>  <SCORE.INTER.SOLV>
13.9824

>  <SCORE.INTER.VDW>
-16.3744

>  <SCORE.INTER.norm>
-0.090435

>  <SCORE.INTRA>
10.6471

>  <SCORE.INTRA.DIHEDRAL>
26.8504

>  <SCORE.INTRA.DIHEDRAL.0>
7.52971

>  <SCORE.INTRA.POLAR>
0

>  <SCORE.INTRA.POLAR.0>
0

>  <SCORE.INTRA.REPUL>
0

>  <SCORE.INTRA.REPUL.0>
0

>  <SCORE.INTRA.SOLV>
3.1275

>  <SCORE.INTRA.SOLV.lig_0>
-22.1084

>  <SCORE.INTRA.VDW>
-4.34183

>  <SCORE.INTRA.VDW.0>
2.4256

>  <SCORE.INTRA.norm>
0.44363

>  <SCORE.RESTR>
16.1795

>  <SCORE.RESTR.CAVITY>
16.1795

>  <SCORE.RESTR.norm>
0.674146

>  <SCORE.SYSTEM>
0

>  <SCORE.SYSTEM.CONST>
0

>  <SCORE.SYSTEM.DIHEDRAL>
0

>  <SCORE.SYSTEM.SOLV>
0

>  <SCORE.SYSTEM.norm>
0

>  <SCORE.heavy>
24

>  <SCORE.norm>
1.02734

>  <RMSD>
18.961

$$$$
lig.pdb
 OpenBabel11021811453D
libRbt.so/2013.1/901 2013/11/27
 24 24  0  0  0  0  0  0  0  0999 V2000
  -10.0985    7.7317    3.6821 C   0  0  0  0  0  0  0  0  0  0  0  0
  -10.8816    6.9990    2.7277 C   0  0  0  0  0  0  0  0  0  0  0  0
  -11.5198    5.8281    3.0620 C   0  0  0  0  0  0  0  0  0  0  0  0
  -11.4462    5.2813    4.3829 C   0  0  0  0  0  0  0  0  0  0  0  0
  -10.6365    5.9962    5.3257 C   0  0  0  0  0  0  0  0  0  0  0  0
   -9.9922    7.1609    4.9909 C   0  0  0  0  0  0  0  0  0  0  0  0
   -9.4869    8.9120    3.3694 C   0  0  0  0  0  0  0  0  0  0  0  0
   -9.4863    9.4266    2.1211 N   0  0  0  0  0  0  0  0  0  0  0  0
  -12.1947    3.6969    6.0070 N   0  0  0  0  0  0  0  0  0  0  0  0
  -12.1047    4.1403    4.7353 C   0  0  0  0  0  0  0  0  0  0  0  0
   -8.8352    9.6603    4.2937 N   0  0  0  0  0  0  0  0  0  0  0  0
  -12.7275    3.3490    3.8297 N   0  0  0  0  0  0  0  0  0  0  0  0
   -8.7772   11.1195    4.3529 C   0  0  0  0  0  0  0  0  0  0  0  0
  -13.7966    2.3956    4.1102 C   0  0  0  0  0  0  0  0  0  0  0  0
  -10.1663   11.6337    4.7641 C   0  0  0  0  0  0  0  0  0  0  0  0
  -13.1453    1.0577    4.5071 C   0  0  0  0  0  0  0  0  0  0  0  0
  -10.2691   13.1527    4.5694 C   0  0  0  0  0  0  0  0  0  0  0  0
  -11.7850    0.8332    3.8221 C   0  0  0  0  0  0  0  0  0  0  0  0
   -9.1519   13.8280    5.3230 N   0  0  0  0  0  0  0  0  0  0  0  0
  -10.7670    0.2737    4.7834 N   0  0  0  0  0  0  0  0  0  0  0  0
   -9.2526   13.5044    6.7888 C   0  0  0  0  0  0  0  0  0  0  0  0
  -10.1516    1.4101    5.5550 C   0  0  0  0  0  0  0  0  0  0  0  0
   -9.2005   15.3235    5.1306 C   0  0  0  0  0  0  0  0  0  0  0  0
   -9.6769   -0.4846    4.0786 C   0  0  0  0  0  0  0  0  0  0  0  0
  1  6  2  0  0  0  0
  2  3  2  0  0  0  0
  2  1  1  0  0  0  0
  3  4  1  0  0  0  0
  4 10  1  0  0  0  0
  4  5  2  0  0  0  0
  6  5  1  0  0  0  0
  7  1  1  0  0  0  0
  7 11  1  0  0  0  0
  8  7  2  0  0  0  0
  9 10  2  0  0  0  0
 10 12  1  0  0  0  0
 12 14  1  0  0  0  0
 13 11  1  0  0  0  0
 13 15  1  0  0  0  0
 14 16  1  0  0  0  0
 16 18  1  0  0  0  0
 17 15  1  0  0  0  0
 17 19  1  0  0  0  0
 18 20  1  0  0  0  0
 19 23  1  0  0  0  0
 20 22  1  0  0  0  0
 20 24  1  0  0  0  0
 21 19  1  0  0  0  0
M  END
>  <CHROM.1>
-171.16853815,-5.13185061,-86.98245197,70.71014217,-168.32014741,-30.57663399
137.29146375,-55.10707088,-59.92058569,-83.77968576,-10.62603638,6.77045207
4.45275529,-1.27605673,-0.82023268,-2.89094239

>  <Name>
lig.pdb

>  <RI>
2.62193e+07

>  <Rbt.Current_Directory>
/home/itssahil/PROJECTS/Mol_Feturizer/New_Systems/rnas/2l94

>  <Rbt.Executable>
rbdock ($Id: //depot/dev/client3/rdock/2013.1/src/exe/rbdock.cxx#4 $)

>  <Rbt.Library>
libRbt.so (2013.1, Build901 2013/11/27)

>  <Rbt.Parameter_File>
/export/apps/rDock/src/rDock_2013.1_src/data/scripts/dock_solv.prm

>  <Rbt.Receptor>
prm/blind_docking_60.prm

>  <SCORE>
0.728036

>  <SCORE.INTER>
-13.4417

>  <SCORE.INTER.CONST>
1

>  <SCORE.INTER.POLAR>
-2.58254

>  <SCORE.INTER.ROT>
10

>  <SCORE.INTER.SOLV>
20.9268

>  <SCORE.INTER.VDW>
-17.5949

>  <SCORE.INTER.norm>
-0.560069

>  <SCORE.INTRA>
4.47225

>  <SCORE.INTRA.DIHEDRAL>
6.70406

>  <SCORE.INTRA.DIHEDRAL.0>
7.52971

>  <SCORE.INTRA.POLAR>
0

>  <SCORE.INTRA.POLAR.0>
0

>  <SCORE.INTRA.REPUL>
0

>  <SCORE.INTRA.REPUL.0>
0

>  <SCORE.INTRA.SOLV>
1.41425

>  <SCORE.INTRA.SOLV.lig_0>
-22.1084

>  <SCORE.INTRA.VDW>
0.413091

>  <SCORE.INTRA.VDW.0>
2.4256

>  <SCORE.INTRA.norm>
0.186344

>  <SCORE.RESTR>
9.69744

>  <SCORE.RESTR.CAVITY>
9.69744

>  <SCORE.RESTR.norm>
0.40406

>  <SCORE.SYSTEM>
0

>  <SCORE.SYSTEM.CONST>
0

>  <SCORE.SYSTEM.DIHEDRAL>
0

>  <SCORE.SYSTEM.SOLV>
0

>  <SCORE.SYSTEM.norm>
0

>  <SCORE.heavy>
24

>  <SCORE.norm>
0.0303348

>  <RMSD>
19.217

$$$$
lig.pdb
 OpenBabel11021811453D
libRbt.so/2013.1/901 2013/11/27
 24 24  0  0  0  0  0  0  0  0999 V2000
  -16.6478   -3.2648   -6.2124 C   0  0  0  0  0  0  0  0  0  0  0  0
  -16.8908   -4.3024   -7.1742 C   0  0  0  0  0  0  0  0  0  0  0  0
  -17.5322   -5.4696   -6.8329 C   0  0  0  0  0  0  0  0  0  0  0  0
  -18.0014   -5.7091   -5.5017 C   0  0  0  0  0  0  0  0  0  0  0  0
  -17.7281   -4.6865   -4.5347 C   0  0  0  0  0  0  0  0  0  0  0  0
  -17.0807   -3.5244   -4.8725 C   0  0  0  0  0  0  0  0  0  0  0  0
  -16.0402   -2.0887   -6.5480 C   0  0  0  0  0  0  0  0  0  0  0  0
  -15.3036   -1.9407   -7.6698 N   0  0  0  0  0  0  0  0  0  0  0  0
  -19.3941   -6.9724   -4.0277 N   0  0  0  0  0  0  0  0  0  0  0  0
  -18.6708   -6.8472   -5.1605 C   0  0  0  0  0  0  0  0  0  0  0  0
  -16.1351   -0.9760   -5.7785 N   0  0  0  0  0  0  0  0  0  0  0  0
  -18.6639   -7.9572   -5.9363 N   0  0  0  0  0  0  0  0  0  0  0  0
  -16.2075    0.4064   -6.2473 C   0  0  0  0  0  0  0  0  0  0  0  0
  -19.6540   -9.0295   -5.9141 C   0  0  0  0  0  0  0  0  0  0  0  0
  -14.9472    1.1396   -5.7605 C   0  0  0  0  0  0  0  0  0  0  0  0
  -20.4765   -8.9410   -7.2131 C   0  0  0  0  0  0  0  0  0  0  0  0
  -14.7608    2.4668   -6.5088 C   0  0  0  0  0  0  0  0  0  0  0  0
  -19.5935   -8.9049   -8.4736 C   0  0  0  0  0  0  0  0  0  0  0  0
  -14.2958    2.1848   -7.9145 N   0  0  0  0  0  0  0  0  0  0  0  0
  -18.7081  -10.1220   -8.5642 N   0  0  0  0  0  0  0  0  0  0  0  0
  -13.3259    3.2464   -8.3569 C   0  0  0  0  0  0  0  0  0  0  0  0
  -17.9664  -10.0867   -9.8734 C   0  0  0  0  0  0  0  0  0  0  0  0
  -15.4638    2.1376   -8.8681 C   0  0  0  0  0  0  0  0  0  0  0  0
  -19.4918  -11.4021   -8.4815 C   0  0  0  0  0  0  0  0  0  0  0  0
  1  6  2  0  0  0  0
  2  3  2  0  0  0  0
  2  1  1  0  0  0  0
  3  4  1  0  0  0  0
  4 10  1  0  0  0  0
  4  5  2  0  0  0  0
  6  5  1  0  0  0  0
  7  1  1  0  0  0  0
  7 11  1  0  0  0  0
  8  7  2  0  0  0  0
  9 10  2  0  0  0  0
 10 12  1  0  0  0  0
 12 14  1  0  0  0  0
 13 11  1  0  0  0  0
 13 15  1  0  0  0  0
 14 16  1  0  0  0  0
 16 18  1  0  0  0  0
 17 15  1  0  0  0  0
 17 19  1  0  0  0  0
 18 20  1  0  0  0  0
 19 23  1  0  0  0  0
 20 22  1  0  0  0  0
 20 24  1  0  0  0  0
 21 19  1  0  0  0  0
M  END
>  <CHROM.1>
-163.71430750,-18.72909655,109.15825980,-115.56247338,164.94398138,52.27570301
58.30196359,-73.54091905,-144.14106791,174.92829034,-17.18834569,-4.18779937
-6.81507357,0.59207608,1.10315374,0.93573684

>  <Name>
lig.pdb

>  <RI>
2.41306e+07

>  <Rbt.Current_Directory>
/home/itssahil/PROJECTS/Mol_Feturizer/New_Systems/rnas/2l94

>  <Rbt.Executable>
rbdock ($Id: //depot/dev/client3/rdock/2013.1/src/exe/rbdock.cxx#4 $)

>  <Rbt.Library>
libRbt.so (2013.1, Build901 2013/11/27)

>  <Rbt.Parameter_File>
/export/apps/rDock/src/rDock_2013.1_src/data/scripts/dock_solv.prm

>  <Rbt.Receptor>
prm/blind_docking_40.prm

>  <SCORE>
-3.23705

>  <SCORE.INTER>
-7.2684

>  <SCORE.INTER.CONST>
1

>  <SCORE.INTER.POLAR>
-1.16675

>  <SCORE.INTER.ROT>
10

>  <SCORE.INTER.SOLV>
13.1972

>  <SCORE.INTER.VDW>
-15.6222

>  <SCORE.INTER.norm>
-0.30285

>  <SCORE.INTRA>
1.01204

>  <SCORE.INTRA.DIHEDRAL>
3.66979

>  <SCORE.INTRA.DIHEDRAL.0>
7.52971

>  <SCORE.INTRA.POLAR>
0

>  <SCORE.INTRA.POLAR.0>
0

>  <SCORE.INTRA.REPUL>
0.0426125

>  <SCORE.INTRA.REPUL.0>
0

>  <SCORE.INTRA.SOLV>
0.896081

>  <SCORE.INTRA.SOLV.lig_0>
-22.1084

>  <SCORE.INTRA.VDW>
-1.48396

>  <SCORE.INTRA.VDW.0>
2.4256

>  <SCORE.INTRA.norm>
0.0421683

>  <SCORE.RESTR>
3.01931

>  <SCORE.RESTR.CAVITY>
3.01931

>  <SCORE.RESTR.norm>
0.125804

>  <SCORE.SYSTEM>
0

>  <SCORE.SYSTEM.CONST>
0

>  <SCORE.SYSTEM.DIHEDRAL>
0

>  <SCORE.SYSTEM.SOLV>
0

>  <SCORE.SYSTEM.norm>
0

>  <SCORE.heavy>
24

>  <SCORE.norm>
-0.134877

>  <RMSD>
24.979

$$$$
