@<TRIPOS>MOLECULE
2l94_rdock.pdb
 1455 1569 0 0 0
SMALL
GASTEIGER

@<TRIPOS>ATOM
      1  OP.3     -23.8390    3.2450   -6.4470 O.3     1  G1         -0.3436
      2    P.3    -23.8570    3.7500   -7.9620 P.3     1  G1          0.2100
      3  OP1      -23.0690    5.0020   -8.0250 O.3     1  G1         -0.4374
      4  OP2      -23.5030    2.6120   -8.8420 O.2     1  G1         -0.5173
      5  O5'      -25.4080    4.1150   -8.1900 O.3     1  G1         -0.3249
      6  C5'      -26.3770    3.0940   -8.3190 C.3     1  G1          0.0837
      7  C4'      -27.7600    3.7170   -8.5390 C.3     1  G1          0.1139
      8  O4'      -28.7120    2.6760   -8.6510 O.3     1  G1         -0.3456
      9  C3'      -28.1410    4.4980   -7.2850 C.3     1  G1          0.1241
     10  O3'      -29.2580    5.3440   -7.4820 O.3     1  G1         -0.3187
     11  C2'      -28.4940    3.3460   -6.3540 C.3     1  G1          0.1292
     12  O2'      -29.5470    3.6500   -5.4680 O.3     1  G1         -0.3846
     13  C1'      -29.0200    2.2720   -7.3170 C.3     1  G1          0.1667
     14   N9      -28.4940    0.9480   -6.9150 N.ar    1  G1         -0.2854
     15   C8      -27.4500    0.2220   -7.4260 C.ar    1  G1          0.1005
     16   N7      -27.2510   -0.9220   -6.8310 N.ar    1  G1         -0.2286
     17   C5      -28.2200   -0.9490   -5.8270 C.ar    1  G1          0.1721
     18   C6      -28.4710   -1.9180   -4.8070 C.ar    1  G1          0.2803
     19   O6      -27.9130   -3.0000   -4.6170 O.2     1  G1         -0.2654
     20   N.1     -29.4890   -1.5200   -3.9530 N.ar    1  G1         -0.2934
     21   C.2     -30.2170   -0.3580   -4.0900 C.ar    1  G1          0.1950
     22   N.2     -31.1630   -0.1100   -3.1810 N.pl3   1  G1         -0.3289
     23   N.3     -30.0250    0.5260   -5.0710 N.ar    1  G1         -0.1963
     24   C4      -28.9960    0.1830   -5.8870 C.ar    1  G1          0.1712
     25  H5'      -26.3720    2.4830   -7.4180 H       1  G1          0.0591
     26 H5''      -26.1280    2.4710   -9.1780 H       1  G1          0.0591
     27  H4'      -27.6040    4.3930   -9.3790 H       1  G1          0.0647
     28  H3'      -27.2840    5.0650   -6.9220 H       1  G1          0.0655
     29  H2'      -27.6020    3.0150   -5.8200 H       1  G1          0.0666
     30 HO2'      -29.3240    4.4480   -4.9760 H       1  G1          0.2101
     31  H1'      -30.1060    2.2420   -7.2180 H       1  G1          0.0866
     32   H8      -26.8480    0.5740   -8.2480 H       1  G1          0.1030
     33   H1      -29.6910   -2.1400   -3.1800 H       1  G1          0.1716
     34  H21      -31.7500    0.7110   -3.2780 H       1  G1          0.1451
     35  H22      -31.2850   -0.7400   -2.4010 H       1  G1          0.1451
     36 HO5'      -24.1100    3.9940   -5.9110 H       1  G1          0.2176
     37    P.3    -29.3990    6.6980   -6.6060 P.3     2  G2          0.2131
     38  OP1      -30.7460    7.2560   -6.8700 O.2     2  G2         -0.5172
     39  OP2      -28.2060    7.5380   -6.8600 O.3     2  G2         -0.4373
     40  O5'      -29.3590    6.2210   -5.0610 O.3     2  G2         -0.3248
     41  C5'      -28.1260    5.9720   -4.4120 C.3     2  G2          0.0837
     42  C4'      -28.3270    5.4290   -2.9970 C.3     2  G2          0.1139
     43  O4'      -28.9950    4.1760   -2.9370 O.3     2  G2         -0.3456
     44  C3'      -26.9710    5.1170   -2.3960 C.3     2  G2          0.1241
     45  O3'      -26.2220    6.2690   -2.0680 O.3     2  G2         -0.3187
     46  C2'      -27.4210    4.3200   -1.1810 C.3     2  G2          0.1292
     47  O2'      -27.9760    5.1540   -0.1830 O.3     2  G2         -0.3846
     48  C1'      -28.5390    3.4760   -1.7820 C.3     2  G2          0.1667
     49   N9      -27.9510    2.1610   -2.1150 N.ar    2  G2         -0.2854
     50   C8      -27.6190    1.6560   -3.3420 C.ar    2  G2          0.1005
     51   N7      -27.0170    0.5020   -3.3050 N.ar    2  G2         -0.2286
     52   C5      -26.9880    0.1930   -1.9490 C.ar    2  G2          0.1721
     53   C6      -26.4440   -0.9420   -1.2870 C.ar    2  G2          0.2803
     54   O6      -25.8550   -1.8980   -1.7810 O.2     2  G2         -0.2654
     55   N.1     -26.6430   -0.8910    0.0840 N.ar    2  G2         -0.2934
     56   C.2     -27.3030    0.1220    0.7370 C.ar    2  G2          0.1950
     57   N.2     -27.4460   -0.0050    2.0560 N.pl3   2  G2         -0.3289
     58   N.3     -27.7980    1.2070    0.1280 N.ar    2  G2         -0.1963
     59   C4      -27.6040    1.1780   -1.2160 C.ar    2  G2          0.1712
     60  H5'      -27.5610    6.9040   -4.3550 H       2  G2          0.0591
     61 H5''      -27.5410    5.2510   -4.9750 H       2  G2          0.0591
     62  H4'      -28.8460    6.1610   -2.3750 H       2  G2          0.0647
     63  H3'      -26.4200    4.4770   -3.0900 H       2  G2          0.0655
     64  H2'      -26.6140    3.6980   -0.7990 H       2  G2          0.0666
     65 HO2'      -28.2030    4.6130    0.5810 H       2  G2          0.2101
     66  H1'      -29.3490    3.3410   -1.0680 H       2  G2          0.0866
     67   H8      -27.8380    2.1730   -4.2570 H       2  G2          0.1030
     68   H1      -26.2720   -1.6560    0.6310 H       2  G2          0.1716
     69  H21      -27.9310    0.7120    2.5740 H       2  G2          0.1451
     70  H22      -27.0710   -0.8140    2.5350 H       2  G2          0.1451
     71    P.3    -24.6390    6.1620   -1.8110 P.3     3  G3          0.2131
     72  OP1      -24.1320    7.5190   -1.5010 O.3     3  G3         -0.4373
     73  OP2      -24.0450    5.3990   -2.9330 O.2     3  G3         -0.5172
     74  O5'      -24.5260    5.2650   -0.4760 O.3     3  G3         -0.3248
     75  C5'      -24.9770    5.7650    0.7660 C.3     3  G3          0.0837
     76  C4'      -24.9730    4.6730    1.8370 C.3     3  G3          0.1139
     77  O4'      -25.6370    3.4900    1.4090 O.3     3  G3         -0.3456
     78  C3'      -23.5800    4.2300    2.2660 C.3     3  G3          0.1241
     79  O3'      -22.9380    5.1600    3.1170 O.3     3  G3         -0.3187
     80  C2'      -23.9580    2.9400    2.9850 C.3     3  G3          0.1292
     81  O2'      -24.5660    3.2070    4.2350 O.3     3  G3         -0.3846
     82  C1'      -25.0210    2.3780    2.0450 C.3     3  G3          0.1667
     83   N9      -24.3710    1.4830    1.0680 N.ar    3  G3         -0.2854
     84   C8      -24.1210    1.6630   -0.2680 C.ar    3  G3          0.1005
     85   N7      -23.5360    0.6420   -0.8340 N.ar    3  G3         -0.2286
     86   C5      -23.3860   -0.2820    0.2040 C.ar    3  G3          0.1721
     87   C6      -22.8320   -1.5970    0.2080 C.ar    3  G3          0.2803
     88   O6      -22.3410   -2.2220   -0.7300 O.2     3  G3         -0.2654
     89   N.1     -22.8890   -2.1820    1.4650 N.ar    3  G3         -0.2934
     90   C.2     -23.3840   -1.5680    2.5910 C.ar    3  G3          0.1950
     91   N.2     -23.3250   -2.2470    3.7340 N.pl3   3  G3         -0.3289
     92   N.3     -23.9110   -0.3410    2.5980 N.ar    3  G3         -0.1963
     93   C4      -23.8830    0.2380    1.3720 C.ar    3  G3          0.1712
     94  H5'      -25.9920    6.1450    0.6550 H       3  G3          0.0591
     95 H5''      -24.3320    6.5850    1.0820 H       3  G3          0.0591
     96  H4'      -25.4860    5.0540    2.7200 H       3  G3          0.0647
     97  H3'      -22.9730    4.0190    1.3850 H       3  G3          0.0655
     98  H2'      -23.1060    2.2660    3.0900 H       3  G3          0.0666
     99 HO2'      -23.9290    3.6700    4.7890 H       3  G3          0.2101
    100  H1'      -25.7550    1.7870    2.5980 H       3  G3          0.0866
    101   H8      -24.3880    2.5660   -0.8000 H       3  G3          0.1030
    102   H1      -22.5420   -3.1260    1.5550 H       3  G3          0.1716
    103  H21      -23.6870   -1.8320    4.5810 H       3  G3          0.1451
    104  H22      -22.9200   -3.1730    3.7580 H       3  G3          0.1451
    105    P.3    -21.3500    5.0910    3.3700 P.3     4  A4          0.2131
    106  OP1      -20.9740    6.2440    4.2230 O.3     4  A4         -0.4373
    107  OP2      -20.6870    4.9090    2.0600 O.2     4  A4         -0.5172
    108  O5'      -21.1380    3.7450    4.2290 O.3     4  A4         -0.3248
    109  C5'      -21.4810    3.6880    5.5970 C.3     4  A4          0.0837
    110  C4'      -21.1260    2.3170    6.1750 C.3     4  A4          0.1139
    111  O4'      -21.8110    1.2660    5.5060 O.3     4  A4         -0.3456
    112  C3'      -19.6410    1.9930    6.0680 C.3     4  A4          0.1241
    113  O3'      -18.8650    2.6170    7.0740 O.3     4  A4         -0.3187
    114  C2'      -19.6990    0.4810    6.2350 C.3     4  A4          0.1292
    115  O2'      -19.9350    0.1240    7.5840 O.3     4  A4         -0.3846
    116  C1'      -20.9500    0.1360    5.4330 C.3     4  A4          0.1667
    117   N9      -20.5790   -0.1350    4.0270 N.ar    4  A4         -0.2855
    118   C8      -20.6600    0.6900    2.9330 C.ar    4  A4          0.1004
    119   N7      -20.2640    0.1360    1.8190 N.ar    4  A4         -0.2306
    120   C5      -19.8860   -1.1470    2.2060 C.ar    4  A4          0.1473
    121   C6      -19.3820   -2.2590    1.5030 C.ar    4  A4          0.1472
    122   N6      -19.1650   -2.2610    0.1860 N.pl3   4  A4         -0.3413
    123   N.1     -19.1050   -3.3760    2.1890 N.ar    4  A4         -0.2188
    124   C.2     -19.3240   -3.3970    3.4960 C.ar    4  A4          0.1205
    125   N.3     -19.8010   -2.4340    4.2740 N.ar    4  A4         -0.2159
    126   C4      -20.0650   -1.3180    3.5520 C.ar    4  A4          0.1674
    127  H5'      -22.5480    3.8710    5.7210 H       4  A4          0.0591
    128 H5''      -20.9270    4.4540    6.1410 H       4  A4          0.0591
    129  H4'      -21.4030    2.2920    7.2280 H       4  A4          0.0647
    130  H3'      -19.2770    2.2540    5.0740 H       4  A4          0.0655
    131  H2'      -18.8110   -0.0150    5.8380 H       4  A4          0.0666
    132 HO2'      -19.1980    0.4400    8.1150 H       4  A4          0.2101
    133  H1'      -21.4300   -0.7470    5.8540 H       4  A4          0.0866
    134   H8      -21.0200    1.7070    2.9920 H       4  A4          0.1030
    135  H61      -18.8060   -3.0910   -0.2630 H       4  A4          0.1438
    136  H62      -19.3610   -1.4330   -0.3570 H       4  A4          0.1438
    137   H2      -19.0800   -4.3220    3.9960 H       4  A4          0.1048
    138    P.3    -17.2670    2.7510    6.9220 P.3     5  A5          0.2131
    139  OP1      -16.7540    3.4890    8.0990 O.3     5  A5         -0.4373
    140  OP2      -16.9770    3.2600    5.5620 O.2     5  A5         -0.5172
    141  O5'      -16.7310    1.2340    7.0060 O.3     5  A5         -0.3248
    142  C5'      -16.6680    0.5500    8.2400 C.3     5  A5          0.0837
    143  C4'      -16.1470   -0.8730    8.0280 C.3     5  A5          0.1139
    144  O4'      -16.9820   -1.6220    7.1550 O.3     5  A5         -0.3456
    145  C3'      -14.7510   -0.9090    7.4200 C.3     5  A5          0.1241
    146  O3'      -13.7300   -0.6690    8.3700 O.3     5  A5         -0.3187
    147  C2'      -14.7400   -2.3420    6.9030 C.3     5  A5          0.1292
    148  O2'      -14.5810   -3.2660    7.9620 O.3     5  A5         -0.3846
    149  C1'      -16.1630   -2.4760    6.3670 C.3     5  A5          0.1667
    150   N9      -16.2040   -2.0640    4.9490 N.ar    5  A5         -0.2855
    151   C8      -16.5150   -0.8410    4.4100 C.ar    5  A5          0.1004
    152   N7      -16.4580   -0.8020    3.1060 N.ar    5  A5         -0.2306
    153   C5      -16.0770   -2.0960    2.7540 C.ar    5  A5          0.1473
    154   C6      -15.8370   -2.7290    1.5200 C.ar    5  A5          0.1472
    155   N6      -15.9510   -2.1120    0.3420 N.pl3   5  A5         -0.3413
    156   N.1     -15.4720   -4.0200    1.5250 N.ar    5  A5         -0.2188
    157   C.2     -15.3560   -4.6470    2.6880 C.ar    5  A5          0.1205
    158   N.3     -15.5570   -4.1780    3.9110 N.ar    5  A5         -0.2159
    159   C4      -15.9210   -2.8720    3.8720 C.ar    5  A5          0.1674
    160  H5'      -17.6580    0.5070    8.6950 H       5  A5          0.0591
    161 H5''      -15.9930    1.0780    8.9130 H       5  A5          0.0591
    162  H4'      -16.1110   -1.3820    8.9920 H       5  A5          0.0647
    163  H3'      -14.6900   -0.2040    6.5900 H       5  A5          0.0655
    164  H2'      -13.9950   -2.4910    6.1240 H       5  A5          0.0666
    165 HO2'      -13.7220   -3.1170    8.3690 H       5  A5          0.2101
    166  H1'      -16.4940   -3.5120    6.4490 H       5  A5          0.0866
    167   H8      -16.7840    0.0140    5.0130 H       5  A5          0.1030
    168  H61      -15.7710   -2.6220   -0.5130 H       5  A5          0.1438
    169  H62      -16.2170   -1.1390    0.3130 H       5  A5          0.1438
    170   H2      -15.0580   -5.6840    2.6270 H       5  A5          0.1048
    171    P.3    -12.2440   -0.2580    7.9000 P.3     6  G6          0.2131
    172  OP1      -11.4300   -0.0190    9.1140 O.3     6  G6         -0.4373
    173  OP2      -12.3680    0.8090    6.8810 O.2     6  G6         -0.5172
    174  O5'      -11.6900   -1.5790    7.1670 O.3     6  G6         -0.3248
    175  C5'      -11.2730   -2.7060    7.9100 C.3     6  G6          0.0837
    176  C4'      -10.9260   -3.8540    6.9630 C.3     6  G6          0.1139
    177  O4'      -12.0280   -4.2000    6.1350 O.3     6  G6         -0.3456
    178  C3'       -9.7710   -3.5300    6.0230 C.3     6  G6          0.1241
    179  O3'       -8.4990   -3.6690    6.6260 O.3     6  G6         -0.3187
    180  C2'      -10.0150   -4.5940    4.9600 C.3     6  G6          0.1292
    181  O2'       -9.6340   -5.8760    5.4210 O.3     6  G6         -0.3846
    182  C1'      -11.5360   -4.5620    4.8530 C.3     6  G6          0.1667
    183   N9      -11.9330   -3.5650    3.8350 N.ar    6  G6         -0.2854
    184   C8      -12.3070   -2.2550    3.9940 C.ar    6  G6          0.1005
    185   N7      -12.5910   -1.6440    2.8770 N.ar    6  G6         -0.2286
    186   C5      -12.3890   -2.6190    1.9020 C.ar    6  G6          0.1721
    187   C6      -12.5260   -2.5450    0.4850 C.ar    6  G6          0.2803
    188   O6      -12.8720   -1.5840   -0.1980 O.2     6  G6         -0.2654
    189   N.1     -12.2110   -3.7470   -0.1340 N.ar    6  G6         -0.2934
    190   C.2     -11.8170   -4.8840    0.5340 C.ar    6  G6          0.1950
    191   N.2     -11.5450   -5.9590   -0.2020 N.pl3   6  G6         -0.3289
    192   N.3     -11.6940   -4.9660    1.8610 N.ar    6  G6         -0.1963
    193   C4      -11.9900   -3.7980    2.4810 C.ar    6  G6          0.1712
    194  H5'      -12.0710   -3.0200    8.5810 H       6  G6          0.0591
    195 H5''      -10.3940   -2.4480    8.5020 H       6  G6          0.0591
    196  H4'      -10.6500   -4.7300    7.5510 H       6  G6          0.0647
    197  H3'       -9.9030   -2.5330    5.6040 H       6  G6          0.0655
    198  H2'       -9.5340   -4.3500    4.0120 H       6  G6          0.0666
    199 HO2'       -8.6970   -5.8540    5.6380 H       6  G6          0.2101
    200  H1'      -11.9090   -5.5430    4.5580 H       6  G6          0.0866
    201   H8      -12.3630   -1.7690    4.9580 H       6  G6          0.1030
    202   H1      -12.2820   -3.7780   -1.1440 H       6  G6          0.1716
    203  H21      -11.2670   -6.8160    0.2520 H       6  G6          0.1451
    204  H22      -11.6180   -5.9170   -1.2090 H       6  G6          0.1451
    205    P.3     -7.1950   -2.9730    5.9790 P.3     7  A7          0.2131
    206  OP1       -6.0300   -3.3060    6.8290 O.3     7  A7         -0.4373
    207  OP2       -7.5220   -1.5510    5.7210 O.2     7  A7         -0.5172
    208  O5'       -7.0110   -3.7070    4.5590 O.3     7  A7         -0.3248
    209  C5'       -6.4990   -5.0220    4.4770 C.3     7  A7          0.0837
    210  C4'       -6.5260   -5.5040    3.0280 C.3     7  A7          0.1139
    211  O4'       -7.8370   -5.4440    2.4820 O.3     7  A7         -0.3456
    212  C3'       -5.6290   -4.6870    2.1020 C.3     7  A7          0.1241
    213  O3'       -4.2720   -5.0820    2.1630 O.3     7  A7         -0.3187
    214  C2'       -6.2670   -5.0310    0.7620 C.3     7  A7          0.1292
    215  O2'       -5.9000   -6.3310    0.3450 O.3     7  A7         -0.3846
    216  C1'       -7.7510   -5.0640    1.1160 C.3     7  A7          0.1667
    217   N9       -8.3590   -3.7290    0.9160 N.ar    7  A7         -0.2855
    218   C8       -8.6680   -2.7680    1.8470 C.ar    7  A7          0.1004
    219   N7       -9.2170   -1.6950    1.3460 N.ar    7  A7         -0.2306
    220   C5       -9.2710   -1.9610   -0.0210 C.ar    7  A7          0.1473
    221   C6       -9.7520   -1.2350   -1.1270 C.ar    7  A7          0.1472
    222   N6      -10.3100   -0.0250   -1.0400 N.pl3   7  A7         -0.3413
    223   N.1      -9.6460   -1.7850   -2.3420 N.ar    7  A7         -0.2188
    224   C.2      -9.0980   -2.9860   -2.4590 C.ar    7  A7          0.1205
    225   N.3      -8.6220   -3.7780   -1.5090 N.ar    7  A7         -0.2159
    226   C4       -8.7420   -3.1950   -0.2910 C.ar    7  A7          0.1674
    227  H5'       -7.1050   -5.6880    5.0890 H       7  A7          0.0591
    228 H5''       -5.4730   -5.0360    4.8430 H       7  A7          0.0591
    229  H4'       -6.1870   -6.5410    2.9950 H       7  A7          0.0647
    230  H3'       -5.7310   -3.6240    2.3190 H       7  A7          0.0655
    231  H2'       -6.0510   -4.2860   -0.0040 H       7  A7          0.0666
    232 HO2'       -4.9430   -6.3610    0.2490 H       7  A7          0.2101
    233  H1'       -8.2660   -5.7910    0.4860 H       7  A7          0.0866
    234   H8       -8.4760   -2.8880    2.9030 H       7  A7          0.1030
    235  H61      -10.6540    0.4350   -1.8700 H       7  A7          0.1438
    236  H62      -10.3880    0.4260   -0.1390 H       7  A7          0.1438
    237   H2       -9.0320   -3.3690   -3.4680 H       7  A7          0.1048
    238    P.3     -3.0970   -4.1020    1.6540 P.3     8  U8          0.2131
    239  OP1       -1.8010   -4.7830    1.8720 O.2     8  U8         -0.5172
    240  OP2       -3.3250   -2.7660    2.2490 O.3     8  U8         -0.4373
    241  O5'       -3.3410   -3.9860    0.0670 O.3     8  U8         -0.3248
    242  C5'       -3.0560   -5.0660   -0.7970 C.3     8  U8          0.0837
    243  C4'       -3.5180   -4.7270   -2.2140 C.3     8  U8          0.1139
    244  O4'       -4.8990   -4.3920   -2.2140 O.3     8  U8         -0.3456
    245  C3'       -2.7780   -3.5320   -2.8100 C.3     8  U8          0.1241
    246  O3'       -1.5660   -3.8710   -3.4550 O.3     8  U8         -0.3187
    247  C2'       -3.7950   -3.0610   -3.8420 C.3     8  U8          0.1293
    248  O2'       -3.6830   -3.8200   -5.0320 O.3     8  U8         -0.3846
    249  C1'       -5.1400   -3.4070   -3.2070 C.3     8  U8          0.1680
    250   N.1      -5.7280   -2.1710   -2.6430 N.ar    8  U8         -0.2715
    251   C.2      -6.3570   -1.3170   -3.5400 C.ar    8  U8          0.3314
    252   O.2      -6.4400   -1.5650   -4.7420 O.2     8  U8         -0.2464
    253   N.3      -6.8950   -0.1560   -3.0160 N.ar    8  U8         -0.2749
    254   C4       -6.8710    0.2200   -1.6870 C.ar    8  U8          0.2539
    255   O4       -7.3870    1.2750   -1.3320 O.2     8  U8         -0.2677
    256   C5       -6.2030   -0.7250   -0.8230 C.ar    8  U8          0.0192
    257   C6       -5.6620   -1.8660   -1.3070 C.ar    8  U8          0.0171
    258  H5'       -3.5800   -5.9570   -0.4520 H       8  U8          0.0591
    259 H5''       -1.9820   -5.2590   -0.7990 H       8  U8          0.0591
    260  H4'       -3.3640   -5.5870   -2.8650 H       8  U8          0.0647
    261  H3'       -2.6090   -2.7750   -2.0430 H       8  U8          0.0655
    262  H2'       -3.6940   -1.9890   -4.0320 H       8  U8          0.0666
    263 HO2'       -2.7660   -3.7900   -5.3270 H       8  U8          0.2101
    264  H1'       -5.8150   -3.8150   -3.9670 H       8  U8          0.0867
    265   H3       -7.3470    0.4700   -3.6650 H       8  U8          0.1734
    266   H5       -6.1370   -0.5170    0.2320 H       8  U8          0.0686
    267   H6       -5.1680   -2.5460   -0.6260 H       8  U8          0.0813
    268    P.3     -0.3690   -2.8000   -3.5750 P.3     9  C9          0.2131
    269  OP1        0.5780   -3.2840   -4.6060 O.2     9  C9         -0.5172
    270  OP2        0.1230   -2.5250   -2.2060 O.3     9  C9         -0.4373
    271  O5'       -1.0690   -1.4530   -4.1220 O.3     9  C9         -0.3248
    272  C5'       -1.4480   -1.2950   -5.4760 C.3     9  C9          0.0837
    273  C4'       -2.0060    0.1160   -5.6830 C.3     9  C9          0.1139
    274  O4'       -3.1380    0.3530   -4.8610 O.3     9  C9         -0.3456
    275  C3'       -0.9550    1.1670   -5.3480 C.3     9  C9          0.1241
    276  O3'       -0.1870    1.4880   -6.4920 O.3     9  C9         -0.3187
    277  C2'       -1.8030    2.3360   -4.8490 C.3     9  C9          0.1293
    278  O2'       -2.0950    3.2310   -5.9010 O.3     9  C9         -0.3846
    279  C1'       -3.1220    1.7000   -4.4090 C.3     9  C9          0.1680
    280   N.1      -3.3040    1.7460   -2.9400 N.ar    9  C9         -0.2700
    281   C.2      -4.0640    2.7790   -2.4000 C.ar    9  C9          0.3522
    282   O.2      -4.5130    3.6740   -3.1150 O.2     9  C9         -0.2444
    283   N.3      -4.3050    2.7870   -1.0620 N.ar    9  C9         -0.1783
    284   C4       -3.8060    1.8260   -0.2800 C.ar    9  C9          0.1230
    285   N.4      -4.0970    1.8250    1.0220 N.pl3   9  C9         -0.3430
    286   C5       -2.9660    0.7970   -0.8030 C.ar    9  C9         -0.0056
    287   C6       -2.7430    0.7980   -2.1320 C.ar    9  C9          0.0152
    288  H5'       -2.2060   -2.0260   -5.7470 H       9  C9          0.0591
    289 H5''       -0.5760   -1.4300   -6.1170 H       9  C9          0.0591
    290  H4'       -2.2990    0.2410   -6.7260 H       9  C9          0.0647
    291  H3'       -0.3010    0.8050   -4.5570 H       9  C9          0.0655
    292  H2'       -1.3170    2.8460   -4.0200 H       9  C9          0.0666
    293 HO2'       -1.2680    3.6220   -6.2000 H       9  C9          0.2101
    294  H1'       -3.9420    2.2480   -4.8740 H       9  C9          0.0867
    295  H41       -4.6520    2.5710    1.4190 H       9  C9          0.1437
    296  H42       -3.7590    1.0770    1.6080 H       9  C9          0.1437
    297   H5       -2.5100    0.0320   -0.1980 H       9  C9          0.0666
    298   H6       -2.1150    0.0360   -2.5620 H       9  C9          0.0812
    299    P.3      1.2100    2.2730   -6.3610 P.3    10  U10         0.2131
    300  OP1        1.9060    2.1920   -7.6650 O.2    10  U10        -0.5172
    301  OP2        1.8950    1.7880   -5.1410 O.3    10  U10        -0.4373
    302  O5'        0.7650    3.8030   -6.1210 O.3    10  U10        -0.3248
    303  C5'        0.3820    4.6250   -7.2050 C.3    10  U10         0.0837
    304  C4'        0.1780    6.0660   -6.7350 C.3    10  U10         0.1139
    305  O4'       -0.9440    6.2130   -5.8780 O.3    10  U10        -0.3456
    306  C3'        1.3690    6.5850   -5.9450 C.3    10  U10         0.1241
    307  O3'        2.4690    6.9350   -6.7610 O.3    10  U10        -0.3187
    308  C2'        0.7240    7.8000   -5.2930 C.3    10  U10         0.1293
    309  O2'        0.5780    8.8570   -6.2230 O.3    10  U10        -0.3846
    310  C1'       -0.6700    7.2650   -4.9590 C.3    10  U10         0.1680
    311   N.1      -0.7000    6.7730   -3.5620 N.ar   10  U10        -0.2715
    312   C.2      -0.7610    7.7250   -2.5500 C.ar   10  U10         0.3314
    313   O.2      -0.7970    8.9310   -2.7770 O.2    10  U10        -0.2464
    314   N.3      -0.7800    7.2430   -1.2520 N.ar   10  U10        -0.2749
    315   C4       -0.7630    5.9100   -0.8850 C.ar   10  U10         0.2539
    316   O4       -0.8000    5.5910    0.2980 O.2    10  U10        -0.2677
    317   C5       -0.7000    4.9890   -1.9970 C.ar   10  U10         0.0192
    318   C6       -0.6680    5.4350   -3.2720 C.ar   10  U10         0.0171
    319  H5'       -0.5370    4.2510   -7.6590 H      10  U10         0.0591
    320 H5''        1.1730    4.6120   -7.9540 H      10  U10         0.0591
    321  H4'        0.0330    6.7080   -7.6040 H      10  U10         0.0647
    322  H3'        1.6580    5.8530   -5.1910 H      10  U10         0.0655
    323  H2'        1.2660    8.1190   -4.4020 H      10  U10         0.0666
    324 HO2'        1.4490    9.0850   -6.5650 H      10  U10         0.2101
    325  H1'       -1.4040    8.0640   -5.0680 H      10  U10         0.0867
    326   H3       -0.8080    7.9200   -0.5050 H      10  U10         0.1734
    327   H5       -0.6780    3.9270   -1.8050 H      10  U10         0.0686
    328   H6       -0.6180    4.7190   -4.0780 H      10  U10         0.0813
    329    P.3      3.9670    6.8880   -6.1740 P.3    11  G11         0.2131
    330  OP1        4.8870    7.3820   -7.2250 O.2    11  G11        -0.5172
    331  OP2        4.1880    5.5490   -5.5840 O.3    11  G11        -0.4373
    332  O5'        3.9370    7.9610   -4.9770 O.3    11  G11        -0.3248
    333  C5'        3.8890    9.3460   -5.2440 C.3    11  G11         0.0837
    334  C4'        3.9240   10.1310   -3.9340 C.3    11  G11         0.1139
    335  O4'        2.7960    9.8630   -3.1160 O.3    11  G11        -0.3456
    336  C3'        5.1360    9.7900   -3.0810 C.3    11  G11         0.1241
    337  O3'        6.3330   10.3640   -3.5720 O.3    11  G11        -0.3187
    338  C2'        4.6760   10.3890   -1.7570 C.3    11  G11         0.1292
    339  O2'        4.7890   11.8010   -1.7680 O.3    11  G11        -0.3846
    340  C1'        3.1920   10.0220   -1.7600 C.3    11  G11         0.1667
    341   N9        2.9910    8.7680   -1.0020 N.ar   11  G11        -0.2854
    342   C8        2.7600    7.4930   -1.4590 C.ar   11  G11         0.1005
    343   N7        2.6330    6.6050   -0.5100 N.ar   11  G11        -0.2286
    344   C5        2.7890    7.3430    0.6640 C.ar   11  G11         0.1721
    345   C6        2.7570    6.9250    2.0270 C.ar   11  G11         0.2803
    346   O6        2.5880    5.7940    2.4770 O.2    11  G11        -0.2654
    347   N.1       2.9460    7.9820    2.9040 N.ar   11  G11        -0.2934
    348   C.2       3.1570    9.2840    2.5180 C.ar   11  G11         0.1950
    349   N.2       3.3280   10.1800    3.4880 N.pl3  11  G11        -0.3289
    350   N.3       3.1970    9.6880    1.2440 N.ar   11  G11        -0.1963
    351   C4        3.0050    8.6670    0.3700 C.ar   11  G11         0.1712
    352  H5'        2.9760    9.5900   -5.7850 H      11  G11         0.0591
    353 H5''        4.7510    9.6270   -5.8500 H      11  G11         0.0591
    354  H4'        3.9440   11.1990   -4.1580 H      11  G11         0.0647
    355  H3'        5.2330    8.7070   -2.9960 H      11  G11         0.0655
    356  H2'        5.2040    9.9540   -0.9080 H      11  G11         0.0666
    357 HO2'        4.5510   12.1360   -0.8970 H      11  G11         0.2101
    358  H1'        2.6140   10.8150   -1.2850 H      11  G11         0.0866
    359   H8        2.6900    7.2420   -2.5070 H      11  G11         0.1030
    360   H1        2.9270    7.7700    3.8930 H      11  G11         0.1716
    361  H21        3.4780   11.1460    3.2460 H      11  G11         0.1451
    362  H22        3.3100    9.8940    4.4570 H      11  G11         0.1451
    363    P.3      7.7680    9.8180   -3.0870 P.3    12  G12         0.2131
    364  OP1        8.8140   10.5600   -3.8280 O.2    12  G12        -0.5172
    365  OP2        7.7410    8.3390   -3.1490 O.3    12  G12        -0.4373
    366  O5'        7.8470   10.2490   -1.5390 O.3    12  G12        -0.3248
    367  C5'        8.0600   11.5950   -1.1720 C.3    12  G12         0.0837
    368  C4'        8.0930   11.7260    0.3500 C.3    12  G12         0.1139
    369  O4'        6.8440   11.3850    0.9340 O.3    12  G12        -0.3456
    370  C3'        9.1290   10.8160    1.0010 C.3    12  G12         0.1241
    371  O3'       10.4520   11.3130    0.9370 O.3    12  G12        -0.3187
    372  C2'        8.5930   10.8040    2.4260 C.3    12  G12         0.1292
    373  O2'        8.8810   12.0170    3.0960 O.3    12  G12        -0.3846
    374  C1'        7.0900   10.7390    2.1770 C.3    12  G12         0.1667
    375   N9        6.6970    9.3190    2.1240 N.ar   12  G12        -0.2854
    376   C8        6.5390    8.4980    1.0390 C.ar   12  G12         0.1005
    377   N7        6.1730    7.2840    1.3420 N.ar   12  G12        -0.2286
    378   C5        6.0990    7.2980    2.7340 C.ar   12  G12         0.1721
    379   C6        5.7640    6.2590    3.6490 C.ar   12  G12         0.2803
    380   O6        5.4360    5.1020    3.4020 O.2    12  G12        -0.2654
    381   N.1       5.8420    6.6840    4.9670 N.ar   12  G12        -0.2934
    382   C.2       6.1700    7.9580    5.3620 C.ar   12  G12         0.1950
    383   N.2       6.1930    8.2010    6.6700 N.pl3  12  G12        -0.3289
    384   N.3       6.4660    8.9460    4.5120 N.ar   12  G12        -0.1963
    385   C4        6.4160    8.5410    3.2190 C.ar   12  G12         0.1712
    386  H5'        7.2610   12.2190   -1.5720 H      12  G12         0.0591
    387 H5''        9.0140   11.9340   -1.5810 H      12  G12         0.0591
    388  H4'        8.3250   12.7570    0.6150 H      12  G12         0.0647
    389  H3'        9.0690    9.8180    0.5660 H      12  G12         0.0655
    390  H2'        8.9430    9.9350    2.9830 H      12  G12         0.0666
    391 HO2'        9.8370   12.1340    3.1140 H      12  G12         0.2101
    392  H1'        6.5450   11.2270    2.9870 H      12  G12         0.0866
    393   H8        6.7040    8.8310    0.0280 H      12  G12         0.1030
    394   H1        5.6420    5.9990    5.6830 H      12  G12         0.1716
    395  H21        6.4230    9.1280    6.9980 H      12  G12         0.1451
    396  H22        5.9800    7.4660    7.3290 H      12  G12         0.1451
    397    P.3     11.7120   10.3220    1.1090 P.3    13  C13         0.2131
    398  OP1       12.9480   11.1320    1.0080 O.3    13  C13        -0.4373
    399  OP2       11.5190    9.1720    0.1970 O.2    13  C13        -0.5172
    400  O5'       11.5920    9.7790    2.6210 O.3    13  C13        -0.3248
    401  C5'       11.9390   10.5960    3.7210 C.3    13  C13         0.0837
    402  C4'       11.6850    9.8610    5.0370 C.3    13  C13         0.1139
    403  O4'       10.3290    9.4510    5.1560 O.3    13  C13        -0.3456
    404  C3'       12.5130    8.5910    5.2070 C.3    13  C13         0.1241
    405  O3'       13.8590    8.8370    5.5700 O.3    13  C13        -0.3187
    406  C2'       11.7270    7.9400    6.3370 C.3    13  C13         0.1293
    407  O2'       12.0000    8.5660    7.5750 O.3    13  C13        -0.3846
    408  C1'       10.2880    8.2740    5.9520 C.3    13  C13         0.1680
    409   N.1       9.7060    7.1320    5.2270 N.ar   13  C13        -0.2700
    410   C.2       9.1220    6.1230    5.9840 C.ar   13  C13         0.3522
    411   O.2       9.0780    6.2110    7.2100 O.2    13  C13        -0.2444
    412   N.3       8.6020    5.0400    5.3520 N.ar   13  C13        -0.1783
    413   C4        8.6480    4.9610    4.0210 C.ar   13  C13         0.1230
    414   N.4       8.1370    3.8840    3.4330 N.pl3  13  C13        -0.3430
    415   C5        9.2230    6.0000    3.2250 C.ar   13  C13        -0.0056
    416   C6        9.7420    7.0630    3.8680 C.ar   13  C13         0.0152
    417  H5'       11.3490   11.5110    3.6990 H      13  C13         0.0591
    418 H5''       12.9960   10.8590    3.6570 H      13  C13         0.0591
    419  H4'       11.9190   10.5300    5.8670 H      13  C13         0.0647
    420  H3'       12.4570    7.9880    4.3010 H      13  C13         0.0655
    421  H2'       11.8900    6.8630    6.3800 H      13  C13         0.0666
    422 HO2'       12.9330    8.4460    7.7750 H      13  C13         0.2101
    423  H1'        9.6930    8.4440    6.8430 H      13  C13         0.0867
    424  H41        7.7240    3.1500    3.9920 H      13  C13         0.1437
    425  H42        8.1590    3.8000    2.4280 H      13  C13         0.1437
    426   H5        9.2630    5.9750    2.1550 H      13  C13         0.0666
    427   H6       10.1910    7.8700    3.3050 H      13  C13         0.0812
    428    P.3     14.9690    7.6730    5.4610 P.3    14  C14         0.2131
    429  OP1       16.2700    8.2410    5.8860 O.3    14  C14        -0.4373
    430  OP2       14.8490    7.0510    4.1240 O.2    14  C14        -0.5172
    431  O5'       14.5160    6.5830    6.5580 O.3    14  C14        -0.3248
    432  C5'       14.7270    6.8000    7.9390 C.3    14  C14         0.0837
    433  C4'       14.1100    5.6610    8.7510 C.3    14  C14         0.1139
    434  O4'       12.7330    5.4870    8.4480 O.3    14  C14        -0.3456
    435  C3'       14.7720    4.3120    8.5010 C.3    14  C14         0.1241
    436  O3'       15.9890    4.1520    9.2060 O.3    14  C14        -0.3187
    437  C2'       13.6810    3.3940    9.0370 C.3    14  C14         0.1293
    438  O2'       13.6970    3.3640   10.4500 O.3    14  C14        -0.3846
    439  C1'       12.4070    4.1140    8.6080 C.3    14  C14         0.1680
    440   N.1      11.8810    3.5310    7.3520 N.ar   14  C14        -0.2700
    441   C.2      10.9480    2.5090    7.4700 C.ar   14  C14         0.3522
    442   O.2      10.5820    2.1230    8.5780 O.2    14  C14        -0.2444
    443   N.3      10.4460    1.9420    6.3440 N.ar   14  C14        -0.1783
    444   C4       10.8480    2.3620    5.1450 C.ar   14  C14         0.1230
    445   N.4      10.3340    1.7720    4.0710 N.pl3  14  C14        -0.3430
    446   C5       11.8050    3.4150    4.9930 C.ar   14  C14        -0.0056
    447   C6       12.2930    3.9700    6.1250 C.ar   14  C14         0.0152
    448  H5'       14.2730    7.7430    8.2380 H      14  C14         0.0591
    449 H5''       15.7970    6.8480    8.1410 H      14  C14         0.0591
    450  H4'       14.2020    5.8920    9.8130 H      14  C14         0.0647
    451  H3'       14.9140    4.1610    7.4310 H      14  C14         0.0655
    452  H2'       13.7450    2.3920    8.6170 H      14  C14         0.0666
    453 HO2'       14.5390    2.9980   10.7340 H      14  C14         0.2101
    454  H1'       11.6580    3.9940    9.3870 H      14  C14         0.0867
    455  H41        9.6590    1.0310    4.1800 H      14  C14         0.1437
    456  H42       10.6170    2.0690    3.1530 H      14  C14         0.1437
    457   H5       12.1400    3.7710    4.0310 H      14  C14         0.0666
    458   H6       13.0190    4.7670    6.0610 H      14  C14         0.0812
    459    P.3     16.9990    2.9440    8.8600 P.3    15  U15         0.2131
    460  OP1       18.2120    3.1110    9.6920 O.3    15  U15        -0.4373
    461  OP2       17.1330    2.8710    7.3870 O.2    15  U15        -0.5172
    462  O5'       16.2300    1.6150    9.3530 O.3    15  U15        -0.3248
    463  C5'       16.1630    1.2610   10.7210 C.3    15  U15         0.0837
    464  C4'       15.4280   -0.0730   10.8860 C.3    15  U15         0.1139
    465  O4'       14.0950   -0.0180   10.4020 O.3    15  U15        -0.3456
    466  C3'       16.1140   -1.2100   10.1380 C.3    15  U15         0.1241
    467  O3'       17.2210   -1.7260   10.8550 O.3    15  U15        -0.3187
    468  C2'       14.9610   -2.2030   10.0440 C.3    15  U15         0.1293
    469  O2'       14.7760   -2.8840   11.2710 O.3    15  U15        -0.3846
    470  C1'       13.7620   -1.2790    9.8330 C.3    15  U15         0.1680
    471   N.1      13.4160   -1.1420    8.4040 N.ar   15  U15        -0.2715
    472   C.2      12.6030   -2.1180    7.8360 C.ar   15  U15         0.3314
    473   O.2      12.2280   -3.1090    8.4570 O.2    15  U15        -0.2464
    474   N.3      12.2300   -1.9170    6.5180 N.ar   15  U15        -0.2749
    475   C4       12.5970   -0.8400    5.7290 C.ar   15  U15         0.2539
    476   O4       12.1800   -0.7350    4.5800 O.2    15  U15        -0.2677
    477   C5       13.4820    0.0900    6.3880 C.ar   15  U15         0.0192
    478   C6       13.8690   -0.0880    7.6680 C.ar   15  U15         0.0171
    479  H5'       15.6440    2.0350   11.2860 H      15  U15         0.0591
    480 H5''       17.1750    1.1560   11.1130 H      15  U15         0.0591
    481  H4'       15.3970   -0.3350   11.9440 H      15  U15         0.0647
    482  H3'       16.4090   -0.8750    9.1420 H      15  U15         0.0655
    483  H2'       15.0880   -2.8980    9.2170 H      15  U15         0.0666
    484 HO2'       14.0760   -3.5370   11.1610 H      15  U15         0.2101
    485  H1'       12.8910   -1.6900   10.3270 H      15  U15         0.0867
    486   H3       11.6370   -2.6150    6.0900 H      15  U15         0.1734
    487   H5       13.8400    0.9460    5.8520 H      15  U15         0.0686
    488   H6       14.5460    0.6190    8.1220 H      15  U15         0.0813
    489    P.3     18.3300   -2.6400   10.1290 P.3    16  U16         0.2131
    490  OP1       19.3640   -2.9850   11.1320 O.3    16  U16        -0.4373
    491  OP2       18.7290   -1.9640    8.8740 O.2    16  U16        -0.5172
    492  O5'       17.5400   -3.9880    9.7370 O.3    16  U16        -0.3248
    493  C5'       17.2210   -4.9680   10.7020 C.3    16  U16         0.0837
    494  C4'       16.4800   -6.1300   10.0380 C.3    16  U16         0.1139
    495  O4'       15.2080   -5.7360    9.5420 O.3    16  U16        -0.3456
    496  C3'       17.2440   -6.7080    8.8530 C.3    16  U16         0.1241
    497  O3'       18.2690   -7.5980    9.2500 O.3    16  U16        -0.3187
    498  C2'       16.1110   -7.4120    8.1180 C.3    16  U16         0.1293
    499  O2'       15.7950   -8.6460    8.7320 O.3    16  U16        -0.3846
    500  C1'       14.9430   -6.4550    8.3450 C.3    16  U16         0.1680
    501   N.1      14.7990   -5.5340    7.2020 N.ar   16  U16        -0.2715
    502   C.2      13.9630   -5.9120    6.1600 C.ar   16  U16         0.3314
    503   O.2      13.3770   -6.9930    6.1390 O.2    16  U16        -0.2464
    504   N.3      13.8180   -4.9990    5.1270 N.ar   16  U16        -0.2749
    505   C4       14.4420   -3.7690    5.0410 C.ar   16  U16         0.2539
    506   O4       14.2450   -3.0360    4.0760 O.2    16  U16        -0.2677
    507   C5       15.3040   -3.4730    6.1610 C.ar   16  U16         0.0192
    508   C6       15.4660   -4.3460    7.1760 C.ar   16  U16         0.0171
    509  H5'       16.5970   -4.5350   11.4830 H      16  U16         0.0591
    510 H5''       18.1410   -5.3440   11.1510 H      16  U16         0.0591
    511  H4'       16.3290   -6.9260   10.7670 H      16  U16         0.0647
    512  H3'       17.6460   -5.8990    8.2410 H      16  U16         0.0655
    513  H2'       16.3280   -7.5320    7.0580 H      16  U16         0.0666
    514 HO2'       16.5740   -9.2100    8.7020 H      16  U16         0.2101
    515  H1'       14.0130   -7.0060    8.4420 H      16  U16         0.0867
    516   H3       13.1990   -5.2500    4.3690 H      16  U16         0.1734
    517   H5       15.8330   -2.5430    6.2020 H      16  U16         0.0686
    518   H6       16.1340   -4.0990    7.9850 H      16  U16         0.0813
    519    P.3     19.5100   -7.9220    8.2760 P.3    17  C17         0.2131
    520  OP1       20.4330   -8.8280    8.9950 O.3    17  C17        -0.4373
    521  OP2       20.0170   -6.6390    7.7400 O.2    17  C17        -0.5172
    522  O5'       18.8490   -8.7420    7.0580 O.3    17  C17        -0.3248
    523  C5'       18.4860  -10.1000    7.2010 C.3    17  C17         0.0837
    524  C4'       17.8470  -10.6080    5.9070 C.3    17  C17         0.1139
    525  O4'       16.6610   -9.8930    5.5930 O.3    17  C17        -0.3456
    526  C3'       18.7580  -10.4700    4.6920 C.3    17  C17         0.1241
    527  O3'       19.7360  -11.4870    4.6030 O.3    17  C17        -0.3187
    528  C2'       17.7160  -10.5870    3.5880 C.3    17  C17         0.1293
    529  O2'       17.2940  -11.9290    3.4290 O.3    17  C17        -0.3846
    530  C1'       16.5550   -9.7940    4.1780 C.3    17  C17         0.1680
    531   N.1      16.5970   -8.3900    3.7250 N.ar   17  C17        -0.2700
    532   C.2      16.0360   -8.1010    2.4880 C.ar   17  C17         0.3522
    533   O.2      15.5600   -8.9950    1.7910 O.2    17  C17        -0.2444
    534   N.3      16.0220   -6.8140    2.0600 N.ar   17  C17        -0.1783
    535   C4       16.5410   -5.8500    2.8200 C.ar   17  C17         0.1230
    536   N.4      16.4890   -4.6000    2.3720 N.pl3  17  C17        -0.3430
    537   C5       17.1440   -6.1290    4.0840 C.ar   17  C17        -0.0056
    538   C6       17.1590   -7.4130    4.4900 C.ar   17  C17         0.0152
    539  H5'       17.7810  -10.2130    8.0240 H      17  C17         0.0591
    540 H5''       19.3770  -10.6910    7.4140 H      17  C17         0.0591
    541  H4'       17.5910  -11.6610    6.0260 H      17  C17         0.0647
    542  H3'       19.2180   -9.4820    4.6830 H      17  C17         0.0655
    543  H2'       18.0600  -10.1630    2.6470 H      17  C17         0.0666
    544 HO2'       18.0610  -12.4670    3.2100 H      17  C17         0.2101
    545  H1'       15.6150  -10.2100    3.8370 H      17  C17         0.0867
    546  H41       16.0620   -4.4080    1.4770 H      17  C17         0.1437
    547  H42       16.8720   -3.8500    2.9230 H      17  C17         0.1437
    548   H5       17.5770   -5.3760    4.7150 H      17  C17         0.0666
    549   H6       17.6190   -7.6700    5.4320 H      17  C17         0.0812
    550    P.3     21.0360  -11.3010    3.6690 P.3    18  C18         0.2131
    551  OP1       21.8750  -12.5120    3.8100 O.2    18  C18        -0.5172
    552  OP2       21.6190   -9.9730    3.9620 O.3    18  C18        -0.4373
    553  O5'       20.4530  -11.2670    2.1650 O.3    18  C18        -0.3248
    554  C5'       20.0450  -12.4510    1.5090 C.3    18  C18         0.0837
    555  C4'       19.5990  -12.1450    0.0770 C.3    18  C18         0.1139
    556  O4'       18.4400  -11.3280    0.0230 O.3    18  C18        -0.3456
    557  C3'       20.6660  -11.4300   -0.7430 C.3    18  C18         0.1241
    558  O3'       21.6850  -12.2980   -1.2020 O.3    18  C18        -0.3187
    559  C2'       19.7950  -10.9030   -1.8760 C.3    18  C18         0.1293
    560  O2'       19.4570  -11.9380   -2.7790 O.3    18  C18        -0.3846
    561  C1'       18.5370  -10.4870   -1.1210 C.3    18  C18         0.1680
    562   N.1      18.6300   -9.0670   -0.7160 N.ar   18  C18        -0.2700
    563   C.2      18.3220   -8.1040   -1.6680 C.ar   18  C18         0.3522
    564   O.2      18.0160   -8.4370   -2.8100 O.2    18  C18        -0.2444
    565   N.3      18.3620   -6.7940   -1.3140 N.ar   18  C18        -0.1783
    566   C4       18.7000   -6.4440   -0.0710 C.ar   18  C18         0.1230
    567   N.4      18.7200   -5.1490    0.2330 N.pl3  18  C18        -0.3430
    568   C5       19.0370   -7.4170    0.9220 C.ar   18  C18        -0.0056
    569   C6       19.0020   -8.7120    0.5480 C.ar   18  C18         0.0152
    570  H5'       19.2230  -12.9150    2.0530 H      18  C18         0.0591
    571 H5''       20.8850  -13.1450    1.4750 H      18  C18         0.0591
    572  H4'       19.3680  -13.0830   -0.4230 H      18  C18         0.0647
    573  H3'       21.0820  -10.6030   -0.1670 H      18  C18         0.0655
    574  H2'       20.2550  -10.0620   -2.3910 H      18  C18         0.0666
    575 HO2'       20.2660  -12.2630   -3.1860 H      18  C18         0.2101
    576  H1'       17.6610  -10.6040   -1.7590 H      18  C18         0.0867
    577  H41       18.4840   -4.4640   -0.4700 H      18  C18         0.1437
    578  H42       18.9690   -4.8550    1.1650 H      18  C18         0.1437
    579   H5       19.3130   -7.1740    1.9360 H      18  C18         0.0666
    580   H6       19.2670   -9.4790    1.2570 H      18  C18         0.0812
    581    P.3     23.1280  -11.7270   -1.6400 P.3    19  C19         0.2131
    582  OP1       24.0060  -12.8820   -1.9360 O.2    19  C19        -0.5172
    583  OP2       23.5510  -10.7350   -0.6280 O.3    19  C19        -0.4373
    584  O5'       22.8500  -10.9450   -3.0200 O.3    19  C19        -0.3248
    585  C5'       22.6900  -11.6430   -4.2390 C.3    19  C19         0.0837
    586  C4'       22.4600  -10.6590   -5.3900 C.3    19  C19         0.1139
    587  O4'       21.2480   -9.9340   -5.2270 O.3    19  C19        -0.3456
    588  C3'       23.5650   -9.6160   -5.5220 C.3    19  C19         0.1241
    589  O3'       24.7190  -10.0710   -6.2010 O.3    19  C19        -0.3187
    590  C2'       22.8220   -8.5830   -6.3570 C.3    19  C19         0.1293
    591  O2'       22.7240   -8.9990   -7.7060 O.3    19  C19        -0.3846
    592  C1'       21.4260   -8.6200   -5.7440 C.3    19  C19         0.1680
    593   N.1      21.3370   -7.6000   -4.6700 N.ar   19  C19        -0.2700
    594   C.2      21.0940   -6.2860   -5.0490 C.ar   19  C19         0.3522
    595   O.2      20.9360   -5.9970   -6.2350 O.2    19  C19        -0.2444
    596   N.3      21.0320   -5.3230   -4.0920 N.ar   19  C19        -0.1783
    597   C4       21.1820   -5.6440   -2.8050 C.ar   19  C19         0.1230
    598   N.4      21.1190   -4.6710   -1.9000 N.pl3  19  C19        -0.3430
    599   C5       21.4080   -6.9930   -2.3860 C.ar   19  C19        -0.0056
    600   C6       21.4880   -7.9320   -3.3530 C.ar   19  C19         0.0152
    601  H5'       21.8420  -12.3230   -4.1700 H      19  C19         0.0591
    602 H5''       23.5890  -12.2220   -4.4440 H      19  C19         0.0591
    603  H4'       22.4040  -11.2170   -6.3250 H      19  C19         0.0647
    604  H3'       23.8160   -9.2150   -4.5390 H      19  C19         0.0655
    605  H2'       23.2710   -7.5960   -6.2780 H      19  C19         0.0666
    606 HO2'       23.6130   -9.1280   -8.0510 H      19  C19         0.2101
    607  H1'       20.6790   -8.4080   -6.5100 H      19  C19         0.0867
    608  H41       20.9630   -3.7180   -2.1970 H      19  C19         0.1437
    609  H42       21.2260   -4.8880   -0.9240 H      19  C19         0.1437
    610   H5       21.5170   -7.2820   -1.3520 H      19  C19         0.0666
    611   H6       21.6740   -8.9590   -3.0860 H      19  C19         0.0812
    612    P.3     26.1640   -9.4210   -5.9050 P.3    20  A20         0.2131
    613  OP1       27.1060   -9.8980   -6.9450 O.2    20  A20        -0.5172
    614  OP2       26.4810   -9.6520   -4.4780 O.3    20  A20        -0.4373
    615  O5'       25.9500   -7.8360   -6.1080 O.3    20  A20        -0.3248
    616  C5'       25.8020   -7.2620   -7.3900 C.3    20  A20         0.0837
    617  C4'       25.4730   -5.7740   -7.2510 C.3    20  A20         0.1139
    618  O4'       24.3110   -5.5890   -6.4560 O.3    20  A20        -0.3456
    619  C3'       26.5990   -4.9700   -6.6050 C.3    20  A20         0.1241
    620  O3'       27.5380   -4.4830   -7.5500 O.3    20  A20        -0.3187
    621  C2'       25.8090   -3.8260   -5.9780 C.3    20  A20         0.1292
    622  O2'       25.4830   -2.8390   -6.9390 O.3    20  A20        -0.3846
    623  C1'       24.5200   -4.5150   -5.5550 C.3    20  A20         0.1667
    624   N9       24.6440   -4.9860   -4.1580 N.ar   20  A20        -0.2855
    625   C8       24.7030   -6.2610   -3.6570 C.ar   20  A20         0.1004
    626   N7       24.7910   -6.3170   -2.3530 N.ar   20  A20        -0.2306
    627   C5       24.8000   -4.9770   -1.9650 C.ar   20  A20         0.1473
    628   C6       24.8840   -4.3190   -0.7210 C.ar   20  A20         0.1472
    629   N6       24.9630   -4.9580    0.4500 N.pl3  20  A20        -0.3413
    630   N.1      24.8860   -2.9780   -0.7020 N.ar   20  A20        -0.2188
    631   C.2      24.8070   -2.3200   -1.8490 C.ar   20  A20         0.1205
    632   N.3      24.7150   -2.8140   -3.0750 N.ar   20  A20        -0.2159
    633   C4       24.7210   -4.1650   -3.0620 C.ar   20  A20         0.1674
    634  H5'       24.9940   -7.7610   -7.9240 H      20  A20         0.0591
    635 H5''       26.7280   -7.3800   -7.9510 H      20  A20         0.0591
    636  H4'       25.2840   -5.3560   -8.2400 H      20  A20         0.0647
    637  H3'       27.0820   -5.5660   -5.8310 H      20  A20         0.0655
    638  H2'       26.3260   -3.3980   -5.1210 H      20  A20         0.0666
    639 HO2'       25.0400   -2.1080   -6.4930 H      20  A20         0.2101
    640  H1'       23.6990   -3.8040   -5.6110 H      20  A20         0.0866
    641   H8       24.6790   -7.1390   -4.2840 H      20  A20         0.1030
    642  H61       25.0180   -4.4280    1.3070 H      20  A20         0.1438
    643  H62       24.9680   -5.9660    0.4670 H      20  A20         0.1438
    644   H2       24.8170   -1.2350   -1.7910 H      20  A20         0.1048
    645    P.3     29.0620   -4.1520   -7.1370 P.3    21  C21         0.2131
    646  OP1       29.6930   -3.4270   -8.2630 O.2    21  C21        -0.5172
    647  OP2       29.6750   -5.4070   -6.6470 O.3    21  C21        -0.4373
    648  O5'       28.9570   -3.1400   -5.8880 O.3    21  C21        -0.3248
    649  C5'       28.5370   -1.8050   -6.0420 C.3    21  C21         0.0837
    650  C4'       28.2850   -1.1100   -4.6930 C.3    21  C21         0.1139
    651  O4'       27.5750   -1.9320   -3.7700 O.3    21  C21        -0.3456
    652  C3'       29.5800   -0.7410   -3.9720 C.3    21  C21         0.1241
    653  O3'       29.2840    0.3300   -3.0840 O.3    21  C21        -0.3187
    654  C2'       29.8610   -2.0190   -3.2020 C.3    21  C21         0.1293
    655  O2'       30.7950   -1.8650   -2.1540 O.3    21  C21        -0.3846
    656  C1'       28.4530   -2.2910   -2.7010 C.3    21  C21         0.1680
    657   N.1      28.3090   -3.7100   -2.3340 N.ar   21  C21        -0.2700
    658   C.2      28.2860   -4.0770   -0.9950 C.ar   21  C21         0.3522
    659   O.2      28.3500   -3.2260   -0.1080 O.2    21  C21        -0.2444
    660   N.3      28.1930   -5.3990   -0.6860 N.ar   21  C21        -0.1783
    661   C4       28.1200   -6.3180   -1.6540 C.ar   21  C21         0.1230
    662   N.4      28.0380   -7.6020   -1.3090 N.pl3  21  C21        -0.3430
    663   C5       28.1290   -5.9490   -3.0350 C.ar   21  C21        -0.0056
    664   C6       28.2140   -4.6410   -3.3170 C.ar   21  C21         0.0152
    665  H5'       27.6270   -1.7640   -6.6410 H      21  C21         0.0591
    666 H5''       29.3110   -1.2660   -6.5860 H      21  C21         0.0591
    667  H4'       27.7090   -0.2120   -4.9220 H      21  C21         0.0647
    668  H3'       30.3570   -0.5190   -4.6960 H      21  C21         0.0655
    669  H2'       30.1790   -2.8080   -3.8820 H      21  C21         0.0666
    670 HO2'       30.4990   -1.1500   -1.5790 H      21  C21         0.2101
    671  H1'       28.2750   -1.6530   -1.8380 H      21  C21         0.0867
    672  H41       28.0400   -7.8560   -0.3320 H      21  C21         0.1437
    673  H42       27.9740   -8.3120   -2.0230 H      21  C21         0.1437
    674   H5       28.0740   -6.6310   -3.8630 H      21  C21         0.0666
    675   H6       28.2070   -4.3240   -4.3420 H      21  C21         0.0812
    676    P.3     30.4230    1.2180   -2.3580 P.3    22  A22         0.2131
    677  OP1       31.7150    1.0050   -3.0510 O.2    22  A22        -0.5172
    678  OP2       30.3210    1.0200   -0.8940 O.3    22  A22        -0.4373
    679  O5'       29.8930    2.6970   -2.7250 O.3    22  A22        -0.3248
    680  C5'       30.7000    3.8470   -2.5820 C.3    22  A22         0.0837
    681  C4'       30.1290    5.0290   -3.3830 C.3    22  A22         0.1139
    682  O4'       30.2910    4.8020   -4.7800 O.3    22  A22        -0.3456
    683  C3'       28.6390    5.2480   -3.1320 C.3    22  A22         0.1241
    684  O3'       28.3430    6.6180   -3.3860 O.3    22  A22        -0.3187
    685  C2'       28.0650    4.3090   -4.1820 C.3    22  A22         0.1292
    686  O2'       26.7710    4.6630   -4.5470 O.3    22  A22        -0.3846
    687  C1'       29.0380    4.4410   -5.3440 C.3    22  A22         0.1667
    688   N9       29.1100    3.1770   -6.1090 N.ar   22  A22        -0.2855
    689   C8       29.5530    1.9510   -5.6980 C.ar   22  A22         0.1004
    690   N7       29.5520    1.0360   -6.6220 N.ar   22  A22        -0.2306
    691   C5       29.0060    1.6840   -7.7220 C.ar   22  A22         0.1473
    692   C6       28.6730    1.2530   -9.0190 C.ar   22  A22         0.1472
    693   N6       28.8930    0.0170   -9.4740 N.pl3  22  A22        -0.3413
    694   N.1      28.1010    2.1310   -9.8440 N.ar   22  A22        -0.2188
    695   C.2      27.8770    3.3610   -9.4050 C.ar   22  A22         0.1205
    696   N.3      28.1520    3.9030   -8.2290 N.ar   22  A22        -0.2159
    697   C4       28.7250    2.9890   -7.4150 C.ar   22  A22         0.1674
    698  H5'       31.7070    3.6360   -2.9410 H      22  A22         0.0591
    699 H5''       30.7460    4.1200   -1.5270 H      22  A22         0.0591
    700  H4'       30.6630    5.9350   -3.1010 H      22  A22         0.0647
    701  H3'       28.3630    4.9590   -2.1180 H      22  A22         0.0655
    702  H2'       28.0540    3.2840   -3.8220 H      22  A22         0.0666
    703 HO2'       26.7350    5.6150   -4.6880 H      22  A22         0.2101
    704  H1'       28.6970    5.2450   -5.9970 H      22  A22         0.0866
    705   H8       29.8740    1.7570   -4.6950 H      22  A22         0.1030
    706  H61       28.6280   -0.2230  -10.4180 H      22  A22         0.1438
    707  H62       29.3220   -0.6740   -8.8740 H      22  A22         0.1438
    708   H2       27.3990    4.0150  -10.1030 H      22  A22         0.1048
    709    P.3     26.9730    7.3180   -2.8770 P.3    23  A23         0.2131
    710  OP1       27.1960    8.7820   -2.8530 O.2    23  A23        -0.5172
    711  OP2       26.5430    6.6300   -1.6380 O.3    23  A23        -0.4373
    712  O5'       25.8860    7.0020   -4.0310 O.3    23  A23        -0.3248
    713  C5'       25.8660    7.7320   -5.2430 C.3    23  A23         0.0837
    714  C4'       25.0110    7.0140   -6.2930 C.3    23  A23         0.1139
    715  O4'       25.5760    5.7440   -6.5990 O.3    23  A23        -0.3456
    716  C3'       23.5600    6.7700   -5.8790 C.3    23  A23         0.1241
    717  O3'       22.6680    7.8360   -6.1440 O.3    23  A23        -0.3187
    718  C2'       23.2340    5.5810   -6.7710 C.3    23  A23         0.1292
    719  O2'       22.9260    5.9900   -8.0900 O.3    23  A23        -0.3846
    720  C1'       24.5330    4.8010   -6.8040 C.3    23  A23         0.1667
    721   N9       24.4520    3.7390   -5.7780 N.ar   23  A23        -0.2855
    722   C8       24.3140    3.8460   -4.4170 C.ar   23  A23         0.1004
    723   N7       24.1100    2.7140   -3.8050 N.ar   23  A23        -0.2306
    724   C5       24.2130    1.7810   -4.8320 C.ar   23  A23         0.1473
    725   C6       24.1240    0.3820   -4.8550 C.ar   23  A23         0.1472
    726   N6       23.8270   -0.3370   -3.7770 N.pl3  23  A23        -0.3413
    727   N.1      24.3470   -0.2590   -6.0080 N.ar   23  A23        -0.2188
    728   C.2      24.6210    0.4590   -7.0870 C.ar   23  A23         0.1205
    729   N.3      24.6970    1.7770   -7.2160 N.ar   23  A23        -0.2159
    730   C4       24.4840    2.3880   -6.0260 C.ar   23  A23         0.1674
    731  H5'       26.8830    7.8270   -5.6230 H      23  A23         0.0591
    732 H5''       25.4600    8.7280   -5.0600 H      23  A23         0.0591
    733  H4'       25.0010    7.6110   -7.2060 H      23  A23         0.0647
    734  H3'       23.5110    6.4910   -4.8280 H      23  A23         0.0655
    735  H2'       22.4460    4.9770   -6.3340 H      23  A23         0.0666
    736 HO2'       22.0860    6.4580   -8.0660 H      23  A23         0.2101
    737  H1'       24.6400    4.3190   -7.7710 H      23  A23         0.0866
    738   H8       24.3710    4.7830   -3.8930 H      23  A23         0.1030
    739  H61       23.8090   -1.3450   -3.8360 H      23  A23         0.1438
    740  H62       23.6230    0.1290   -2.9060 H      23  A23         0.1438
    741   H2       24.8100   -0.1110   -7.9810 H      23  A23         0.1048
    742    P.3     21.1040    7.7160   -5.7500 P.3    24  G24         0.2131
    743  OP1       20.4220    8.9550   -6.1940 O.2    24  G24        -0.5172
    744  OP2       21.0220    7.3080   -4.3280 O.3    24  G24        -0.4373
    745  O5'       20.5750    6.5000   -6.6670 O.3    24  G24        -0.3248
    746  C5'       19.8690    5.4130   -6.1010 C.3    24  G24         0.0837
    747  C4'       19.8350    4.2430   -7.0870 C.3    24  G24         0.1139
    748  O4'       20.9940    3.4270   -6.9830 O.3    24  G24        -0.3456
    749  C3'       18.6640    3.3130   -6.8140 C.3    24  G24         0.1241
    750  O3'       17.4490    3.8090   -7.3320 O.3    24  G24        -0.3187
    751  C2'       19.1470    2.0490   -7.5180 C.3    24  G24         0.1292
    752  O2'       19.0710    2.1680   -8.9260 O.3    24  G24        -0.3846
    753  C1'       20.6170    2.0620   -7.0980 C.3    24  G24         0.1667
    754   N9       20.7290    1.3910   -5.7840 N.ar   24  G24        -0.2854
    755   C8       20.8000    1.9450   -4.5320 C.ar   24  G24         0.1005
    756   N7       20.8700    1.0700   -3.5680 N.ar   24  G24        -0.2286
    757   C5       20.8520   -0.1590   -4.2270 C.ar   24  G24         0.1721
    758   C6       20.9150   -1.4840   -3.7060 C.ar   24  G24         0.2803
    759   O6       21.0010   -1.8440   -2.5330 O.2    24  G24        -0.2654
    760   N.1      20.8690   -2.4410   -4.7100 N.ar   24  G24        -0.2934
    761   C.2      20.7910   -2.1580   -6.0540 C.ar   24  G24         0.1950
    762   N.2      20.7660   -3.1930   -6.8900 N.pl3  24  G24        -0.3289
    763   N.3      20.7400   -0.9180   -6.5540 N.ar   24  G24        -0.1963
    764   C4       20.7740    0.0310   -5.5850 C.ar   24  G24         0.1712
    765  H5'       18.8520    5.7330   -5.8760 H      24  G24         0.0591
    766 H5''       20.3540    5.0870   -5.1820 H      24  G24         0.0591
    767  H4'       19.7460    4.6210   -8.1060 H      24  G24         0.0647
    768  H3'       18.5820    3.1420   -5.7400 H      24  G24         0.0655
    769  H2'       18.6180    1.1610   -7.1600 H      24  G24         0.0666
    770 HO2'       19.3670    1.3420   -9.3240 H      24  G24         0.2101
    771  H1'       21.2550    1.5530   -7.8280 H      24  G24         0.0866
    772   H8       20.7990    3.0120   -4.3580 H      24  G24         0.1030
    773   H1       20.8930   -3.4100   -4.4220 H      24  G24         0.1716
    774  H21       20.7170   -3.0270   -7.8840 H      24  G24         0.1451
    775  H22       20.7960   -4.1380   -6.5360 H      24  G24         0.1451
    776    P.3     16.0450    3.3170   -6.7270 P.3    25  G25         0.2131
    777  OP1       14.9590    4.0020   -7.4650 O.2    25  G25        -0.5172
    778  OP2       16.1160    3.4410   -5.2520 O.3    25  G25        -0.4373
    779  O5'       15.9970    1.7510   -7.0960 O.3    25  G25        -0.3248
    780  C5'       15.8090    1.3250   -8.4310 C.3    25  G25         0.0837
    781  C4'       15.8990   -0.1980   -8.5350 C.3    25  G25         0.1139
    782  O4'       17.1680   -0.6840   -8.1200 O.3    25  G25        -0.3456
    783  C3'       14.8710   -0.9320   -7.6830 C.3    25  G25         0.1241
    784  O3'       13.5710   -0.9460   -8.2410 O.3    25  G25        -0.3187
    785  C2'       15.5120   -2.3150   -7.6700 C.3    25  G25         0.1292
    786  O2'       15.3590   -2.9700   -8.9150 O.3    25  G25        -0.3846
    787  C1'       16.9820   -1.9440   -7.4880 C.3    25  G25         0.1667
    788   N9       17.2680   -1.8530   -6.0410 N.ar   25  G25        -0.2854
    789   C8       17.3650   -0.7450   -5.2410 C.ar   25  G25         0.1005
    790   N7       17.6170   -1.0150   -3.9880 N.ar   25  G25        -0.2286
    791   C5       17.6930   -2.4070   -3.9540 C.ar   25  G25         0.1721
    792   C6       17.9360   -3.2950   -2.8630 C.ar   25  G25         0.2803
    793   O6       18.1470   -3.0200   -1.6840 O.2    25  G25        -0.2654
    794   N.1      17.9150   -4.6260   -3.2570 N.ar   25  G25        -0.2934
    795   C.2      17.7040   -5.0520   -4.5480 C.ar   25  G25         0.1950
    796   N.2      17.7200   -6.3650   -4.7640 N.pl3  25  G25        -0.3289
    797   N.3      17.4850   -4.2300   -5.5790 N.ar   25  G25        -0.1963
    798   C4       17.4890   -2.9240   -5.2100 C.ar   25  G25         0.1712
    799  H5'       16.5740    1.7720   -9.0650 H      25  G25         0.0591
    800 H5''       14.8270    1.6480   -8.7790 H      25  G25         0.0591
    801  H4'       15.7440   -0.4880   -9.5740 H      25  G25         0.0647
    802  H3'       14.8590   -0.5090   -6.6780 H      25  G25         0.0655
    803  H2'       15.1430   -2.9300   -6.8500 H      25  G25         0.0666
    804 HO2'       15.7410   -3.8520   -8.8480 H      25  G25         0.2101
    805  H1'       17.6240   -2.7020   -7.9350 H      25  G25         0.0866
    806   H8       17.2430    0.2610   -5.6150 H      25  G25         0.1030
    807   H1       18.0650   -5.3210   -2.5390 H      25  G25         0.1716
    808  H21       17.5770   -6.7170   -5.6980 H      25  G25         0.1451
    809  H22       17.8730   -7.0060   -3.9970 H      25  G25         0.1451
    810    P.3     12.2930   -1.3250   -7.3370 P.3    26  G26         0.2131
    811  OP1       11.0870   -1.2380   -8.1930 O.2    26  G26        -0.5172
    812  OP2       12.3590   -0.5250   -6.0930 O.3    26  G26        -0.4373
    813  O5'       12.5140   -2.8720   -6.9430 O.3    26  G26        -0.3248
    814  C5'       12.3280   -3.9010   -7.8910 C.3    26  G26         0.0837
    815  C4'       12.5800   -5.2690   -7.2530 C.3    26  G26         0.1139
    816  O4'       13.9170   -5.4080   -6.7940 O.3    26  G26        -0.3456
    817  C3'       11.6950   -5.5440   -6.0430 C.3    26  G26         0.1241
    818  O3'       10.3750   -5.9260   -6.3760 O.3    26  G26        -0.3187
    819  C2'       12.4810   -6.6850   -5.4140 C.3    26  G26         0.1292
    820  O2'       12.3320   -7.8850   -6.1480 O.3    26  G26        -0.3846
    821  C1'       13.9040   -6.1750   -5.5950 C.3    26  G26         0.1667
    822   N9       14.2470   -5.3260   -4.4360 N.ar   26  G26        -0.2854
    823   C8       14.2840   -3.9590   -4.3410 C.ar   26  G26         0.1005
    824   N7       14.6350   -3.5180   -3.1650 N.ar   26  G26        -0.2286
    825   C5       14.8380   -4.6790   -2.4210 C.ar   26  G26         0.1721
    826   C6       15.2290   -4.8410   -1.0590 C.ar   26  G26         0.2803
    827   O6       15.4950   -3.9720   -0.2340 O.2    26  G26        -0.2654
    828   N.1      15.3000   -6.1750   -0.6920 N.ar   26  G26        -0.2934
    829   C.2      15.0290   -7.2310   -1.5310 C.ar   26  G26         0.1950
    830   N.2      15.1280   -8.4550   -1.0160 N.pl3  26  G26        -0.3289
    831   N.3      14.6770   -7.0910   -2.8130 N.ar   26  G26        -0.1963
    832   C4       14.6000   -5.7890   -3.1900 C.ar   26  G26         0.1712
    833  H5'       13.0150   -3.7600   -8.7260 H      26  G26         0.0591
    834 H5''       11.3050   -3.8670   -8.2660 H      26  G26         0.0591
    835  H4'       12.3890   -6.0440   -7.9970 H      26  G26         0.0647
    836  H3'       11.6930   -4.6750   -5.3840 H      26  G26         0.0655
    837  H2'       12.2390   -6.8270   -4.3610 H      26  G26         0.0666
    838 HO2'       11.4020   -8.1350   -6.1400 H      26  G26         0.2101
    839  H1'       14.6000   -7.0120   -5.6550 H      26  G26         0.0866
    840   H8       14.0450   -3.3050   -5.1640 H      26  G26         0.1030
    841   H1       15.5700   -6.3720    0.2610 H      26  G26         0.1716
    842  H21       14.9460   -9.2550   -1.6040 H      26  G26         0.1451
    843  H22       15.3820   -8.5820   -0.0460 H      26  G26         0.1451
    844    P.3      9.1940   -5.8120   -5.2880 P.3    27  A27         0.2131
    845  OP1        7.9260   -6.1920   -5.9500 O.2    27  A27        -0.5172
    846  OP2        9.3040   -4.4900   -4.6330 O.3    27  A27        -0.4373
    847  O5'        9.5450   -6.9320   -4.1860 O.3    27  A27        -0.3248
    848  C5'        9.3070   -8.3040   -4.4270 C.3    27  A27         0.0837
    849  C4'        9.5520   -9.1020   -3.1460 C.3    27  A27         0.1139
    850  O4'       10.9080   -9.0410   -2.7300 O.3    27  A27        -0.3456
    851  C3'        8.7260   -8.5850   -1.9740 C.3    27  A27         0.1241
    852  O3'        7.3790   -9.0150   -2.0060 O.3    27  A27        -0.3187
    853  C2'        9.5100   -9.1990   -0.8220 C.3    27  A27         0.1292
    854  O2'        9.2710  -10.5900   -0.7120 O.3    27  A27        -0.3846
    855  C1'       10.9430   -8.9920   -1.3080 C.3    27  A27         0.1667
    856   N9       11.4280   -7.6710   -0.8550 N.ar   27  A27        -0.2855
    857   C8       11.5210   -6.4970   -1.5580 C.ar   27  A27         0.1004
    858   N7       12.0140   -5.5010   -0.8720 N.ar   27  A27        -0.2306
    859   C5       12.2590   -6.0590    0.3810 C.ar   27  A27         0.1473
    860   C6       12.7990   -5.5460    1.5750 C.ar   27  A27         0.1472
    861   N6       13.2340   -4.2930    1.7090 N.pl3  27  A27        -0.3413
    862   N.1      12.8860   -6.3540    2.6380 N.ar   27  A27        -0.2188
    863   C.2      12.4820   -7.6110    2.5190 C.ar   27  A27         0.1205
    864   N.3      11.9770   -8.2260    1.4580 N.ar   27  A27        -0.2159
    865   C4       11.8910   -7.3770    0.4050 C.ar   27  A27         0.1674
    866  H5'        9.9630   -8.6660   -5.2180 H      27  A27         0.0591
    867 H5''        8.2700   -8.4400   -4.7340 H      27  A27         0.0591
    868  H4'        9.2900  -10.1450   -3.3200 H      27  A27         0.0647
    869  H3'        8.7850   -7.4970   -1.9350 H      27  A27         0.0655
    870  H2'        9.3220   -8.6840    0.1190 H      27  A27         0.0666
    871 HO2'        9.7520  -10.9270    0.0520 H      27  A27         0.2101
    872  H1'       11.5950   -9.7690   -0.9100 H      27  A27         0.0866
    873   H8       11.2140   -6.4030   -2.5900 H      27  A27         0.1030
    874  H61       13.6410   -3.9920    2.5830 H      27  A27         0.1438
    875  H62       13.1610   -3.6520    0.9350 H      27  A27         0.1438
    876   H2       12.5780   -8.2170    3.4080 H      27  A27         0.1048
    877    P.3      6.2520   -8.2450   -1.1520 P.3    28  A28         0.2131
    878  OP1        4.9640   -8.9510   -1.3500 O.3    28  A28        -0.4373
    879  OP2        6.3460   -6.8010   -1.4670 O.2    28  A28        -0.5172
    880  O5'        6.7130   -8.4470    0.3760 O.3    28  A28        -0.3248
    881  C5'        6.5970   -9.7030    1.0100 C.3    28  A28         0.0837
    882  C4'        7.1800   -9.6340    2.4200 C.3    28  A28         0.1139
    883  O4'        8.5560   -9.2750    2.4150 O.3    28  A28        -0.3456
    884  C3'        6.4870   -8.6010    3.3000 C.3    28  A28         0.1241
    885  O3'        5.2400   -9.0320    3.8040 O.3    28  A28        -0.3187
    886  C2'        7.5380   -8.4720    4.3960 C.3    28  A28         0.1292
    887  O2'        7.5470   -9.6100    5.2390 O.3    28  A28        -0.3846
    888  C1'        8.8140   -8.4750    3.5610 C.3    28  A28         0.1667
    889   N9        9.1350   -7.0860    3.1810 N.ar   28  A28        -0.2855
    890   C8        8.9160   -6.4220    2.0010 C.ar   28  A28         0.1004
    891   N7        9.3250   -5.1810    2.0090 N.ar   28  A28        -0.2306
    892   C5        9.8500   -5.0180    3.2910 C.ar   28  A28         0.1473
    893   C6       10.4430   -3.9350    3.9660 C.ar   28  A28         0.1472
    894   N6       10.6190   -2.7350    3.4180 N.pl3  28  A28        -0.3413
    895   N.1      10.8540   -4.1100    5.2280 N.ar   28  A28        -0.2188
    896   C.2      10.6820   -5.2930    5.7990 C.ar   28  A28         0.1205
    897   N.3      10.1380   -6.3870    5.2870 N.ar   28  A28        -0.2159
    898   C4        9.7410   -6.1750    4.0090 C.ar   28  A28         0.1674
    899  H5'        7.1300  -10.4550    0.4320 H      28  A28         0.0591
    900 H5''        5.5440   -9.9780    1.0700 H      28  A28         0.0591
    901  H4'        7.0790  -10.6100    2.8930 H      28  A28         0.0647
    902  H3'        6.3860   -7.6630    2.7560 H      28  A28         0.0655
    903  H2'        7.4220   -7.5500    4.9660 H      28  A28         0.0666
    904 HO2'        6.6820   -9.6880    5.6570 H      28  A28         0.2101
    905  H1'        9.6530   -8.8700    4.1380 H      28  A28         0.0866
    906   H8        8.4470   -6.8820    1.1430 H      28  A28         0.1030
    907  H61       11.0770   -2.0020    3.9430 H      28  A28         0.1438
    908  H62       10.2920   -2.5650    2.4810 H      28  A28         0.1438
    909   H2       11.0330   -5.3760    6.8180 H      28  A28         0.1048
    910    P.3      4.1290   -7.9560    4.2550 P.3    29  G29         0.2131
    911  OP1        2.9560   -8.6990    4.7710 O.3    29  G29        -0.4373
    912  OP2        3.9460   -6.9890    3.1480 O.2    29  G29        -0.5172
    913  O5'        4.8140   -7.1800    5.4880 O.3    29  G29        -0.3248
    914  C5'        4.9560   -7.7990    6.7480 C.3    29  G29         0.0837
    915  C4'        5.6650   -6.8640    7.7260 C.3    29  G29         0.1139
    916  O4'        6.9540   -6.4960    7.2610 O.3    29  G29        -0.3456
    917  C3'        4.9180   -5.5550    7.9560 C.3    29  G29         0.1241
    918  O3'        3.8040   -5.6910    8.8180 O.3    29  G29        -0.3187
    919  C2'        6.0480   -4.7430    8.5760 C.3    29  G29         0.1292
    920  O2'        6.2820   -5.1410    9.9140 O.3    29  G29        -0.3846
    921  C1'        7.2430   -5.1880    7.7360 C.3    29  G29         0.1667
    922   N9        7.4350   -4.2450    6.6120 N.ar   29  G29        -0.2854
    923   C8        7.1150   -4.3850    5.2840 C.ar   29  G29         0.1005
    924   N7        7.3920   -3.3360    4.5600 N.ar   29  G29        -0.2286
    925   C5        7.9580   -2.4410    5.4650 C.ar   29  G29         0.1721
    926   C6        8.4800   -1.1310    5.2600 C.ar   29  G29         0.2803
    927   O6        8.5320   -0.4810    4.2180 O.2    29  G29        -0.2654
    928   N.1       8.9760   -0.5800    6.4320 N.ar   29  G29        -0.2934
    929   C.2       8.9700   -1.2100    7.6530 C.ar   29  G29         0.1950
    930   N.2       9.4840   -0.5380    8.6820 N.pl3  29  G29        -0.3289
    931   N.3       8.4840   -2.4380    7.8560 N.ar   29  G29        -0.1963
    932   C4        7.9970   -2.9970    6.7200 C.ar   29  G29         0.1712
    933  H5'        5.5370   -8.7150    6.6470 H      29  G29         0.0591
    934 H5''        3.9710   -8.0430    7.1430 H      29  G29         0.0591
    935  H4'        5.7710   -7.3690    8.6860 H      29  G29         0.0647
    936  H3'        4.6200   -5.1260    6.9990 H      29  G29         0.0655
    937  H2'        5.8720   -3.6710    8.5050 H      29  G29         0.0666
    938 HO2'        5.4930   -4.9520   10.4300 H      29  G29         0.2101
    939  H1'        8.1410   -5.1940    8.3540 H      29  G29         0.0866
    940   H8        6.6750   -5.2780    4.8690 H      29  G29         0.1030
    941   H1        9.3700    0.3500    6.3710 H      29  G29         0.1716
    942  H21        9.5030   -0.9690    9.5960 H      29  G29         0.1451
    943  H22        9.8510    0.3940    8.5520 H      29  G29         0.1451
    944    P.3      2.6570   -4.5600    8.8710 P.3    30  G30         0.2131
    945  OP1        1.5910   -5.0320    9.7860 O.3    30  G30        -0.4373
    946  OP2        2.3100   -4.1950    7.4770 O.2    30  G30        -0.5172
    947  O5'        3.3800   -3.2930    9.5510 O.3    30  G30        -0.3248
    948  C5'        3.6510   -3.2650   10.9360 C.3    30  G30         0.0837
    949  C4'        4.3800   -1.9730   11.3010 C.3    30  G30         0.1139
    950  O4'        5.5790   -1.8270   10.5580 O.3    30  G30        -0.3456
    951  C3'        3.5490   -0.7240   11.0320 C.3    30  G30         0.1241
    952  O3'        2.6000   -0.4650   12.0500 O.3    30  G30        -0.3187
    953  C2'        4.6590    0.3210   10.9860 C.3    30  G30         0.1292
    954  O2'        5.1000    0.6620   12.2860 O.3    30  G30        -0.3846
    955  C1'        5.7830   -0.4470   10.2930 C.3    30  G30         0.1667
    956   N9        5.7700   -0.1790    8.8410 N.ar   30  G30        -0.2854
    957   C8        5.2690   -0.9280    7.8070 C.ar   30  G30         0.1005
    958   N7        5.4360   -0.3850    6.6320 N.ar   30  G30        -0.2286
    959   C5        6.1010    0.8110    6.9050 C.ar   30  G30         0.1721
    960   C6        6.5730    1.8320    6.0280 C.ar   30  G30         0.2803
    961   O6        6.5030    1.8830    4.8010 O.2    30  G30        -0.2654
    962   N.1       7.1760    2.8720    6.7180 N.ar   30  G30        -0.2934
    963   C.2       7.3260    2.9230    8.0830 C.ar   30  G30         0.1950
    964   N.2       7.9300    3.9950    8.5890 N.pl3  30  G30        -0.3289
    965   N.3       6.9000    1.9680    8.9130 N.ar   30  G30        -0.1963
    966   C4        6.2970    0.9470    8.2560 C.ar   30  G30         0.1712
    967  H5'        4.2690   -4.1190   11.2100 H      30  G30         0.0591
    968 H5''        2.7110   -3.3180   11.4880 H      30  G30         0.0591
    969  H4'        4.6310   -1.9910   12.3620 H      30  G30         0.0647
    970  H3'        3.0610   -0.8030   10.0630 H      30  G30         0.0655
    971  H2'        4.3630    1.2090   10.4230 H      30  G30         0.0666
    972 HO2'        5.7560    1.3640   12.2180 H      30  G30         0.2101
    973  H1'        6.7470   -0.1230   10.6880 H      30  G30         0.0866
    974   H8        4.7800   -1.8830    7.9510 H      30  G30         0.1030
    975   H1        7.5270    3.6430    6.1700 H      30  G30         0.1716
    976  H21        8.0580    4.0650    9.5880 H      30  G30         0.1451
    977  H22        8.2580    4.7300    7.9800 H      30  G30         0.1451
    978    P.3      1.3940    0.5790   11.8190 P.3    31  C31         0.2131
    979  OP1        0.5250    0.5510   13.0180 O.3    31  C31        -0.4373
    980  OP2        0.8020    0.2990   10.4900 O.2    31  C31        -0.5172
    981  O5'        2.1070    2.0210   11.7490 O.3    31  C31        -0.3248
    982  C5'        2.6160    2.6420   12.9120 C.3    31  C31         0.0837
    983  C4'        3.2310    3.9990   12.5640 C.3    31  C31         0.1139
    984  O4'        4.3170    3.8700   11.6560 O.3    31  C31        -0.3456
    985  C3'        2.2360    4.9460   11.9040 C.3    31  C31         0.1241
    986  O3'        1.3780    5.5720   12.8390 O.3    31  C31        -0.3187
    987  C2'        3.2020    5.9330   11.2580 C.3    31  C31         0.1293
    988  O2'        3.7040    6.8440   12.2160 O.3    31  C31        -0.3846
    989  C1'        4.3520    5.0230   10.8270 C.3    31  C31         0.1680
    990   N.1       4.2240    4.6560    9.4040 N.ar   31  C31        -0.2700
    991   C.2       4.9120    5.4250    8.4720 C.ar   31  C31         0.3522
    992   O.2       5.5780    6.3940    8.8300 O.2    31  C31        -0.2444
    993   N.3       4.8360    5.0900    7.1580 N.ar   31  C31        -0.1783
    994   C4        4.1010    4.0460    6.7760 C.ar   31  C31         0.1230
    995   N.4       4.0520    3.7240    5.4860 N.pl3  31  C31        -0.3430
    996   C5        3.3690    3.2620    7.7150 C.ar   31  C31        -0.0056
    997   C6        3.4580    3.5990    9.0170 C.ar   31  C31         0.0152
    998  H5'        3.3730    2.0070   13.3710 H      31  C31         0.0591
    999 H5''        1.8040    2.7910   13.6240 H      31  C31         0.0591
   1000  H4'        3.5970    4.4690   13.4750 H      31  C31         0.0647
   1001  H3'        1.6660    4.4110   11.1430 H      31  C31         0.0655
   1002  H2'        2.7500    6.4520   10.4110 H      31  C31         0.0666
   1003 HO2'        2.9660    7.3490   12.5720 H      31  C31         0.2101
   1004  H1'        5.2960    5.5410   10.9500 H      31  C31         0.0867
   1005  H41        4.5640    4.2680    4.8080 H      31  C31         0.1437
   1006  H42        3.5000    2.9330    5.1860 H      31  C31         0.1437
   1007   H5        2.7610    2.4280    7.4290 H      31  C31         0.0666
   1008   H6        2.9220    3.0260    9.7610 H      31  C31         0.0812
   1009    P.3     -0.0130    6.2350   12.3720 P.3    32  C32         0.2131
   1010  OP1       -0.7060    6.7430   13.5780 O.3    32  C32        -0.4373
   1011  OP2       -0.7050    5.2690   11.4900 O.2    32  C32        -0.5172
   1012  O5'        0.4250    7.4990   11.4750 O.3    32  C32        -0.3248
   1013  C5'        0.8430    8.7140   12.0630 C.3    32  C32         0.0837
   1014  C4'        1.2150    9.7240   10.9750 C.3    32  C32         0.1139
   1015  O4'        2.3270    9.2890   10.2050 O.3    32  C32        -0.3456
   1016  C3'        0.0870    9.9750    9.9780 C.3    32  C32         0.1241
   1017  O3'       -0.9190   10.8420   10.4630 O.3    32  C32        -0.3187
   1018  C2'        0.8920   10.5970    8.8450 C.3    32  C32         0.1293
   1019  O2'        1.2400   11.9340    9.1440 O.3    32  C32        -0.3846
   1020  C1'        2.1650    9.7540    8.8710 C.3    32  C32         0.1680
   1021   N.1       2.0350    8.6130    7.9300 N.ar   32  C32        -0.2700
   1022   C.2       2.6000    8.7440    6.6690 C.ar   32  C32         0.3522
   1023   O.2       3.2050    9.7670    6.3550 O.2    32  C32        -0.2444
   1024   N.3       2.4750    7.7230    5.7810 N.ar   32  C32        -0.1783
   1025   C4        1.8190    6.6120    6.1250 C.ar   32  C32         0.1230
   1026   N.4       1.7040    5.6370    5.2280 N.pl3  32  C32        -0.3430
   1027   C5        1.2410    6.4450    7.4200 C.ar   32  C32        -0.0056
   1028   C6        1.3750    7.4690    8.2880 C.ar   32  C32         0.0152
   1029  H5'        1.7040    8.5430   12.7070 H      32  C32         0.0591
   1030 H5''        0.0290    9.1200   12.6630 H      32  C32         0.0591
   1031  H4'        1.4720   10.6750   11.4430 H      32  C32         0.0647
   1032  H3'       -0.3440    9.0250    9.6640 H      32  C32         0.0655
   1033  H2'        0.3790   10.5270    7.8880 H      32  C32         0.0666
   1034 HO2'        0.4310   12.4520    9.2100 H      32  C32         0.2101
   1035  H1'        3.0160   10.3700    8.5800 H      32  C32         0.0867
   1036  H41        2.1060    5.7460    4.3080 H      32  C32         0.1437
   1037  H42        1.2160    4.7910    5.4750 H      32  C32         0.1437
   1038   H5        0.7140    5.5510    7.7220 H      32  C32         0.0666
   1039   H6        0.9550    7.3870    9.2770 H      32  C32         0.0812
   1040    P.3     -2.3750   10.8810    9.7720 P.3    33  A33         0.2131
   1041  OP1       -3.2330   11.8000   10.5570 O.3    33  A33        -0.4373
   1042  OP2       -2.8160    9.4840    9.5540 O.2    33  A33        -0.5172
   1043  O5'       -2.1140   11.5510    8.3290 O.3    33  A33        -0.3248
   1044  C5'       -1.9620   12.9480    8.1910 C.3    33  A33         0.0837
   1045  C4'       -1.6780   13.3180    6.7350 C.3    33  A33         0.1139
   1046  O4'       -0.4670   12.7320    6.2750 O.3    33  A33        -0.3456
   1047  C3'       -2.7610   12.8660    5.7570 C.3    33  A33         0.1241
   1048  O3'       -3.9030   13.6970    5.7130 O.3    33  A33        -0.3187
   1049  C2'       -1.9660   12.9680    4.4630 C.3    33  A33         0.1292
   1050  O2'       -1.7680   14.3190    4.0870 O.3    33  A33        -0.3846
   1051  C1'       -0.6280   12.3910    4.9040 C.3    33  A33         0.1667
   1052   N9       -0.6790   10.9280    4.7220 N.ar   33  A33        -0.2855
   1053   C8       -0.9500    9.9430    5.6380 C.ar   33  A33         0.1004
   1054   N7       -0.9220    8.7360    5.1450 N.ar   33  A33        -0.2306
   1055   C5       -0.6200    8.9400    3.7990 C.ar   33  A33         0.1473
   1056   C6       -0.4750    8.0750    2.7000 C.ar   33  A33         0.1472
   1057   N6       -0.6040    6.7500    2.7900 N.pl3  33  A33        -0.3413
   1058   N.1      -0.1940    8.5990    1.5000 N.ar   33  A33        -0.2188
   1059   C.2      -0.0620    9.9150    1.3940 C.ar   33  A33         0.1205
   1060   N.3      -0.1720   10.8390    2.3380 N.ar   33  A33        -0.2159
   1061   C4       -0.4600   10.2720    3.5360 C.ar   33  A33         0.1674
   1062  H5'       -1.1380   13.2920    8.8150 H      33  A33         0.0591
   1063 H5''       -2.8790   13.4430    8.5100 H      33  A33         0.0591
   1064  H4'       -1.5860   14.4030    6.6610 H      33  A33         0.0647
   1065  H3'       -3.0380   11.8320    5.9610 H      33  A33         0.0655
   1066  H2'       -2.4140   12.3880    3.6560 H      33  A33         0.0666
   1067 HO2'       -2.6280   14.7400    3.9860 H      33  A33         0.2101
   1068  H1'        0.1780   12.8040    4.2980 H      33  A33         0.0866
   1069   H8       -1.1680   10.1470    6.6760 H      33  A33         0.1030
   1070  H61       -0.5010    6.1870    1.9590 H      33  A33         0.1438
   1071  H62       -0.8060    6.3270    3.6850 H      33  A33         0.1438
   1072   H2        0.1650   10.2820    0.4040 H      33  A33         0.1048
   1073    P.3     -5.3140   13.1270    5.1850 P.3    34  G34         0.2131
   1074  OP1       -6.2450   14.2710    5.0560 O.2    34  G34        -0.5172
   1075  OP2       -5.6890   11.9820    6.0450 O.3    34  G34        -0.4373
   1076  O5'       -5.0080   12.5560    3.7090 O.3    34  G34        -0.3248
   1077  C5'       -4.7470   13.4240    2.6250 C.3    34  G34         0.0837
   1078  C4'       -4.5370   12.6270    1.3360 C.3    34  G34         0.1139
   1079  O4'       -3.5510   11.6120    1.4760 O.3    34  G34        -0.3456
   1080  C3'       -5.7880   11.8860    0.8840 C.3    34  G34         0.1241
   1081  O3'       -6.7650   12.7000    0.2730 O.3    34  G34        -0.3187
   1082  C2'       -5.1580   10.9420   -0.1330 C.3    34  G34         0.1292
   1083  O2'       -4.9420   11.6160   -1.3580 O.3    34  G34        -0.3846
   1084  C1'       -3.7910   10.6280    0.4760 C.3    34  G34         0.1667
   1085   N9       -3.8030    9.2520    1.0150 N.ar   34  G34        -0.2854
   1086   C8       -3.6670    8.8120    2.3080 C.ar   34  G34         0.1005
   1087   N7       -3.8020    7.5190    2.4430 N.ar   34  G34        -0.2286
   1088   C5       -4.0020    7.0600    1.1410 C.ar   34  G34         0.1721
   1089   C6       -4.2170    5.7370    0.6460 C.ar   34  G34         0.2803
   1090   O6       -4.3130    4.6860    1.2800 O.2    34  G34        -0.2654
   1091   N.1      -4.3220    5.7140   -0.7400 N.ar   34  G34        -0.2934
   1092   C.2      -4.2630    6.8210   -1.5490 C.ar   34  G34         0.1950
   1093   N.2      -4.3830    6.6100   -2.8590 N.pl3  34  G34        -0.3289
   1094   N.3      -4.0950    8.0660   -1.0920 N.ar   34  G34        -0.1963
   1095   C4       -3.9680    8.1130    0.2590 C.ar   34  G34         0.1712
   1096  H5'       -3.8550   14.0140    2.8290 H      34  G34         0.0591
   1097 H5''       -5.5920   14.1000    2.4890 H      34  G34         0.0591
   1098  H4'       -4.2330   13.3070    0.5400 H      34  G34         0.0647
   1099  H3'       -6.2190   11.3430    1.7240 H      34  G34         0.0655
   1100  H2'       -5.7600   10.0430   -0.2740 H      34  G34         0.0666
   1101 HO2'       -5.7850   11.9620   -1.6710 H      34  G34         0.2101
   1102  H1'       -3.0340   10.6950   -0.3040 H      34  G34         0.0866
   1103   H8       -3.4670    9.4730    3.1410 H      34  G34         0.1030
   1104   H1       -4.4510    4.8140   -1.1820 H      34  G34         0.1716
   1105  H21       -4.3520    7.3940   -3.4940 H      34  G34         0.1451
   1106  H22       -4.5060    5.6690   -3.2140 H      34  G34         0.1451
   1107    P.3     -8.3250   12.3210    0.3960 P.3    35  G35         0.2131
   1108  OP1       -9.0760   13.1430   -0.5800 O.2    35  G35        -0.5172
   1109  OP2       -8.6910   12.3770    1.8290 O.3    35  G35        -0.4373
   1110  O5'       -8.4020   10.7760   -0.0710 O.3    35  G35        -0.3248
   1111  C5'       -8.2990   10.4070   -1.4310 C.3    35  G35         0.0837
   1112  C4'       -8.6640    8.9330   -1.6230 C.3    35  G35         0.1139
   1113  O4'       -7.7450    8.0300   -1.0320 O.3    35  G35        -0.3456
   1114  C3'      -10.0030    8.5900   -0.9920 C.3    35  G35         0.1241
   1115  O3'      -11.0810    9.1630   -1.7030 O.3    35  G35        -0.3187
   1116  C2'       -9.9220    7.0670   -1.0710 C.3    35  G35         0.1292
   1117  O2'      -10.2140    6.6130   -2.3780 O.3    35  G35        -0.3846
   1118  C1'       -8.4330    6.8040   -0.7960 C.3    35  G35         0.1667
   1119   N9       -8.2190    6.3550    0.5970 N.ar   35  G35        -0.2854
   1120   C8       -7.3860    6.8860    1.5490 C.ar   35  G35         0.1005
   1121   N7       -7.4270    6.2670    2.6970 N.ar   35  G35        -0.2286
   1122   C5       -8.3460    5.2390    2.4920 C.ar   35  G35         0.1721
   1123   C6       -8.8010    4.2200    3.3820 C.ar   35  G35         0.2803
   1124   O6       -8.4800    4.0260    4.5520 O.2    35  G35        -0.2654
   1125   N.1      -9.7240    3.3800    2.7800 N.ar   35  G35        -0.2934
   1126   C.2     -10.1600    3.4970    1.4810 C.ar   35  G35         0.1950
   1127   N.2     -11.0560    2.6040    1.0630 N.pl3  35  G35        -0.3289
   1128   N.3      -9.7360    4.4440    0.6380 N.ar   35  G35        -0.1963
   1129   C4       -8.8330    5.2830    1.2090 C.ar   35  G35         0.1712
   1130  H5'       -7.2890   10.5860   -1.7980 H      35  G35         0.0591
   1131 H5''       -9.0000   11.0080   -2.0130 H      35  G35         0.0591
   1132  H4'       -8.7170    8.7210   -2.6900 H      35  G35         0.0647
   1133  H3'      -10.0160    8.9140    0.0480 H      35  G35         0.0655
   1134  H2'      -10.5690    6.5940   -0.3320 H      35  G35         0.0666
   1135 HO2'      -11.0640    6.9810   -2.6430 H      35  G35         0.2101
   1136  H1'       -8.0680    6.0330   -1.4740 H      35  G35         0.0866
   1137   H8       -6.7530    7.7400    1.3640 H      35  G35         0.1030
   1138   H1      -10.0950    2.6320    3.3430 H      35  G35         0.1716
   1139  H21      -11.4010    2.6560    0.1160 H      35  G35         0.1451
   1140  H22      -11.3890    1.8830    1.6870 H      35  G35         0.1451
   1141    P.3    -12.5790    9.1600   -1.1160 P.3    36  G36         0.2131
   1142  OP1      -13.0230   10.5640   -0.9650 O.2    36  G36        -0.5172
   1143  OP2      -12.6210    8.2510    0.0540 O.3    36  G36        -0.4373
   1144  O5'      -13.4430    8.4840   -2.2970 O.3    36  G36        -0.3248
   1145  C5'      -13.6800    9.1600   -3.5190 C.3    36  G36         0.0837
   1146  C4'      -12.3820    9.3270   -4.3160 C.3    36  G36         0.1139
   1147  O4'      -11.7120    8.0810   -4.4420 O.3    36  G36        -0.3456
   1148  C3'      -12.6920    9.8240   -5.7320 C.3    36  G36         0.1241
   1149  O3'      -12.1830   11.1220   -5.9910 O.3    36  G36        -0.3187
   1150  C2'      -12.0540    8.7690   -6.6300 C.3    36  G36         0.1292
   1151  O2'      -10.7360    9.1200   -6.9720 O.3    36  G36        -0.3846
   1152  C1'      -11.9520    7.5380   -5.7280 C.3    36  G36         0.1667
   1153   N9      -13.1680    6.6970   -5.7170 N.ar   36  G36        -0.2854
   1154   C8      -13.7600    6.0940   -4.6380 C.ar   36  G36         0.1005
   1155   N7      -14.8270    5.4040   -4.9300 N.ar   36  G36        -0.2286
   1156   C5      -14.9540    5.5530   -6.3110 C.ar   36  G36         0.1721
   1157   C6      -15.9240    5.0190   -7.2130 C.ar   36  G36         0.2803
   1158   O6      -16.8900    4.2990   -6.9620 O.2    36  G36        -0.2654
   1159   N.1     -15.6860    5.4020   -8.5260 N.ar   36  G36        -0.2934
   1160   C.2     -14.6410    6.2010   -8.9280 C.ar   36  G36         0.1950
   1161   N.2     -14.5550    6.4910  -10.2260 N.pl3  36  G36        -0.3289
   1162   N.3     -13.7220    6.6920   -8.0930 N.ar   36  G36        -0.1963
   1163   C4      -13.9400    6.3410   -6.8000 C.ar   36  G36         0.1712
   1164  H5'      -14.1090   10.1420   -3.3170 H      36  G36         0.0591
   1165 H5''      -14.3950    8.5900   -4.1120 H      36  G36         0.0591
   1166  H4'      -11.7330   10.0420   -3.8160 H      36  G36         0.0647
   1167  H3'      -13.7700    9.8160   -5.8820 H      36  G36         0.0655
   1168  H2'      -12.6600    8.6300   -7.5270 H      36  G36         0.0666
   1169 HO2'      -10.7750    9.9260   -7.5000 H      36  G36         0.2101
   1170  H1'      -11.1030    6.9120   -6.0120 H      36  G36         0.0866
   1171   H8      -13.3640    6.1870   -3.6350 H      36  G36         0.1030
   1172   H1      -16.3290    5.0660   -9.2250 H      36  G36         0.1716
   1173  H21      -13.8070    7.0910  -10.5490 H      36  G36         0.1451
   1174  H22      -15.2290    6.1190  -10.8780 H      36  G36         0.1451
   1175    P.3    -12.4440   11.8400   -7.4150 P.3    37  A37         0.2131
   1176  OP1      -12.0840   13.2710   -7.2780 O.3    37  A37        -0.4373
   1177  OP2      -13.8010   11.4680   -7.8750 O.2    37  A37        -0.5172
   1178  O5'      -11.3640   11.1290   -8.3810 O.3    37  A37        -0.3248
   1179  C5'      -10.2740   11.8420   -8.9330 C.3    37  A37         0.0837
   1180  C4'       -9.1620   10.8910   -9.3890 C.3    37  A37         0.1139
   1181  O4'       -8.2910   10.5690   -8.3210 O.3    37  A37        -0.3456
   1182  C3'       -9.6340    9.5540   -9.9490 C.3    37  A37         0.1241
   1183  O3'      -10.1040    9.6810  -11.2790 O.3    37  A37        -0.3187
   1184  C2'       -8.3240    8.7640   -9.8610 C.3    37  A37         0.1292
   1185  O2'       -7.5170    9.0370  -10.9890 O.3    37  A37        -0.3846
   1186  C1'       -7.6170    9.3590   -8.6340 C.3    37  A37         0.1667
   1187   N9       -7.6140    8.4970   -7.4260 N.ar   37  A37        -0.2855
   1188   C8       -8.1330    8.7850   -6.1860 C.ar   37  A37         0.1004
   1189   N7       -7.9260    7.8630   -5.2870 N.ar   37  A37        -0.2306
   1190   C5       -7.2360    6.8780   -5.9860 C.ar   37  A37         0.1473
   1191   C6       -6.7000    5.6340   -5.6030 C.ar   37  A37         0.1472
   1192   N6       -6.7760    5.1520   -4.3610 N.pl3  37  A37        -0.3413
   1193   N.1      -6.0800    4.8950   -6.5280 N.ar   37  A37        -0.2188
   1194   C.2      -5.9880    5.3640   -7.7640 C.ar   37  A37         0.1205
   1195   N.3      -6.4340    6.5140   -8.2580 N.ar   37  A37        -0.2159
   1196   C4       -7.0640    7.2390   -7.2990 C.ar   37  A37         0.1674
   1197  H5'       -9.8650   12.5240   -8.1880 H      37  A37         0.0591
   1198 H5''      -10.6280   12.4200   -9.7860 H      37  A37         0.0591
   1199  H4'       -8.5740   11.3780  -10.1620 H      37  A37         0.0647
   1200  H3'      -10.3920    9.1150   -9.3020 H      37  A37         0.0655
   1201  H2'       -8.4900    7.6940   -9.7630 H      37  A37         0.0666
   1202 HO2'       -7.9780    8.7210  -11.7750 H      37  A37         0.2101
   1203  H1'       -6.5850    9.5780   -8.9040 H      37  A37         0.0866
   1204   H8       -8.6670    9.7000   -5.9690 H      37  A37         0.1030
   1205  H61       -6.3500    4.2630   -4.1400 H      37  A37         0.1438
   1206  H62       -7.2580    5.6810   -3.6520 H      37  A37         0.1438
   1207   H2       -5.4760    4.7150   -8.4620 H      37  A37         0.1048
   1208    P.3    -11.1820    8.6530  -11.8900 P.3    38  A38         0.2131
   1209  OP1      -11.3400    8.9550  -13.3310 O.2    38  A38        -0.5172
   1210  OP2      -12.3750    8.6500  -11.0110 O.3    38  A38        -0.4373
   1211  O5'      -10.4540    7.2270  -11.7600 O.3    38  A38        -0.3248
   1212  C5'      -11.1950    6.0800  -11.3990 C.3    38  A38         0.0837
   1213  C4'      -10.2390    4.9270  -11.1170 C.3    38  A38         0.1139
   1214  O4'       -9.4800    5.2000   -9.9540 O.3    38  A38        -0.3456
   1215  C3'      -10.9930    3.6410  -10.8070 C.3    38  A38         0.1241
   1216  O3'      -11.4400    2.9670  -11.9680 O.3    38  A38        -0.3187
   1217  C2'       -9.9280    2.8700  -10.0320 C.3    38  A38         0.1292
   1218  O2'       -9.0840    2.1470  -10.9080 O.3    38  A38        -0.3846
   1219  C1'       -9.0850    3.9660   -9.3850 C.3    38  A38         0.1667
   1220   N9       -9.2790    3.9740   -7.9200 N.ar   38  A38        -0.2855
   1221   C8       -9.9320    4.8890   -7.1350 C.ar   38  A38         0.1004
   1222   N7       -9.9140    4.6080   -5.8600 N.ar   38  A38        -0.2306
   1223   C5       -9.1910    3.4180   -5.7970 C.ar   38  A38         0.1473
   1224   C6       -8.7820    2.5900   -4.7360 C.ar   38  A38         0.1472
   1225   N6       -9.0490    2.8400   -3.4510 N.pl3  38  A38        -0.3413
   1226   N.1      -8.0830    1.4860   -5.0270 N.ar   38  A38        -0.2188
   1227   C.2      -7.8000    1.2180   -6.2950 C.ar   38  A38         0.1205
   1228   N.3      -8.1070    1.9110   -7.3790 N.ar   38  A38        -0.2159
   1229   C4       -8.8120    3.0200   -7.0510 C.ar   38  A38         0.1674
   1230  H5'      -11.8690    5.8100  -12.2120 H      38  A38         0.0591
   1231 H5''      -11.7750    6.2840  -10.5000 H      38  A38         0.0591
   1232  H4'       -9.5760    4.7620  -11.9670 H      38  A38         0.0647
   1233  H3'      -11.8420    3.8580  -10.1630 H      38  A38         0.0655
   1234  H2'      -10.3800    2.2300   -9.2750 H      38  A38         0.0666
   1235 HO2'       -8.4900    1.6020  -10.3800 H      38  A38         0.2101
   1236  H1'       -8.0360    3.7780   -9.6050 H      38  A38         0.0866
   1237   H8      -10.4160    5.7630   -7.5320 H      38  A38         0.1030
   1238  H61       -8.7110    2.2130   -2.7340 H      38  A38         0.1438
   1239  H62       -9.5880    3.6570   -3.2020 H      38  A38         0.1438
   1240   H2       -7.2430    0.3110   -6.4740 H      38  A38         0.1048
   1241    P.3    -12.6590    1.9170  -11.8860 P.3    39  U39         0.2131
   1242  OP1      -12.9060    1.3940  -13.2490 O.2    39  U39        -0.5172
   1243  OP2      -13.7660    2.5590  -11.1400 O.3    39  U39        -0.4373
   1244  O5'      -12.0770    0.7200  -10.9830 O.3    39  U39        -0.3248
   1245  C5'      -11.1160   -0.1740  -11.5030 C.3    39  U39         0.0837
   1246  C4'      -10.5840   -1.0850  -10.3950 C.3    39  U39         0.1139
   1247  O4'      -10.0890   -0.3380   -9.2970 O.3    39  U39        -0.3456
   1248  C3'      -11.6530   -1.9860   -9.7960 C.3    39  U39         0.1241
   1249  O3'      -11.9810   -3.0790  -10.6330 O.3    39  U39        -0.3187
   1250  C2'      -10.9600   -2.4090   -8.5060 C.3    39  U39         0.1293
   1251  O2'      -10.0790   -3.4910   -8.7380 O.3    39  U39        -0.3846
   1252  C1'      -10.1160   -1.1820   -8.1550 C.3    39  U39         0.1680
   1253   N.1     -10.6510   -0.5170   -6.9470 N.ar   39  U39        -0.2715
   1254   C.2     -10.2440   -1.0250   -5.7230 C.ar   39  U39         0.3314
   1255   O.2      -9.4860   -1.9890   -5.6290 O.2    39  U39        -0.2464
   1256   N.3     -10.7380   -0.3920   -4.5980 N.ar   39  U39        -0.2749
   1257   C4      -11.5920    0.6930   -4.5840 C.ar   39  U39         0.2539
   1258   O4      -11.9570    1.1820   -3.5180 O.2    39  U39        -0.2677
   1259   C5      -11.9780    1.1510   -5.9010 C.ar   39  U39         0.0192
   1260   C6      -11.5060    0.5500   -7.0180 C.ar   39  U39         0.0171
   1261  H5'      -10.2880    0.3840  -11.9370 H      39  U39         0.0591
   1262 H5''      -11.5710   -0.7850  -12.2820 H      39  U39         0.0591
   1263  H4'       -9.7870   -1.7110  -10.7980 H      39  U39         0.0647
   1264  H3'      -12.5340   -1.3940   -9.5650 H      39  U39         0.0655
   1265  H2'      -11.6790   -2.6390   -7.7200 H      39  U39         0.0666
   1266 HO2'      -10.6050   -4.2730   -8.9370 H      39  U39         0.2101
   1267  H1'       -9.1030   -1.5090   -7.9400 H      39  U39         0.0867
   1268   H3      -10.4460   -0.7580   -3.7030 H      39  U39         0.1734
   1269   H5      -12.6550    1.9870   -5.9910 H      39  U39         0.0686
   1270   H6      -11.8070    0.9180   -7.9870 H      39  U39         0.0813
   1271    P.3    -13.2610   -4.0030  -10.3200 P.3    40  C40         0.2131
   1272  OP1      -13.4830   -4.8870  -11.4890 O.2    40  C40        -0.5172
   1273  OP2      -14.3570   -3.1240   -9.8550 O.3    40  C40        -0.4373
   1274  O5'      -12.7970   -4.9160   -9.0780 O.3    40  C40        -0.3248
   1275  C5'      -11.9810   -6.0530   -9.2700 C.3    40  C40         0.0837
   1276  C4'      -11.7940   -6.7970   -7.9460 C.3    40  C40         0.1139
   1277  O4'      -11.0670   -6.0320   -6.9940 O.3    40  C40        -0.3456
   1278  C3'      -13.1260   -7.1550   -7.2930 C.3    40  C40         0.1241
   1279  O3'      -13.7220   -8.3110   -7.8520 O.3    40  C40        -0.3187
   1280  C2'      -12.6510   -7.3840   -5.8640 C.3    40  C40         0.1293
   1281  O2'      -12.0200   -8.6420   -5.7390 O.3    40  C40        -0.3846
   1282  C1'      -11.5720   -6.3260   -5.6960 C.3    40  C40         0.1680
   1283   N.1     -12.0960   -5.1050   -5.0440 N.ar   40  C40        -0.2700
   1284   C.2     -11.9400   -5.0150   -3.6670 C.ar   40  C40         0.3522
   1285   O.2     -11.4210   -5.9310   -3.0350 O.2    40  C40        -0.2444
   1286   N.3     -12.3720   -3.8990   -3.0280 N.ar   40  C40        -0.1783
   1287   C4      -12.9390   -2.9080   -3.7150 C.ar   40  C40         0.1230
   1288   N.4     -13.3280   -1.8310   -3.0400 N.pl3  40  C40        -0.3430
   1289   C5      -13.1300   -2.9830   -5.1310 C.ar   40  C40        -0.0056
   1290   C6      -12.7010   -4.1050   -5.7510 C.ar   40  C40         0.0152
   1291  H5'      -11.0100   -5.7590   -9.6670 H      40  C40         0.0591
   1292 H5''      -12.4640   -6.7230   -9.9830 H      40  C40         0.0591
   1293  H4'      -11.2440   -7.7210   -8.1330 H      40  C40         0.0647
   1294  H3'      -13.8040   -6.3030   -7.3370 H      40  C40         0.0655
   1295  H2'      -13.4530   -7.2630   -5.1390 H      40  C40         0.0666
   1296 HO2'      -12.6930   -9.3260   -5.8160 H      40  C40         0.2101
   1297  H1'      -10.7950   -6.7380   -5.0520 H      40  C40         0.0867
   1298  H41      -13.1810   -1.7880   -2.0420 H      40  C40         0.1437
   1299  H42      -13.7650   -1.0660   -3.5230 H      40  C40         0.1437
   1300   H5      -13.5930   -2.1980   -5.7080 H      40  C40         0.0666
   1301   H6      -12.8320   -4.2150   -6.8170 H      40  C40         0.0812
   1302    P.3    -15.2300   -8.7350   -7.4710 P.3    41  U41         0.2131
   1303  OP1      -15.6010   -9.9100   -8.2920 O.2    41  U41        -0.5172
   1304  OP2      -16.0710   -7.5190   -7.5180 O.3    41  U41        -0.4373
   1305  O5'      -15.1250   -9.2080   -5.9360 O.3    41  U41        -0.3248
   1306  C5'      -14.5770  -10.4630   -5.5920 C.3    41  U41         0.0837
   1307  C4'      -14.4610  -10.5910   -4.0710 C.3    41  U41         0.1139
   1308  O4'      -13.6770   -9.5450   -3.5050 O.3    41  U41        -0.3456
   1309  C3'      -15.8090  -10.5340   -3.3620 C.3    41  U41         0.1241
   1310  O3'      -16.5160  -11.7600   -3.4250 O.3    41  U41        -0.3187
   1311  C2'      -15.3290  -10.2110   -1.9500 C.3    41  U41         0.1293
   1312  O2'      -14.7680  -11.3520   -1.3260 O.3    41  U41        -0.3846
   1313  C1'      -14.2020   -9.2240   -2.2220 C.3    41  U41         0.1680
   1314   N.1     -14.6600   -7.8220   -2.1580 N.ar   41  U41        -0.2715
   1315   C.2     -14.6540   -7.2030   -0.9160 C.ar   41  U41         0.3314
   1316   O.2     -14.3690   -7.7990    0.1210 O.2    41  U41        -0.2464
   1317   N.3     -14.9880   -5.8580   -0.8970 N.ar   41  U41        -0.2749
   1318   C4      -15.3300   -5.0970   -2.0010 C.ar   41  U41         0.2539
   1319   O4      -15.5690   -3.8980   -1.8830 O.2    41  U41        -0.2677
   1320   C5      -15.3710   -5.8430   -3.2370 C.ar   41  U41         0.0192
   1321   C6      -15.0650   -7.1580   -3.2780 C.ar   41  U41         0.0171
   1322  H5'      -13.5900  -10.5720   -6.0390 H      41  U41         0.0591
   1323 H5''      -15.2220  -11.2570   -5.9700 H      41  U41         0.0591
   1324  H4'      -13.9930  -11.5440   -3.8260 H      41  U41         0.0647
   1325  H3'      -16.4050   -9.7160   -3.7630 H      41  U41         0.0655
   1326  H2'      -16.1100   -9.7690   -1.3420 H      41  U41         0.0666
   1327 HO2'      -14.5500  -11.1320   -0.4130 H      41  U41         0.2101
   1328  H1'      -13.4360   -9.3220   -1.4640 H      41  U41         0.0867
   1329   H3      -14.9790   -5.3950    0.0000 H      41  U41         0.1734
   1330   H5      -15.6490   -5.3490   -4.1480 H      41  U41         0.0686
   1331   H6      -15.1340   -7.6910   -4.2120 H      41  U41         0.0813
   1332    P.3    -18.0780  -11.8380   -3.0320 P.3    42  U42         0.2131
   1333  OP1      -18.5240  -13.2410   -3.2040 O.3    42  U42        -0.4373
   1334  OP2      -18.7840  -10.7560   -3.7550 O.2    42  U42        -0.5172
   1335  O5'      -18.1100  -11.4860   -1.4610 O.3    42  U42        -0.3248
   1336  C5'      -17.6510  -12.4080   -0.4930 C.3    42  U42         0.0837
   1337  C4'      -17.6400  -11.7540    0.8900 C.3    42  U42         0.1139
   1338  O4'      -16.7980  -10.6120    0.9280 O.3    42  U42        -0.3456
   1339  C3'      -19.0140  -11.2750    1.3340 C.3    42  U42         0.1241
   1340  O3'      -19.8190  -12.3250    1.8320 O.3    42  U42        -0.3187
   1341  C2'      -18.6110  -10.2900    2.4250 C.3    42  U42         0.1293
   1342  O2'      -18.2270  -10.9740    3.6030 O.3    42  U42        -0.3846
   1343  C1'      -17.3640   -9.6530    1.8120 C.3    42  U42         0.1680
   1344   N.1     -17.7030   -8.4040    1.0990 N.ar   42  U42        -0.2715
   1345   C.2     -17.8230   -7.2410    1.8490 C.ar   42  U42         0.3314
   1346   O.2     -17.7150   -7.2290    3.0740 O.2    42  U42        -0.2464
   1347   N.3     -18.0720   -6.0770    1.1420 N.ar   42  U42        -0.2749
   1348   C4      -18.2010   -5.9770   -0.2330 C.ar   42  U42         0.2539
   1349   O4      -18.3910   -4.8880   -0.7670 O.2    42  U42        -0.2677
   1350   C5      -18.0940   -7.2430   -0.9220 C.ar   42  U42         0.0192
   1351   C6      -17.8830   -8.3930   -0.2520 C.ar   42  U42         0.0171
   1352  H5'      -16.6440  -12.7390   -0.7420 H      42  U42         0.0591
   1353 H5''      -18.3120  -13.2740   -0.4770 H      42  U42         0.0591
   1354  H4'      -17.2740  -12.4760    1.6220 H      42  U42         0.0647
   1355  H3'      -19.5100  -10.7540    0.5120 H      42  U42         0.0655
   1356  H2'      -19.3940   -9.5580    2.6240 H      42  U42         0.0666
   1357 HO2'      -18.9660  -11.5170    3.8990 H      42  U42         0.2101
   1358  H1'      -16.6370   -9.3990    2.5790 H      42  U42         0.0867
   1359   H3      -18.1690   -5.2260    1.6740 H      42  U42         0.1734
   1360   H5      -18.1790   -7.2830   -1.9930 H      42  U42         0.0686
   1361   H6      -17.8520   -9.3230   -0.7940 H      42  U42         0.0813
   1362    P.3    -21.4250  -12.2220    1.8020 P.3    43  C43         0.2131
   1363  OP1      -21.9760  -13.4560    2.4060 O.3    43  C43        -0.4373
   1364  OP2      -21.8310  -11.8370    0.4320 O.2    43  C43        -0.5172
   1365  O5'      -21.7540  -10.9890    2.7850 O.3    43  C43        -0.3248
   1366  C5'      -21.6770  -11.1290    4.1860 C.3    43  C43         0.0837
   1367  C4'      -22.1360   -9.8370    4.8670 C.3    43  C43         0.1139
   1368  O4'      -21.2660   -8.7450    4.6030 O.3    43  C43        -0.3456
   1369  C3'      -23.5210   -9.3970    4.4060 C.3    43  C43         0.1241
   1370  O3'      -24.5730  -10.1390    4.9960 O.3    43  C43        -0.3187
   1371  C2'      -23.4820   -7.9500    4.8770 C.3    43  C43         0.1293
   1372  O2'      -23.6370   -7.8630    6.2810 O.3    43  C43        -0.3846
   1373  C1'      -22.0460   -7.5560    4.5440 C.3    43  C43         0.1680
   1374   N.1     -21.9740   -6.9440    3.1960 N.ar   43  C43        -0.2700
   1375   C.2     -22.1770   -5.5750    3.1110 C.ar   43  C43         0.3522
   1376   O.2     -22.4090   -4.9170    4.1240 O.2    43  C43        -0.2444
   1377   N.3     -22.1160   -4.9720    1.8970 N.ar   43  C43        -0.1783
   1378   C4      -21.8660   -5.6910    0.8010 C.ar   43  C43         0.1230
   1379   N.4     -21.8130   -5.0590   -0.3680 N.pl3  43  C43        -0.3430
   1380   C5      -21.6560   -7.1030    0.8590 C.ar   43  C43        -0.0056
   1381   C6      -21.7190   -7.6860    2.0750 C.ar   43  C43         0.0152
   1382  H5'      -20.6540  -11.3540    4.4860 H      43  C43         0.0591
   1383 H5''      -22.3260  -11.9460    4.5040 H      43  C43         0.0591
   1384  H4'      -22.1670   -9.9960    5.9460 H      43  C43         0.0647
   1385  H3'      -23.5790   -9.4370    3.3190 H      43  C43         0.0655
   1386  H2'      -24.2090   -7.3300    4.3550 H      43  C43         0.0666
   1387 HO2'      -23.6860   -6.9320    6.5280 H      43  C43         0.2101
   1388  H1'      -21.7000   -6.8280    5.2790 H      43  C43         0.0867
   1389  H41      -21.9640   -4.0610   -0.4090 H      43  C43         0.1437
   1390  H42      -21.6220   -5.5790   -1.2090 H      43  C43         0.1437
   1391   H5      -21.4540   -7.7060   -0.0140 H      43  C43         0.0666
   1392   H6      -21.5660   -8.7520    2.1650 H      43  C43         0.0812
   1393    P.3    -26.0710  -10.0530    4.4080 P.3    44  C44         0.2131
   1394  OP1      -26.9320  -10.9510    5.2150 O.3    44  C44        -0.4373
   1395  OP2      -26.0010  -10.2360    2.9410 O.2    44  C44        -0.5172
   1396  O5'      -26.5170   -8.5350    4.7000 O.3    44  C44        -0.3248
   1397  C5'      -26.7830   -8.1000    6.0150 C.3    44  C44         0.0837
   1398  C4'      -27.0060   -6.5870    6.0390 C.3    44  C44         0.1139
   1399  O4'      -25.9010   -5.8730    5.5040 O.3    44  C44        -0.3456
   1400  C3'      -28.2090   -6.1410    5.2200 C.3    44  C44         0.1241
   1401  O3'      -29.4460   -6.3880    5.8570 O.3    44  C44        -0.3187
   1402  C2'      -27.8970   -4.6520    5.1280 C.3    44  C44         0.1293
   1403  O2'      -28.1560   -3.9990    6.3570 O.3    44  C44        -0.3846
   1404  C1'      -26.3860   -4.6790    4.9030 C.3    44  C44         0.1680
   1405   N.1     -26.1140   -4.6420    3.4500 N.ar   44  C44        -0.2700
   1406   C.2     -26.1570   -3.3990    2.8330 C.ar   44  C44         0.3522
   1407   O.2     -26.4570   -2.3890    3.4680 O.2    44  C44        -0.2444
   1408   N.3     -25.8600   -3.3120    1.5130 N.ar   44  C44        -0.1783
   1409   C4      -25.5500   -4.4090    0.8230 C.ar   44  C44         0.1230
   1410   N.4     -25.2440   -4.2690   -0.4600 N.pl3  44  C44        -0.3430
   1411   C5      -25.5390   -5.7070    1.4200 C.ar   44  C44        -0.0056
   1412   C6      -25.8320   -5.7740    2.7380 C.ar   44  C44         0.0152
   1413  H5'      -25.9450   -8.3470    6.6650 H      44  C44         0.0591
   1414 H5''      -27.6760   -8.5980    6.3910 H      44  C44         0.0591
   1415  H4'      -27.1590   -6.2690    7.0700 H      44  C44         0.0647
   1416  H3'      -28.1770   -6.6020    4.2320 H      44  C44         0.0655
   1417  H2'      -28.4280   -4.1750    4.3030 H      44  C44         0.0666
   1418 HO2'      -29.0860   -4.1170    6.5780 H      44  C44         0.2101
   1419  H1'      -25.9070   -3.8120    5.3590 H      44  C44         0.0867
   1420  H41      -25.2500   -3.3510   -0.8760 H      44  C44         0.1437
   1421  H42      -25.0080   -5.0720   -1.0140 H      44  C44         0.1437
   1422   H5      -25.3140   -6.6090    0.8730 H      44  C44         0.0666
   1423   H6      -25.8410   -6.7330    3.2370 H      44  C44         0.0812
   1424    P.3    -30.7780   -6.6340    4.9870 P.3    45  C45         0.2131
   1425  OP1      -31.9230   -6.7430    5.9200 O.3    45  C45        -0.4373
   1426  OP2      -30.5070   -7.7360    4.0360 O.2    45  C45        -0.5172
   1427  O5'      -30.9420   -5.2770    4.1410 O.3    45  C45        -0.3248
   1428  C5'      -31.3420   -4.0730    4.7620 C.3    45  C45         0.0836
   1429  C4'      -31.5050   -2.9670    3.7170 C.3    45  C45         0.1133
   1430  O4'      -30.2810   -2.6690    3.0640 O.3    45  C45        -0.3456
   1431  C3'      -32.4750   -3.3460    2.6060 C.3    45  C45         0.1135
   1432  O3'      -33.8330   -3.2300    2.9840 O.3    45  C45        -0.3864
   1433  C2'      -32.0910   -2.3130    1.5550 C.3    45  C45         0.1286
   1434  O2'      -32.7070   -1.0690    1.8280 O.3    45  C45        -0.3847
   1435  C1'      -30.5820   -2.1810    1.7640 C.3    45  C45         0.1680
   1436   N.1     -29.8940   -2.9640    0.7140 N.ar   45  C45        -0.2700
   1437   C.2     -29.7840   -2.3820   -0.5440 C.ar   45  C45         0.3522
   1438   O.2     -30.2560   -1.2680   -0.7620 O.2    45  C45        -0.2444
   1439   N.3     -29.1470   -3.0630   -1.5300 N.ar   45  C45        -0.1783
   1440   C4      -28.6470   -4.2780   -1.2980 C.ar   45  C45         0.1230
   1441   N.4     -28.0210   -4.9050   -2.2930 N.pl3  45  C45        -0.3430
   1442   C5      -28.7670   -4.9070   -0.0180 C.ar   45  C45        -0.0056
   1443   C6      -29.3920   -4.2130    0.9580 C.ar   45  C45         0.0152
   1444  H5'      -30.6000   -3.7680    5.4990 H      45  C45         0.0591
   1445 H5''      -32.2990   -4.2270    5.2650 H      45  C45         0.0591
   1446  H4'      -31.8690   -2.0640    4.2070 H      45  C45         0.0647
   1447  H3'      -32.2580   -4.3520    2.2430 H      45  C45         0.0647
   1448 HO3'      -34.0260   -2.2970    3.1280 H      45  C45         0.2100
   1449  H2'      -32.3260   -2.6670    0.5500 H      45  C45         0.0665
   1450 HO2'      -32.4770   -0.4480    1.1260 H      45  C45         0.2101
   1451  H1'      -30.2860   -1.1350    1.6850 H      45  C45         0.0867
   1452  H41      -27.9240   -4.4490   -3.1920 H      45  C45         0.1437
   1453  H42      -27.6460   -5.8300   -2.1490 H      45  C45         0.1437
   1454   H5      -28.3890   -5.8930    0.1920 H      45  C45         0.0666
   1455   H6      -29.4980   -4.6440    1.9440 H      45  C45         0.0812
@<TRIPOS>BOND
     1  1209  1208    2
     2  1242  1241    2
     3  1262  1245    1
     4  1230  1212    1
     5  1216  1241    1
     6  1216  1215    1
     7  1232  1213    1
     8  1261  1245    1
     9  1208  1211    1
    10  1208  1183    1
    11  1208  1210    1
    12  1241  1243    1
    13  1241  1244    1
    14  1202  1185    1
    15  1211  1212    1
    16  1245  1244    1
    17  1245  1246    1
    18  1272  1271    2
    19  1212  1213    1
    20  1212  1231    1
    21  1183  1182    1
    22  1213  1215    1
    23  1213  1214    1
    24  1185  1184    1
    25  1218  1235    1
    26  1218  1217    1
    27  1174  1161    1
    28  1215  1233    1
    29  1215  1217    1
    30  1263  1246    1
    31  1249  1271    1
    32  1249  1248    1
    33  1173  1161    1
    34   706   693    1
    35  1246  1248    1
    36  1246  1247    1
    37  1271  1273    1
    38  1271  1274    1
    39  1161  1160    1
    40  1199  1180    1
    41   708   695    1
    42  1217  1219    1
    43  1217  1234    1
    44  1292  1275    1
    45  1214  1219    1
    46  1182  1184    1
    47  1182  1180    1
    48  1182  1200    1
    49  1184  1201    1
    50  1184  1186    1
    51   694   695   ar
    52   694   692   ar
    53  1248  1264    1
    54  1248  1250    1
    55  1198  1179    1
    56  1291  1275    1
    57  1236  1219    1
    58   801   781    1
    59   693   692    1
    60   693   707    1
    61   695   696   ar
    62  1180  1179    1
    63  1180  1181    1
    64  1219  1220    1
    65    27     7    1
    66   770   752    1
    67  1247  1252    1
    68  1275  1274    1
    69  1275  1276    1
    70  1172  1159    1
    71    26     6    1
    72   799   780    1
    73   692   691   ar
    74  1266  1251    1
    75  1179  1178    1
    76  1179  1197    1
    77  1160  1159   ar
    78  1160  1162   ar
    79   752   751    1
    80   786   804    1
    81   786   785    1
    82  1203  1186    1
    83     4     2    2
    84   800   780    1
    85  1251  1250    1
    86   833   814    1
    87     8     7    1
    88     8    13    1
    89  1186  1181    1
    90  1186  1187    1
    91     7     6    1
    92     7     9    1
    93   781   780    1
    94   781   782    1
    95   781   783    1
    96  1159  1157   ar
    97  1250  1252    1
    98  1250  1265    1
    99  1207  1194    1
   100   780   779    1
   101  1178  1175    1
   102     6     5    1
   103     6    25    1
   104  1303  1302    2
   105   834   814    1
   106   646   645    2
   107  1195  1194   ar
   108  1195  1196   ar
   109    32    15    1
   110   784   783    1
   111   784   810    1
   112   636   617    1
   113   696   697   ar
   114   811   810    2
   115     5     2    1
   116  1252  1267    1
   117  1252  1253    1
   118  1293  1276    1
   119   782   787    1
   120   767   747    1
   121  1162  1163   ar
   122   719   736    1
   123   719   718    1
   124   606   591    1
   125     3     2    1
   126   835   815    1
   127  1270  1260    1
   128   741   728    1
   129     2     1    1
   130   320   303    1
   131   635   616    1
   132  1276  1278    1
   133  1276  1277    1
   134   805   787    1
   135   634   616    1
   136  1220  1221   ar
   137  1220  1229   ar
   138   814   815    1
   139   814   813    1
   140   774   762    1
   141  1177  1175    2
   142  1279  1302    1
   143  1279  1278    1
   144   771   753    1
   145   737   720    1
   146  1194  1193   ar
   147   691   697   ar
   148   691   690   ar
   149   591   590    1
   150   783   785    1
   151   783   802    1
   152   785   787    1
   153   785   803    1
   154   300   299    2
   155   319   303    1
   156   321   304    1
   157   620   645    1
   158   620   619    1
   159  1237  1221    1
   160  1168  1150    1
   161   751   769    1
   162   751   753    1
   163   751   749    1
   164  1304  1302    1
   165  1169  1151    1
   166   787   788    1
   167    10     9    1
   168    10    37    1
   169  1302  1305    1
   170   777   776    2
   171  1187  1196   ar
   172  1187  1188   ar
   173    15    14   ar
   174    15    16   ar
   175   697   688   ar
   176  1175  1176    1
   177  1175  1149    1
   178   616   617    1
   179   616   615    1
   180  1228  1229   ar
   181  1228  1227   ar
   182   810   813    1
   183   810   812    1
   184  1294  1278    1
   185   750   749    1
   186   750   776    1
   187    13    31    1
   188    13    14    1
   189    13    11    1
   190  1196  1190   ar
   191  1278  1280    1
   192     9    28    1
   193     9    11    1
   194   815   816    1
   195   815   817    1
   196   617   619    1
   197   617   618    1
   198   330   329    2
   199   729   728   ar
   200   729   730   ar
   201  1157  1158    2
   202  1157  1156   ar
   203   733   714    1
   204   303   304    1
   205   303   302    1
   206   645   647    1
   207   645   648    1
   208  1221  1222   ar
   209   753   748    1
   210   753   754    1
   211   779   776    1
   212   747   748    1
   213   747   749    1
   214   747   746    1
   215   728   727   ar
   216  1229  1223   ar
   217  1260  1253   ar
   218  1260  1259   ar
   219  1277  1282    1
   220  1151  1150    1
   221  1253  1254   ar
   222   613   612    2
   223   622   639    1
   224   622   621    1
   225    14    24   ar
   226   762   775    1
   227   762   761    1
   228    38    37    2
   229    39    37    1
   230    16    17   ar
   231  1301  1290    1
   232   749   768    1
   233   720   718    1
   234   720   715    1
   235   720   721    1
   236  1163  1156   ar
   237  1163  1153   ar
   238   816   821    1
   239   718   735    1
   240   718   716    1
   241   307   329    1
   242   307   306    1
   243   304   306    1
   244   304   305    1
   245   776   778    1
   246   290   273    1
   247   745   746    1
   248   745   742    1
   249   665   649    1
   250  1150  1148    1
   251  1150  1152    1
   252   690   689   ar
   253    37    40    1
   254   619   621    1
   255   619   637    1
   256   715   714    1
   257   666   649    1
   258   324   309    1
   259   763   761   ar
   260   763   764   ar
   261  1193  1191   ar
   262   607   592    1
   263   276   299    1
   264   276   275    1
   265  1240  1227    1
   266   618   623    1
   267     1    36    1
   268   818   817    1
   269   818   844    1
   270   299   302    1
   271   299   301    1
   272   590   605    1
   273   590   592    1
   274   590   588    1
   275    11    29    1
   276    11    12    1
   277   603   586    1
   278  1156  1155   ar
   279  1227  1226   ar
   280   714   716    1
   281   714   713    1
   282   595   594    2
   283   309   308    1
   284   589   612    1
   285   589   588    1
   286   293   278    1
   287   743   742    2
   288  1188  1204    1
   289  1188  1189   ar
   290   329   331    1
   291   329   332    1
   292   820   838    1
   293   820   819    1
   294   717   716    1
   295   717   742    1
   296   289   272    1
   297   688   689   ar
   298   688   687    1
   299   615   612    1
   300   746   765    1
   301   746   766    1
   302   761   760   ar
   303   817   819    1
   304   817   836    1
   305   649   648    1
   306   649   650    1
   307   788   789   ar
   308   788   798   ar
   309  1322  1306    1
   310   730   721   ar
   311   730   724   ar
   312  1170  1152    1
   313   727   725   ar
   314   704   687    1
   315  1269  1259    1
   316  1149  1148    1
   317  1190  1191   ar
   318  1190  1189   ar
   319   621   623    1
   320   621   638    1
   321  1323  1306    1
   322   845   844    2
   323   306   308    1
   324   306   322    1
   325  1305  1306    1
   326   612   614    1
   327  1259  1257   ar
   328   278   277    1
   329    24    17   ar
   330    24    23   ar
   331  1167  1148    1
   332   716   734    1
   333   305   310    1
   334  1280  1281    1
   335  1280  1282    1
   336  1280  1295    1
   337  1222  1223   ar
   338   353   333    1
   339    17    18   ar
   340  1296  1281    1
   341  1223  1224   ar
   342   352   333    1
   343   754   764   ar
   344   754   755   ar
   345   721   722   ar
   346  1290  1289   ar
   347  1290  1283   ar
   348   742   744    1
   349   288   272    1
   350   592   587    1
   351   592   593    1
   352  1148  1146    1
   353  1152  1153    1
   354  1152  1147    1
   355  1254  1255    2
   356  1254  1256   ar
   357  1153  1154   ar
   358  1300  1289    1
   359   689   705    1
   360   808   796    1
   361  1282  1297    1
   362  1282  1283    1
   363   273   272    1
   364   273   275    1
   365   273   274    1
   366   839   821    1
   367   731   713    1
   368   806   789    1
   369   640   623    1
   370  1191  1192    1
   371   821   819    1
   372   821   822    1
   373  1306  1307    1
   374   764   757   ar
   375   797   798   ar
   376   797   795   ar
   377   623   624    1
   378   588   586    1
   379   588   604    1
   380   272   271    1
   381    12    30    1
   382   819   837    1
   383   586   587    1
   384   586   585    1
   385   275   277    1
   386   275   291    1
   387   687   682    1
   388   687   685    1
   389   263   248    1
   390   308   310    1
   391   308   323    1
   392   844   846    1
   393   844   847    1
   394   333   332    1
   395   333   334    1
   396   713   732    1
   397   713   712    1
   398   789   790   ar
   399   866   848    1
   400   798   791   ar
   401   840   823    1
   402  1289  1287   ar
   403    23    21   ar
   404   325   310    1
   405    40    41    1
   406   594   593   ar
   407   594   596   ar
   408  1283  1284   ar
   409   248   247    1
   410  1226  1224   ar
   411    61    41    1
   412   310   311    1
   413  1155  1154   ar
   414   667   650    1
   415   294   279    1
   416   274   279    1
   417   725   724   ar
   418   725   726    1
   419   277   279    1
   420   277   292    1
   421   724   723   ar
   422    18    19    2
   423    18    20   ar
   424   682   681    1
   425   796   795    1
   426   796   809    1
   427   252   251    2
   428  1224  1225    1
   429   867   848    1
   430   760   773    1
   431   760   758   ar
   432   668   652    1
   433   650   652    1
   434   650   651    1
   435   703   686    1
   436   593   600   ar
   437  1154  1171    1
   438   269   268    2
   439  1256  1257   ar
   440  1256  1268    1
   441  1257  1258    2
   442   795   794   ar
   443   686   685    1
   444   755   772    1
   445   755   756   ar
   446   602   585    1
   447  1147  1146    1
   448   822   823   ar
   449   822   832   ar
   450   848   847    1
   451   848   849    1
   452   722   738    1
   453   722   723   ar
   454    41    60    1
   455    41    42    1
   456   279   280    1
   457  1192  1205    1
   458  1192  1206    1
   459   675   664    1
   460   823   824   ar
   461  1146  1166    1
   462  1146  1145    1
   463   641   625    1
   464    67    50    1
   465   585   601    1
   466   585   584    1
   467   757   758   ar
   468   757   756   ar
   469  1331  1321    1
   470   685   702    1
   471   685   683    1
   472   624   625   ar
   473   624   633   ar
   474   354   334    1
   475  1330  1320    1
   476   271   268    1
   477  1165  1145    1
   478   596   597   ar
   479    21    20   ar
   480    21    22    1
   481   328   318    1
   482  1307  1324    1
   483  1307  1308    1
   484  1307  1309    1
   485   262   247    1
   486   712   709    1
   487   790   791   ar
   488   652   654    1
   489   652   653    1
   490   264   249    1
   491   791   792   ar
   492    20    33    1
   493   334   335    1
   494   334   336    1
   495   669   654    1
   496   674   663    1
   497   247   249    1
   498   247   245    1
   499   739   726    1
   500   364   363    2
   501   726   740    1
   502   651   656    1
   503  1325  1309    1
   504  1334  1332    2
   505  1287  1288    1
   506  1287  1286   ar
   507   758   759    2
   508  1284  1285    2
   509  1284  1286   ar
   510   265   253    1
   511   625   626   ar
   512   268   246    1
   513   268   270    1
   514   337   363    1
   515   337   336    1
   516   311   318   ar
   517   311   312   ar
   518   251   253   ar
   519   251   250   ar
   520  1299  1288    1
   521  1145  1164    1
   522  1145  1144    1
   523  1308  1313    1
   524  1105  1093    1
   525   237   224    1
   526   246   245    1
   527  1225  1239    1
   528  1225  1238    1
   529  1310  1309    1
   530  1310  1332    1
   531   684   683    1
   532   684   709    1
   533   681   683    1
   534   681   700    1
   535   681   680    1
   536  1309  1311    1
   537   600   611    1
   538   600   599   ar
   539    50    51   ar
   540    50    49   ar
   541   868   849    1
   542   664   663   ar
   543   664   657   ar
   544    51    52   ar
   545    34    22    1
   546  1321  1320   ar
   547  1321  1314   ar
   548   318   317   ar
   549   794   792   ar
   550   794   807    1
   551  1320  1318   ar
   552  1106  1093    1
   553   249   250    1
   554   249   244    1
   555  1333  1332    1
   556   654   656    1
   557   654   655    1
   558  1452  1441    1
   559   832   831   ar
   560   832   825   ar
   561   575   560    1
   562    22    35    1
   563   824   825   ar
   564   365   363    1
   565   849   850    1
   566   849   851    1
   567   683   701    1
   568   335   340    1
   569   282   281    2
   570    63    44    1
   571   363   366    1
   572   653   676    1
   573   336   355    1
   574   336   338    1
   575   632   633   ar
   576   632   631   ar
   577   633   627   ar
   578   677   676    2
   579  1288  1298    1
   580   663   661   ar
   581  1332  1335    1
   582   584   581    1
   583   253   254   ar
   584    42    43    1
   585    42    44    1
   586    42    62    1
   587   698   680    1
   588   280   281   ar
   589   280   287   ar
   590    43    48    1
   591    73    71    2
   592   709   710    2
   593   709   711    1
   594   260   243    1
   595   792   793    2
   596  1093  1092    1
   597   831   829   ar
   598   245   243    1
   599   245   261    1
   600   564   563    2
   601   597   599   ar
   602   597   598    1
   603   560   559    1
   604   313   312    2
   605   850   855    1
   606   679   680    1
   607   679   676    1
   608   656   657    1
   609   656   671    1
   610  1132  1112    1
   611  1135  1117    1
   612   250   257   ar
   613   873   857    1
   614   680   699    1
   615   298   287    1
   616   312   314   ar
   617   359   342    1
   618   224   223   ar
   619   224   225   ar
   620   825   826   ar
   621   281   283   ar
   622    44    45    1
   623    44    46    1
   624   574   559    1
   625   599   610    1
   626  1117  1116    1
   627   676   678    1
   628   626   627   ar
   629   223   221   ar
   630   657   658   ar
   631  1144  1141    1
   632  1441  1453    1
   633  1441  1440    1
   634  1313  1314    1
   635  1313  1311    1
   636  1313  1328    1
   637   244   243    1
   638   243   242    1
   639   608   598    1
   640  1314  1315   ar
   641   655   670    1
   642   287   286   ar
   643    49    48    1
   644    49    59   ar
   645    45    71    1
   646   673   662    1
   647  1131  1111    1
   648   852   851    1
   649   852   877    1
   650  1318  1319    2
   651  1318  1317   ar
   652   317   327    1
   653   317   315   ar
   654  1360  1350    1
   655   851   869    1
   656   851   853    1
   657   627   628   ar
   658  1311  1326    1
   659  1311  1312    1
   660    52    53   ar
   661    52    59   ar
   662   582   581    2
   663   598   609    1
   664   559   561    1
   665   559   557    1
   666   235   222    1
   667   631   644    1
   668   631   630   ar
   669    71    72    1
   670    71    74    1
   671  1130  1111    1
   672    48    46    1
   673    48    66    1
   674    54    53    2
   675   339   338    1
   676   339   357    1
   677   340   338    1
   678   340   358    1
   679   340   341    1
   680   576   561    1
   681   338   356    1
   682  1115  1141    1
   683  1115  1114    1
   684   254   255    2
   685   254   256   ar
   686  1101  1083    1
   687   563   565   ar
   688   563   562   ar
   689   661   662    1
   690   661   660   ar
   691   581   558    1
   692   581   583    1
   693  1112  1111    1
   694  1112  1113    1
   695  1112  1114    1
   696   842   830    1
   697   387   367    1
   698   386   367    1
   699   857   858   ar
   700   857   856   ar
   701  1092  1094   ar
   702  1092  1091   ar
   703   366   367    1
   704   829   830    1
   705   829   828   ar
   706  1439  1440   ar
   707  1439  1437   ar
   708   225   226   ar
   709  1136  1118    1
   710   879   877    2
   711  1335  1336    1
   712   342   341   ar
   713   342   343   ar
   714  1111  1110    1
   715  1083  1082    1
   716   878   877    1
   717  1312  1327    1
   718   565   566   ar
   719   662   672    1
   720   855   872    1
   721   855   856    1
   722   855   853    1
   723   257   256   ar
   724   257   267    1
   725  1440  1442   ar
   726    53    55   ar
   727   314   315   ar
   728   314   326    1
   729    59    58   ar
   730  1390  1379    1
   731   204   191    1
   732   558   557    1
   733  1104  1091    1
   734    46    64    1
   735    46    47    1
   736   367   368    1
   737   877   880    1
   738   202   189    1
   739   221   222    1
   740   221   220   ar
   741   561   562    1
   742   561   556    1
   743  1141  1142    2
   744  1141  1143    1
   745  1094  1095   ar
   746  1116  1114    1
   747  1116  1118    1
   748  1116  1134    1
   749   283   284   ar
   750   826   828   ar
   751   826   827    2
   752   222   236    1
   753  1113  1118    1
   754   830   843    1
   755  1421  1410    1
   756   341   351   ar
   757   658   660   ar
   758   658   659    2
   759  1114  1133    1
   760  1350  1351   ar
   761  1350  1348   ar
   762  1315  1317   ar
   763  1315  1316    2
   764  1317  1329    1
   765   315   316    2
   766  1420  1410    1
   767   858   859   ar
   768   856   865   ar
   769    85    84   ar
   770    85    86   ar
   771   256   266    1
   772   853   854    1
   773   853   870    1
   774   286   284   ar
   775   286   297    1
   776   101    84    1
   777   259   242    1
   778   242   258    1
   779   242   241    1
   780  1118  1119    1
   781  1361  1351    1
   782  1349  1348    2
   783  1438  1437    2
   784   557   573    1
   785   557   555    1
   786  1352  1336    1
   787  1091  1089   ar
   788    88    87    2
   789   628   630   ar
   790   628   629    1
   791   562   569   ar
   792   854   871    1
   793   828   841    1
   794  1108  1107    2
   795  1437  1436   ar
   796   168   155    1
   797   343   344   ar
   798  1336  1353    1
   799  1336  1337    1
   800    74    75    1
   801   577   567    1
   802  1410  1409    1
   803   572   555    1
   804  1389  1379    1
   805  1379  1378    1
   806   136   122    1
   807  1102  1084    1
   808   226   220   ar
   809   226   217   ar
   810   284   285    1
   811  1100  1082    1
   812    84    83   ar
   813   135   122    1
   814  1351  1344   ar
   815  1348  1347   ar
   816   191   203    1
   817   191   190    1
   818   188   187    2
   819    47    65    1
   820   189   187   ar
   821   189   190   ar
   822  1082  1084    1
   823  1082  1080    1
   824   566   567    1
   825   566   568   ar
   826  1110  1107    1
   827   220   219   ar
   828  1442  1454    1
   829  1442  1443   ar
   830  1391  1380    1
   831   231   214    1
   832   556   555    1
   833   393   376    1
   834   241   238    1
   835   555   554    1
   836    55    68    1
   837    55    56   ar
   838  1139  1127    1
   839    58    56   ar
   840   122   121    1
   841   399   397    2
   842    86    87   ar
   843    86    93   ar
   844    87    89   ar
   845   567   578    1
   846   232   215    1
   847  1095  1085   ar
   848  1095  1088   ar
   849  1081  1107    1
   850  1081  1080    1
   851   169   155    1
   852   155   154    1
   853   215   214    1
   854   368   388    1
   855   368   369    1
   856   368   370    1
   857   351   344   ar
   858   351   350   ar
   859   880   881    1
   860   859   865   ar
   861   859   860   ar
   862  1107  1109    1
   863  1072  1059    1
   864   865   864   ar
   865   899   881    1
   866  1364  1362    2
   867   629   643    1
   868   629   642    1
   869  1084  1085    1
   870  1084  1079    1
   871   187   186   ar
   872   233   216    1
   873  1355  1339    1
   874   190   192   ar
   875  1098  1078    1
   876   569   568   ar
   877   569   580    1
   878  1449  1433    1
   879   389   370    1
   880  1119  1129   ar
   881  1119  1120   ar
   882  1128  1129   ar
   883  1128  1126   ar
   884  1089  1088   ar
   885  1089  1090    2
   886    94    75    1
   887   344   345   ar
   888  1436  1443   ar
   889  1436  1435    1
   890    56    57    1
   891   214   216    1
   892   214   212    1
   893    75    95    1
   894    75    76    1
   895  1378  1380   ar
   896  1378  1377   ar
   897  1409  1411   ar
   898  1409  1408   ar
   899  1380  1381   ar
   900  1422  1411    1
   901  1080  1078    1
   902  1080  1099    1
   903  1337  1338    1
   904  1337  1339    1
   905  1337  1354    1
   906   217   216    1
   907   217   218   ar
   908   568   579    1
   909  1338  1343    1
   910   369   374    1
   911   875   861    1
   912   371   370    1
   913   371   397    1
   914  1443  1455    1
   915   370   372    1
   916   398   397    1
   917   881   900    1
   918   881   882    1
   919  1085  1086   ar
   920   285   295    1
   921   285   296    1
   922   376   377   ar
   923   376   375   ar
   924  1127  1126    1
   925  1127  1140    1
   926    83    93   ar
   927    83    82    1
   928  1344  1343    1
   929  1344  1345   ar
   930   397   400    1
   931   216   211    1
   932  1450  1434    1
   933  1088  1087   ar
   934  1347  1359    1
   935  1347  1345   ar
   936   906   890    1
   937  1129  1122   ar
   938   350   348   ar
   939  1339  1340    1
   940  1339  1341    1
   941  1078  1079    1
   942  1078  1077    1
   943   377   378   ar
   944   219   218   ar
   945  1137  1120    1
   946    93    92   ar
   947    97    78    1
   948  1059  1058   ar
   949  1059  1060   ar
   950    77    76    1
   951    77    82    1
   952  1411  1412   ar
   953   864   863   ar
   954    89   102    1
   955    89    90   ar
   956   571   554    1
   957   546   536    1
   958  1126  1125   ar
   959  1058  1056   ar
   960   121   123   ar
   961   121   120   ar
   962   554   570    1
   963   554   553    1
   964  1408  1406   ar
   965   154   156   ar
   966   154   153   ar
   967   156   157   ar
   968  1120  1121   ar
   969  1433  1435    1
   970  1433  1434    1
   971  1433  1431    1
   972   860   861    1
   973   860   862   ar
   974   238   239    2
   975   238   213    1
   976   238   240    1
   977  1451  1435    1
   978   861   874    1
   979  1435  1430    1
   980   533   532    2
   981  1362  1340    1
   982  1362  1363    1
   983  1362  1365    1
   984  1343  1341    1
   985  1343  1358    1
   986   119   120   ar
   987   119   118   ar
   988    76    78    1
   989    76    96    1
   990   218   234    1
   991  1345  1346    2
   992   192   193   ar
   993  1377  1375   ar
   994   186   193   ar
   995   186   185   ar
   996  1070  1057    1
   997   890   891   ar
   998   890   889   ar
   999   891   892   ar
  1000   345   346    2
  1001   345   347   ar
  1002    82   100    1
  1003    82    80    1
  1004    57    70    1
  1005    57    69    1
  1006   534   532   ar
  1007   534   535   ar
  1008   107   105    2
  1009  1381  1392    1
  1010  1381  1374   ar
  1011   212   213    1
  1012   212   230    1
  1013   212   210    1
  1014   375   374    1
  1015   375   385   ar
  1016   426   415    1
  1017   553   550    1
  1018   374   372    1
  1019   374   392    1
  1020   123   124   ar
  1021   120   126   ar
  1022  1447  1431    1
  1023    78    80    1
  1024    78    79    1
  1025  1086  1087   ar
  1026  1086  1103    1
  1027  1060  1061   ar
  1028   536   535    1
  1029   536   547    1
  1030   883   882    1
  1031   883   888    1
  1032   882   901    1
  1033   882   884    1
  1034  1341  1356    1
  1035  1341  1342    1
  1036   372   390    1
  1037   372   373    1
  1038   425   414    1
  1039   193   183   ar
  1040   908   894    1
  1041   211   210    1
  1042   532   531   ar
  1043  1097  1077    1
  1044  1122  1121   ar
  1045  1122  1123   ar
  1046   348   347   ar
  1047   348   349    1
  1048   863   862   ar
  1049   863   876    1
  1050    90    92   ar
  1051    90    91    1
  1052  1431  1432    1
  1053  1431  1429    1
  1054   400   401    1
  1055  1077  1096    1
  1056  1077  1076    1
  1057   170   157    1
  1058   543   528    1
  1059   157   158   ar
  1060  1056  1057    1
  1061  1056  1055   ar
  1062   378   385   ar
  1063   378   379   ar
  1064  1412  1423    1
  1065  1412  1405   ar
  1066   153   152   ar
  1067   153   159   ar
  1068   902   884    1
  1069  1125  1138    1
  1070  1125  1123   ar
  1071  1365  1366    1
  1072  1057  1071    1
  1073   535   537   ar
  1074  1406  1405   ar
  1075  1406  1407    2
  1076   185   184   ar
  1077   347   360    1
  1078   118   134    1
  1079   118   117   ar
  1080  1395  1393    2
  1081  1432  1448    1
  1082    80    98    1
  1083    80    81    1
  1084   229   210    1
  1085   210   209    1
  1086  1430  1429    1
  1087   373   391    1
  1088   152   151   ar
  1089  1375  1374   ar
  1090  1375  1376    2
  1091    79   105    1
  1092   912   910    2
  1093   456   445    1
  1094   889   888    1
  1095   889   898   ar
  1096  1374  1373    1
  1097   544   529    1
  1098   385   384   ar
  1099   415   416   ar
  1100   415   413   ar
  1101   361   349    1
  1102   892   893   ar
  1103   892   898   ar
  1104   884   885    1
  1105   884   886    1
  1106   427   416    1
  1107  1385  1369    1
  1108   105   106    1
  1109   105   108    1
  1110  1123  1124    2
  1111   380   379    2
  1112   894   907    1
  1113   894   893    1
  1114   529   528    1
  1115   414   424    1
  1116   414   413    1
  1117  1405  1404    1
  1118   349   362    1
  1119   124   137    1
  1120   124   125   ar
  1121  1061  1055   ar
  1122  1061  1052   ar
  1123   126   117   ar
  1124   126   125   ar
  1125   888   905    1
  1126   888   886    1
  1127   528   530    1
  1128   528   526    1
  1129  1342  1357    1
  1130   379   381   ar
  1131  1066  1049    1
  1132   418   401    1
  1133   550   551    2
  1134   550   552    1
  1135   550   527    1
  1136   417   401    1
  1137  1076  1073    1
  1138  1429  1446    1
  1139  1429  1428    1
  1140   401   402    1
  1141   531   530    1
  1142   531   538   ar
  1143    91   104    1
  1144    91   103    1
  1145  1055  1054   ar
  1146   885   910    1
  1147   183   184   ar
  1148   183   182    1
  1149   545   530    1
  1150   416   409   ar
  1151   159   158   ar
  1152   159   150   ar
  1153   893   895   ar
  1154  1067  1050    1
  1155   184   201    1
  1156   898   897   ar
  1157   198   180    1
  1158   413   412   ar
  1159   117   116    1
  1160   457   446    1
  1161  1426  1424    2
  1162   445   455    1
  1163   445   444    1
  1164   506   505    2
  1165   537   538   ar
  1166   537   548    1
  1167  1050  1049    1
  1168   430   428    2
  1169  1427  1428    1
  1170  1427  1424    1
  1171   530   525    1
  1172  1366  1382    1
  1173  1366  1383    1
  1174  1366  1367    1
  1175   927   926    2
  1176   108   109    1
  1177  1416  1400    1
  1178    81    99    1
  1179   910   911    1
  1180   910   913    1
  1181  1068  1051    1
  1182   420   404    1
  1183  1417  1402    1
  1184  1036  1026    1
  1185  1386  1371    1
  1186   516   504    1
  1187   886   903    1
  1188   886   887    1
  1189  1369  1367    1
  1190  1369  1371    1
  1191  1369  1370    1
  1192  1393  1396    1
  1193  1393  1370    1
  1194  1393  1394    1
  1195   151   150   ar
  1196   151   167    1
  1197  1049  1051    1
  1198  1049  1047    1
  1199   209   208    1
  1200   209   228    1
  1201   209   227    1
  1202   538   549    1
  1203   384   382   ar
  1204  1373  1368    1
  1205  1373  1371    1
  1206  1373  1388    1
  1207   200   182    1
  1208   208   205    1
  1209   924   923   ar
  1210   924   925   ar
  1211   476   475    2
  1212   527   526    1
  1213  1368  1367    1
  1214   542   526    1
  1215   526   524    1
  1216  1396  1397    1
  1217  1052  1051    1
  1218  1052  1053   ar
  1219  1428  1445    1
  1220  1428  1444    1
  1221   961   960    2
  1222  1005   995    1
  1223   182   180    1
  1224   182   177    1
  1225  1367  1384    1
  1226   940   923    1
  1227  1371  1372    1
  1228  1404  1402    1
  1229  1404  1419    1
  1230  1404  1399    1
  1231  1051  1046    1
  1232   150   149    1
  1233   180   181    1
  1234   180   178    1
  1235   381   382   ar
  1236   381   394    1
  1237  1424  1401    1
  1238  1424  1425    1
  1239   446   444   ar
  1240   446   447   ar
  1241   402   403    1
  1242   402   404    1
  1243   402   419    1
  1244   505   504   ar
  1245   505   507   ar
  1246  1074  1073    2
  1247   130   112    1
  1248   504   502   ar
  1249  1402  1400    1
  1250  1402  1403    1
  1251   444   443   ar
  1252  1054  1053   ar
  1253   403   408    1
  1254  1073  1048    1
  1255  1073  1075    1
  1256  1006   995    1
  1257   404   405    1
  1258   404   406    1
  1259  1400  1401    1
  1260  1400  1398    1
  1261   409   408    1
  1262   409   410   ar
  1263   895   896   ar
  1264  1026  1037    1
  1265  1026  1025    1
  1266   887   904    1
  1267   926   925   ar
  1268   926   928   ar
  1269   923   922   ar
  1270   897   896   ar
  1271   412   410   ar
  1272   382   383    1
  1273   181   199    1
  1274   116   111    1
  1275   116   133    1
  1276   116   114    1
  1277   428   405    1
  1278   428   429    1
  1279   428   431    1
  1280   925   932   ar
  1281   995   994    1
  1282   913   914    1
  1283  1399  1398    1
  1284   111   110    1
  1285   140   138    2
  1286   525   524    1
  1287   109   127    1
  1288   109   128    1
  1289   109   110    1
  1290   197   178    1
  1291  1053  1069    1
  1292  1048  1047    1
  1293   207   205    2
  1294   475   477   ar
  1295   475   474   ar
  1296  1047  1065    1
  1297  1047  1045    1
  1298  1024  1025   ar
  1299  1024  1022   ar
  1300   896   909    1
  1301   131   114    1
  1302   487   477    1
  1303   524   541    1
  1304   524   523    1
  1305   408   406    1
  1306   408   423    1
  1307   205   179    1
  1308   205   206    1
  1309   410   411    2
  1310  1397  1398    1
  1311  1397  1414    1
  1312  1397  1413    1
  1313   178   179    1
  1314   178   176    1
  1315   960   962   ar
  1316   960   959   ar
  1317  1398  1415    1
  1318   458   447    1
  1319   112   110    1
  1320   112   114    1
  1321   112   113    1
  1322   486   474    1
  1323   164   147    1
  1324  1025  1027   ar
  1325   447   440   ar
  1326   177   176    1
  1327   503   502    2
  1328   502   501   ar
  1329   507   517    1
  1330   507   508   ar
  1331   975   962    1
  1332   110   129    1
  1333   114   115    1
  1334  1046  1045    1
  1335  1372  1387    1
  1336   406   421    1
  1337   406   407    1
  1338   443   441   ar
  1339  1023  1022    2
  1340  1403  1418    1
  1341   149   166    1
  1342   149   147    1
  1343   149   144    1
  1344   941   928    1
  1345   477   478   ar
  1346   928   929   ar
  1347   474   472   ar
  1348   431   432    1
  1349   163   145    1
  1350   922   932   ar
  1351   922   921    1
  1352   958   959   ar
  1353   958   957   ar
  1354   933   914    1
  1355  1064  1045    1
  1356  1022  1021   ar
  1357   383   395    1
  1358   383   396    1
  1359   962   963   ar
  1360   932   931   ar
  1361  1045  1044    1
  1362   914   934    1
  1363   914   915    1
  1364   994   993   ar
  1365   994   996   ar
  1366   173   171    2
  1367   147   145    1
  1368   147   148    1
  1369   959   966   ar
  1370   138   141    1
  1371   138   113    1
  1372   138   139    1
  1373   176   196    1
  1374   176   175    1
  1375   936   917    1
  1376   141   142    1
  1377   513   498    1
  1378   522   523    1
  1379   522   519    1
  1380   144   143    1
  1381   993   991   ar
  1382   174   171    1
  1383   174   175    1
  1384   508   501   ar
  1385   508   518    1
  1386   523   540    1
  1387   523   539    1
  1388   501   500    1
  1389   916   915    1
  1390   916   921    1
  1391   440   441   ar
  1392   440   439    1
  1393   461   459    2
  1394   145   143    1
  1395   145   146    1
  1396  1027  1038    1
  1397  1027  1028   ar
  1398  1007   996    1
  1399   451   435    1
  1400   441   442    2
  1401   946   944    2
  1402   407   422    1
  1403   115   132    1
  1404   929   931   ar
  1405   929   930    1
  1406   478   488    1
  1407   478   471   ar
  1408   996   997   ar
  1409   915   917    1
  1410   915   935    1
  1411   921   939    1
  1412   921   919    1
  1413   521   519    2
  1414   957   974    1
  1415   957   956   ar
  1416   472   471   ar
  1417   472   473    2
  1418  1033  1018    1
  1419   171   146    1
  1420   171   172    1
  1421   175   195    1
  1422   175   194    1
  1423  1021  1028   ar
  1424  1021  1020    1
  1425   432   449    1
  1426   432   448    1
  1427   432   433    1
  1428   917   919    1
  1429   917   918    1
  1430   148   165    1
  1431   977   964    1
  1432   143   142    1
  1433   143   162    1
  1434   963   964    1
  1435   963   965   ar
  1436   498   500    1
  1437   498   499    1
  1438   498   496    1
  1439  1044  1043    1
  1440  1044  1063    1
  1441  1044  1062    1
  1442   142   160    1
  1443   142   161    1
  1444   512   496    1
  1445   966   956   ar
  1446   966   965   ar
  1447   519   520    1
  1448   519   497    1
  1449  1028  1039    1
  1450  1043  1040    1
  1451   500   515    1
  1452   500   495    1
  1453   471   470    1
  1454   434   439    1
  1455   434   433    1
  1456   991   992    2
  1457   991   990   ar
  1458   435   433    1
  1459   435   437    1
  1460   435   436    1
  1461   937   919    1
  1462   943   930    1
  1463   919   920    1
  1464  1035  1020    1
  1465   964   976    1
  1466   439   437    1
  1467   439   454    1
  1468   452   437    1
  1469   930   942    1
  1470   514   499    1
  1471   433   450    1
  1472   918   944    1
  1473   956   955    1
  1474  1018  1020    1
  1475  1018  1019    1
  1476  1018  1016    1
  1477   496   497    1
  1478   496   494    1
  1479   459   436    1
  1480   459   462    1
  1481   459   460    1
  1482  1020  1015    1
  1483   944   947    1
  1484   944   945    1
  1485   491   489    2
  1486   997   990   ar
  1487   997  1008    1
  1488   437   438    1
  1489   482   466    1
  1490  1019  1034    1
  1491   483   468    1
  1492   462   463    1
  1493   990   989    1
  1494   495   494    1
  1495   947   948    1
  1496  1042  1040    2
  1497  1032  1016    1
  1498   492   489    1
  1499   492   493    1
  1500  1040  1017    1
  1501  1040  1041    1
  1502   470   468    1
  1503   470   485    1
  1504   470   465    1
  1505   920   938    1
  1506  1016  1017    1
  1507  1016  1014    1
  1508   494   493    1
  1509   494   511    1
  1510   468   466    1
  1511   468   469    1
  1512   970   951    1
  1513   489   467    1
  1514   489   490    1
  1515   466   467    1
  1516   466   464    1
  1517  1015  1014    1
  1518   955   950    1
  1519   955   973    1
  1520   955   953    1
  1521   465   464    1
  1522  1002   987    1
  1523   971   953    1
  1524   438   453    1
  1525   980   978    2
  1526   950   949    1
  1527   493   510    1
  1528   493   509    1
  1529   463   464    1
  1530   463   480    1
  1531   463   479    1
  1532   989  1004    1
  1533   989   987    1
  1534   989   984    1
  1535   464   481    1
  1536   948   967    1
  1537   948   949    1
  1538   948   968    1
  1539  1014  1031    1
  1540  1014  1013    1
  1541   953   951    1
  1542   953   954    1
  1543   951   949    1
  1544   951   952    1
  1545  1001   985    1
  1546   484   469    1
  1547   987   985    1
  1548   987   988    1
  1549   949   969    1
  1550  1012  1013    1
  1551  1012  1009    1
  1552  1011  1009    2
  1553   984   983    1
  1554   981   978    1
  1555   981   982    1
  1556   978   952    1
  1557   978   979    1
  1558   985   983    1
  1559   985   986    1
  1560  1013  1030    1
  1561  1013  1029    1
  1562   988  1003    1
  1563   972   954    1
  1564  1009   986    1
  1565  1009  1010    1
  1566   983   982    1
  1567   983  1000    1
  1568   982   998    1
  1569   982   999    1
