2f4s_lig
 OpenBabel02221317003D

 22 23  0  0  1  0  0  0  0  0999 V2000
   26.3000   17.4600   35.2140 N   0  0  0  0  0  0  0  0  0  0  0  0
   23.7580   15.7050   39.1680 N   0  0  0  0  0  0  0  0  0  0  0  0
   23.0120   11.3160   38.4850 N   0  0  0  0  0  0  0  0  0  0  0  0
   21.8610   15.3700   34.5550 O   0  0  0  0  0  0  0  0  0  0  0  0
   22.6590   16.1640   35.4800 C   0  0  2  0  0  0  0  0  0  0  0  0
   18.5240   15.8930   37.2950 N   0  0  0  0  0  0  0  0  0  0  0  0
   23.9990   17.0640   33.6210 O   0  0  0  0  0  0  0  0  0  0  0  0
   24.0760   16.4040   34.8900 C   0  0  1  0  0  0  0  0  0  0  0  0
   21.4800   15.2960   37.4460 O   0  0  0  0  0  0  0  0  0  0  0  0
   24.9280   17.2580   35.8210 C   0  0  1  0  0  0  0  0  0  0  0  0
   20.9940   13.0370   37.3700 O   0  0  0  0  0  0  0  0  0  0  0  0
   25.0470   16.5560   37.2160 C   0  0  0  0  0  0  0  0  0  0  0  0
   19.8080   12.7310   40.8320 O   0  0  0  0  0  0  0  0  0  0  0  0
   23.5970   16.3620   37.8050 C   0  0  1  0  0  0  0  0  0  0  0  0
   17.8580   14.4700   39.6990 O   0  0  0  0  0  0  0  0  0  0  0  0
   22.7740   15.4450   36.8820 C   0  0  2  0  0  0  0  0  0  0  0  0
   20.5170   14.3870   36.9430 C   0  0  1  0  0  0  0  0  0  0  0  0
   21.1040   12.8050   38.8380 C   0  0  2  0  0  0  0  0  0  0  0  0
   21.6320   11.3850   39.0640 C   0  0  0  0  0  0  0  0  0  0  0  0
   19.7250   12.9450   39.4430 C   0  0  2  0  0  0  0  0  0  0  0  0
   19.1680   14.3340   39.1360 C   0  0  1  0  0  0  0  0  0  0  0  0
   19.1010   14.5350   37.6020 C   0  0  1  0  0  0  0  0  0  0  0  0
  5  4  1  6  0  0  0
  5  8  1  0  0  0  0
  5 16  1  0  0  0  0
  8  7  1  1  0  0  0
  8 10  1  0  0  0  0
 10  1  1  6  0  0  0
 10 12  1  0  0  0  0
 11 18  1  0  0  0  0
 12 14  1  0  0  0  0
 14  2  1  6  0  0  0
 14 16  1  0  0  0  0
 16  9  1  1  0  0  0
 17  9  1  1  0  0  0
 17 11  1  0  0  0  0
 17 22  1  0  0  0  0
 18 19  1  6  0  0  0
 18 20  1  0  0  0  0
 19  3  1  0  0  0  0
 20 13  1  1  0  0  0
 20 21  1  0  0  0  0
 21 15  1  6  0  0  0
 21 22  1  0  0  0  0
 22  6  1  1  0  0  0
M  END
$$$$
